data_PCOD8032941
_publ_section_title
;
Structure prediction by ZEFSAII (Michael W. Deem and Ramdas Pophale) SiO2 
 PCOD8032941
Probable space group: P -1
;
_chemical_formula_sum "Si O2"
_cell_formula_units_Z 16
_cell_length_a 11.491754
_cell_length_b 15.402255
_cell_length_c 15.152346
_cell_angle_alpha 151.058912
_cell_angle_beta 58.644016
_cell_angle_gamma 139.764504
_cell_volume 738.797656
_symmetry_space_group_name_H-M "P -1"
_symmetry_group_IT_number 2
_symmetry_cell_setting 'triclinic'
loop_
_space_group_symop_operation_xyz
x,y,z
-x,-y,-z
loop_
_atom_site_type_symbol
_atom_site_label
_atom_site_fract_x
_atom_site_fract_y
_atom_site_fract_z
Si Si1 0.936601 0.431146 0.755876
Si Si2 0.633615 0.406675 0.927369
Si Si3 0.647099 0.434215 0.634395
Si Si4 0.346847 0.177449 0.675852
Si Si5 0.587730 0.637452 0.683084
Si Si6 0.640137 0.046275 0.228452
Si Si7 0.612185 0.202638 0.054563
Si Si8 0.042428 0.798694 0.892066
O O1 0.807633 0.425883 0.870560
O O2 0.151344 0.607340 0.873571
O O3 0.963083 0.548863 0.755162
O O4 0.837376 0.140158 0.519704
O O5 0.528523 0.306504 0.784896
O O6 0.466931 0.201982 0.885914
O O7 0.734104 0.699363 0.167764
O O8 0.438218 0.247273 0.604368
O O9 0.602319 0.477912 0.596634
O O10 0.843871 0.712848 0.856602
O O11 0.713810 0.292041 0.471551
O O12 0.500000 0.500000 0.500000
O O13 0.428686 0.624115 0.773983
O O14 0.818399 0.948050 0.869366
O O15 0.826463 0.130656 0.181807
O O16 0.479093 0.964578 0.148255
O O17 0.500000 0.000000 0.000000
#
# Coordination Sequence:
#
# PCOD8032941 Si02
#       8
#     2   2   2   2   2   2   2   2
#     4  12  23  45  73  99 139 185 233 281 354 418
#     4  11  24  45  70  98 146 178 233 291 355 408
#     4  12  23  44  72 104 141 181 239 288 352 418
#     4  11  24  44  69 105 138 185 227 294 352 420
#     4  11  25  43  67 103 144 181 232 292 349 414
#     4  11  23  44  69 102 138 187 230 295 352 406
#     4  11  23  46  65  95 141 185 226 284 354 418
#     4  11  24  43  72 105 140 182 235 292 353 410
#
# _framework density 21.65681
#
# number of rings (size 3 to 8) (size 9 to 14) (size 15 to 20)
#    0.000    0.750    5.000    4.125    0.000    1.500 
#    0.000    1.250    0.000    0.000    0.000    0.000 
#    0.000    0.000    0.000    0.000    0.000    0.000 
#
# Total GULP energy -198416.748380 kJ/mol
# GULP energy per Si atom -12401.046774 kJ/mol
# Density = 2.160752 g / cm^3
# Si number density = 21.656810 Si / 1000 Ang^3
#
#
#
# Elastic Constant Matrix: (Units=GPa)
#
#
# Indices 1 2 3 4 5 6 
#
# 1 99.1287 25.6306 33.0068 7.2767 5.7440 -5.1966
# 2 25.6306 110.7563 37.9206 16.7738 -3.4222 -9.4311
# 3 33.0068 37.9206 117.9393 10.6184 -2.4100 -5.4652
# 4 7.2767 16.7738 10.6184 29.2641 -8.1639 -1.8973
# 5 5.7440 -3.4222 -2.4100 -8.1639 35.3776 -1.7480
# 6 -5.1966 -9.4311 -5.4652 -1.8973 -1.7480 42.3614
#
#
#
# Elastic Compliance Matrix: (Units=1/GPa)
#
#
# Indices 1 2 3 4 5 6 
#
# 1 0.011679 -0.001570 -0.002634 -0.001737 -0.002601 0.000558
# 2 -0.001570 0.011191 -0.002632 -0.004926 0.000108 0.001743
# 3 -0.002634 -0.002632 0.010214 -0.001358 0.000574 0.000371
# 4 -0.001737 -0.004926 -0.001358 0.040503 0.009094 0.000704
# 5 -0.002601 0.000108 0.000574 0.009094 0.030909 0.001462
# 6 0.000558 0.001743 0.000371 0.000704 0.001462 0.024203
#
#
# Mechanical properties :
#
#
# Convention : Reuss Voigt Hill
#
# Bulk Modulus (GPa) = 51.52107 57.88223 54.70165
# Shear Modulus (GPa) = 33.59266 36.81838 35.20552
#
# Velocity S-wave (km/s) = 3.94272 4.12768 4.03626
# Velocity P-wave (km/s) = 6.67594 7.03577 6.85821
#
# Compressibility (1/GPa) = 0.01940953
#
# Stress axis : x y z
#
# Youngs Moduli (GPa) = 85.62684 89.35516 97.90720
#
# Poissons Ratio (x) = 0.14032 0.25792
# Poissons Ratio (y) = 0.13447 0.25772
# Poissons Ratio (z) = 0.22557 0.23521
#
# Static dielectric constant tensor:
#      x y z
#    x 4.031950 -0.085730 0.041860 
#    y -0.085730 3.880710 0.111710 
#    z 0.041860 0.111710 4.130850 
# 
# 
# High freq. dielectric constant tensor:
#      x y z
#    x 1.854070 -0.007730 -0.003240 
#    y -0.007730 1.850380 0.003130 
#    z -0.003240 0.003130 1.853630 
# 
# From -- ./inp_files/455494.got.cif
#   From: 2010.06.25/outbox.cif.g09.slc.cpg/sg2_228_cif.got.tgz:455494.got - 2010.06.27 13:26:56.
