data_PCOD8032016
_publ_section_title
;
Structure prediction by ZEFSAII (Michael W. Deem and Ramdas Pophale) SiO2 
 PCOD8032016
Probable space group: P -1
;
_chemical_formula_sum "Si O2"
_cell_formula_units_Z 12
_cell_length_a 11.567326
_cell_length_b 14.168000
_cell_length_c 14.431436
_cell_angle_alpha 150.274763
_cell_angle_beta 151.281160
_cell_angle_gamma 29.973126
_cell_volume 506.213471
_symmetry_space_group_name_H-M "P -1"
_symmetry_group_IT_number 2
_symmetry_cell_setting 'triclinic'
loop_
_space_group_symop_operation_xyz
x,y,z
-x,-y,-z
loop_
_atom_site_type_symbol
_atom_site_label
_atom_site_fract_x
_atom_site_fract_y
_atom_site_fract_z
Si Si1 0.909718 0.727249 0.842655
Si Si2 0.194367 0.948612 0.793429
Si Si3 0.167927 0.270342 0.695385
Si Si4 0.643197 0.172777 0.806010
Si Si5 0.216836 0.262563 0.935456
Si Si6 0.760008 0.726238 0.544662
O O1 0.695135 0.752120 0.631948
O O2 0.970623 0.520399 0.769473
O O3 0.168749 0.708450 0.948558
O O4 0.818114 0.927314 0.014971
O O5 0.983499 0.851255 0.563958
O O6 0.128638 0.102210 0.789796
O O7 0.498703 0.763622 0.845526
O O8 0.431289 0.231471 0.789872
O O9 0.244222 0.197026 0.791351
O O10 0.506266 0.249476 0.674546
O O11 0.823971 0.917816 0.716049
O O12 0.000000 0.500000 0.000000
O O13 0.000000 0.500000 0.500000
#
# Coordination Sequence:
#
# PCOD8032016 Si02
#       6
#     2   2   2   2   2   2
#     4  12  25  45  72 104 145 188 228 281 346 414
#     4  11  26  48  73 103 141 178 235 292 346 413
#     4  12  25  46  73 106 140 187 230 285 348 411
#     4  11  25  45  67 103 149 186 230 277 341 418
#     4  11  25  51  75 102 135 183 233 294 356 408
#     4  11  23  40  65  96 135 189 234 273 333 398
#
# _framework density 23.705413
#
# number of rings (size 3 to 8) (size 9 to 14) (size 15 to 20)
#    0.000    0.667    3.333    4.500    0.000    3.333 
#    6.000    0.000    0.000    0.000    0.000    0.000 
#    0.000    0.000    0.000    0.000    0.000    0.000 
#
# Total GULP energy -148814.825241 kJ/mol
# GULP energy per Si atom -12401.235437 kJ/mol
# Density = 2.365146 g / cm^3
# Si number density = 23.705413 Si / 1000 Ang^3
#
#
#
# Elastic Constant Matrix: (Units=GPa)
#
#
# Indices 1 2 3 4 5 6 
#
# 1 122.8208 36.4529 41.3773 -7.1297 -14.5621 4.6317
# 2 36.4529 154.8695 37.9519 11.2665 -4.9435 15.7321
# 3 41.3773 37.9519 71.2899 9.9245 -14.6378 1.0859
# 4 -7.1297 11.2665 9.9245 28.6723 4.3827 -5.9313
# 5 -14.5621 -4.9435 -14.6378 4.3827 41.5225 -6.6747
# 6 4.6317 15.7321 1.0859 -5.9313 -6.6747 35.2645
#
#
#
# Elastic Compliance Matrix: (Units=1/GPa)
#
#
# Indices 1 2 3 4 5 6 
#
# 1 0.011094 -0.001511 -0.006187 0.005443 0.001039 0.000519
# 2 -0.001511 0.008211 -0.003193 -0.003191 -0.000999 -0.004092
# 3 -0.006187 -0.003193 0.021760 -0.008495 0.006229 0.001317
# 4 0.005443 -0.003191 -0.008495 0.042656 -0.004805 0.007235
# 5 0.001039 -0.000999 0.006229 -0.004805 0.027766 0.004564
# 6 0.000519 -0.004092 0.001317 0.007235 0.004564 0.032155
#
#
# Mechanical properties :
#
#
# Convention : Reuss Voigt Hill
#
# Bulk Modulus (GPa) = 51.85843 64.50494 58.18169
# Shear Modulus (GPa) = 29.09497 36.63841 32.86669
#
# Velocity S-wave (km/s) = 3.50716 3.93564 3.72756
# Velocity P-wave (km/s) = 6.19063 6.92261 6.56683
#
# Compressibility (1/GPa) = 0.01928327
#
# Stress axis : x y z
#
# Youngs Moduli (GPa) = 90.13653 121.78777 45.95609
#
# Poissons Ratio (x) = 0.18398 0.28435
# Poissons Ratio (y) = 0.13616 0.14674
# Poissons Ratio (z) = 0.55770 0.38887
#
# Static dielectric constant tensor:
#      x y z
#    x 4.293450 0.249170 -0.132780 
#    y 0.249170 4.540630 -0.048320 
#    z -0.132780 -0.048320 4.230900 
# 
# 
# High freq. dielectric constant tensor:
#      x y z
#    x 1.936790 0.015460 -0.018270 
#    y 0.015460 1.957400 0.001520 
#    z -0.018270 0.001520 1.933630 
# 
# From -- ./inp_files/521974.got.cif
#   From: 2010.06.25/outbox.cif.g09.slc.cpg/sg2_261_cif.got.tgz:521974.got - 2010.06.27 13:26:56.
