data_PCOD8032439
_publ_section_title
;
Structure prediction by ZEFSAII (Michael W. Deem and Ramdas Pophale) SiO2 
 PCOD8032439
Probable space group: P -1
;
_chemical_formula_sum "Si O2"
_cell_formula_units_Z 14
_cell_length_a 11.810349
_cell_length_b 17.890614
_cell_length_c 9.684208
_cell_angle_alpha 41.645197
_cell_angle_beta 128.696728
_cell_angle_gamma 152.953568
_cell_volume 612.754590
_symmetry_space_group_name_H-M "P -1"
_symmetry_group_IT_number 2
_symmetry_cell_setting 'triclinic'
loop_
_space_group_symop_operation_xyz
x,y,z
-x,-y,-z
loop_
_atom_site_type_symbol
_atom_site_label
_atom_site_fract_x
_atom_site_fract_y
_atom_site_fract_z
Si Si1 0.703703 0.832528 0.861907
Si Si2 0.131247 0.231262 0.493048
Si Si3 0.094340 0.269135 0.830007
Si Si4 0.423226 0.029889 0.274188
Si Si5 0.840444 0.348604 0.963840
Si Si6 0.813080 0.607149 0.967284
Si Si7 0.358725 0.552124 0.419212
O O1 0.582174 0.840437 0.869630
O O2 0.471724 0.615842 0.918512
O O3 0.883887 0.848326 0.041299
O O4 0.860728 0.004171 0.632049
O O5 0.167485 0.365389 0.428674
O O6 0.351656 0.283161 0.629969
O O7 0.151983 0.279274 0.283322
O O8 0.096357 0.274612 0.988506
O O9 0.324315 0.484522 0.642148
O O10 0.847820 0.172755 0.712768
O O11 0.500000 0.000000 0.500000
O O12 0.625391 0.135331 0.162745
O O13 0.703350 0.356579 0.758368
O O14 0.009461 0.386622 0.934607
O O15 0.000000 0.500000 0.000000
#
# Coordination Sequence:
#
# PCOD8032439 Si02
#       7
#     2   2   2   2   2   2   2
#     4  12  24  45  76 101 141 190 233 278 355 416
#     4  11  23  43  73 102 138 183 237 288 337 423
#     4  12  27  46  70 107 144 178 233 299 346 409
#     4  12  25  46  74 105 135 187 241 286 341 427
#     4  12  23  44  71  99 139 190 230 282 352 416
#     4  12  27  48  68 105 150 179 229 295 354 406
#     4  11  23  42  70 105 139 181 239 289 338 414
#
# _framework density 22.847646000000001
#
# number of rings (size 3 to 8) (size 9 to 14) (size 15 to 20)
#    0.000    0.286    5.714    3.429    2.000    1.714 
#    2.571    0.000    0.000    0.000    0.000    0.000 
#    0.000    0.000    0.000    0.000    0.000    0.000 
#
# Total GULP energy -173635.550154 kJ/mol
# GULP energy per Si atom -12402.539297 kJ/mol
# Density = 2.279564 g / cm^3
# Si number density = 22.847646 Si / 1000 Ang^3
#
#
#
# Elastic Constant Matrix: (Units=GPa)
#
#
# Indices 1 2 3 4 5 6 
#
# 1 85.1330 16.4674 32.0694 2.1530 -1.5053 17.5631
# 2 16.4674 73.9976 24.9461 -7.9893 -10.0141 23.5573
# 3 32.0694 24.9461 133.7307 -3.3075 -5.7818 15.1023
# 4 2.1530 -7.9893 -3.3075 36.5182 6.3028 -8.3055
# 5 -1.5053 -10.0141 -5.7818 6.3028 44.2347 4.3225
# 6 17.5631 23.5573 15.1023 -8.3055 4.3225 33.6238
#
#
#
# Elastic Compliance Matrix: (Units=1/GPa)
#
#
# Indices 1 2 3 4 5 6 
#
# 1 0.014322 -0.000221 -0.002620 -0.002936 0.001200 -0.007029
# 2 -0.000221 0.019073 -0.001792 0.000123 0.005339 -0.013098
# 3 -0.002620 -0.001792 0.008624 0.000116 0.000745 -0.001317
# 4 -0.002936 0.000123 0.000116 0.030723 -0.005380 0.009676
# 5 0.001200 0.005339 0.000745 -0.005380 0.025631 -0.009325
# 6 -0.007029 -0.013098 -0.001317 0.009676 -0.009325 0.046769
#
#
# Mechanical properties :
#
#
# Convention : Reuss Voigt Hill
#
# Bulk Modulus (GPa) = 30.53175 48.86970 39.70072
# Shear Modulus (GPa) = 30.24338 37.50057 33.87197
#
# Velocity S-wave (km/s) = 3.64221 4.05573 3.85452
# Velocity P-wave (km/s) = 5.57493 6.58542 6.10113
#
# Compressibility (1/GPa) = 0.03275279
#
# Stress axis : x y z
#
# Youngs Moduli (GPa) = 69.82508 52.43058 115.95492
#
# Poissons Ratio (x) = 0.01158 0.30382
# Poissons Ratio (y) = 0.01542 0.20777
# Poissons Ratio (z) = 0.18295 0.09395
#
# Static dielectric constant tensor:
#      x y z
#    x 4.401690 0.495930 0.034210 
#    y 0.495930 3.976840 -0.053770 
#    z 0.034210 -0.053770 4.101950 
# 
# 
# High freq. dielectric constant tensor:
#      x y z
#    x 1.902730 0.035180 0.001520 
#    y 0.035180 1.886060 -0.002110 
#    z 0.001520 -0.002110 1.910630 
# 
# From -- ./inp_files/158583.got.cif
#   From: 2010.06.25/outbox.cif.g09.slc.cpg/sg2_80_cif.got.tgz:158583.got - 2010.06.27 13:26:56.
