data_PCOD8032562
_publ_section_title
;
Structure prediction by ZEFSAII (Michael W. Deem and Ramdas Pophale) SiO2 
 PCOD8032562
Probable space group: P -1
;
_chemical_formula_sum "Si O2"
_cell_formula_units_Z 16
_cell_length_a 16.802838
_cell_length_b 6.072342
_cell_length_c 9.690445
_cell_angle_alpha 64.995580
_cell_angle_beta 110.646759
_cell_angle_gamma 72.109646
_cell_volume 706.838583
_symmetry_space_group_name_H-M "P -1"
_symmetry_group_IT_number 2
_symmetry_cell_setting 'triclinic'
loop_
_space_group_symop_operation_xyz
x,y,z
-x,-y,-z
loop_
_atom_site_type_symbol
_atom_site_label
_atom_site_fract_x
_atom_site_fract_y
_atom_site_fract_z
Si Si1 0.099249 0.474710 0.825682
Si Si2 0.750128 0.166473 0.852015
Si Si3 0.628748 0.408360 0.966410
Si Si4 0.199816 0.759388 0.687827
Si Si5 0.456190 0.934518 0.857246
Si Si6 0.897082 0.595093 0.622956
Si Si7 0.271778 0.518129 0.517137
Si Si8 0.918252 0.274712 0.969403
O O1 0.129277 0.629714 0.689909
O O2 0.019447 0.409680 0.722405
O O3 0.044649 0.691915 0.866265
O O4 0.197974 0.177577 0.016491
O O5 0.646281 0.326166 0.836214
O O6 0.727073 0.271944 0.651880
O O7 0.821479 0.258129 0.938972
O O8 0.544305 0.743596 0.850937
O O9 0.736767 0.326414 0.111086
O O10 0.598564 0.219166 0.082450
O O11 0.277259 0.627669 0.642291
O O12 0.134473 0.097715 0.534822
O O13 0.373587 0.207226 0.645568
O O14 0.500000 0.000000 0.000000
O O15 0.832433 0.477969 0.545750
O O16 0.884651 0.568807 0.786866
O O17 0.000000 0.000000 0.000000
#
# Coordination Sequence:
#
# PCOD8032562 Si02
#       8
#     2   2   2   2   2   2   2   2
#     4  12  25  41  68  98 142 190 226 272 338 402
#     4  11  25  44  68 100 140 181 229 276 334 409
#     4  11  24  45  71 101 133 174 229 282 346 411
#     4  12  24  42  67 101 138 178 233 279 340 400
#     4  11  23  46  77  99 131 177 221 287 358 402
#     4  11  25  40  64  98 140 179 234 276 323 399
#     4  11  25  44  69 100 138 179 227 287 337 402
#     4  11  23  43  65  93 137 188 229 269 336 399
#
# _framework density 22.636002999999999
#
# number of rings (size 3 to 8) (size 9 to 14) (size 15 to 20)
#    0.000    0.750    5.000    2.250    3.500    1.000 
#    0.000    0.625    0.000    0.000    0.000    0.000 
#    0.000    0.000    0.000    0.000    0.000    0.000 
#
# Total GULP energy -198308.190116 kJ/mol
# GULP energy per Si atom -12394.261882 kJ/mol
# Density = 2.258448 g / cm^3
# Si number density = 22.636003 Si / 1000 Ang^3
#
#
#
# Elastic Constant Matrix: (Units=GPa)
#
#
# Indices 1 2 3 4 5 6 
#
# 1 76.8992 24.6723 28.3903 -4.2564 -13.6426 -15.0481
# 2 24.6723 84.7480 31.5891 -4.8262 -12.7651 -27.1602
# 3 28.3903 31.5891 100.7801 -9.4540 -15.2404 -11.7722
# 4 -4.2564 -4.8262 -9.4540 33.0704 2.5027 -4.1047
# 5 -13.6426 -12.7651 -15.2404 2.5027 40.6629 0.3713
# 6 -15.0481 -27.1602 -11.7722 -4.1047 0.3713 37.8945
#
#
#
# Elastic Compliance Matrix: (Units=1/GPa)
#
#
# Indices 1 2 3 4 5 6 
#
# 1 0.016180 -0.001556 -0.002850 0.001319 0.003749 0.004531
# 2 -0.001556 0.017725 -0.002980 0.002674 0.003656 0.011414
# 3 -0.002850 -0.002980 0.012398 0.002652 0.002584 0.000846
# 4 0.001319 0.002674 0.002652 0.032380 0.000221 0.006770
# 5 0.003749 0.003656 0.002584 0.000221 0.027910 0.004663
# 6 0.004531 0.011414 0.000846 0.006770 0.004663 0.037319
#
#
# Mechanical properties :
#
#
# Convention : Reuss Voigt Hill
#
# Bulk Modulus (GPa) = 31.71661 47.97006 39.84334
# Shear Modulus (GPa) = 29.55151 34.17726 31.86438
#
# Velocity S-wave (km/s) = 3.61710 3.88991 3.75598
# Velocity P-wave (km/s) = 5.61129 6.43530 6.03737
#
# Compressibility (1/GPa) = 0.03152922
#
# Stress axis : x y z
#
# Youngs Moduli (GPa) = 61.80323 56.41888 80.65821
#
# Poissons Ratio (x) = 0.08780 0.22991
# Poissons Ratio (y) = 0.09618 0.24038
# Poissons Ratio (z) = 0.17616 0.16814
#
# Static dielectric constant tensor:
#      x y z
#    x 4.233010 0.076580 -0.052660 
#    y 0.076580 4.075600 -0.159650 
#    z -0.052660 -0.159650 4.085910 
# 
# 
# High freq. dielectric constant tensor:
#      x y z
#    x 1.896330 0.002140 -0.012160 
#    y 0.002140 1.884410 -0.006230 
#    z -0.012160 -0.006230 1.890850 
# 
# From -- ./inp_files/111578.got.cif
#   From: 2010.06.25/outbox.cif.g09.slc.cpg/sg2_56_cif.got.tgz:111578.got - 2010.06.27 13:26:56.
