data_PCOD8032829
_publ_section_title
;
Structure prediction by ZEFSAII (Michael W. Deem and Ramdas Pophale) SiO2 
 PCOD8032829
Probable space group: P -1
;
_chemical_formula_sum "Si O2"
_cell_formula_units_Z 16
_cell_length_a 17.835327
_cell_length_b 14.363159
_cell_length_c 9.117016
_cell_angle_alpha 150.287609
_cell_angle_beta 141.610545
_cell_angle_gamma 38.670489
_cell_volume 679.875352
_symmetry_space_group_name_H-M "P -1"
_symmetry_group_IT_number 2
_symmetry_cell_setting 'triclinic'
loop_
_space_group_symop_operation_xyz
x,y,z
-x,-y,-z
loop_
_atom_site_type_symbol
_atom_site_label
_atom_site_fract_x
_atom_site_fract_y
_atom_site_fract_z
Si Si1 0.620298 0.736072 0.517692
Si Si2 0.922296 0.398432 0.138724
Si Si3 0.199418 0.917535 0.458111
Si Si4 0.329238 0.892264 0.325650
Si Si5 0.744219 0.349189 0.338128
Si Si6 0.336281 0.291511 0.786228
Si Si7 0.611497 0.179692 0.137515
Si Si8 0.998638 0.698236 0.192922
O O1 0.477136 0.758061 0.378631
O O2 0.710824 0.582002 0.563141
O O3 0.645967 0.646990 0.269894
O O4 0.649095 0.942525 0.848708
O O5 0.784177 0.556030 0.109509
O O6 0.000000 0.500000 0.500000
O O7 0.895884 0.204754 0.900838
O O8 0.004625 0.330362 0.025306
O O9 0.270248 0.969679 0.499027
O O10 0.310571 0.782672 0.551746
O O11 0.122699 0.119618 0.698283
O O12 0.315993 0.078607 0.455789
O O13 0.245562 0.766144 0.957723
O O14 0.637248 0.295511 0.194241
O O15 0.873545 0.259915 0.505440
O O16 0.458642 0.273818 0.052870
O O17 0.000000 0.500000 0.000000
#
# Coordination Sequence:
#
# PCOD8032829 Si02
#       8
#     2   2   2   2   2   2   2   2
#     4  11  23  43  74 112 153 186 242 316 368 436
#     4  12  30  47  74 108 146 198 247 307 368 441
#     4  12  28  48  75 108 153 192 251 308 374 443
#     4  11  24  44  73 112 144 197 245 301 376 447
#     4  12  24  43  79 103 151 199 249 298 375 450
#     4  11  24  46  74 110 150 188 247 310 371 440
#     4  11  24  46  75 108 148 195 238 311 378 437
#     4  12  29  51  71 107 147 203 249 308 373 438
#
# _framework density 23.533725
#
# number of rings (size 3 to 8) (size 9 to 14) (size 15 to 20)
#    0.000    0.500    3.750    3.750    8.750    4.000 
#    0.000    0.000    0.000    0.000    0.000    0.000 
#    0.000    0.000    0.000    0.000    0.000    0.000 
#
# Total GULP energy -198432.197355 kJ/mol
# GULP energy per Si atom -12402.012335 kJ/mol
# Density = 2.348016 g / cm^3
# Si number density = 23.533725 Si / 1000 Ang^3
#
#
#
# Elastic Constant Matrix: (Units=GPa)
#
#
# Indices 1 2 3 4 5 6 
#
# 1 137.9528 45.8007 39.2641 -2.4201 -11.5864 0.4049
# 2 45.8007 111.2969 34.1735 1.8364 -3.9445 -0.2386
# 3 39.2641 34.1735 101.4359 -17.0311 2.9283 -0.9208
# 4 -2.4201 1.8364 -17.0311 33.1573 6.9373 1.4030
# 5 -11.5864 -3.9445 2.9283 6.9373 37.7701 9.0563
# 6 0.4049 -0.2386 -0.9208 1.4030 9.0563 41.2771
#
#
#
# Elastic Compliance Matrix: (Units=1/GPa)
#
#
# Indices 1 2 3 4 5 6 
#
# 1 0.009265 -0.002762 -0.002982 -0.001343 0.003232 -0.000837
# 2 -0.002762 0.011180 -0.003179 -0.002676 0.001089 -0.000127
# 3 -0.002982 -0.003179 0.013493 0.007671 -0.003920 0.000911
# 4 -0.001343 -0.002676 0.007671 0.035800 -0.008033 0.000714
# 5 0.003232 0.001089 -0.003920 -0.008033 0.030950 -0.006630
# 6 -0.000837 -0.000127 0.000911 0.000714 -0.006630 0.025685
#
#
# Mechanical properties :
#
#
# Convention : Reuss Voigt Hill
#
# Bulk Modulus (GPa) = 62.14585 65.46245 63.80415
# Shear Modulus (GPa) = 33.42573 37.87072 35.64822
#
# Velocity S-wave (km/s) = 3.77282 4.01585 3.89623
# Velocity P-wave (km/s) = 6.74117 7.02706 6.88560
#
# Compressibility (1/GPa) = 0.01609118
#
# Stress axis : x y z
#
# Youngs Moduli (GPa) = 107.93230 89.44270 74.11056
#
# Poissons Ratio (x) = 0.24705 0.22102
# Poissons Ratio (y) = 0.29812 0.23563
# Poissons Ratio (z) = 0.32188 0.28437
#
# Static dielectric constant tensor:
#      x y z
#    x 4.216600 -0.085320 0.172850 
#    y -0.085320 4.346250 -0.057880 
#    z 0.172850 -0.057880 4.137390 
# 
# 
# High freq. dielectric constant tensor:
#      x y z
#    x 1.934520 0.000590 0.012040 
#    y 0.000590 1.931230 0.002880 
#    z 0.012040 0.002880 1.938270 
# 
# From -- ./inp_files/307860.got.cif
#   From: 2010.06.25/outbox.cif.g09.slc.cpg/sg2_154_cif.got.tgz:307860.got - 2010.06.27 13:26:56.
