data_PCOD8032117
_publ_section_title
;
Structure prediction by ZEFSAII (Michael W. Deem and Ramdas Pophale) SiO2 
 PCOD8032117
Probable space group: P -1
;
_chemical_formula_sum "Si O2"
_cell_formula_units_Z 16
_cell_length_a 14.623411
_cell_length_b 15.478994
_cell_length_c 9.903422
_cell_angle_alpha 87.921776
_cell_angle_beta 108.980177
_cell_angle_gamma 29.501050
_cell_volume 759.763859
_symmetry_space_group_name_H-M "P -1"
_symmetry_group_IT_number 2
_symmetry_cell_setting 'triclinic'
loop_
_space_group_symop_operation_xyz
x,y,z
-x,-y,-z
loop_
_atom_site_type_symbol
_atom_site_label
_atom_site_fract_x
_atom_site_fract_y
_atom_site_fract_z
Si Si1 0.365466 0.908271 0.274475
Si Si2 0.933555 0.990964 0.297742
Si Si3 0.695093 0.704252 0.923404
Si Si4 0.723928 0.997129 0.067595
Si Si5 0.255274 0.463750 0.296318
Si Si6 0.918070 0.138789 0.062121
Si Si7 0.560050 0.360727 0.322376
Si Si8 0.278264 0.174143 0.268418
O O1 0.227704 0.115552 0.223110
O O2 0.150130 0.015375 0.203047
O O3 0.630650 0.676544 0.505937
O O4 0.444855 0.838104 0.157881
O O5 0.892713 0.940591 0.191937
O O6 0.249531 0.730164 0.502862
O O7 0.861596 0.138543 0.175478
O O8 0.743696 0.145799 0.328830
O O9 0.694762 0.637044 0.803859
O O10 0.625743 0.856780 0.820569
O O11 0.471826 0.868589 0.916081
O O12 0.988014 0.458834 0.151704
O O13 0.937482 0.743259 0.151786
O O14 0.401885 0.432987 0.347694
O O15 0.645130 0.413631 0.877147
O O16 0.000000 0.000000 0.000000
O O17 0.500000 0.000000 0.500000
#
# Coordination Sequence:
#
# PCOD8032117 Si02
#       8
#     2   2   2   2   2   2   2   2
#     4  12  25  43  69 103 139 177 232 282 342 406
#     4  11  24  39  64 100 134 182 234 276 337 400
#     4  11  25  48  75 100 136 178 228 278 352 410
#     4  12  26  44  70 105 138 180 230 283 343 405
#     4  12  23  45  70  98 142 184 222 285 341 406
#     4  12  23  40  63  95 136 178 221 279 336 394
#     4  11  23  41  64  95 138 184 233 277 330 408
#     4  11  24  48  77 101 135 182 222 288 348 406
#
# _framework density 21.059175
#
# number of rings (size 3 to 8) (size 9 to 14) (size 15 to 20)
#    0.000    0.500    7.500    0.375    1.750    2.500 
#    0.000    1.250    0.000    0.000    0.000    0.000 
#    0.000    0.000    0.000    0.000    0.000    0.000 
#
# Total GULP energy -198437.361078 kJ/mol
# GULP energy per Si atom -12402.335067 kJ/mol
# Density = 2.101124 g / cm^3
# Si number density = 21.059175 Si / 1000 Ang^3
#
#
#
# Elastic Constant Matrix: (Units=GPa)
#
#
# Indices 1 2 3 4 5 6 
#
# 1 110.8774 32.0448 26.3291 -2.0599 -11.5279 -13.1782
# 2 32.0448 75.8246 30.5412 1.1517 -3.6987 -23.0610
# 3 26.3291 30.5412 139.0249 -10.9376 -10.9737 -18.2586
# 4 -2.0599 1.1517 -10.9376 29.8503 1.7887 -0.6675
# 5 -11.5279 -3.6987 -10.9737 1.7887 34.2880 3.1072
# 6 -13.1782 -23.0610 -18.2586 -0.6675 3.1072 33.1396
#
#
#
# Elastic Compliance Matrix: (Units=1/GPa)
#
#
# Indices 1 2 3 4 5 6 
#
# 1 0.010720 -0.003790 -0.000820 0.000437 0.002827 0.000918
# 2 -0.003790 0.018843 -0.002239 -0.001527 -0.000823 0.010419
# 3 -0.000820 -0.002239 0.008590 0.003129 0.001820 0.002741
# 4 0.000437 -0.001527 0.003129 0.034831 -0.000981 0.001629
# 5 0.002827 -0.000823 0.001820 -0.000981 0.030783 -0.001351
# 6 0.000918 0.010419 0.002741 0.001629 -0.001351 0.039460
#
#
# Mechanical properties :
#
#
# Convention : Reuss Voigt Hill
#
# Bulk Modulus (GPa) = 40.88771 55.95078 48.41925
# Shear Modulus (GPa) = 30.28902 35.24304 32.76603
#
# Velocity S-wave (km/s) = 3.79658 4.09531 3.94877
# Velocity P-wave (km/s) = 6.21904 6.99915 6.62060
#
# Compressibility (1/GPa) = 0.02445723
#
# Stress axis : x y z
#
# Youngs Moduli (GPa) = 93.28304 53.06887 116.41631
#
# Poissons Ratio (x) = 0.20113 0.09541
# Poissons Ratio (y) = 0.35354 0.26060
# Poissons Ratio (z) = 0.07645 0.11880
#
# Static dielectric constant tensor:
#      x y z
#    x 4.025990 0.138850 -0.070780 
#    y 0.138850 3.752180 0.001920 
#    z -0.070780 0.001920 4.090780 
# 
# 
# High freq. dielectric constant tensor:
#      x y z
#    x 1.836680 0.007570 -0.000880 
#    y 0.007570 1.809680 0.001680 
#    z -0.000880 0.001680 1.842440 
# 
# From -- ./inp_files/315295.got.cif
#   From: 2010.06.25/outbox.cif.g09.slc.cpg/sg2_158_cif.got.tgz:315295.got - 2010.06.27 13:26:56.
