data_PCOD8032358
_publ_section_title
;
Structure prediction by ZEFSAII (Michael W. Deem and Ramdas Pophale) SiO2 
 PCOD8032358
Probable space group: P -1
;
_chemical_formula_sum "Si O2"
_cell_formula_units_Z 14
_cell_length_a 8.777438
_cell_length_b 9.355356
_cell_length_c 21.054616
_cell_angle_alpha 149.312000
_cell_angle_beta 56.113742
_cell_angle_gamma 132.239692
_cell_volume 652.291913
_symmetry_space_group_name_H-M "P -1"
_symmetry_group_IT_number 2
_symmetry_cell_setting 'triclinic'
loop_
_space_group_symop_operation_xyz
x,y,z
-x,-y,-z
loop_
_atom_site_type_symbol
_atom_site_label
_atom_site_fract_x
_atom_site_fract_y
_atom_site_fract_z
Si Si1 0.237333 0.703160 0.502864
Si Si2 0.968421 0.841521 0.878059
Si Si3 0.385904 0.283056 0.884904
Si Si4 0.413629 0.358872 0.657661
Si Si5 0.897684 0.640015 0.367345
Si Si6 0.517211 0.689397 0.889135
Si Si7 0.604237 0.265732 0.388422
O O1 0.346151 0.514957 0.370573
O O2 0.376343 0.841272 0.586271
O O3 0.000000 0.500000 0.500000
O O4 0.273990 0.981811 0.551970
O O5 0.756120 0.782426 0.873845
O O6 0.959918 0.493275 0.751350
O O7 0.149432 0.068850 0.876478
O O8 0.000000 0.000000 0.000000
O O9 0.393998 0.506945 0.910556
O O10 0.495914 0.061709 0.754396
O O11 0.500000 0.500000 0.000000
O O12 0.304019 0.468743 0.671591
O O13 0.404557 0.483087 0.776113
O O14 0.831810 0.468081 0.384742
O O15 0.000000 0.000000 0.500000
O O16 0.500000 0.000000 0.000000
O O17 0.500000 0.500000 0.500000
#
# Coordination Sequence:
#
# PCOD8032358 Si02
#       7
#     2   2   2   2   2   2   2
#     4  11  24  42  66  99 139 182 224 281 348 415
#     4  11  25  46  73 102 136 184 241 284 345 425
#     4  11  25  46  72 102 139 182 238 289 342 418
#     4  11  25  43  66 100 144 175 227 291 346 401
#     4  11  25  42  71 103 136 184 235 281 347 418
#     4  12  27  46  73 102 141 185 233 294 351 411
#     4  11  23  42  68 100 137 178 231 279 345 412
#
# _framework density 21.462782000000001
#
# number of rings (size 3 to 8) (size 9 to 14) (size 15 to 20)
#    0.000    0.857    4.286    1.714   12.000    0.571 
#    0.000    1.429    0.000    0.000    0.000    0.000 
#    0.000    0.000    0.000    0.000    0.000    0.000 
#
# Total GULP energy -173466.455400 kJ/mol
# GULP energy per Si atom -12390.461100 kJ/mol
# Density = 2.141393 g / cm^3
# Si number density = 21.462782 Si / 1000 Ang^3
#
#
#
# Elastic Constant Matrix: (Units=GPa)
#
#
# Indices 1 2 3 4 5 6 
#
# 1 94.1128 30.0697 44.1918 -1.5115 -15.8398 6.2492
# 2 30.0697 128.5429 35.6858 -4.0117 -8.5071 1.2817
# 3 44.1918 35.6858 168.3799 -6.1884 -14.5062 -7.9098
# 4 -1.5115 -4.0117 -6.1884 32.9643 -5.8178 3.4516
# 5 -15.8398 -8.5071 -14.5062 -5.8178 42.4746 -3.3669
# 6 6.2492 1.2817 -7.9098 3.4516 -3.3669 39.8860
#
#
#
# Elastic Compliance Matrix: (Units=1/GPa)
#
#
# Indices 1 2 3 4 5 6 
#
# 1 0.013385 -0.002060 -0.002859 0.000693 0.003510 -0.002362
# 2 -0.002060 0.008672 -0.001219 0.000870 0.000654 -0.000218
# 3 -0.002859 -0.001219 0.007206 0.001127 0.001459 0.001942
# 4 0.000693 0.000870 0.001127 0.031802 0.004996 -0.002243
# 5 0.003510 0.000654 0.001459 0.004996 0.026285 0.001505
# 6 -0.002362 -0.000218 0.001942 -0.002243 0.001505 0.026155
#
#
# Mechanical properties :
#
#
# Convention : Reuss Voigt Hill
#
# Bulk Modulus (GPa) = 58.86979 67.88114 63.37547
# Shear Modulus (GPa) = 38.03869 41.80419 39.92144
#
# Velocity S-wave (km/s) = 4.21445 4.41812 4.31749
# Velocity P-wave (km/s) = 7.15335 7.59753 7.37878
#
# Compressibility (1/GPa) = 0.01698664
#
# Stress axis : x y z
#
# Youngs Moduli (GPa) = 74.70988 115.30716 138.76976
#
# Poissons Ratio (x) = 0.23751 0.39681
# Poissons Ratio (y) = 0.15389 0.16920
# Poissons Ratio (z) = 0.21363 0.14059
#
# Static dielectric constant tensor:
#      x y z
#    x 3.795500 -0.168680 -0.083450 
#    y -0.168680 4.120610 -0.114280 
#    z -0.083450 -0.114280 4.207820 
# 
# 
# High freq. dielectric constant tensor:
#      x y z
#    x 1.830070 -0.011710 -0.001800 
#    y -0.011710 1.857350 -0.010480 
#    z -0.001800 -0.010480 1.857400 
# 
# From -- ./inp_files/227341.got.cif
#   From: 2010.06.25/outbox.cif.g09.slc.cpg/sg2_114_cif.got.tgz:227341.got - 2010.06.27 13:26:56.
