data_PCOD8032839
_publ_section_title
;
Structure prediction by ZEFSAII (Michael W. Deem and Ramdas Pophale) SiO2 
 PCOD8032839
Probable space group: P -1
;
_chemical_formula_sum "Si O2"
_cell_formula_units_Z 16
_cell_length_a 9.018198
_cell_length_b 9.002703
_cell_length_c 10.563214
_cell_angle_alpha 86.349967
_cell_angle_beta 53.416212
_cell_angle_gamma 81.318973
_cell_volume 680.384474
_symmetry_space_group_name_H-M "P -1"
_symmetry_group_IT_number 2
_symmetry_cell_setting 'triclinic'
loop_
_space_group_symop_operation_xyz
x,y,z
-x,-y,-z
loop_
_atom_site_type_symbol
_atom_site_label
_atom_site_fract_x
_atom_site_fract_y
_atom_site_fract_z
Si Si1 0.802004 0.976477 0.156382
Si Si2 0.466650 0.222596 0.332276
Si Si3 0.372152 0.544561 0.234777
Si Si4 0.290345 0.309522 0.912025
Si Si5 0.333498 0.407035 0.609689
Si Si6 0.905779 0.231643 0.500749
Si Si7 0.070343 0.438048 0.240010
Si Si8 0.840195 0.939475 0.430523
O O1 0.675033 0.138292 0.212901
O O2 0.708513 0.864950 0.115826
O O3 0.824792 0.906282 0.289961
O O4 0.000000 0.000000 0.000000
O O5 0.447334 0.374921 0.251742
O O6 0.412284 0.253350 0.506520
O O7 0.320811 0.104699 0.389772
O O8 0.531326 0.644696 0.103021
O O9 0.267245 0.637000 0.398931
O O10 0.228987 0.539612 0.191367
O O11 0.291518 0.402638 0.778624
O O12 0.108025 0.367605 0.084880
O O13 0.500000 0.500000 0.500000
O O14 0.133945 0.469065 0.647250
O O15 0.076862 0.303812 0.346951
O O16 0.967492 0.152083 0.607466
O O17 0.839374 0.116907 0.439367
#
# Coordination Sequence:
#
# PCOD8032839 Si02
#       8
#     2   2   2   2   2   2   2   2
#     4  12  29  47  71 103 149 188 238 301 363 423
#     4  12  24  45  73 102 140 186 242 297 350 428
#     4  12  25  47  74 107 143 193 239 297 360 428
#     4  12  27  45  70 107 144 193 238 294 361 423
#     4  12  25  43  75 110 140 188 244 300 351 427
#     4  11  23  43  75 104 143 186 242 290 352 436
#     4  12  25  46  72 105 152 184 241 298 365 420
#     4  11  24  44  72 107 138 193 239 286 357 431
#
# _framework density 23.516114000000002
#
# number of rings (size 3 to 8) (size 9 to 14) (size 15 to 20)
#    0.000    0.250    5.000    3.750    5.250    1.000 
#    2.250    0.625    0.000    0.000    0.000    0.000 
#    0.000    0.000    0.000    0.000    0.000    0.000 
#
# Total GULP energy -198284.213527 kJ/mol
# GULP energy per Si atom -12392.763345 kJ/mol
# Density = 2.346259 g / cm^3
# Si number density = 23.516114 Si / 1000 Ang^3
#
#
#
# Elastic Constant Matrix: (Units=GPa)
#
#
# Indices 1 2 3 4 5 6 
#
# 1 106.0491 54.0135 33.7797 7.7961 -27.0244 14.1577
# 2 54.0135 123.5560 63.8917 13.2364 -17.0358 9.2423
# 3 33.7797 63.8917 136.0930 15.0792 -18.0621 -2.0853
# 4 7.7961 13.2364 15.0792 33.5251 -0.7710 1.3541
# 5 -27.0244 -17.0358 -18.0621 -0.7710 30.8188 2.0807
# 6 14.1577 9.2423 -2.0853 1.3541 2.0807 36.5249
#
#
#
# Elastic Compliance Matrix: (Units=1/GPa)
#
#
# Indices 1 2 3 4 5 6 
#
# 1 0.015530 -0.004619 -0.000128 -0.001249 0.011326 -0.005457
# 2 -0.004619 0.012917 -0.004685 -0.001840 0.000413 -0.001701
# 3 -0.000128 -0.004685 0.010333 -0.002766 0.003166 0.001747
# 4 -0.001249 -0.001840 -0.002766 0.032032 -0.002917 -0.000229
# 5 0.011326 0.000413 0.003166 -0.002917 0.044847 -0.006761
# 6 -0.005457 -0.001701 0.001747 -0.000229 -0.006761 0.030418
#
#
# Mechanical properties :
#
#
# Convention : Reuss Voigt Hill
#
# Bulk Modulus (GPa) = 50.21357 74.34087 62.27722
# Shear Modulus (GPa) = 29.14140 34.44132 31.79136
#
# Velocity S-wave (km/s) = 3.52406 3.83114 3.68080
# Velocity P-wave (km/s) = 6.16099 7.15902 6.67868
#
# Compressibility (1/GPa) = 0.01991493
#
# Stress axis : x y z
#
# Youngs Moduli (GPa) = 64.39313 77.42012 96.78117
#
# Poissons Ratio (x) = 0.35760 0.01240
# Poissons Ratio (y) = 0.29743 0.45341
# Poissons Ratio (z) = 0.00825 0.36270
#
# Static dielectric constant tensor:
#      x y z
#    x 4.151940 0.148410 -0.294120 
#    y 0.148410 4.111330 -0.182860 
#    z -0.294120 -0.182860 4.116010 
# 
# 
# High freq. dielectric constant tensor:
#      x y z
#    x 1.933250 0.021360 -0.006960 
#    y 0.021360 1.933820 -0.000880 
#    z -0.006960 -0.000880 1.929830 
# 
# From -- ./inp_files/382204.got.cif
#   From: 2010.06.25/outbox.cif.g09.slc.cpg/sg2_192_cif.got.tgz:382204.got - 2010.06.27 13:26:56.
