data_PCOD8032504
_publ_section_title
;
Structure prediction by ZEFSAII (Michael W. Deem and Ramdas Pophale) SiO2 
 PCOD8032504
Probable space group: P -1
;
_chemical_formula_sum "Si O2"
_cell_formula_units_Z 16
_cell_length_a 6.014934
_cell_length_b 15.611420
_cell_length_c 15.060629
_cell_angle_alpha 143.730633
_cell_angle_beta 70.994322
_cell_angle_gamma 118.781320
_cell_volume 727.922582
_symmetry_space_group_name_H-M "P -1"
_symmetry_group_IT_number 2
_symmetry_cell_setting 'triclinic'
loop_
_space_group_symop_operation_xyz
x,y,z
-x,-y,-z
loop_
_atom_site_type_symbol
_atom_site_label
_atom_site_fract_x
_atom_site_fract_y
_atom_site_fract_z
Si Si1 0.053792 0.345100 0.356024
Si Si2 0.756990 0.354664 0.696505
Si Si3 0.187225 0.922799 0.957893
Si Si4 0.198896 0.629866 0.964623
Si Si5 0.536375 0.509298 0.711438
Si Si6 0.010777 0.877297 0.138924
Si Si7 0.491546 0.665954 0.121591
Si Si8 0.088582 0.225703 0.446535
O O1 0.316797 0.386555 0.303671
O O2 0.077450 0.273029 0.386376
O O3 0.000000 0.500000 0.500000
O O4 0.826399 0.219852 0.223537
O O5 0.711369 0.458493 0.711657
O O6 0.525126 0.262540 0.718148
O O7 0.953119 0.480966 0.842677
O O8 0.844005 0.225780 0.532783
O O9 0.033353 0.862681 0.018461
O O10 0.500000 0.000000 0.000000
O O11 0.000000 0.000000 0.000000
O O12 0.433678 0.621947 0.871787
O O13 0.192096 0.799828 0.091952
O O14 0.239964 0.627258 0.062281
O O15 0.330313 0.348798 0.566955
O O16 0.725726 0.785371 0.134869
O O17 0.105983 0.057462 0.308363
O O18 0.500000 0.500000 0.000000
#
# Coordination Sequence:
#
# PCOD8032504 Si02
#       8
#     2   2   2   2   2   2   2   2
#     4  12  25  46  76 108 144 205 253 308 382 459
#     4  11  23  45  70 104 137 186 249 312 367 455
#     4  12  30  51  78 116 161 201 257 323 387 461
#     4  11  23  42  73 101 141 183 246 309 374 454
#     4  11  24  44  72 104 141 189 258 305 371 455
#     4  12  28  45  71 110 148 198 240 308 393 447
#     4  12  24  44  76 105 139 187 254 311 379 452
#     4  11  27  45  68 104 151 191 248 308 386 451
#
# _framework density 21.980359
#
# number of rings (size 3 to 8) (size 9 to 14) (size 15 to 20)
#    0.000    0.500    5.000    2.250    7.000    1.500 
#    0.000    1.250    0.000    0.000    0.000    0.000 
#    0.000    0.000    0.000    0.000    0.000    0.000 
#
# Total GULP energy -198237.042185 kJ/mol
# GULP energy per Si atom -12389.815137 kJ/mol
# Density = 2.193033 g / cm^3
# Si number density = 21.980359 Si / 1000 Ang^3
#
#
#
# Elastic Constant Matrix: (Units=GPa)
#
#
# Indices 1 2 3 4 5 6 
#
# 1 102.4595 34.5742 43.2465 3.5485 -8.3202 -19.1076
# 2 34.5742 126.9182 45.9435 -20.2726 -0.0435 -11.3722
# 3 43.2465 45.9435 138.5965 -0.1232 -19.1370 -21.1962
# 4 3.5485 -20.2726 -0.1232 44.9765 -3.9923 -4.5312
# 5 -8.3202 -0.0435 -19.1370 -3.9923 30.1751 0.6376
# 6 -19.1076 -11.3722 -21.1962 -4.5312 0.6376 37.8146
#
#
#
# Elastic Compliance Matrix: (Units=1/GPa)
#
#
# Indices 1 2 3 4 5 6 
#
# 1 0.012491 -0.002481 -0.002205 -0.001540 0.001751 0.004115
# 2 -0.002481 0.010414 -0.002783 0.004814 -0.001817 0.000926
# 3 -0.002205 -0.002783 0.010174 -0.000177 0.005740 0.003634
# 4 -0.001540 0.004814 -0.000177 0.025122 0.002719 0.003535
# 5 0.001751 -0.001817 0.005740 0.002719 0.037552 0.003249
# 6 0.004115 0.000926 0.003634 0.003535 0.003249 0.031208
#
#
# Mechanical properties :
#
#
# Convention : Reuss Voigt Hill
#
# Bulk Modulus (GPa) = 55.12641 68.38918 61.75780
# Shear Modulus (GPa) = 33.79625 38.87391 36.33508
#
# Velocity S-wave (km/s) = 3.92543 4.21000 4.07021
# Velocity P-wave (km/s) = 6.75867 7.40361 7.08848
#
# Compressibility (1/GPa) = 0.01814013
#
# Stress axis : x y z
#
# Youngs Moduli (GPa) = 80.05770 96.02860 98.29070
#
# Poissons Ratio (x) = 0.23825 0.21676
# Poissons Ratio (y) = 0.19862 0.27353
# Poissons Ratio (z) = 0.17655 0.26723
#
# Static dielectric constant tensor:
#      x y z
#    x 3.960460 0.257910 -0.127630 
#    y 0.257910 4.858700 -0.394060 
#    z -0.127630 -0.394060 4.278790 
# 
# 
# High freq. dielectric constant tensor:
#      x y z
#    x 1.871270 -0.005030 -0.005560 
#    y -0.005030 1.875570 -0.021340 
#    z -0.005560 -0.021340 1.873090 
# 
# From -- ./inp_files/484463.got.cif
#   From: 2010.06.25/outbox.cif.g09.slc.cpg/sg2_243_cif.got.tgz:484463.got - 2010.06.27 13:26:56.
