data_PCOD8032861
_publ_section_title
;
Structure prediction by ZEFSAII (Michael W. Deem and Ramdas Pophale) SiO2 
 PCOD8032861
Probable space group: P -1
;
_chemical_formula_sum "Si O2"
_cell_formula_units_Z 14
_cell_length_a 12.467318
_cell_length_b 9.265491
_cell_length_c 9.254646
_cell_angle_alpha 124.657696
_cell_angle_beta 58.213806
_cell_angle_gamma 134.334105
_cell_volume 613.605917
_symmetry_space_group_name_H-M "P -1"
_symmetry_group_IT_number 2
_symmetry_cell_setting 'triclinic'
loop_
_space_group_symop_operation_xyz
x,y,z
-x,-y,-z
loop_
_atom_site_type_symbol
_atom_site_label
_atom_site_fract_x
_atom_site_fract_y
_atom_site_fract_z
Si Si1 0.354740 0.359098 0.871501
Si Si2 0.512001 0.970339 0.807691
Si Si3 0.211896 0.670548 0.659209
Si Si4 0.579414 0.665255 0.662204
Si Si5 0.908214 0.780374 0.530612
Si Si6 0.075093 0.925393 0.792810
Si Si7 0.635253 0.360658 0.754745
O O1 0.454829 0.575241 0.829223
O O2 0.462319 0.286656 0.807475
O O3 0.224037 0.151464 0.758907
O O4 0.280768 0.412610 0.088585
O O5 0.344394 0.815920 0.764388
O O6 0.612685 0.874954 0.682181
O O7 0.624137 0.187834 0.769449
O O8 0.500000 0.000000 0.000000
O O9 0.099810 0.421428 0.654081
O O10 0.117182 0.773236 0.753630
O O11 0.280798 0.639291 0.447126
O O12 0.500000 0.500000 0.500000
O O13 0.733791 0.704295 0.635669
O O14 0.974570 0.806144 0.657218
O O15 0.000000 0.000000 0.500000
O O16 0.000000 0.000000 0.000000
#
# Coordination Sequence:
#
# PCOD8032861 Si02
#       7
#     2   2   2   2   2   2   2
#     4  11  23  44  76 105 143 190 249 297 357 429
#     4  12  25  41  73 109 144 180 246 307 356 418
#     4  12  26  49  73 105 144 201 246 292 367 446
#     4  12  24  45  73 106 147 184 244 304 361 423
#     4  12  28  48  72 108 149 192 240 300 373 435
#     4  12  29  48  73 106 152 195 241 299 368 443
#     4  11  23  43  77 107 140 189 251 303 353 430
#
# _framework density 22.815947999999999
#
# number of rings (size 3 to 8) (size 9 to 14) (size 15 to 20)
#    0.000    0.286    5.714    2.571    8.000    0.000 
#    0.000    0.714    0.000    0.000    0.000    0.000 
#    0.000    0.000    0.000    0.000    0.000    0.000 
#
# Total GULP energy -173460.158968 kJ/mol
# GULP energy per Si atom -12390.011355 kJ/mol
# Density = 2.276402 g / cm^3
# Si number density = 22.815948 Si / 1000 Ang^3
#
#
#
# Elastic Constant Matrix: (Units=GPa)
#
#
# Indices 1 2 3 4 5 6 
#
# 1 150.6614 43.5157 44.0729 26.9143 5.1803 -13.8557
# 2 43.5157 125.9018 25.9228 11.9158 -6.4684 -11.4365
# 3 44.0729 25.9228 117.9796 14.4772 -0.4475 -2.4869
# 4 26.9143 11.9158 14.4772 31.5808 -7.1874 8.7843
# 5 5.1803 -6.4684 -0.4475 -7.1874 44.0493 17.2576
# 6 -13.8557 -11.4365 -2.4869 8.7843 17.2576 42.8867
#
#
#
# Elastic Compliance Matrix: (Units=1/GPa)
#
#
# Indices 1 2 3 4 5 6 
#
# 1 0.010668 -0.001847 -0.002093 -0.011000 -0.006333 0.007634
# 2 -0.001847 0.009177 -0.001057 -0.001844 0.000480 0.001974
# 3 -0.002093 -0.001057 0.009793 -0.002438 -0.000297 0.000229
# 4 -0.011000 -0.001844 -0.002438 0.053355 0.018550 -0.022580
# 5 -0.006333 0.000480 -0.000297 0.018550 0.034175 -0.019487
# 6 0.007634 0.001974 0.000229 -0.022580 -0.019487 0.038790
#
#
# Mechanical properties :
#
#
# Convention : Reuss Voigt Hill
#
# Bulk Modulus (GPa) = 50.90348 69.06288 59.98318
# Shear Modulus (GPa) = 28.98554 42.43880 35.71217
#
# Velocity S-wave (km/s) = 3.56814 4.31751 3.96059
# Velocity P-wave (km/s) = 6.27172 7.42898 6.87474
#
# Compressibility (1/GPa) = 0.01964502
#
# Stress axis : x y z
#
# Youngs Moduli (GPa) = 93.73900 108.96620 102.11512
#
# Poissons Ratio (x) = 0.20128 0.21368
# Poissons Ratio (y) = 0.17315 0.10791
# Poissons Ratio (z) = 0.19616 0.11515
#
# Static dielectric constant tensor:
#      x y z
#    x 4.290590 -0.135750 0.055850 
#    y -0.135750 4.510180 0.598060 
#    z 0.055850 0.598060 4.038250 
# 
# 
# High freq. dielectric constant tensor:
#      x y z
#    x 1.909930 -0.012850 0.007350 
#    y -0.012850 1.918240 0.022280 
#    z 0.007350 0.022280 1.898120 
# 
# From -- ./inp_files/190967.got.cif
#   From: 2010.06.25/outbox.cif.g09.slc.cpg/sg2_96_cif.got.tgz:190967.got - 2010.06.27 13:26:56.
