data_PCOD8032316
_publ_section_title
;
Structure prediction by ZEFSAII (Michael W. Deem and Ramdas Pophale) SiO2 
 PCOD8032316
Probable space group: P -1
;
_chemical_formula_sum "Si O2"
_cell_formula_units_Z 14
_cell_length_a 12.767760
_cell_length_b 21.908513
_cell_length_c 14.891146
_cell_angle_alpha 160.033569
_cell_angle_beta 142.099775
_cell_angle_gamma 26.608253
_cell_volume 600.197534
_symmetry_space_group_name_H-M "P -1"
_symmetry_group_IT_number 2
_symmetry_cell_setting 'triclinic'
loop_
_space_group_symop_operation_xyz
x,y,z
-x,-y,-z
loop_
_atom_site_type_symbol
_atom_site_label
_atom_site_fract_x
_atom_site_fract_y
_atom_site_fract_z
Si Si1 0.642922 0.574821 0.596866
Si Si2 0.352942 0.670250 0.902952
Si Si3 0.131222 0.818490 0.634633
Si Si4 0.704231 0.317083 0.810707
Si Si5 0.984748 0.435988 0.137240
Si Si6 0.549579 0.020769 0.662420
Si Si7 0.902132 0.799987 0.291721
O O1 0.699249 0.454419 0.370243
O O2 0.352708 0.787050 0.718578
O O3 0.807589 0.343298 0.460635
O O4 0.737611 0.708597 0.848538
O O5 0.591583 0.444669 0.813068
O O6 0.405560 0.801394 0.056542
O O7 0.118932 0.879109 0.099234
O O8 0.089850 0.718232 0.383505
O O9 0.811596 0.037015 0.499050
O O10 0.500000 0.500000 0.000000
O O11 0.926230 0.289586 0.940915
O O12 0.796176 0.726573 0.451547
O O13 0.959251 0.437413 0.012634
O O14 0.500000 0.000000 0.500000
O O15 0.328522 0.133711 0.734102
#
# Coordination Sequence:
#
# PCOD8032316 Si02
#       7
#     2   2   2   2   2   2   2
#     4  11  27  41  64 105 143 181 217 274 349 417
#     4  12  24  45  72  99 144 174 224 287 343 398
#     4  11  23  42  65  98 141 179 217 274 344 399
#     4  12  23  49  73 100 132 180 236 285 338 397
#     4  12  25  43  70 102 138 177 231 281 341 404
#     4  12  22  40  70 108 129 174 232 289 334 391
#     4  12  26  44  75 101 137 178 234 289 333 396
#
# _framework density 23.325652000000002
#
# number of rings (size 3 to 8) (size 9 to 14) (size 15 to 20)
#    0.000    0.286    7.143    1.714    4.000    1.143 
#    0.000    3.571    0.000    0.000    0.000    0.000 
#    0.000    0.000    0.000    0.000    0.000    0.000 
#
# Total GULP energy -173652.508189 kJ/mol
# GULP energy per Si atom -12403.750585 kJ/mol
# Density = 2.327256 g / cm^3
# Si number density = 23.325652 Si / 1000 Ang^3
#
#
#
# Elastic Constant Matrix: (Units=GPa)
#
#
# Indices 1 2 3 4 5 6 
#
# 1 115.0465 35.5066 35.2147 -24.6091 14.3372 -24.5112
# 2 35.5066 103.6302 33.4631 -21.7839 11.9675 -18.1331
# 3 35.2147 33.4631 68.2726 -17.6237 9.0065 3.1261
# 4 -24.6091 -21.7839 -17.6237 46.4812 2.8673 7.4113
# 5 14.3372 11.9675 9.0065 2.8673 32.1632 -5.2542
# 6 -24.5112 -18.1331 3.1261 7.4113 -5.2542 44.3369
#
#
#
# Elastic Compliance Matrix: (Units=1/GPa)
#
#
# Indices 1 2 3 4 5 6 
#
# 1 0.013093 -0.000410 -0.005380 0.003897 -0.003482 0.006386
# 2 -0.000410 0.013381 -0.005288 0.003476 -0.002857 0.004699
# 3 -0.005380 -0.005288 0.021986 0.004475 -0.003472 -0.007846
# 4 0.003897 0.003476 0.004475 0.027694 -0.007114 -0.002212
# 5 -0.003482 -0.002857 -0.003472 -0.007114 0.035734 0.002575
# 6 0.006386 0.004699 -0.007846 -0.002212 0.002575 0.029235
#
#
# Mechanical properties :
#
#
# Convention : Reuss Voigt Hill
#
# Bulk Modulus (GPa) = 38.01585 55.03535 46.52560
# Shear Modulus (GPa) = 29.06190 36.78059 32.92124
#
# Velocity S-wave (km/s) = 3.53359 3.97524 3.76090
# Velocity P-wave (km/s) = 5.74296 6.68697 6.23286
#
# Compressibility (1/GPa) = 0.02630482
#
# Stress axis : x y z
#
# Youngs Moduli (GPa) = 76.37412 74.73538 45.48339
#
# Poissons Ratio (x) = 0.03068 0.24468
# Poissons Ratio (y) = 0.03135 0.24050
# Poissons Ratio (z) = 0.41086 0.39517
#
# Static dielectric constant tensor:
#      x y z
#    x -14.447550 10.282020 -9.769640 
#    y 10.282020 -1.569620 5.478100 
#    z -9.769640 5.478100 -0.808500 
# 
# 
# High freq. dielectric constant tensor:
#      x y z
#    x 1.936270 -0.022310 -0.009900 
#    y -0.022310 1.916660 -0.004480 
#    z -0.009900 -0.004480 1.914460 
# 
# From -- ./inp_files/186583.got.cif
#   From: 2010.06.25/outbox.cif.g09.slc.cpg/sg2_94_cif.got.tgz:186583.got - 2010.06.27 13:26:56.
