data_PCOD8032407
_publ_section_title
;
Structure prediction by ZEFSAII (Michael W. Deem and Ramdas Pophale) SiO2 
 PCOD8032407
Probable space group: P -1
;
_chemical_formula_sum "Si O2"
_cell_formula_units_Z 16
_cell_length_a 11.373757
_cell_length_b 9.816975
_cell_length_c 10.109554
_cell_angle_alpha 137.066937
_cell_angle_beta 78.791551
_cell_angle_gamma 95.824851
_cell_volume 752.794461
_symmetry_space_group_name_H-M "P -1"
_symmetry_group_IT_number 2
_symmetry_cell_setting 'triclinic'
loop_
_space_group_symop_operation_xyz
x,y,z
-x,-y,-z
loop_
_atom_site_type_symbol
_atom_site_label
_atom_site_fract_x
_atom_site_fract_y
_atom_site_fract_z
Si Si1 0.146444 0.491244 0.591004
Si Si2 0.170258 0.939871 0.499580
Si Si3 0.897050 0.089945 0.223778
Si Si4 0.416276 0.894430 0.044400
Si Si5 0.591645 0.508355 0.365232
Si Si6 0.012261 0.337090 0.764833
Si Si7 0.579478 0.947556 0.570763
Si Si8 0.162030 0.086649 0.153040
O O1 0.083845 0.689174 0.680556
O O2 0.276551 0.546649 0.648633
O O3 0.164215 0.319296 0.354464
O O4 0.065886 0.429910 0.687419
O O5 0.292582 0.968513 0.420754
O O6 0.095056 0.149519 0.660383
O O7 0.188107 0.892777 0.617800
O O8 0.114974 0.750652 0.305836
O O9 0.033681 0.004350 0.171425
O O10 0.834348 0.947414 0.030721
O O11 0.470217 0.939530 0.207889
O O12 0.275735 0.970916 0.116138
O O13 0.435893 0.658160 0.854087
O O14 0.500000 0.000000 0.000000
O O15 0.500000 0.500000 0.500000
O O16 0.584640 0.712661 0.431009
O O17 0.000000 0.500000 0.000000
O O18 0.500000 0.000000 0.500000
#
# Coordination Sequence:
#
# PCOD8032407 Si02
#       8
#     2   2   2   2   2   2   2   2
#     4  12  23  45  68 104 139 180 240 283 344 430
#     4  11  26  46  65 103 148 178 227 295 364 412
#     4  11  26  39  72 105 143 180 227 291 348 421
#     4  12  25  48  78 102 136 192 243 291 355 426
#     4  12  25  47  75 103 134 191 240 292 354 426
#     4  11  26  42  70  99 139 190 229 280 366 432
#     4  12  29  49  73 105 146 184 242 307 355 421
#     4  11  23  42  69 105 138 179 233 286 347 412
#
# _framework density 21.254142000000002
#
# number of rings (size 3 to 8) (size 9 to 14) (size 15 to 20)
#    0.000    0.500    6.250    0.375   10.500    0.500 
#    0.000    0.000    0.000    0.000    0.000    0.000 
#    0.000    0.000    0.000    0.000    0.000    0.000 
#
# Total GULP energy -198393.595834 kJ/mol
# GULP energy per Si atom -12399.599740 kJ/mol
# Density = 2.120577 g / cm^3
# Si number density = 21.254142 Si / 1000 Ang^3
#
#
#
# Elastic Constant Matrix: (Units=GPa)
#
#
# Indices 1 2 3 4 5 6 
#
# 1 93.7465 45.0222 33.6893 -6.5688 3.3796 9.4578
# 2 45.0222 137.6683 68.8864 -9.6554 1.5159 16.8092
# 3 33.6893 68.8864 199.3411 2.4918 17.8672 4.6840
# 4 -6.5688 -9.6554 2.4918 34.0809 -1.1682 4.0216
# 5 3.3796 1.5159 17.8672 -1.1682 29.9013 -2.8551
# 6 9.4578 16.8092 4.6840 4.0216 -2.8551 32.6077
#
#
#
# Elastic Compliance Matrix: (Units=1/GPa)
#
#
# Indices 1 2 3 4 5 6 
#
# 1 0.013007 -0.003385 -0.000920 0.001844 -0.000887 -0.002200
# 2 -0.003385 0.010707 -0.003197 0.003177 0.001459 -0.004343
# 3 -0.000920 -0.003197 0.006608 -0.001794 -0.003670 0.000865
# 4 0.001844 0.003177 -0.001794 0.031446 0.001389 -0.005672
# 5 -0.000887 0.001459 -0.003670 0.001389 0.036004 0.003013
# 6 -0.002200 -0.004343 0.000865 -0.005672 0.003013 0.034383
#
#
# Mechanical properties :
#
#
# Convention : Reuss Voigt Hill
#
# Bulk Modulus (GPa) = 65.28408 80.66132 72.97270
# Shear Modulus (GPa) = 32.83739 38.19518 35.51628
#
# Velocity S-wave (km/s) = 3.93490 4.24379 4.09226
# Velocity P-wave (km/s) = 7.17127 7.87694 7.53238
#
# Compressibility (1/GPa) = 0.01531767
#
# Stress axis : x y z
#
# Youngs Moduli (GPa) = 76.88286 93.39285 151.33932
#
# Poissons Ratio (x) = 0.31618 0.13926
# Poissons Ratio (y) = 0.26028 0.48376
# Poissons Ratio (z) = 0.07074 0.29853
#
# Static dielectric constant tensor:
#      x y z
#    x 3.975350 0.037260 0.085480 
#    y 0.037260 3.802660 -0.026550 
#    z 0.085480 -0.026550 4.042650 
# 
# 
# High freq. dielectric constant tensor:
#      x y z
#    x 1.833110 0.009470 0.007850 
#    y 0.009470 1.831220 0.000340 
#    z 0.007850 0.000340 1.855330 
# 
# From -- ./inp_files/245896.got.cif
#   From: 2010.06.25/outbox.cif.g09.slc.cpg/sg2_123_cif.got.tgz:245896.got - 2010.06.27 13:26:56.
