data_PCOD8032896
_publ_section_title
;
Structure prediction by ZEFSAII (Michael W. Deem and Ramdas Pophale) SiO2 
 PCOD8032896
Probable space group: P -1
;
_chemical_formula_sum "Si O2"
_cell_formula_units_Z 12
_cell_length_a 8.542953
_cell_length_b 6.842516
_cell_length_c 14.853871
_cell_angle_alpha 117.170622
_cell_angle_beta 79.071989
_cell_angle_gamma 56.331449
_cell_volume 515.304301
_symmetry_space_group_name_H-M "P -1"
_symmetry_group_IT_number 2
_symmetry_cell_setting 'triclinic'
loop_
_space_group_symop_operation_xyz
x,y,z
-x,-y,-z
loop_
_atom_site_type_symbol
_atom_site_label
_atom_site_fract_x
_atom_site_fract_y
_atom_site_fract_z
Si Si1 0.302387 0.295337 0.875270
Si Si2 0.901732 0.361075 0.715714
Si Si3 0.808242 0.795636 0.957335
Si Si4 0.431885 0.379121 0.354235
Si Si5 0.453018 0.531682 0.116792
Si Si6 0.449420 0.815335 0.507068
O O1 0.493780 0.274501 0.813580
O O2 0.057911 0.623214 0.929628
O O3 0.353314 0.995181 0.775153
O O4 0.287996 0.303687 0.988003
O O5 0.825028 0.677275 0.830189
O O6 0.795354 0.443519 0.644494
O O7 0.804062 0.271099 0.775851
O O8 0.179578 0.062668 0.618614
O O9 0.633704 0.175393 0.064489
O O10 0.502980 0.565952 0.376727
O O11 0.380678 0.387434 0.467523
O O12 0.500000 0.500000 0.000000
O O13 0.500000 0.000000 0.500000
#
# Coordination Sequence:
#
# PCOD8032896 Si02
#       6
#     2   2   2   2   2   2
#     4  11  23  44  71 103 149 191 227 291 357 420
#     4  12  24  47  73 104 145 180 239 294 344 429
#     4  11  23  44  67 109 149 183 237 285 346 439
#     4  11  25  49  72 102 140 181 246 297 345 426
#     4  12  24  41  69 109 149 189 228 278 361 428
#     4  11  28  53  72 100 136 188 243 301 359 408
#
# _framework density 23.287208
#
# number of rings (size 3 to 8) (size 9 to 14) (size 15 to 20)
#    0.000    0.667    5.000    2.500    2.333    0.667 
#   21.000    0.000    0.000    0.000    0.000    0.000 
#    0.000    0.000    0.000    0.000    0.000    0.000 
#
# Total GULP energy -148747.871500 kJ/mol
# GULP energy per Si atom -12395.655958 kJ/mol
# Density = 2.323421 g / cm^3
# Si number density = 23.287208 Si / 1000 Ang^3
#
#
#
# Elastic Constant Matrix: (Units=GPa)
#
#
# Indices 1 2 3 4 5 6 
#
# 1 118.8831 80.6049 63.7022 -3.0024 -7.3541 24.6597
# 2 80.6049 109.7204 31.3083 -12.0959 4.3195 7.7218
# 3 63.7022 31.3083 92.2415 5.4689 2.3197 8.2479
# 4 -3.0024 -12.0959 5.4689 37.2628 0.8091 10.4925
# 5 -7.3541 4.3195 2.3197 0.8091 51.3966 -6.2018
# 6 24.6597 7.7218 8.2479 10.4925 -6.2018 45.7728
#
#
#
# Elastic Compliance Matrix: (Units=1/GPa)
#
#
# Indices 1 2 3 4 5 6 
#
# 1 0.030834 -0.017763 -0.014545 0.001747 0.005245 -0.010684
# 2 -0.017763 0.021161 0.004630 0.003797 -0.004138 0.003735
# 3 -0.014545 0.004630 0.019236 -0.003565 -0.002796 0.004027
# 4 0.001747 0.003797 -0.003565 0.031088 -0.001394 -0.008254
# 5 0.005245 -0.004138 -0.002796 -0.001394 0.020887 0.001526
# 6 -0.010684 0.003735 0.004027 -0.008254 0.001526 0.028346
#
#
# Mechanical properties :
#
#
# Convention : Reuss Voigt Hill
#
# Bulk Modulus (GPa) = 62.99433 74.67509 68.83471
# Shear Modulus (GPa) = 23.56265 36.56841 30.06553
#
# Velocity S-wave (km/s) = 3.18438 3.96703 3.59705
# Velocity P-wave (km/s) = 6.37417 7.28833 6.84652
#
# Compressibility (1/GPa) = 0.01587444
#
# Stress axis : x y z
#
# Youngs Moduli (GPa) = 32.43173 47.25622 51.98580
#
# Poissons Ratio (x) = 0.83943 0.75613
# Poissons Ratio (y) = 0.57610 -0.24069
# Poissons Ratio (z) = 0.47172 -0.21880
#
# Static dielectric constant tensor:
#      x y z
#    x 4.421810 0.069280 0.288600 
#    y 0.069280 4.308460 -0.089080 
#    z 0.288600 -0.089080 4.176670 
# 
# 
# High freq. dielectric constant tensor:
#      x y z
#    x 1.926670 -0.005750 0.022970 
#    y -0.005750 1.925690 0.000670 
#    z 0.022970 0.000670 1.910120 
# 
# From -- ./inp_files/59995.got.cif
#   From: 2010.06.25/outbox.cif.g09.slc.cpg/sg2_30_cif.got.tgz:59995.got - 2010.06.27 13:26:56.
