data_PCOD8032972
_publ_section_title
;
Structure prediction by ZEFSAII (Michael W. Deem and Ramdas Pophale) SiO2 
 PCOD8032972
Probable space group: P -1
;
_chemical_formula_sum "Si O2"
_cell_formula_units_Z 14
_cell_length_a 9.545494
_cell_length_b 13.123984
_cell_length_c 8.295733
_cell_angle_alpha 74.685954
_cell_angle_beta 108.900128
_cell_angle_gamma 55.003212
_cell_volume 655.841345
_symmetry_space_group_name_H-M "P -1"
_symmetry_group_IT_number 2
_symmetry_cell_setting 'triclinic'
loop_
_space_group_symop_operation_xyz
x,y,z
-x,-y,-z
loop_
_atom_site_type_symbol
_atom_site_label
_atom_site_fract_x
_atom_site_fract_y
_atom_site_fract_z
Si Si1 0.845045 0.590470 0.251706
Si Si2 0.776989 0.123627 0.451479
Si Si3 0.946545 0.335750 0.919249
Si Si4 0.564351 0.079883 0.928475
Si Si5 0.392363 0.445992 0.038154
Si Si6 0.977895 0.110832 0.825850
Si Si7 0.317711 0.031349 0.338069
O O1 0.618735 0.744741 0.170008
O O2 0.000000 0.500000 0.500000
O O3 0.958618 0.612997 0.162620
O O4 0.783222 0.511952 0.171318
O O5 0.586496 0.263923 0.209379
O O6 0.731901 0.029068 0.523892
O O7 0.799384 0.184981 0.592954
O O8 0.000000 0.000000 0.500000
O O9 0.726369 0.478601 0.866293
O O10 0.904939 0.256212 0.823833
O O11 0.118084 0.212779 0.168106
O O12 0.606504 0.059180 0.762352
O O13 0.500000 0.000000 0.000000
O O14 0.789965 0.995589 0.129659
O O15 0.500000 0.500000 0.000000
O O16 0.000000 0.000000 0.000000
O O17 0.500000 0.000000 0.500000
#
# Coordination Sequence:
#
# PCOD8032972 Si02
#       7
#     2   2   2   2   2   2   2
#     4  12  28  46  71 100 141 187 228 282 345 419
#     4  12  26  44  72 100 138 184 228 286 346 410
#     4  11  25  48  68 101 143 178 230 286 345 414
#     4  11  23  44  70 100 133 177 231 282 337 404
#     4  12  30  47  68 103 144 184 229 289 347 411
#     4  11  23  44  73 104 136 176 233 291 341 406
#     4  11  24  41  71  99 132 178 231 282 335 408
#
# _framework density 21.346625
#
# number of rings (size 3 to 8) (size 9 to 14) (size 15 to 20)
#    0.000    0.571    5.714    3.000   10.000    0.571 
#    0.000    0.000    0.000    0.000    0.000    0.000 
#    0.000    0.000    0.000    0.000    0.000    0.000 
#
# Total GULP energy -173561.696930 kJ/mol
# GULP energy per Si atom -12397.264066 kJ/mol
# Density = 2.129804 g / cm^3
# Si number density = 21.346625 Si / 1000 Ang^3
#
#
#
# Elastic Constant Matrix: (Units=GPa)
#
#
# Indices 1 2 3 4 5 6 
#
# 1 178.7643 51.4824 48.0716 -4.6085 -11.6656 11.0621
# 2 51.4824 102.5654 27.1364 -9.0308 8.2728 -6.8124
# 3 48.0716 27.1364 122.8133 -1.5300 6.7013 15.0025
# 4 -4.6085 -9.0308 -1.5300 30.3897 8.8181 12.8987
# 5 -11.6656 8.2728 6.7013 8.8181 43.3273 -0.0647
# 6 11.0621 -6.8124 15.0025 12.8987 -0.0647 50.7682
#
#
#
# Elastic Compliance Matrix: (Units=1/GPa)
#
#
# Indices 1 2 3 4 5 6 
#
# 1 0.007472 -0.003555 -0.002144 -0.000341 0.003090 -0.001381
# 2 -0.003555 0.012648 -0.001397 0.003411 -0.003847 0.002013
# 3 -0.002144 -0.001397 0.009802 0.001676 -0.002172 -0.003045
# 4 -0.000341 0.003411 0.001676 0.041096 -0.009382 -0.010416
# 5 0.003090 -0.003847 -0.002172 -0.009382 0.026895 0.001870
# 6 -0.001381 0.002013 -0.003045 -0.010416 0.001870 0.023817
#
#
# Mechanical properties :
#
#
# Convention : Reuss Voigt Hill
#
# Bulk Modulus (GPa) = 63.56453 73.05819 68.31136
# Shear Modulus (GPa) = 35.41995 43.39389 39.40692
#
# Velocity S-wave (km/s) = 4.07784 4.51357 4.30123
# Velocity P-wave (km/s) = 7.21205 7.83978 7.53246
#
# Compressibility (1/GPa) = 0.01573204
#
# Stress axis : x y z
#
# Youngs Moduli (GPa) = 133.82705 79.06391 102.02491
#
# Poissons Ratio (x) = 0.28104 0.21869
# Poissons Ratio (y) = 0.47570 0.14251
# Poissons Ratio (z) = 0.28686 0.11044
#
# Static dielectric constant tensor:
#      x y z
#    x 4.183050 0.093450 0.187550 
#    y 0.093450 3.586720 0.035860 
#    z 0.187550 0.035860 4.063600 
# 
# 
# High freq. dielectric constant tensor:
#      x y z
#    x 1.864710 0.002330 0.006840 
#    y 0.002330 1.842380 0.006700 
#    z 0.006840 0.006700 1.836320 
# 
# From -- ./inp_files/154340.got.cif
#   From: 2010.06.25/outbox.cif.g09.slc.cpg/sg2_78_cif.got.tgz:154340.got - 2010.06.27 13:26:56.
