data_PCOD8032053
_publ_section_title
;
Structure prediction by ZEFSAII (Michael W. Deem and Ramdas Pophale) SiO2 
 PCOD8032053
Probable space group: P -1
;
_chemical_formula_sum "Si O2"
_cell_formula_units_Z 12
_cell_length_a 15.731427
_cell_length_b 4.993044
_cell_length_c 16.376453
_cell_angle_alpha 61.353611
_cell_angle_beta 25.939422
_cell_angle_gamma 57.876737
_cell_volume 476.524764
_symmetry_space_group_name_H-M "P -1"
_symmetry_group_IT_number 2
_symmetry_cell_setting 'triclinic'
loop_
_space_group_symop_operation_xyz
x,y,z
-x,-y,-z
loop_
_atom_site_type_symbol
_atom_site_label
_atom_site_fract_x
_atom_site_fract_y
_atom_site_fract_z
Si Si1 0.156472 0.799004 0.457546
Si Si2 0.739739 0.374917 0.311775
Si Si3 0.747410 0.873007 0.510644
Si Si4 0.094403 0.602265 0.009938
Si Si5 0.706426 0.106084 0.072158
Si Si6 0.515336 0.636802 0.053688
O O1 0.104506 0.481098 0.582236
O O2 0.343548 0.622422 0.266756
O O3 0.206734 0.009527 0.455878
O O4 0.000000 0.000000 0.500000
O O5 0.500000 0.500000 0.500000
O O6 0.822257 0.290738 0.161998
O O7 0.807555 0.076941 0.357182
O O8 0.853638 0.633752 0.208802
O O9 0.512278 0.885098 0.703309
O O10 0.140126 0.853066 0.996501
O O11 0.209504 0.241530 0.988566
O O12 0.707184 0.385749 0.964759
O O13 0.500000 0.500000 0.000000
O O14 0.500000 0.000000 0.000000
#
# Coordination Sequence:
#
# PCOD8032053 Si02
#       6
#     2   2   2   2   2   2
#     4  11  25  45  70 106 145 185 246 295 357 437
#     4  11  26  47  73 106 146 187 241 290 361 422
#     4  11  24  44  72 104 141 196 233 299 364 420
#     4  11  26  46  70 105 140 190 234 294 346 438
#     4  11  23  46  68  98 143 182 243 285 356 429
#     4  11  23  40  68  97 137 186 229 294 356 410
#
# _framework density 25.182320000000001
#
# number of rings (size 3 to 8) (size 9 to 14) (size 15 to 20)
#    0.000    1.000    1.667    5.500    0.000   10.000 
#    0.000    0.000    0.000    0.000    0.000    0.000 
#    0.000    0.000    0.000    0.000    0.000    0.000 
#
# Total GULP energy -148667.487836 kJ/mol
# GULP energy per Si atom -12388.957320 kJ/mol
# Density = 2.512500 g / cm^3
# Si number density = 25.182320 Si / 1000 Ang^3
#
#
#
# Elastic Constant Matrix: (Units=GPa)
#
#
# Indices 1 2 3 4 5 6 
#
# 1 156.1331 40.4419 42.0749 -14.0572 -11.0556 3.1937
# 2 40.4419 173.2821 17.9007 -23.2118 -1.4798 -16.8354
# 3 42.0749 17.9007 102.8622 -17.8633 -15.0498 -11.7372
# 4 -14.0572 -23.2118 -17.8633 30.8613 -7.3575 3.1161
# 5 -11.0556 -1.4798 -15.0498 -7.3575 34.0058 -3.8122
# 6 3.1937 -16.8354 -11.7372 3.1161 -3.8122 54.5854
#
#
#
# Elastic Compliance Matrix: (Units=1/GPa)
#
#
# Indices 1 2 3 4 5 6 
#
# 1 0.007753 -0.001482 -0.002631 0.001381 0.001428 -0.001455
# 2 -0.001482 0.006953 0.000761 0.005134 0.001516 0.002208
# 3 -0.002631 0.000761 0.013658 0.008727 0.007486 0.003350
# 4 0.001381 0.005134 0.008727 0.045224 0.014523 0.001812
# 5 0.001428 0.001516 0.007486 0.014523 0.036811 0.003736
# 6 -0.001455 0.002208 0.003350 0.001812 0.003736 0.019964
#
#
# Mechanical properties :
#
#
# Convention : Reuss Voigt Hill
#
# Bulk Modulus (GPa) = 46.16294 70.34582 58.25438
# Shear Modulus (GPa) = 34.65328 46.01450 40.33389
#
# Velocity S-wave (km/s) = 3.71360 4.27928 4.00643
# Velocity P-wave (km/s) = 6.06293 7.23958 6.67722
#
# Compressibility (1/GPa) = 0.02166240
#
# Stress axis : x y z
#
# Youngs Moduli (GPa) = 128.98664 143.81672 73.21494
#
# Poissons Ratio (x) = 0.21311 0.19260
# Poissons Ratio (y) = 0.19113 -0.05575
# Poissons Ratio (z) = 0.33932 -0.10950
#
# Static dielectric constant tensor:
#      x y z
#    x 4.823670 -0.733170 0.127460 
#    y -0.733170 5.874560 -0.648990 
#    z 0.127460 -0.648990 4.860080 
# 
# 
# High freq. dielectric constant tensor:
#      x y z
#    x 2.010740 -0.017970 0.003480 
#    y -0.017970 2.037630 -0.016070 
#    z 0.003480 -0.016070 2.002700 
# 
# From -- ./inp_files/525180.got.cif
#   From: 2010.06.25/outbox.cif.g09.slc.cpg/sg2_263_cif.got.tgz:525180.got - 2010.06.27 13:26:56.
