data_PCOD8032221
_publ_section_title
;
Structure prediction by ZEFSAII (Michael W. Deem and Ramdas Pophale) SiO2 
 PCOD8032221
Probable space group: P -1
;
_chemical_formula_sum "Si O2"
_cell_formula_units_Z 16
_cell_length_a 11.624890
_cell_length_b 14.041507
_cell_length_c 9.794299
_cell_angle_alpha 115.041729
_cell_angle_beta 115.440357
_cell_angle_gamma 31.921148
_cell_volume 757.579070
_symmetry_space_group_name_H-M "P -1"
_symmetry_group_IT_number 2
_symmetry_cell_setting 'triclinic'
loop_
_space_group_symop_operation_xyz
x,y,z
-x,-y,-z
loop_
_atom_site_type_symbol
_atom_site_label
_atom_site_fract_x
_atom_site_fract_y
_atom_site_fract_z
Si Si1 0.633455 0.678652 0.657951
Si Si2 0.075837 0.269770 0.637378
Si Si3 0.434640 0.196515 0.808156
Si Si4 0.958412 0.029803 0.156907
Si Si5 0.963593 0.246252 0.841260
Si Si6 0.311018 0.130672 0.096993
Si Si7 0.528559 0.645648 0.868117
Si Si8 0.676207 0.070290 0.587822
O O1 0.702943 0.752560 0.755676
O O2 0.549270 0.696987 0.771581
O O3 0.435338 0.802690 0.524811
O O4 0.841160 0.470133 0.585910
O O5 0.213061 0.278048 0.764496
O O6 0.041836 0.206207 0.700616
O O7 0.212660 0.117881 0.498080
O O8 0.480566 0.189312 0.668920
O O9 0.643521 0.991746 0.845722
O O10 0.416100 0.317292 0.953552
O O11 0.958725 0.914879 0.154201
O O12 0.134404 0.981035 0.294112
O O13 0.714007 0.241290 0.179968
O O14 0.000000 0.000000 0.000000
O O15 0.700164 0.433939 0.830998
O O16 0.074323 0.268064 0.993349
O O17 0.500000 0.000000 0.000000
#
# Coordination Sequence:
#
# PCOD8032221 Si02
#       8
#     2   2   2   2   2   2   2   2
#     4  11  24  41  67 101 132 167 214 269 328 389
#     4  11  24  42  66  99 134 167 214 265 331 390
#     4  12  22  42  67  98 133 172 212 265 328 387
#     4  12  25  47  66  93 130 175 220 268 323 385
#     4  11  23  41  70 100 127 172 219 270 318 380
#     4  12  18  37  70  98 132 170 211 264 327 382
#     4  11  23  43  69  98 127 171 225 267 315 384
#     4  12  26  44  63  92 136 175 212 268 327 384
#
# _framework density 21.119909
#
# number of rings (size 3 to 8) (size 9 to 14) (size 15 to 20)
#    0.000    0.500    6.250    1.875    0.000    6.000 
#    4.500    2.500    0.000    0.000    0.000    0.000 
#    0.000    0.000    0.000    0.000    0.000    0.000 
#
# Total GULP energy -198450.028613 kJ/mol
# GULP energy per Si atom -12403.126788 kJ/mol
# Density = 2.107184 g / cm^3
# Si number density = 21.119909 Si / 1000 Ang^3
#
#
#
# Elastic Constant Matrix: (Units=GPa)
#
#
# Indices 1 2 3 4 5 6 
#
# 1 65.7700 28.4628 16.9795 -2.2293 3.1233 -13.0581
# 2 28.4628 111.4192 37.8554 -8.5350 -1.8628 -21.2575
# 3 16.9795 37.8554 99.3736 -4.2400 3.8819 -4.6301
# 4 -2.2293 -8.5350 -4.2400 25.8663 -14.4002 1.7582
# 5 3.1233 -1.8628 3.8819 -14.4002 31.0828 -2.3719
# 6 -13.0581 -21.2575 -4.6301 1.7582 -2.3719 29.4356
#
#
#
# Elastic Compliance Matrix: (Units=1/GPa)
#
#
# Indices 1 2 3 4 5 6 
#
# 1 0.018120 -0.003176 -0.001609 -0.001207 -0.001957 0.005406
# 2 -0.003176 0.013084 -0.004044 0.005506 0.004728 0.007456
# 3 -0.001609 -0.004044 0.011845 -0.000474 -0.001924 -0.001898
# 4 -0.001207 0.005506 -0.000474 0.054608 0.025977 0.002198
# 5 -0.001957 0.004728 -0.001924 0.025977 0.045258 0.004339
# 6 0.005406 0.007456 -0.001898 0.002198 0.004339 0.041675
#
#
# Mechanical properties :
#
#
# Convention : Reuss Voigt Hill
#
# Bulk Modulus (GPa) = 39.38510 49.23979 44.31245
# Shear Modulus (GPa) = 23.72920 30.16129 26.94524
#
# Velocity S-wave (km/s) = 3.35557 3.78312 3.57574
# Velocity P-wave (km/s) = 5.80534 6.51519 6.17048
#
# Compressibility (1/GPa) = 0.02539032
#
# Stress axis : x y z
#
# Youngs Moduli (GPa) = 55.18865 76.43158 84.42368
#
# Poissons Ratio (x) = 0.24273 0.13587
# Poissons Ratio (y) = 0.17526 0.34139
# Poissons Ratio (z) = 0.08882 0.30908
#
# Static dielectric constant tensor:
#      x y z
#    x 3.753650 -0.106950 -0.032080 
#    y -0.106950 3.968560 -0.167000 
#    z -0.032080 -0.167000 3.948300 
# 
# 
# High freq. dielectric constant tensor:
#      x y z
#    x 1.819910 -0.007810 -0.004980 
#    y -0.007810 1.836820 -0.007800 
#    z -0.004980 -0.007800 1.828130 
# 
# From -- ./inp_files/272764.got.cif
#   From: 2010.06.25/outbox.cif.g09.slc.cpg/sg2_137_cif.got.tgz:272764.got - 2010.06.27 13:26:56.
