data_PCOD8032789
_publ_section_title
;
Structure prediction by ZEFSAII (Michael W. Deem and Ramdas Pophale) SiO2 
 PCOD8032789
Probable space group: P -1
;
_chemical_formula_sum "Si O2"
_cell_formula_units_Z 12
_cell_length_a 9.685459
_cell_length_b 16.136843
_cell_length_c 13.969086
_cell_angle_alpha 153.637056
_cell_angle_beta 42.909415
_cell_angle_gamma 144.651848
_cell_volume 560.882223
_symmetry_space_group_name_H-M "P -1"
_symmetry_group_IT_number 2
_symmetry_cell_setting 'triclinic'
loop_
_space_group_symop_operation_xyz
x,y,z
-x,-y,-z
loop_
_atom_site_type_symbol
_atom_site_label
_atom_site_fract_x
_atom_site_fract_y
_atom_site_fract_z
Si Si1 0.840777 0.850482 0.838414
Si Si2 0.695747 0.218208 0.740413
Si Si3 0.984431 0.338963 0.066176
Si Si4 0.235158 0.099644 0.748212
Si Si5 0.573452 0.068975 0.856780
Si Si6 0.205089 0.587462 0.563989
O O1 0.723848 0.593146 0.649184
O O2 0.626502 0.884061 0.958390
O O3 0.001236 0.913167 0.727679
O O4 0.000000 0.000000 0.000000
O O5 0.918177 0.444007 0.822499
O O6 0.453968 0.208193 0.823749
O O7 0.705266 0.206639 0.837694
O O8 0.701769 0.010450 0.483105
O O9 0.894208 0.371799 0.246597
O O10 0.191448 0.285859 0.922251
O O11 0.765571 0.136643 0.912781
O O12 0.442386 0.807770 0.635016
O O13 0.000000 0.500000 0.500000
#
# Coordination Sequence:
#
# PCOD8032789 Si02
#       6
#     2   2   2   2   2   2
#     4  12  22  44  71 101 133 180 229 282 334 405
#     4  11  25  45  69 100 139 185 227 275 340 410
#     4  12  26  45  70 104 141 178 225 286 346 399
#     4  11  23  43  72  98 137 180 235 275 332 412
#     4  12  27  44  71 106 139 175 230 285 343 401
#     4  12  24  42  72 101 135 178 230 277 336 405
#
# _framework density 21.394866
#
# number of rings (size 3 to 8) (size 9 to 14) (size 15 to 20)
#    0.000    0.333    6.667    1.500    2.333    4.000 
#    0.000    0.000    0.000    0.000    0.000    0.000 
#    0.000    0.000    0.000    0.000    0.000    0.000 
#
# Total GULP energy -148874.791282 kJ/mol
# GULP energy per Si atom -12406.232607 kJ/mol
# Density = 2.134617 g / cm^3
# Si number density = 21.394866 Si / 1000 Ang^3
#
#
#
# Elastic Constant Matrix: (Units=GPa)
#
#
# Indices 1 2 3 4 5 6 
#
# 1 95.4819 20.0476 49.7300 -5.4483 10.0259 -7.3089
# 2 20.0476 100.7557 21.2644 4.5260 12.6474 -21.2666
# 3 49.7300 21.2644 97.1915 10.2960 -0.0091 -8.3525
# 4 -5.4483 4.5260 10.2960 41.7706 -5.3433 -6.3396
# 5 10.0259 12.6474 -0.0091 -5.3433 44.4465 -0.9780
# 6 -7.3089 -21.2666 -8.3525 -6.3396 -0.9780 22.3944
#
#
#
# Elastic Compliance Matrix: (Units=1/GPa)
#
#
# Indices 1 2 3 4 5 6 
#
# 1 0.015497 -0.000723 -0.007996 0.004087 -0.002747 0.002426
# 2 -0.000723 0.013276 -0.001550 0.000199 -0.003334 0.011704
# 3 -0.007996 -0.001550 0.015217 -0.004337 0.001736 0.000442
# 4 0.004087 0.000199 -0.004337 0.026994 0.002434 0.007654
# 5 -0.002747 -0.003334 0.001736 0.002434 0.024324 -0.001663
# 6 0.002426 0.011704 0.000442 0.007654 -0.001663 0.058819
#
#
# Mechanical properties :
#
#
# Convention : Reuss Voigt Hill
#
# Bulk Modulus (GPa) = 42.64077 52.83480 47.73779
# Shear Modulus (GPa) = 27.40005 35.21478 31.30742
#
# Velocity S-wave (km/s) = 3.58255 4.06143 3.82948
# Velocity P-wave (km/s) = 6.08987 6.83683 6.47413
#
# Compressibility (1/GPa) = 0.02345173
#
# Stress axis : x y z
#
# Youngs Moduli (GPa) = 64.52939 75.32462 65.71605
#
# Poissons Ratio (x) = 0.05443 0.52546
# Poissons Ratio (y) = 0.04663 0.10189
# Poissons Ratio (z) = 0.51597 0.11679
#
# Static dielectric constant tensor:
#      x y z
#    x 3.836480 -0.073800 -0.062890 
#    y -0.073800 4.115720 0.097830 
#    z -0.062890 0.097830 3.699370 
# 
# 
# High freq. dielectric constant tensor:
#      x y z
#    x 1.840010 -0.009000 -0.004110 
#    y -0.009000 1.847930 0.001300 
#    z -0.004110 0.001300 1.844360 
# 
# From -- ./inp_files/148726.got.cif
#   From: 2010.06.25/outbox.cif.g09.slc.cpg/sg2_75_cif.got.tgz:148726.got - 2010.06.27 13:26:56.
