data_PCOD8032421
_publ_section_title
;
Structure prediction by ZEFSAII (Michael W. Deem and Ramdas Pophale) SiO2 
 PCOD8032421
Probable space group: P -1
;
_chemical_formula_sum "Si O2"
_cell_formula_units_Z 16
_cell_length_a 14.538394
_cell_length_b 9.556880
_cell_length_c 10.986840
_cell_angle_alpha 109.667570
_cell_angle_beta 55.769324
_cell_angle_gamma 64.994777
_cell_volume 734.574103
_symmetry_space_group_name_H-M "P -1"
_symmetry_group_IT_number 2
_symmetry_cell_setting 'triclinic'
loop_
_space_group_symop_operation_xyz
x,y,z
-x,-y,-z
loop_
_atom_site_type_symbol
_atom_site_label
_atom_site_fract_x
_atom_site_fract_y
_atom_site_fract_z
Si Si1 0.831870 0.784033 0.071234
Si Si2 0.173526 0.653875 0.174566
Si Si3 0.507842 0.159336 0.895163
Si Si4 0.489555 0.334707 0.452968
Si Si5 0.033549 0.343737 0.325413
Si Si6 0.174315 0.993160 0.306492
Si Si7 0.830569 0.479392 0.108754
Si Si8 0.633345 0.704663 0.689261
O O1 0.775153 0.701745 0.169042
O O2 0.678291 0.068570 0.276897
O O3 0.867353 0.693634 0.878336
O O4 0.010522 0.675067 0.957353
O O5 0.353628 0.369405 0.978511
O O6 0.021228 0.776911 0.421889
O O7 0.227145 0.768876 0.179304
O O8 0.100661 0.692039 0.105969
O O9 0.435218 0.245514 0.110186
O O10 0.678956 0.088650 0.736746
O O11 0.571036 0.927958 0.745413
O O12 0.500000 0.500000 0.500000
O O13 0.337597 0.426420 0.679505
O O14 0.447502 0.339671 0.346104
O O15 0.168150 0.080444 0.205408
O O16 0.000000 0.500000 0.500000
O O17 0.847912 0.465353 0.457562
#
# Coordination Sequence:
#
# PCOD8032421 Si02
#       8
#     2   2   2   2   2   2   2   2
#     4  11  26  47  74  98 140 185 238 291 343 409
#     4  11  25  42  64 100 140 181 220 283 351 413
#     4  11  23  42  69  99 137 174 227 291 342 403
#     4  12  28  47  70 103 144 189 233 283 347 420
#     4  12  22  43  75 102 134 174 231 295 345 404
#     4  11  24  41  66 101 139 175 227 280 353 414
#     4  11  26  47  70 100 137 187 239 283 344 419
#     4  11  24  42  71 105 132 176 239 286 340 415
#
# _framework density 21.781328999999999
#
# number of rings (size 3 to 8) (size 9 to 14) (size 15 to 20)
#    0.000    0.750    3.750    3.000    5.250    2.500 
#    0.000    0.000    0.000    0.000    0.000    0.000 
#    0.000    0.000    0.000    0.000    0.000    0.000 
#
# Total GULP energy -198492.232688 kJ/mol
# GULP energy per Si atom -12405.764543 kJ/mol
# Density = 2.173175 g / cm^3
# Si number density = 21.781329 Si / 1000 Ang^3
#
#
#
# Elastic Constant Matrix: (Units=GPa)
#
#
# Indices 1 2 3 4 5 6 
#
# 1 129.6813 51.4110 44.4646 3.0793 2.6998 10.6171
# 2 51.4110 91.1556 47.9220 -3.9485 -7.0577 5.4781
# 3 44.4646 47.9220 71.6865 8.4062 -7.9584 4.4636
# 4 3.0793 -3.9485 8.4062 33.0711 -4.0800 -0.8115
# 5 2.6998 -7.0577 -7.9584 -4.0800 38.2167 -0.8984
# 6 10.6171 5.4781 4.4636 -0.8115 -0.8984 39.2096
#
#
#
# Elastic Compliance Matrix: (Units=1/GPa)
#
#
# Indices 1 2 3 4 5 6 
#
# 1 0.011005 -0.004163 -0.004101 -0.000842 -0.002537 -0.002007
# 2 -0.004163 0.019443 -0.010828 0.005733 0.002238 -0.000187
# 3 -0.004101 -0.010828 0.024861 -0.006901 0.002724 -0.000287
# 4 -0.000842 0.005733 -0.006901 0.033179 0.003246 0.000974
# 5 -0.002537 0.002238 0.002724 0.003246 0.027691 0.000766
# 6 -0.002007 -0.000187 -0.000287 0.000974 0.000766 0.026144
#
#
# Mechanical properties :
#
#
# Convention : Reuss Voigt Hill
#
# Bulk Modulus (GPa) = 58.39154 64.45762 61.42458
# Shear Modulus (GPa) = 26.85065 32.01452 29.43258
#
# Velocity S-wave (km/s) = 3.51484 3.83798 3.67996
# Velocity P-wave (km/s) = 6.58319 7.02121 6.80573
#
# Compressibility (1/GPa) = 0.01712577
#
# Stress axis : x y z
#
# Youngs Moduli (GPa) = 90.86909 51.43184 40.22341
#
# Poissons Ratio (x) = 0.21411 0.16496
# Poissons Ratio (y) = 0.37828 0.43553
# Poissons Ratio (z) = 0.37266 0.55689
#
# Static dielectric constant tensor:
#      x y z
#    x 4.078520 -0.058300 -0.132080 
#    y -0.058300 4.105770 0.036950 
#    z -0.132080 0.036950 4.050750 
# 
# 
# High freq. dielectric constant tensor:
#      x y z
#    x 1.868410 -0.003530 -0.009940 
#    y -0.003530 1.855520 -0.001920 
#    z -0.009940 -0.001920 1.859340 
# 
# From -- ./inp_files/447787.got.cif
#   From: 2010.06.25/outbox.cif.g09.slc.cpg/sg2_224_cif.got.tgz:447787.got - 2010.06.27 13:26:56.
