data_PCOD8032798
_publ_section_title
;
Structure prediction by ZEFSAII (Michael W. Deem and Ramdas Pophale) SiO2 
 PCOD8032798
Probable space group: P -1
;
_chemical_formula_sum "Si O2"
_cell_formula_units_Z 16
_cell_length_a 9.520359
_cell_length_b 18.588655
_cell_length_c 11.677216
_cell_angle_alpha 150.863954
_cell_angle_beta 52.212299
_cell_angle_gamma 131.507900
_cell_volume 750.219050
_symmetry_space_group_name_H-M "P -1"
_symmetry_group_IT_number 2
_symmetry_cell_setting 'triclinic'
loop_
_space_group_symop_operation_xyz
x,y,z
-x,-y,-z
loop_
_atom_site_type_symbol
_atom_site_label
_atom_site_fract_x
_atom_site_fract_y
_atom_site_fract_z
Si Si1 0.337929 0.874611 0.474022
Si Si2 0.281734 0.403235 0.473732
Si Si3 0.042858 0.342019 0.734702
Si Si4 0.831262 0.910615 0.039348
Si Si5 0.001682 0.543630 0.689784
Si Si6 0.408734 0.631792 0.256019
Si Si7 0.978429 0.876897 0.170857
Si Si8 0.228502 0.175370 0.566918
O O1 0.405510 0.733293 0.286172
O O2 0.149056 0.800687 0.390722
O O3 0.500000 0.000000 0.500000
O O4 0.295735 0.976454 0.740507
O O5 0.500000 0.500000 0.500000
O O6 0.194123 0.355484 0.576905
O O7 0.167839 0.505523 0.617396
O O8 0.274392 0.255972 0.194663
O O9 0.132245 0.302016 0.750558
O O10 0.000000 0.500000 0.000000
O O11 0.889429 0.886947 0.106757
O O12 0.000000 0.000000 0.000000
O O13 0.801588 0.440509 0.696222
O O14 0.000000 0.500000 0.500000
O O15 0.043040 0.726610 0.937534
O O16 0.544373 0.746679 0.442470
O O17 0.500000 0.500000 0.000000
O O18 0.827593 0.871850 0.338705
O O19 0.165103 0.026653 0.307227
#
# Coordination Sequence:
#
# PCOD8032798 Si02
#       8
#     2   2   2   2   2   2   2   2
#     4  12  27  44  74 109 144 199 247 299 376 435
#     4  12  28  48  74 109 145 196 246 305 374 438
#     4  12  25  47  71 107 145 187 249 309 361 441
#     4  12  23  49  72 100 152 193 245 303 367 442
#     4  12  25  46  73 102 149 193 239 296 373 440
#     4  12  25  46  71 108 146 191 246 298 365 440
#     4  11  23  43  73 104 143 191 240 302 361 430
#     4  11  24  42  72 104 140 185 246 297 358 427
#
# _framework density 21.327103999999999
#
# number of rings (size 3 to 8) (size 9 to 14) (size 15 to 20)
#    0.000    0.250    6.250    2.250    5.250    1.000 
#    0.000    0.625    0.000    0.000    0.000    0.000 
#    0.000    0.000    0.000    0.000    0.000    0.000 
#
# Total GULP energy -198412.059113 kJ/mol
# GULP energy per Si atom -12400.753695 kJ/mol
# Density = 2.127856 g / cm^3
# Si number density = 21.327104 Si / 1000 Ang^3
#
#
#
# Elastic Constant Matrix: (Units=GPa)
#
#
# Indices 1 2 3 4 5 6 
#
# 1 136.5960 74.6625 34.2383 4.3989 -0.5770 16.1150
# 2 74.6625 153.1458 54.7811 2.8417 -1.2318 11.4523
# 3 34.2383 54.7811 132.7085 10.0760 4.9028 12.2229
# 4 4.3989 2.8417 10.0760 37.7158 -3.1104 3.1283
# 5 -0.5770 -1.2318 4.9028 -3.1104 42.5476 3.9777
# 6 16.1150 11.4523 12.2229 3.1283 3.9777 50.1222
#
#
#
# Elastic Compliance Matrix: (Units=1/GPa)
#
#
# Indices 1 2 3 4 5 6 
#
# 1 0.010254 -0.004652 -0.000501 -0.000520 0.000220 -0.002097
# 2 -0.004652 0.009846 -0.002924 0.000644 0.000618 -0.000130
# 3 -0.000501 -0.002924 0.009190 -0.002177 -0.001199 -0.001181
# 4 -0.000520 0.000644 -0.002177 0.027417 0.002393 -0.001350
# 5 0.000220 0.000618 -0.001199 0.002393 0.024022 -0.001975
# 6 -0.002097 -0.000130 -0.001181 -0.001350 -0.001975 0.021184
#
#
# Mechanical properties :
#
#
# Convention : Reuss Voigt Hill
#
# Bulk Modulus (GPa) = 76.12092 83.31268 79.71680
# Shear Modulus (GPa) = 40.83443 43.32836 42.08139
#
# Velocity S-wave (km/s) = 4.38044 4.51223 4.44682
# Velocity P-wave (km/s) = 7.83288 8.14223 7.98905
#
# Compressibility (1/GPa) = 0.01313699
#
# Stress axis : x y z
#
# Youngs Moduli (GPa) = 97.52246 101.56122 108.81466
#
# Poissons Ratio (x) = 0.47244 0.05450
# Poissons Ratio (y) = 0.45365 0.31818
# Poissons Ratio (z) = 0.04885 0.29697
#
# Static dielectric constant tensor:
#      x y z
#    x 4.213030 -0.027760 -0.045120 
#    y -0.027760 4.105720 0.227860 
#    z -0.045120 0.227860 4.110650 
# 
# 
# High freq. dielectric constant tensor:
#      x y z
#    x 1.843730 -0.002270 0.001150 
#    y -0.002270 1.846630 0.018010 
#    z 0.001150 0.018010 1.850190 
# 
# From -- ./inp_files/403504.got.cif
#   From: 2010.06.25/outbox.cif.g09.slc.cpg/sg2_202_cif.got.tgz:403504.got - 2010.06.27 13:26:56.
