data_PCOD8032740
_publ_section_title
;
Structure prediction by ZEFSAII (Michael W. Deem and Ramdas Pophale) SiO2 
 PCOD8032740
Probable space group: P -1
;
_chemical_formula_sum "Si O2"
_cell_formula_units_Z 16
_cell_length_a 11.550327
_cell_length_b 12.017879
_cell_length_c 11.880356
_cell_angle_alpha 124.553054
_cell_angle_beta 95.967472
_cell_angle_gamma 130.118135
_cell_volume 692.459279
_symmetry_space_group_name_H-M "P -1"
_symmetry_group_IT_number 2
_symmetry_cell_setting 'triclinic'
loop_
_space_group_symop_operation_xyz
x,y,z
-x,-y,-z
loop_
_atom_site_type_symbol
_atom_site_label
_atom_site_fract_x
_atom_site_fract_y
_atom_site_fract_z
Si Si1 0.303342 0.402703 0.457105
Si Si2 0.774485 0.967435 0.481208
Si Si3 0.801238 0.252803 0.494441
Si Si4 0.326466 0.594106 0.353548
Si Si5 0.436045 0.267807 0.114304
Si Si6 0.848786 0.789000 0.031141
Si Si7 0.754263 0.655687 0.186829
Si Si8 0.283376 0.836735 0.820536
O O1 0.500000 0.500000 0.500000
O O2 0.276111 0.496162 0.419514
O O3 0.365708 0.533543 0.657542
O O4 0.080422 0.088402 0.266710
O O5 0.575085 0.793349 0.451973
O O6 0.759953 0.806738 0.332080
O O7 0.761512 0.070182 0.444592
O O8 0.014693 0.203392 0.705558
O O9 0.696382 0.266776 0.570306
O O10 0.680296 0.136001 0.294140
O O11 0.069085 0.538915 0.669341
O O12 0.132837 0.336043 0.103476
O O13 0.559391 0.375437 0.067712
O O14 0.282525 0.249011 0.095161
O O15 0.259256 0.968391 0.933061
O O16 0.691490 0.611506 0.023700
O O17 0.500000 0.000000 0.000000
#
# Coordination Sequence:
#
# PCOD8032740 Si02
#       8
#     2   2   2   2   2   2   2   2
#     4  12  24  42  65 102 140 176 224 285 346 409
#     4  11  23  46  70  99 137 186 229 284 348 395
#     4  11  26  47  70  99 144 182 232 279 335 420
#     4  12  25  44  67 102 145 186 224 278 347 413
#     4  12  24  43  74 100 135 178 229 292 343 399
#     4  12  25  41  68 105 137 180 225 283 350 403
#     4  11  23  43  71 104 134 173 240 293 334 405
#     4  11  25  46  72 102 131 186 234 282 338 404
#
# _framework density 23.10605
#
# number of rings (size 3 to 8) (size 9 to 14) (size 15 to 20)
#    0.000    0.500    2.500    6.375    3.500    3.000 
#    2.250    0.625    0.000    0.000    0.000    0.000 
#    0.000    0.000    0.000    0.000    0.000    0.000 
#
# Total GULP energy -198430.161316 kJ/mol
# GULP energy per Si atom -12401.885082 kJ/mol
# Density = 2.305346 g / cm^3
# Si number density = 23.106050 Si / 1000 Ang^3
#
#
#
# Elastic Constant Matrix: (Units=GPa)
#
#
# Indices 1 2 3 4 5 6 
#
# 1 91.8261 14.4981 12.6749 -6.4364 -2.5987 4.4999
# 2 14.4981 103.2252 21.9487 -3.6476 -1.2821 -4.4513
# 3 12.6749 21.9487 110.4999 -8.5676 -1.2899 1.9611
# 4 -6.4364 -3.6476 -8.5676 33.8985 -1.3017 -2.2155
# 5 -2.5987 -1.2821 -1.2899 -1.3017 30.0729 -2.5888
# 6 4.4999 -4.4513 1.9611 -2.2155 -2.5888 27.3717
#
#
#
# Elastic Compliance Matrix: (Units=1/GPa)
#
#
# Indices 1 2 3 4 5 6 
#
# 1 0.011469 -0.001438 -0.000855 0.001718 0.000809 -0.001842
# 2 -0.001438 0.010409 -0.001895 0.000526 0.000446 0.002150
# 3 -0.000855 -0.001895 0.009699 0.002053 0.000293 -0.000669
# 4 0.001718 0.000526 0.002053 0.030620 0.001783 0.002303
# 5 0.000809 0.000446 0.000293 0.001783 0.033711 0.003251
# 6 -0.001842 0.002150 -0.000669 0.002303 0.003251 0.037728
#
#
# Mechanical properties :
#
#
# Convention : Reuss Voigt Hill
#
# Bulk Modulus (GPa) = 43.09971 44.86607 43.98289
# Shear Modulus (GPa) = 33.39015 35.36392 34.37704
#
# Velocity S-wave (km/s) = 3.80555 3.91641 3.86138
# Velocity P-wave (km/s) = 6.16466 6.31749 6.24154
#
# Compressibility (1/GPa) = 0.02320201
#
# Stress axis : x y z
#
# Youngs Moduli (GPa) = 87.19389 96.06869 103.10745
#
# Poissons Ratio (x) = 0.13813 0.08812
# Poissons Ratio (y) = 0.12537 0.19537
# Poissons Ratio (z) = 0.07452 0.18204
#
# Static dielectric constant tensor:
#      x y z
#    x 4.201070 -0.107930 -0.059930 
#    y -0.107930 4.429260 0.099690 
#    z -0.059930 0.099690 4.778400 
# 
# 
# High freq. dielectric constant tensor:
#      x y z
#    x 1.908200 -0.004020 0.002740 
#    y -0.004020 1.921740 0.000700 
#    z 0.002740 0.000700 1.920590 
# 
# From -- ./inp_files/428751.got.cif
#   From: 2010.06.25/outbox.cif.g09.slc.cpg/sg2_215_cif.got.tgz:428751.got - 2010.06.27 13:26:56.
