data_PCOD8032396
_publ_section_title
;
Structure prediction by ZEFSAII (Michael W. Deem and Ramdas Pophale) SiO2 
 PCOD8032396
Probable space group: P -1
;
_chemical_formula_sum "Si O2"
_cell_formula_units_Z 16
_cell_length_a 9.509627
_cell_length_b 13.045570
_cell_length_c 10.786443
_cell_angle_alpha 145.470044
_cell_angle_beta 93.666548
_cell_angle_gamma 94.802839
_cell_volume 734.621566
_symmetry_space_group_name_H-M "P -1"
_symmetry_group_IT_number 2
_symmetry_cell_setting 'triclinic'
loop_
_space_group_symop_operation_xyz
x,y,z
-x,-y,-z
loop_
_atom_site_type_symbol
_atom_site_label
_atom_site_fract_x
_atom_site_fract_y
_atom_site_fract_z
Si Si1 0.862198 0.102905 0.465187
Si Si2 0.101870 0.438791 0.284412
Si Si3 0.111656 0.043708 0.936719
Si Si4 0.698162 0.394027 0.756480
Si Si5 0.211032 0.569251 0.690227
Si Si6 0.358944 0.993454 0.062788
Si Si7 0.625758 0.698141 0.429382
Si Si8 0.828198 0.750565 0.268568
O O1 0.728242 0.192219 0.585406
O O2 0.002985 0.219713 0.660803
O O3 0.900238 0.111043 0.326924
O O4 0.810989 0.890664 0.297408
O O5 0.215761 0.558266 0.318066
O O6 0.167111 0.489228 0.473191
O O7 0.940889 0.469541 0.281956
O O8 0.090227 0.223256 0.042974
O O9 0.265720 0.074691 0.039863
O O10 0.000000 0.000000 0.000000
O O11 0.529689 0.391683 0.730280
O O12 0.763772 0.538781 0.012117
O O13 0.320899 0.462873 0.653940
O O14 0.284744 0.788526 0.905410
O O15 0.393710 0.133622 0.318642
O O16 0.500000 0.000000 0.000000
O O17 0.741080 0.789557 0.422924
#
# Coordination Sequence:
#
# PCOD8032396 Si02
#       8
#     2   2   2   2   2   2   2   2
#     4  11  25  45  73  99 131 176 226 282 333 389
#     4  11  23  42  69 100 137 174 220 278 333 396
#     4  12  22  42  70 102 138 173 218 277 336 400
#     4  12  26  45  68  98 134 178 224 278 334 391
#     4  11  25  42  67 102 135 177 219 273 337 400
#     4  12  26  42  67 102 141 177 214 270 342 407
#     4  12  27  44  68  99 138 180 223 270 333 405
#     4  11  26  47  69  96 132 176 233 280 326 388
#
# _framework density 21.779923
#
# number of rings (size 3 to 8) (size 9 to 14) (size 15 to 20)
#    0.000    0.500    3.750    4.500    3.500    3.500 
#    0.000    0.000    0.000    0.000    0.000    0.000 
#    0.000    0.000    0.000    0.000    0.000    0.000 
#
# Total GULP energy -198411.678211 kJ/mol
# GULP energy per Si atom -12400.729888 kJ/mol
# Density = 2.173035 g / cm^3
# Si number density = 21.779923 Si / 1000 Ang^3
#
#
#
# Elastic Constant Matrix: (Units=GPa)
#
#
# Indices 1 2 3 4 5 6 
#
# 1 89.2259 5.4851 10.6423 -12.3566 -8.6576 4.8992
# 2 5.4851 50.9017 10.3469 -8.6822 -10.1946 13.5196
# 3 10.6423 10.3469 110.1882 -4.6559 -10.5932 -8.0122
# 4 -12.3566 -8.6822 -4.6559 28.5857 0.4230 3.2365
# 5 -8.6576 -10.1946 -10.5932 0.4230 35.4644 -0.4602
# 6 4.8992 13.5196 -8.0122 3.2365 -0.4602 26.4026
#
#
#
# Elastic Compliance Matrix: (Units=1/GPa)
#
#
# Indices 1 2 3 4 5 6 
#
# 1 0.012635 0.001681 -0.001126 0.006225 0.003102 -0.004256
# 2 0.001681 0.027625 -0.002824 0.010415 0.007170 -0.016466
# 3 -0.001126 -0.002824 0.009971 -0.000288 0.001956 0.004750
# 4 0.006225 0.010415 -0.000288 0.042055 0.003775 -0.011665
# 5 0.003102 0.007170 0.001956 0.003775 0.031509 -0.003567
# 6 -0.004256 -0.016466 0.004750 -0.011665 -0.003567 0.049906
#
#
# Mechanical properties :
#
#
# Convention : Reuss Voigt Hill
#
# Bulk Modulus (GPa) = 21.88631 33.69604 27.79118
# Shear Modulus (GPa) = 25.84386 33.01329 29.42858
#
# Velocity S-wave (km/s) = 3.44843 3.89751 3.67983
# Velocity P-wave (km/s) = 5.09178 5.97987 5.55361
#
# Compressibility (1/GPa) = 0.04569067
#
# Stress axis : x y z
#
# Youngs Moduli (GPa) = 79.14366 36.19970 100.29350
#
# Poissons Ratio (x) = -0.06084 0.11297
# Poissons Ratio (y) = -0.13303 0.28326
# Poissons Ratio (z) = 0.08915 0.10224
#
# Static dielectric constant tensor:
#      x y z
#    x 3.909820 0.227490 0.011050 
#    y 0.227490 3.489140 -0.163340 
#    z 0.011050 -0.163340 3.960310 
# 
# 
# High freq. dielectric constant tensor:
#      x y z
#    x 1.866420 -0.004340 -0.009530 
#    y -0.004340 1.857450 -0.000370 
#    z -0.009530 -0.000370 1.868170 
# 
# From -- ./inp_files/400103.got.cif
#   From: 2010.06.25/outbox.cif.g09.slc.cpg/sg2_201_cif.got.tgz:400103.got - 2010.06.27 13:26:56.
