data_PCOD8032253
_publ_section_title
;
Structure prediction by ZEFSAII (Michael W. Deem and Ramdas Pophale) SiO2 
 PCOD8032253
Probable space group: P -1
;
_chemical_formula_sum "Si O2"
_cell_formula_units_Z 16
_cell_length_a 10.977762
_cell_length_b 8.973796
_cell_length_c 9.393639
_cell_angle_alpha 77.046656
_cell_angle_beta 138.541189
_cell_angle_gamma 88.880301
_cell_volume 571.315944
_symmetry_space_group_name_H-M "P -1"
_symmetry_group_IT_number 2
_symmetry_cell_setting 'triclinic'
loop_
_space_group_symop_operation_xyz
x,y,z
-x,-y,-z
loop_
_atom_site_type_symbol
_atom_site_label
_atom_site_fract_x
_atom_site_fract_y
_atom_site_fract_z
Si Si1 0.326086 0.929909 0.462376
Si Si2 0.251838 0.647367 0.337844
Si Si3 0.193962 0.366395 0.540064
Si Si4 0.962752 0.906315 0.623328
Si Si5 0.759080 0.564045 0.127155
Si Si6 0.650818 0.342570 0.892524
Si Si7 0.172887 0.149550 0.024285
Si Si8 0.546491 0.041715 0.875157
O O1 0.116012 0.968964 0.344854
O O2 0.310970 0.055640 0.293554
O O3 0.389008 0.745758 0.503267
O O4 0.467778 0.945744 0.708348
O O5 0.269699 0.484882 0.475380
O O6 0.324327 0.588444 0.255675
O O7 0.047334 0.786881 0.129500
O O8 0.209060 0.183180 0.538242
O O9 0.304411 0.360220 0.789726
O O10 0.967639 0.436390 0.352192
O O11 0.000000 0.000000 0.500000
O O12 0.149736 0.776332 0.863116
O O13 0.605223 0.479979 0.943988
O O14 0.769415 0.692174 0.991706
O O15 0.493789 0.239090 0.775740
O O16 0.223014 0.031139 0.951443
O O17 0.500000 0.000000 0.000000
#
# Coordination Sequence:
#
# PCOD8032253 Si02
#       8
#     2   2   2   2   2   2   2   2
#     4  12  25  41  67  99 132 180 222 276 332 390
#     4  11  23  41  72 102 135 168 219 282 333 396
#     4   9  22  38  63 102 137 166 214 275 343 387
#     4  11  24  38  71 102 131 170 227 278 329 395
#     4   9  22  39  67  95 137 172 212 276 332 395
#     4  11  23  44  66 100 131 174 221 275 338 390
#     4  11  23  45  68  99 132 173 221 277 333 396
#     4  12  28  45  64  93 139 180 229 275 326 397
#
# _framework density 28.005519
#
# number of rings (size 3 to 8) (size 9 to 14) (size 15 to 20)
#    0.000    1.250    2.500    2.250   14.000    1.500 
#    0.000    2.500    0.000    0.000    0.000    0.000 
#    0.000    0.000    0.000    0.000    0.000    0.000 
#
# Total GULP energy -198340.462757 kJ/mol
# GULP energy per Si atom -12396.278922 kJ/mol
# Density = 2.794178 g / cm^3
# Si number density = 28.005519 Si / 1000 Ang^3
#
#
#
# Elastic Constant Matrix: (Units=GPa)
#
#
# Indices 1 2 3 4 5 6 
#
# 1 96.9852 13.2955 42.3052 -0.2793 -33.2018 9.7382
# 2 13.2955 134.5040 47.5346 28.3406 -12.5428 5.4828
# 3 42.3052 47.5346 117.7321 4.9662 -30.3326 12.5521
# 4 -0.2793 28.3406 4.9662 35.8172 3.9095 -2.2899
# 5 -33.2018 -12.5428 -30.3326 3.9095 46.4582 0.2157
# 6 9.7382 5.4828 12.5521 -2.2899 0.2157 54.6193
#
#
#
# Elastic Compliance Matrix: (Units=1/GPa)
#
#
# Indices 1 2 3 4 5 6 
#
# 1 0.014792 0.000787 -0.003069 -0.001186 0.008889 -0.002096
# 2 0.000787 0.010544 -0.003694 -0.008052 0.001678 -0.000694
# 3 -0.003069 -0.003694 0.012560 0.000488 0.004978 -0.001968
# 4 -0.001186 -0.008052 0.000488 0.034985 -0.005658 0.002397
# 5 0.008889 0.001678 0.004978 -0.005658 0.032072 -0.003261
# 6 -0.002096 -0.000694 -0.001968 0.002397 -0.003261 0.019317
#
#
# Mechanical properties :
#
#
# Convention : Reuss Voigt Hill
#
# Bulk Modulus (GPa) = 38.54619 61.72131 50.13375
# Shear Modulus (GPa) = 34.51388 43.78465 39.14927
#
# Velocity S-wave (km/s) = 3.51436 3.95831 3.74292
# Velocity P-wave (km/s) = 5.50103 6.55575 6.05141
#
# Compressibility (1/GPa) = 0.02594290
#
# Stress axis : x y z
#
# Youngs Moduli (GPa) = 67.60432 94.84306 79.61956
#
# Poissons Ratio (x) = -0.07462 0.24437
# Poissons Ratio (y) = -0.05319 0.29410
# Poissons Ratio (z) = 0.20749 0.35033
#
# Static dielectric constant tensor:
#      x y z
#    x 5.931300 -0.398290 0.574040 
#    y -0.398290 5.809370 0.454580 
#    z 0.574040 0.454580 5.486200 
# 
# 
# High freq. dielectric constant tensor:
#      x y z
#    x 2.167010 -0.011230 0.021220 
#    y -0.011230 2.155340 0.001040 
#    z 0.021220 0.001040 2.147000 
# 
# From -- ./inp_files/243725.got.cif
#   From: 2010.06.25/outbox.cif.g09.slc.cpg/sg2_122_cif.got.tgz:243725.got - 2010.06.27 13:26:56.
