data_PCOD8032976
_publ_section_title
;
Structure prediction by ZEFSAII (Michael W. Deem and Ramdas Pophale) SiO2 
 PCOD8032976
Probable space group: P -1
;
_chemical_formula_sum "Si O2"
_cell_formula_units_Z 16
_cell_length_a 17.687821
_cell_length_b 9.165140
_cell_length_c 12.657513
_cell_angle_alpha 129.269584
_cell_angle_beta 150.001679
_cell_angle_gamma 61.298971
_cell_volume 781.906420
_symmetry_space_group_name_H-M "P -1"
_symmetry_group_IT_number 2
_symmetry_cell_setting 'triclinic'
loop_
_space_group_symop_operation_xyz
x,y,z
-x,-y,-z
loop_
_atom_site_type_symbol
_atom_site_label
_atom_site_fract_x
_atom_site_fract_y
_atom_site_fract_z
Si Si1 0.369903 0.456622 0.237846
Si Si2 0.402377 0.168541 0.971485
Si Si3 0.545656 0.536700 0.189254
Si Si4 0.609157 0.200994 0.745751
Si Si5 0.063041 0.974253 0.447203
Si Si6 0.089109 0.952502 0.920940
Si Si7 0.120527 0.271233 0.268389
Si Si8 0.964090 0.557528 0.099639
O O1 0.500000 0.500000 0.500000
O O2 0.381257 0.645992 0.266990
O O3 0.391917 0.258897 0.116665
O O4 0.209844 0.412320 0.085544
O O5 0.229881 0.100220 0.690076
O O6 0.487571 0.339982 0.085326
O O7 0.500000 0.000000 0.000000
O O8 0.463811 0.711165 0.203113
O O9 0.726418 0.589407 0.449491
O O10 0.500000 0.500000 0.000000
O O11 0.500000 0.000000 0.500000
O O12 0.779852 0.176260 0.973167
O O13 0.078711 0.753621 0.354042
O O14 0.000000 0.000000 0.500000
O O15 0.953303 0.026991 0.244045
O O16 0.938093 0.860472 0.762546
O O17 0.152332 0.154136 0.147824
O O18 0.992151 0.397229 0.143170
O O19 0.000000 0.500000 0.000000
#
# Coordination Sequence:
#
# PCOD8032976 Si02
#       8
#     2   2   2   2   2   2   2   2
#     4  11  27  45  69 104 138 179 237 286 342 420
#     4  11  26  47  67  99 138 181 228 283 349 414
#     4  11  25  45  67 100 136 178 227 280 346 411
#     4  11  24  44  70 100 139 181 228 282 345 409
#     4  12  26  45  69 103 142 180 235 292 352 416
#     4  11  24  43  70 103 137 180 233 285 346 419
#     4  11  23  44  70 101 137 180 232 285 343 417
#     4  12  25  44  71 102 136 184 233 288 350 411
#
# _framework density 20.462806
#
# number of rings (size 3 to 8) (size 9 to 14) (size 15 to 20)
#    0.000    0.750    5.000    1.500    7.000    3.000 
#    0.000    2.500    0.000    0.000    0.000    0.000 
#    0.000    0.000    0.000    0.000    0.000    0.000 
#
# Total GULP energy -198383.817748 kJ/mol
# GULP energy per Si atom -12398.988609 kJ/mol
# Density = 2.041623 g / cm^3
# Si number density = 20.462806 Si / 1000 Ang^3
#
#
#
# Elastic Constant Matrix: (Units=GPa)
#
#
# Indices 1 2 3 4 5 6 
#
# 1 131.8407 46.1853 66.5503 -1.0066 -15.7711 -13.4439
# 2 46.1853 123.5937 51.4902 2.8161 -13.1269 -17.9223
# 3 66.5503 51.4902 151.0771 2.0417 -7.5113 -4.0480
# 4 -1.0066 2.8161 2.0417 45.5302 2.0217 0.2554
# 5 -15.7711 -13.1269 -7.5113 2.0217 43.8337 0.5650
# 6 -13.4439 -17.9223 -4.0480 0.2554 0.5650 35.8622
#
#
#
# Elastic Compliance Matrix: (Units=1/GPa)
#
#
# Indices 1 2 3 4 5 6 
#
# 1 0.010780 -0.001715 -0.003967 0.000390 0.002633 0.002692
# 2 -0.001715 0.010718 -0.002666 -0.000700 0.002112 0.004385
# 3 -0.003967 -0.002666 0.009201 -0.000298 -0.000612 -0.001769
# 4 0.000390 -0.000700 -0.000298 0.022081 -0.001134 -0.000376
# 5 0.002633 0.002112 -0.000612 -0.001134 0.024320 0.001598
# 6 0.002692 0.004385 -0.001769 -0.000376 0.001598 0.030863
#
#
# Mechanical properties :
#
#
# Convention : Reuss Voigt Hill
#
# Bulk Modulus (GPa) = 71.39972 81.66257 76.53115
# Shear Modulus (GPa) = 38.66174 41.19759 39.92966
#
# Velocity S-wave (km/s) = 4.35140 4.49184 4.42218
# Velocity P-wave (km/s) = 7.75980 8.17903 7.97217
#
# Compressibility (1/GPa) = 0.01400566
#
# Stress axis : x y z
#
# Youngs Moduli (GPa) = 92.76155 93.29705 108.68165
#
# Poissons Ratio (x) = 0.15999 0.43110
# Poissons Ratio (y) = 0.15907 0.28972
# Poissons Ratio (z) = 0.36795 0.24871
#
# Static dielectric constant tensor:
#      x y z
#    x 3.752740 0.111620 0.180780 
#    y 0.111620 3.677580 -0.013930 
#    z 0.180780 -0.013930 3.610400 
# 
# 
# High freq. dielectric constant tensor:
#      x y z
#    x 1.810910 -0.001540 0.005080 
#    y -0.001540 1.809970 0.009960 
#    z 0.005080 0.009960 1.811910 
# 
# From -- ./inp_files/184282.got.cif
#   From: 2010.06.25/outbox.cif.g09.slc.cpg/sg2_93_cif.got.tgz:184282.got - 2010.06.27 13:26:56.
