data_PCOD8032795
_publ_section_title
;
Structure prediction by ZEFSAII (Michael W. Deem and Ramdas Pophale) SiO2 
 PCOD8032795
Probable space group: P -1
;
_chemical_formula_sum "Si O2"
_cell_formula_units_Z 16
_cell_length_a 20.336979
_cell_length_b 8.444981
_cell_length_c 17.569509
_cell_angle_alpha 45.009780
_cell_angle_beta 159.530453
_cell_angle_gamma 137.317103
_cell_volume 713.260170
_symmetry_space_group_name_H-M "P -1"
_symmetry_group_IT_number 2
_symmetry_cell_setting 'triclinic'
loop_
_space_group_symop_operation_xyz
x,y,z
-x,-y,-z
loop_
_atom_site_type_symbol
_atom_site_label
_atom_site_fract_x
_atom_site_fract_y
_atom_site_fract_z
Si Si1 0.333155 0.134954 0.283343
Si Si2 0.210703 0.480920 0.721064
Si Si3 0.321143 0.032267 0.026978
Si Si4 0.074650 0.979758 0.201664
Si Si5 0.300824 0.655094 0.599888
Si Si6 0.534821 0.023680 0.118658
Si Si7 0.026005 0.318395 0.151172
Si Si8 0.363332 0.431100 0.589339
O O1 0.237244 0.101723 0.273715
O O2 0.438944 0.410937 0.291280
O O3 0.500000 0.000000 0.500000
O O4 0.151158 0.046644 0.057250
O O5 0.254602 0.472922 0.681504
O O6 0.355942 0.706762 0.840062
O O7 0.000000 0.500000 0.500000
O O8 0.229496 0.247999 0.859946
O O9 0.529011 0.109615 0.270706
O O10 0.342309 0.964658 0.984322
O O11 0.182977 0.806187 0.995049
O O12 0.119083 0.136411 0.272285
O O13 0.106770 0.730202 0.341886
O O14 0.367621 0.526826 0.646448
O O15 0.653002 0.842969 0.333011
O O16 0.500000 0.000000 0.000000
O O17 0.173615 0.455406 0.330154
O O18 0.000000 0.500000 0.000000
#
# Coordination Sequence:
#
# PCOD8032795 Si02
#       8
#     2   2   2   2   2   2   2   2
#     4  11  24  46  70  99 134 190 235 290 335 422
#     4  11  23  44  70  98 136 184 236 283 349 432
#     4  11  24  46  70  98 145 191 233 285 351 426
#     4  11  25  44  71  97 138 185 246 271 349 422
#     4  11  23  43  73 101 133 188 237 282 349 431
#     4  11  24  43  69 105 136 178 230 293 366 411
#     4  12  28  43  66 104 144 184 235 293 352 407
#     4  12  25  42  67 102 144 174 235 294 358 401
#
# _framework density 22.432207999999999
#
# number of rings (size 3 to 8) (size 9 to 14) (size 15 to 20)
#    0.000    0.750    1.250    7.500    5.250    2.500 
#    0.000    2.500    0.000    0.000    0.000    0.000 
#    0.000    0.000    0.000    0.000    0.000    0.000 
#
# Total GULP energy -198411.276166 kJ/mol
# GULP energy per Si atom -12400.704760 kJ/mol
# Density = 2.238115 g / cm^3
# Si number density = 22.432208 Si / 1000 Ang^3
#
#
#
# Elastic Constant Matrix: (Units=GPa)
#
#
# Indices 1 2 3 4 5 6 
#
# 1 139.1002 47.8627 42.8579 19.5420 -4.9755 3.8863
# 2 47.8627 86.1963 33.2009 -6.8969 -3.7527 22.6596
# 3 42.8579 33.2009 120.7312 -1.7816 1.6245 11.8516
# 4 19.5420 -6.8969 -1.7816 38.6385 2.4067 6.6487
# 5 -4.9755 -3.7527 1.6245 2.4067 40.1989 -0.0591
# 6 3.8863 22.6596 11.8516 6.6487 -0.0591 36.5316
#
#
#
# Elastic Compliance Matrix: (Units=1/GPa)
#
#
# Indices 1 2 3 4 5 6 
#
# 1 0.011770 -0.007647 -0.002805 -0.008558 0.001377 0.005961
# 2 -0.007647 0.020748 -0.001544 0.009766 0.000449 -0.013332
# 3 -0.002805 -0.001544 0.009979 0.002073 -0.001022 -0.002360
# 4 -0.008558 0.009766 0.002073 0.034267 -0.002301 -0.012060
# 5 0.001377 0.000449 -0.001022 -0.002301 0.025268 0.000366
# 6 0.005961 -0.013332 -0.002360 -0.012060 0.000366 0.037970
#
#
# Mechanical properties :
#
#
# Convention : Reuss Voigt Hill
#
# Bulk Modulus (GPa) = 54.04154 65.98562 60.01358
# Shear Modulus (GPa) = 29.38370 37.88090 33.63230
#
# Velocity S-wave (km/s) = 3.62317 4.11382 3.87626
# Velocity P-wave (km/s) = 6.45341 7.21416 6.84436
#
# Compressibility (1/GPa) = 0.01850429
#
# Stress axis : x y z
#
# Youngs Moduli (GPa) = 84.96460 48.19759 100.20646
#
# Poissons Ratio (x) = 0.36855 0.28110
# Poissons Ratio (y) = 0.64970 0.15476
# Poissons Ratio (z) = 0.23834 0.07444
#
# Static dielectric constant tensor:
#      x y z
#    x 2.241810 -3.248650 -0.229360 
#    y -3.248650 -0.903700 -0.326680 
#    z -0.229360 -0.326680 4.103300 
# 
# 
# High freq. dielectric constant tensor:
#      x y z
#    x 1.903550 0.004870 -0.002490 
#    y 0.004870 1.879450 -0.010880 
#    z -0.002490 -0.010880 1.887630 
# 
# From -- ./inp_files/577564.got.cif
#   From: 2010.06.25/outbox.cif.g09.slc.cpg/sg2_289_cif.got.tgz:577564.got - 2010.06.27 13:26:56.
