data_PCOD8032881
_publ_section_title
;
Structure prediction by ZEFSAII (Michael W. Deem and Ramdas Pophale) SiO2 
 PCOD8032881
Probable space group: P -1
;
_chemical_formula_sum "Si O2"
_cell_formula_units_Z 14
_cell_length_a 24.737100
_cell_length_b 8.302571
_cell_length_c 17.559124
_cell_angle_alpha 145.806601
_cell_angle_beta 160.686192
_cell_angle_gamma 33.236709
_cell_volume 639.377565
_symmetry_space_group_name_H-M "P -1"
_symmetry_group_IT_number 2
_symmetry_cell_setting 'triclinic'
loop_
_space_group_symop_operation_xyz
x,y,z
-x,-y,-z
loop_
_atom_site_type_symbol
_atom_site_label
_atom_site_fract_x
_atom_site_fract_y
_atom_site_fract_z
Si Si1 0.380590 0.168871 0.024619
Si Si2 0.897375 0.733033 0.515728
Si Si3 0.628525 0.251127 0.277241
Si Si4 0.817637 0.704028 0.665022
Si Si5 0.960332 0.228334 0.883065
Si Si6 0.610672 0.227685 0.490125
Si Si7 0.001913 0.338148 0.632329
O O1 0.447577 0.360196 0.124136
O O2 0.492396 0.123874 0.231998
O O3 0.187048 0.355324 0.859804
O O4 0.387746 0.843561 0.869383
O O5 0.000000 0.500000 0.500000
O O6 0.862376 0.537615 0.464481
O O7 0.726066 0.945506 0.333528
O O8 0.005219 0.946584 0.775216
O O9 0.719658 0.508012 0.505132
O O10 0.961673 0.477859 0.716676
O O11 0.682324 0.950696 0.533353
O O12 0.915089 0.864628 0.914889
O O13 0.762377 0.312807 0.680401
O O14 0.000000 0.500000 0.000000
O O15 0.500000 0.500000 0.500000
O O16 0.000000 0.000000 0.500000
#
# Coordination Sequence:
#
# PCOD8032881 Si02
#       7
#     2   2   2   2   2   2   2
#     4  11  23  44  65  97 141 175 222 285 345 410
#     4  12  23  45  70 107 138 182 236 285 345 422
#     4  11  23  45  68  99 139 177 230 285 350 409
#     4  12  24  47  69 102 136 185 233 290 343 419
#     4  12  25  47  76  97 141 187 236 285 349 424
#     4  12  27  46  66 102 142 181 231 289 354 406
#     4  12  24  43  73 104 138 179 236 286 346 412
#
# _framework density 21.896294000000001
#
# number of rings (size 3 to 8) (size 9 to 14) (size 15 to 20)
#    0.000    0.286    7.143    1.286    2.000    0.571 
#    7.714    1.429    0.000    0.000    0.000    0.000 
#    0.000    0.000    0.000    0.000    0.000    0.000 
#
# Total GULP energy -173578.028532 kJ/mol
# GULP energy per Si atom -12398.430609 kJ/mol
# Density = 2.184646 g / cm^3
# Si number density = 21.896294 Si / 1000 Ang^3
#
#
#
# Elastic Constant Matrix: (Units=GPa)
#
#
# Indices 1 2 3 4 5 6 
#
# 1 110.8604 55.2106 54.4072 3.7054 3.8903 -8.6051
# 2 55.2106 121.6092 49.7365 9.7836 -0.9929 3.6997
# 3 54.4072 49.7365 138.5411 5.1194 -21.4458 -10.8373
# 4 3.7054 9.7836 5.1194 35.8597 -5.1701 -7.1509
# 5 3.8903 -0.9929 -21.4458 -5.1701 57.2563 1.1041
# 6 -8.6051 3.6997 -10.8373 -7.1509 1.1041 45.1794
#
#
#
# Elastic Compliance Matrix: (Units=1/GPa)
#
#
# Indices 1 2 3 4 5 6 
#
# 1 0.013466 -0.004672 -0.003837 0.000513 -0.002428 0.002168
# 2 -0.004672 0.011735 -0.002600 -0.003030 -0.000670 -0.002938
# 3 -0.003837 -0.002600 0.010431 0.000608 0.004139 0.001979
# 4 0.000513 -0.003030 0.000608 0.030001 0.002750 0.005173
# 5 -0.002428 -0.000670 0.004139 0.002750 0.019407 0.000546
# 6 0.002168 -0.002938 0.001979 0.005173 0.000546 0.024068
#
#
# Mechanical properties :
#
#
# Convention : Reuss Voigt Hill
#
# Bulk Modulus (GPa) = 74.53537 76.63548 75.58543
# Shear Modulus (GPa) = 36.81993 41.76949 39.29471
#
# Velocity S-wave (km/s) = 4.10513 4.37235 4.24085
# Velocity P-wave (km/s) = 7.52220 7.78237 7.65339
#
# Compressibility (1/GPa) = 0.01341645
#
# Stress axis : x y z
#
# Youngs Moduli (GPa) = 74.26071 85.21587 95.86618
#
# Poissons Ratio (x) = 0.39809 0.36779
# Poissons Ratio (y) = 0.34691 0.24923
# Poissons Ratio (z) = 0.28490 0.22154
#
# Static dielectric constant tensor:
#      x y z
#    x 4.265210 0.138040 0.081350 
#    y 0.138040 3.088290 -0.979110 
#    z 0.081350 -0.979110 3.310970 
# 
# 
# High freq. dielectric constant tensor:
#      x y z
#    x 1.877040 -0.004170 -0.014730 
#    y -0.004170 1.846630 0.002580 
#    z -0.014730 0.002580 1.873310 
# 
# From -- ./inp_files/298044.got.cif
#   From: 2010.06.25/outbox.cif.g09.slc.cpg/sg2_150_cif.got.tgz:298044.got - 2010.06.27 13:26:56.
