data_PCOD8032908
_publ_section_title
;
Structure prediction by ZEFSAII (Michael W. Deem and Ramdas Pophale) SiO2 
 PCOD8032908
Probable space group: P -1
;
_chemical_formula_sum "Si O2"
_cell_formula_units_Z 16
_cell_length_a 12.557952
_cell_length_b 17.598524
_cell_length_c 8.376385
_cell_angle_alpha 59.478504
_cell_angle_beta 110.751852
_cell_angle_gamma 153.531925
_cell_volume 686.066595
_symmetry_space_group_name_H-M "P -1"
_symmetry_group_IT_number 2
_symmetry_cell_setting 'triclinic'
loop_
_space_group_symop_operation_xyz
x,y,z
-x,-y,-z
loop_
_atom_site_type_symbol
_atom_site_label
_atom_site_fract_x
_atom_site_fract_y
_atom_site_fract_z
Si Si1 0.508528 0.603210 0.970377
Si Si2 0.181817 0.961470 0.334484
Si Si3 0.597278 0.963942 0.335124
Si Si4 0.199760 0.613678 0.259509
Si Si5 0.011875 0.671675 0.051151
Si Si6 0.970294 0.973468 0.325335
Si Si7 0.434938 0.243150 0.888212
Si Si8 0.158543 0.768580 0.373793
O O1 0.763618 0.816891 0.819597
O O2 0.276434 0.502086 0.900323
O O3 0.500000 0.500000 0.000000
O O4 0.520206 0.628773 0.142853
O O5 0.086369 0.797855 0.421549
O O6 0.353518 0.075812 0.461844
O O7 0.940731 0.852992 0.373123
O O8 0.323198 0.098436 0.111582
O O9 0.432610 0.809127 0.273568
O O10 0.446114 0.939807 0.364188
O O11 0.855620 0.178975 0.173863
O O12 0.053648 0.595770 0.121807
O O13 0.303131 0.617940 0.175231
O O14 0.014338 0.434365 0.468384
O O15 0.129368 0.780585 0.164746
O O16 0.000000 0.000000 0.500000
O O17 0.746683 0.876036 0.235756
#
# Coordination Sequence:
#
# PCOD8032908 Si02
#       8
#     2   2   2   2   2   2   2   2
#     4  11  28  45  72 106 139 184 237 289 345 417
#     4  11  24  43  70  99 138 183 235 286 350 419
#     4  11  23  44  68 100 140 189 231 280 359 413
#     4  11  25  44  72 103 142 182 238 291 347 415
#     4  11  25  44  73 100 145 186 231 288 353 412
#     4  11  27  48  75  99 138 190 232 289 353 419
#     4  11  26  48  72 101 144 186 230 288 356 416
#     4  11  25  40  70 105 140 184 232 296 340 421
#
# _framework density 23.321351
#
# number of rings (size 3 to 8) (size 9 to 14) (size 15 to 20)
#    0.000    1.000    0.000    7.125   17.500    0.500 
#    0.000    1.250    0.000    0.000    0.000    0.000 
#    0.000    0.000    0.000    0.000    0.000    0.000 
#
# Total GULP energy -198273.974853 kJ/mol
# GULP energy per Si atom -12392.123428 kJ/mol
# Density = 2.326827 g / cm^3
# Si number density = 23.321351 Si / 1000 Ang^3
#
#
#
# Elastic Constant Matrix: (Units=GPa)
#
#
# Indices 1 2 3 4 5 6 
#
# 1 179.8741 41.6146 27.3780 1.2852 3.2777 -1.5111
# 2 41.6146 69.9436 19.8686 7.1743 12.4886 10.8011
# 3 27.3780 19.8686 88.2015 22.9364 4.7139 -0.6531
# 4 1.2852 7.1743 22.9364 33.3932 0.0192 7.7879
# 5 3.2777 12.4886 4.7139 0.0192 32.1519 4.2468
# 6 -1.5111 10.8011 -0.6531 7.7879 4.2468 44.4453
#
#
#
# Elastic Compliance Matrix: (Units=1/GPa)
#
#
# Indices 1 2 3 4 5 6 
#
# 1 0.006708 -0.003988 -0.001628 0.001527 0.000996 0.000811
# 2 -0.003988 0.019224 -0.002438 -0.001362 -0.006172 -0.004015
# 3 -0.001628 -0.002438 0.015224 -0.010509 -0.001475 0.002743
# 4 0.001527 -0.001362 -0.010509 0.039000 0.002799 -0.006873
# 5 0.000996 -0.006172 -0.001475 0.002799 0.033906 -0.002218
# 6 0.000811 -0.004015 0.002743 -0.006873 -0.002218 0.024959
#
#
# Mechanical properties :
#
#
# Convention : Reuss Voigt Hill
#
# Bulk Modulus (GPa) = 39.92422 57.30464 48.61443
# Shear Modulus (GPa) = 30.58488 38.60863 34.59675
#
# Velocity S-wave (km/s) = 3.62533 4.07320 3.85578
# Velocity P-wave (km/s) = 5.88900 6.83714 6.38070
#
# Compressibility (1/GPa) = 0.02504745
#
# Stress axis : x y z
#
# Youngs Moduli (GPa) = 149.08346 52.01714 65.68409
#
# Poissons Ratio (x) = 0.20745 0.10694
# Poissons Ratio (y) = 0.59455 0.16016
# Poissons Ratio (z) = 0.24272 0.12684
#
# Static dielectric constant tensor:
#      x y z
#    x 3.477020 0.117110 0.123840 
#    y 0.117110 4.108140 0.000160 
#    z 0.123840 0.000160 4.565610 
# 
# 
# High freq. dielectric constant tensor:
#      x y z
#    x 1.949790 0.000640 -0.007680 
#    y 0.000640 1.913660 0.009240 
#    z -0.007680 0.009240 1.914730 
# 
# From -- ./inp_files/279109.got.cif
#   From: 2010.06.25/outbox.cif.g09.slc.cpg/sg2_140_cif.got.tgz:279109.got - 2010.06.27 13:26:56.
