data_PCOD8032588
_publ_section_title
;
Structure prediction by ZEFSAII (Michael W. Deem and Ramdas Pophale) SiO2 
 PCOD8032588
Probable space group: P -1
;
_chemical_formula_sum "Si O2"
_cell_formula_units_Z 14
_cell_length_a 11.724901
_cell_length_b 9.329119
_cell_length_c 7.692397
_cell_angle_alpha 61.195322
_cell_angle_beta 53.017020
_cell_angle_gamma 62.450075
_cell_volume 570.770868
_symmetry_space_group_name_H-M "P -1"
_symmetry_group_IT_number 2
_symmetry_cell_setting 'triclinic'
loop_
_space_group_symop_operation_xyz
x,y,z
-x,-y,-z
loop_
_atom_site_type_symbol
_atom_site_label
_atom_site_fract_x
_atom_site_fract_y
_atom_site_fract_z
Si Si1 0.842957 0.052933 0.021957
Si Si2 0.795726 0.148379 0.627697
Si Si3 0.519607 0.680086 0.086375
Si Si4 0.942558 0.427853 0.264953
Si Si5 0.724684 0.760046 0.383206
Si Si6 0.430909 0.696280 0.757398
Si Si7 0.210799 0.199810 0.308705
O O1 0.730162 0.176879 0.184520
O O2 0.780677 0.888467 0.129420
O O3 0.852475 0.146385 0.776589
O O4 0.000000 0.000000 0.000000
O O5 0.619872 0.221790 0.731675
O O6 0.873021 0.270384 0.375419
O O7 0.841499 0.962427 0.614554
O O8 0.573498 0.485018 0.211393
O O9 0.480739 0.681464 0.919367
O O10 0.650244 0.772507 0.945980
O O11 0.817774 0.569041 0.390558
O O12 0.078532 0.366005 0.307849
O O13 0.000000 0.500000 0.000000
O O14 0.553020 0.768371 0.498279
O O15 0.748192 0.826452 0.513579
#
# Coordination Sequence:
#
# PCOD8032588 Si02
#       7
#     2   2   2   2   2   2   2
#     4  11  24  39  72 105 136 175 227 274 337 405
#     4  11  23  47  68  97 140 177 219 285 343 398
#     4   9  19  39  70  98 130 176 227 271 340 400
#     4  12  26  44  67  94 139 181 229 281 339 398
#     4  11  23  43  67 100 133 181 228 271 340 407
#     4   9  19  39  66 100 136 174 222 279 326 403
#     4  11  24  41  70 101 136 175 221 284 339 403
#
# _framework density 24.528231999999999
#
# number of rings (size 3 to 8) (size 9 to 14) (size 15 to 20)
#    0.000    1.429    1.429    3.429    4.000    1.143 
#    0.000    2.143    0.000    0.000    0.000    0.000 
#    0.000    0.000    0.000    0.000    0.000    0.000 
#
# Total GULP energy -173668.179474 kJ/mol
# GULP energy per Si atom -12404.869962 kJ/mol
# Density = 2.447240 g / cm^3
# Si number density = 24.528232 Si / 1000 Ang^3
#
#
#
# Elastic Constant Matrix: (Units=GPa)
#
#
# Indices 1 2 3 4 5 6 
#
# 1 71.7923 39.6570 34.7874 -0.1038 -22.4917 -16.2486
# 2 39.6570 143.4637 41.0000 -5.8191 -14.4615 -19.0660
# 3 34.7874 41.0000 134.2318 -20.4888 -32.1705 0.1810
# 4 -0.1038 -5.8191 -20.4888 45.1573 -0.4893 -13.5061
# 5 -22.4917 -14.4615 -32.1705 -0.4893 27.9287 4.5687
# 6 -16.2486 -19.0660 0.1810 -13.5061 4.5687 42.8268
#
#
#
# Elastic Compliance Matrix: (Units=1/GPa)
#
#
# Indices 1 2 3 4 5 6 
#
# 1 0.022024 -0.003591 -0.001244 0.000840 0.013546 0.005582
# 2 -0.003591 0.008846 -0.001794 0.001224 -0.000857 0.003061
# 3 -0.001244 -0.001794 0.012002 0.005035 0.012151 -0.001030
# 4 0.000840 0.001224 0.005035 0.027285 0.006150 0.008791
# 5 0.013546 -0.000857 0.012151 0.006150 0.060341 0.000209
# 6 0.005582 0.003061 -0.001030 0.008791 0.000209 0.029585
#
#
# Mechanical properties :
#
#
# Convention : Reuss Voigt Hill
#
# Bulk Modulus (GPa) = 33.76759 64.48628 49.12693
# Shear Modulus (GPa) = 27.29092 38.78546 33.03819
#
# Velocity S-wave (km/s) = 3.33923 3.98082 3.67406
# Velocity P-wave (km/s) = 5.35388 6.89035 6.17013
#
# Compressibility (1/GPa) = 0.02961420
#
# Stress axis : x y z
#
# Youngs Moduli (GPa) = 45.40561 113.04896 83.31744
#
# Poissons Ratio (x) = 0.40597 0.10362
# Poissons Ratio (y) = 0.16306 0.14947
# Poissons Ratio (z) = 0.05647 0.20281
#
# Static dielectric constant tensor:
#      x y z
#    x 4.077290 -0.247010 -0.357660 
#    y -0.247010 4.576330 -0.070500 
#    z -0.357660 -0.070500 4.588190 
# 
# 
# High freq. dielectric constant tensor:
#      x y z
#    x 1.958590 -0.015020 -0.021950 
#    y -0.015020 1.983930 -0.005890 
#    z -0.021950 -0.005890 1.983980 
# 
# From -- ./inp_files/242359.got.cif
#   From: 2010.06.25/outbox.cif.g09.slc.cpg/sg2_122_cif.got.tgz:242359.got - 2010.06.27 13:26:56.
