data_PCOD8032251
_publ_section_title
;
Structure prediction by ZEFSAII (Michael W. Deem and Ramdas Pophale) SiO2 
 PCOD8032251
Probable space group: P -1
;
_chemical_formula_sum "Si O2"
_cell_formula_units_Z 16
_cell_length_a 11.603297
_cell_length_b 16.467963
_cell_length_c 9.104238
_cell_angle_alpha 48.845812
_cell_angle_beta 78.546712
_cell_angle_gamma 42.349386
_cell_volume 726.602335
_symmetry_space_group_name_H-M "P -1"
_symmetry_group_IT_number 2
_symmetry_cell_setting 'triclinic'
loop_
_space_group_symop_operation_xyz
x,y,z
-x,-y,-z
loop_
_atom_site_type_symbol
_atom_site_label
_atom_site_fract_x
_atom_site_fract_y
_atom_site_fract_z
Si Si1 0.387047 0.452629 0.183744
Si Si2 0.371253 0.214567 0.436067
Si Si3 0.039484 0.524963 0.614098
Si Si4 0.197667 0.883073 0.682004
Si Si5 0.984524 0.249983 0.285549
Si Si6 0.764483 0.404982 0.464946
Si Si7 0.324171 0.672679 0.172753
Si Si8 0.263972 0.217469 0.156162
O O1 0.376073 0.332439 0.356390
O O2 0.588907 0.326602 0.184693
O O3 0.405230 0.502278 0.272943
O O4 0.182740 0.652481 0.914449
O O5 0.357730 0.224841 0.248923
O O6 0.176219 0.298701 0.454342
O O7 0.574692 0.993610 0.692850
O O8 0.148436 0.556678 0.518338
O O9 0.000000 0.500000 0.500000
O O10 0.202348 0.332242 0.894917
O O11 0.178837 0.855681 0.887239
O O12 0.000000 0.000000 0.500000
O O13 0.191103 0.018255 0.509507
O O14 0.881160 0.307356 0.398876
O O15 0.059474 0.315216 0.161956
O O16 0.518020 0.598558 0.265208
O O17 0.805782 0.270117 0.720605
#
# Coordination Sequence:
#
# PCOD8032251 Si02
#       8
#     2   2   2   2   2   2   2   2
#     4  12  22  42  69 100 131 172 220 273 329 393
#     4  11  23  41  72 101 130 170 219 275 334 390
#     4  12  25  43  71  98 136 177 214 271 339 392
#     4  12  24  39  69 103 128 173 228 272 322 388
#     4  12  22  41  72  97 131 173 219 277 326 394
#     4  11  25  45  66  95 136 181 219 267 334 392
#     4  11  25  44  66  95 138 179 220 270 327 392
#     4  11  24  42  68 104 131 168 221 276 330 395
#
# _framework density 22.020298
#
# number of rings (size 3 to 8) (size 9 to 14) (size 15 to 20)
#    0.000    0.500    6.250    3.000    0.000    1.000 
#    0.000    0.000    0.000    0.000    0.000    0.000 
#    0.000    0.000    0.000    0.000    0.000    0.000 
#
# Total GULP energy -198427.157152 kJ/mol
# GULP energy per Si atom -12401.697322 kJ/mol
# Density = 2.197018 g / cm^3
# Si number density = 22.020298 Si / 1000 Ang^3
#
#
#
# Elastic Constant Matrix: (Units=GPa)
#
#
# Indices 1 2 3 4 5 6 
#
# 1 102.0985 8.3395 2.3267 2.4932 8.7174 -11.9090
# 2 8.3395 58.0509 15.0981 -0.9854 2.9830 -8.5095
# 3 2.3267 15.0981 82.4916 -3.9745 5.0069 -24.3894
# 4 2.4932 -0.9854 -3.9745 32.5752 4.0072 -0.1648
# 5 8.7174 2.9830 5.0069 4.0072 32.2182 3.7024
# 6 -11.9090 -8.5095 -24.3894 -0.1648 3.7024 31.3387
#
#
#
# Elastic Compliance Matrix: (Units=1/GPa)
#
#
# Indices 1 2 3 4 5 6 
#
# 1 0.010819 -0.000995 0.001770 -0.000153 -0.003742 0.005660
# 2 -0.000995 0.018507 -0.002358 0.000547 -0.001489 0.002991
# 3 0.001770 -0.002358 0.017015 0.002531 -0.004812 0.013856
# 4 -0.000153 0.000547 0.002531 0.031622 -0.004655 0.002776
# 5 -0.003742 -0.001489 -0.004812 -0.004655 0.034629 -0.009687
# 6 0.005660 0.002991 0.013856 0.002776 -0.009687 0.046814
#
#
# Mechanical properties :
#
#
# Convention : Reuss Voigt Hill
#
# Bulk Modulus (GPa) = 23.16235 32.68550 27.92392
# Shear Modulus (GPa) = 28.25446 33.68488 30.96967
#
# Velocity S-wave (km/s) = 3.58594 3.91541 3.75429
# Velocity P-wave (km/s) = 5.26182 5.94274 5.61261
#
# Compressibility (1/GPa) = 0.04317351
#
# Stress axis : x y z
#
# Youngs Moduli (GPa) = 92.43169 54.03429 58.77252
#
# Poissons Ratio (x) = 0.05378 -0.10403
# Poissons Ratio (y) = 0.09199 0.13860
# Poissons Ratio (z) = -0.16361 0.12743
#
# Static dielectric constant tensor:
#      x y z
#    x 4.263460 0.000510 -0.113510 
#    y 0.000510 3.867310 -0.081960 
#    z -0.113510 -0.081960 4.161120 
# 
# 
# High freq. dielectric constant tensor:
#      x y z
#    x 1.885440 -0.006000 0.000650 
#    y -0.006000 1.850560 0.002010 
#    z 0.000650 0.002010 1.867480 
# 
# From -- ./inp_files/273639.got.cif
#   From: 2010.06.25/outbox.cif.g09.slc.cpg/sg2_137_cif.got.tgz:273639.got - 2010.06.27 13:26:56.
