data_PCOD8032283
_publ_section_title
;
Structure prediction by ZEFSAII (Michael W. Deem and Ramdas Pophale) SiO2 
 PCOD8032283
Probable space group: P -1
;
_chemical_formula_sum "Si O2"
_cell_formula_units_Z 14
_cell_length_a 15.243707
_cell_length_b 8.896427
_cell_length_c 10.423129
_cell_angle_alpha 89.743071
_cell_angle_beta 60.809671
_cell_angle_gamma 140.520362
_cell_volume 570.664716
_symmetry_space_group_name_H-M "P -1"
_symmetry_group_IT_number 2
_symmetry_cell_setting 'triclinic'
loop_
_space_group_symop_operation_xyz
x,y,z
-x,-y,-z
loop_
_atom_site_type_symbol
_atom_site_label
_atom_site_fract_x
_atom_site_fract_y
_atom_site_fract_z
Si Si1 0.643711 0.495947 0.909093
Si Si2 0.529738 0.122034 0.346340
Si Si3 0.932603 0.121756 0.343113
Si Si4 0.645952 0.774749 0.081660
Si Si5 0.764398 0.128325 0.630784
Si Si6 0.770352 0.745402 0.219858
Si Si7 0.127818 0.627471 0.033306
O O1 0.726663 0.745794 0.934247
O O2 0.424612 0.127843 0.125140
O O3 0.842423 0.644472 0.762504
O O4 0.590032 0.481457 0.802215
O O5 0.616908 0.400804 0.319838
O O6 0.677645 0.224892 0.143870
O O7 0.500000 0.000000 0.500000
O O8 0.306653 0.850902 0.430801
O O9 0.782199 0.977740 0.569017
O O10 0.976435 0.336278 0.238494
O O11 0.800419 0.834104 0.345995
O O12 0.658547 0.734440 0.220176
O O13 0.801575 0.124365 0.950997
O O14 0.000000 0.500000 0.500000
O O15 0.000000 0.000000 0.000000
O O16 0.000000 0.500000 0.000000
#
# Coordination Sequence:
#
# PCOD8032283 Si02
#       7
#     2   2   2   2   2   2   2
#     4  11  25  49  69 104 146 191 242 299 362 433
#     4  12  27  46  69 109 152 184 242 310 356 433
#     4  12  25  45  79 104 141 200 239 298 370 430
#     4  11  23  41  75  98 145 190 230 300 358 431
#     4  12  27  47  71 106 147 188 245 301 362 433
#     4  12  21  47  77 103 146 193 241 297 368 435
#     4  12  22  40  73 108 138 188 243 287 371 423
#
# _framework density 24.532795
#
# number of rings (size 3 to 8) (size 9 to 14) (size 15 to 20)
#    0.000    0.286    7.143    1.714    2.000    4.000 
#    0.000    2.857    0.000    0.000    0.000    0.000 
#    0.000    0.000    0.000    0.000    0.000    0.000 
#
# Total GULP energy -173547.692069 kJ/mol
# GULP energy per Si atom -12396.263719 kJ/mol
# Density = 2.447696 g / cm^3
# Si number density = 24.532795 Si / 1000 Ang^3
#
#
#
# Elastic Constant Matrix: (Units=GPa)
#
#
# Indices 1 2 3 4 5 6 
#
# 1 170.8398 34.9273 32.0159 -13.8550 -14.4220 27.9284
# 2 34.9273 110.6005 6.1392 -20.4753 -7.5803 6.9838
# 3 32.0159 6.1392 61.4869 -0.2837 -19.5408 12.0090
# 4 -13.8550 -20.4753 -0.2837 32.5514 -6.0583 2.0291
# 5 -14.4220 -7.5803 -19.5408 -6.0583 39.8352 -11.1026
# 6 27.9284 6.9838 12.0090 2.0291 -11.1026 55.6221
#
#
#
# Elastic Compliance Matrix: (Units=1/GPa)
#
#
# Indices 1 2 3 4 5 6 
#
# 1 0.007436 -0.001509 -0.002983 0.002465 0.000512 -0.002888
# 2 -0.001509 0.010959 0.000699 0.006805 0.002789 -0.000461
# 3 -0.002983 0.000699 0.020907 0.001131 0.009111 -0.001326
# 4 0.002465 0.006805 0.001131 0.037659 0.007873 -0.002139
# 5 0.000512 0.002789 0.009111 0.007873 0.032496 0.003625
# 6 -0.002888 -0.000461 -0.001326 -0.002139 0.003625 0.020574
#
#
# Mechanical properties :
#
#
# Convention : Reuss Voigt Hill
#
# Bulk Modulus (GPa) = 31.52957 54.34357 42.93657
# Shear Modulus (GPa) = 33.74028 43.59138 38.66583
#
# Velocity S-wave (km/s) = 3.71255 4.21986 3.97430
# Velocity P-wave (km/s) = 5.59082 6.77808 6.21288
#
# Compressibility (1/GPa) = 0.03171626
#
# Stress axis : x y z
#
# Youngs Moduli (GPa) = 134.47605 91.24661 47.83090
#
# Poissons Ratio (x) = 0.13769 0.14269
# Poissons Ratio (y) = 0.20292 -0.03344
# Poissons Ratio (z) = 0.40119 -0.06379
#
# Static dielectric constant tensor:
#      x y z
#    x 4.941050 0.069570 0.167570 
#    y 0.069570 4.331010 0.128270 
#    z 0.167570 0.128270 4.415340 
# 
# 
# High freq. dielectric constant tensor:
#      x y z
#    x 2.001200 0.007260 -0.009480 
#    y 0.007260 1.989070 -0.004050 
#    z -0.009480 -0.004050 1.954730 
# 
# From -- ./inp_files/444601.got.cif
#   From: 2010.06.25/outbox.cif.g09.slc.cpg/sg2_223_cif.got.tgz:444601.got - 2010.06.27 13:26:56.
