data_PCOD8032183
_publ_section_title
;
Structure prediction by ZEFSAII (Michael W. Deem and Ramdas Pophale) SiO2 
 PCOD8032183
Probable space group: P -1
;
_chemical_formula_sum "Si O2"
_cell_formula_units_Z 16
_cell_length_a 27.688426
_cell_length_b 8.493471
_cell_length_c 13.951116
_cell_angle_alpha 126.639227
_cell_angle_beta 21.678240
_cell_angle_gamma 138.088421
_cell_volume 747.467359
_symmetry_space_group_name_H-M "P -1"
_symmetry_group_IT_number 2
_symmetry_cell_setting 'triclinic'
loop_
_space_group_symop_operation_xyz
x,y,z
-x,-y,-z
loop_
_atom_site_type_symbol
_atom_site_label
_atom_site_fract_x
_atom_site_fract_y
_atom_site_fract_z
Si Si1 0.048631 0.824127 0.872104
Si Si2 0.593233 0.895696 0.199263
Si Si3 0.550897 0.458917 0.201840
Si Si4 0.368987 0.049095 0.239409
Si Si5 0.218940 0.904015 0.253469
Si Si6 0.830926 0.593959 0.855725
Si Si7 0.741943 0.228142 0.215519
Si Si8 0.737338 0.878556 0.241005
O O1 0.188009 0.859530 0.557705
O O2 0.112340 0.900987 0.889966
O O3 0.895260 0.525941 0.049023
O O4 0.000000 0.000000 0.000000
O O5 0.552745 0.694183 0.281262
O O6 0.420693 0.827919 0.455666
O O7 0.711376 0.165873 0.135730
O O8 0.684438 0.891331 0.936153
O O9 0.471109 0.329029 0.198317
O O10 0.439602 0.272968 0.429344
O O11 0.743032 0.561764 0.902937
O O12 0.326840 0.032119 0.198605
O O13 0.500000 0.000000 0.000000
O O14 0.210605 0.672705 0.146691
O O15 0.033132 0.821525 0.570370
O O16 0.753702 0.665531 0.104018
O O17 0.762191 0.038801 0.161156
#
# Coordination Sequence:
#
# PCOD8032183 Si02
#       8
#     2   2   2   2   2   2   2   2
#     4  11  25  44  72  99 136 176 227 280 338 402
#     4  11  26  40  66 100 134 173 224 280 334 400
#     4  11  23  44  70  99 132 180 223 278 336 399
#     4  11  24  45  69  98 134 183 222 272 341 407
#     4  11  26  42  65  97 138 181 222 275 339 406
#     4  11  23  41  68  96 133 179 225 272 337 401
#     4  11  24  42  66 102 133 170 226 280 335 395
#     4  11  23  43  71  97 133 175 225 281 335 395
#
# _framework density 21.405615999999998
#
# number of rings (size 3 to 8) (size 9 to 14) (size 15 to 20)
#    0.000    1.000    2.500    3.750   10.500    1.000 
#    2.250    0.000    0.000    0.000    0.000    0.000 
#    0.000    0.000    0.000    0.000    0.000    0.000 
#
# Total GULP energy -198276.889398 kJ/mol
# GULP energy per Si atom -12392.305587 kJ/mol
# Density = 2.135690 g / cm^3
# Si number density = 21.405616 Si / 1000 Ang^3
#
#
#
# Elastic Constant Matrix: (Units=GPa)
#
#
# Indices 1 2 3 4 5 6 
#
# 1 125.7775 42.2745 68.5300 -17.1200 -7.4258 18.6350
# 2 42.2745 101.8470 42.0413 -5.3541 -1.6914 11.2510
# 3 68.5300 42.0413 109.0681 3.7624 -16.4578 7.4886
# 4 -17.1200 -5.3541 3.7624 28.3739 1.2774 -12.1565
# 5 -7.4258 -1.6914 -16.4578 1.2774 34.3545 -3.6366
# 6 18.6350 11.2510 7.4886 -12.1565 -3.6366 36.8726
#
#
#
# Elastic Compliance Matrix: (Units=1/GPa)
#
#
# Indices 1 2 3 4 5 6 
#
# 1 0.015011 -0.001730 -0.009186 0.009000 -0.001831 -0.002406
# 2 -0.001730 0.012372 -0.003865 0.001050 -0.001862 -0.001953
# 3 -0.009186 -0.003865 0.017748 -0.008959 0.006651 -0.000081
# 4 0.009000 0.001050 -0.008959 0.047466 -0.002755 0.012328
# 5 -0.001831 -0.001862 0.006651 -0.002755 0.032164 0.002407
# 6 -0.002406 -0.001953 -0.000081 0.012328 0.002407 0.033250
#
#
# Mechanical properties :
#
#
# Convention : Reuss Voigt Hill
#
# Bulk Modulus (GPa) = 64.23120 71.37603 67.80361
# Shear Modulus (GPa) = 25.93841 32.17665 29.05753
#
# Velocity S-wave (km/s) = 3.48481 3.88130 3.68839
# Velocity P-wave (km/s) = 6.80174 7.31457 7.06281
#
# Compressibility (1/GPa) = 0.01556876
#
# Stress axis : x y z
#
# Youngs Moduli (GPa) = 66.61994 80.82569 56.34280
#
# Poissons Ratio (x) = 0.13984 0.51757
# Poissons Ratio (y) = 0.11526 0.21777
# Poissons Ratio (z) = 0.61198 0.31240
#
# Static dielectric constant tensor:
#      x y z
#    x 4.993960 0.812850 -0.342000 
#    y 0.812850 4.180540 -0.011580 
#    z -0.342000 -0.011580 3.886270 
# 
# 
# High freq. dielectric constant tensor:
#      x y z
#    x 1.850030 0.017290 -0.017610 
#    y 0.017290 1.843410 0.003410 
#    z -0.017610 0.003410 1.838230 
# 
# From -- ./inp_files/544885.got.cif
#   From: 2010.06.25/outbox.cif.g09.slc.cpg/sg2_273_cif.got.tgz:544885.got - 2010.06.27 13:26:56.
