data_PCOD8032145
_publ_section_title
;
Structure prediction by ZEFSAII (Michael W. Deem and Ramdas Pophale) SiO2 
 PCOD8032145
Probable space group: P -1
;
_chemical_formula_sum "Si O2"
_cell_formula_units_Z 12
_cell_length_a 9.270447
_cell_length_b 18.395571
_cell_length_c 7.578393
_cell_angle_alpha 71.700956
_cell_angle_beta 75.791904
_cell_angle_gamma 28.034650
_cell_volume 575.253465
_symmetry_space_group_name_H-M "P -1"
_symmetry_group_IT_number 2
_symmetry_cell_setting 'triclinic'
loop_
_space_group_symop_operation_xyz
x,y,z
-x,-y,-z
loop_
_atom_site_type_symbol
_atom_site_label
_atom_site_fract_x
_atom_site_fract_y
_atom_site_fract_z
Si Si1 0.433368 0.234863 0.101331
Si Si2 0.696056 0.354638 0.753084
Si Si3 0.188696 0.474072 0.757936
Si Si4 0.300268 0.017095 0.999402
Si Si5 0.913001 0.099023 0.299671
Si Si6 0.485281 0.609247 0.582231
O O1 0.740397 0.134218 0.165033
O O2 0.173274 0.347902 0.244512
O O3 0.294041 0.343658 0.894266
O O4 0.516751 0.112607 0.104501
O O5 0.383417 0.450110 0.827947
O O6 0.664831 0.457983 0.736340
O O7 0.744279 0.323311 0.549441
O O8 0.976844 0.191260 0.892532
O O9 0.268820 0.445115 0.547279
O O10 0.224335 0.996958 0.205966
O O11 0.500000 0.000000 0.000000
O O12 0.698231 0.262756 0.313133
O O13 0.000000 0.000000 0.500000
#
# Coordination Sequence:
#
# PCOD8032145 Si02
#       6
#     2   2   2   2   2   2
#     4  11  23  41  66  90 127 163 212 255 311 371
#     4   9  20  42  63  89 128 161 201 260 311 364
#     4   9  20  41  67  89 120 167 205 258 305 370
#     4  12  27  41  63  94 128 169 209 254 314 376
#     4  12  24  41  65  95 129 167 204 262 311 370
#     4   9  20  38  68  90 124 159 209 251 321 358
#
# _framework density 20.86037
#
# number of rings (size 3 to 8) (size 9 to 14) (size 15 to 20)
#    1.000    0.667    1.667    2.500    2.333    5.333 
#    0.000    2.500    0.000    0.000    0.000    0.000 
#    0.000    0.000    0.000    0.000    0.000    0.000 
#
# Total GULP energy -148767.920422 kJ/mol
# GULP energy per Si atom -12397.326702 kJ/mol
# Density = 2.081289 g / cm^3
# Si number density = 20.860370 Si / 1000 Ang^3
#
#
#
# Elastic Constant Matrix: (Units=GPa)
#
#
# Indices 1 2 3 4 5 6 
#
# 1 114.2040 44.5264 16.1443 2.7933 -1.1443 3.0497
# 2 44.5264 92.2116 21.7346 3.1470 -5.6942 11.1612
# 3 16.1443 21.7346 51.9007 -9.1349 -11.4254 1.5796
# 4 2.7933 3.1470 -9.1349 31.6209 5.6151 -4.3590
# 5 -1.1443 -5.6942 -11.4254 5.6151 21.2621 4.8079
# 6 3.0497 11.1612 1.5796 -4.3590 4.8079 47.2646
#
#
#
# Elastic Compliance Matrix: (Units=1/GPa)
#
#
# Indices 1 2 3 4 5 6 
#
# 1 0.010952 -0.005029 -0.001803 -0.000591 -0.001720 0.000662
# 2 -0.005029 0.015110 -0.004581 -0.003440 0.003064 -0.003719
# 3 -0.001803 -0.004581 0.025147 0.005964 0.010654 -0.000176
# 4 -0.000591 -0.003440 0.005964 0.035880 -0.008311 0.004806
# 5 -0.001720 0.003064 0.010654 -0.008311 0.057392 -0.007573
# 6 0.000662 -0.003719 -0.000176 0.004806 -0.007573 0.023213
#
#
# Mechanical properties :
#
#
# Convention : Reuss Voigt Hill
#
# Bulk Modulus (GPa) = 35.23419 47.01410 41.12414
# Shear Modulus (GPa) = 25.00239 31.75691 28.37965
#
# Velocity S-wave (km/s) = 3.46578 3.90597 3.69244
# Velocity P-wave (km/s) = 5.73957 6.55199 6.15919
#
# Compressibility (1/GPa) = 0.02838152
#
# Stress axis : x y z
#
# Youngs Moduli (GPa) = 91.31097 66.18309 39.76581
#
# Poissons Ratio (x) = 0.33285 0.07171
# Poissons Ratio (y) = 0.45923 0.18216
# Poissons Ratio (z) = 0.16466 0.30317
#
# Static dielectric constant tensor:
#      x y z
#    x 3.830380 -0.017520 -0.251770 
#    y -0.017520 3.697170 -0.019270 
#    z -0.251770 -0.019270 3.654680 
# 
# 
# High freq. dielectric constant tensor:
#      x y z
#    x 1.810160 0.008070 -0.017830 
#    y 0.008070 1.815780 -0.004070 
#    z -0.017830 -0.004070 1.809280 
# 
# From -- ./inp_files/212461.got.cif
#   From: 2010.06.25/outbox.cif.g09.slc.cpg/sg2_107_cif.got.tgz:212461.got - 2010.06.27 13:26:56.
