data_PCOD8032602
_publ_section_title
;
Structure prediction by ZEFSAII (Michael W. Deem and Ramdas Pophale) SiO2 
 PCOD8032602
Probable space group: P -1
;
_chemical_formula_sum "Si O2"
_cell_formula_units_Z 16
_cell_length_a 8.914255
_cell_length_b 26.043813
_cell_length_c 11.146328
_cell_angle_alpha 147.967763
_cell_angle_beta 139.005843
_cell_angle_gamma 30.104442
_cell_volume 686.204528
_symmetry_space_group_name_H-M "P -1"
_symmetry_group_IT_number 2
_symmetry_cell_setting 'triclinic'
loop_
_space_group_symop_operation_xyz
x,y,z
-x,-y,-z
loop_
_atom_site_type_symbol
_atom_site_label
_atom_site_fract_x
_atom_site_fract_y
_atom_site_fract_z
Si Si1 0.757253 0.051753 0.349250
Si Si2 0.885874 0.850922 0.847767
Si Si3 0.148749 0.270539 0.913919
Si Si4 0.765804 0.146558 0.131835
Si Si5 0.694297 0.250905 0.548025
Si Si6 0.201053 0.576098 0.549873
Si Si7 0.334649 0.529632 0.803326
Si Si8 0.103801 0.498095 0.927717
O O1 0.452826 0.081054 0.265869
O O2 0.647642 0.184740 0.493006
O O3 0.000000 0.000000 0.500000
O O4 0.901759 0.945214 0.121620
O O5 0.087050 0.807087 0.763331
O O6 0.043609 0.722974 0.766219
O O7 0.034935 0.195668 0.657886
O O8 0.498050 0.167833 0.943352
O O9 0.975294 0.354073 0.093809
O O10 0.105356 0.355736 0.946875
O O11 0.639559 0.219290 0.324183
O O12 0.000000 0.000000 0.000000
O O13 0.479368 0.405763 0.730112
O O14 0.500000 0.500000 0.500000
O O15 0.275459 0.508763 0.590883
O O16 0.948922 0.578599 0.342321
O O17 0.548960 0.565151 0.993068
O O18 0.000000 0.500000 0.000000
#
# Coordination Sequence:
#
# PCOD8032602 Si02
#       8
#     2   2   2   2   2   2   2   2
#     4  11  28  50  76 102 143 190 244 298 361 420
#     4  11  28  48  72 110 140 190 246 290 358 437
#     4  11  28  44  74 108 144 188 243 295 367 428
#     4  12  27  49  72 100 147 191 247 295 346 428
#     4  11  25  48  75 104 142 187 240 299 358 428
#     4  12  25  44  73 106 148 188 227 296 369 420
#     4  11  26  45  74 111 143 183 243 296 367 434
#     4  11  23  43  67 106 148 183 233 292 360 435
#
# _framework density 23.316661
#
# number of rings (size 3 to 8) (size 9 to 14) (size 15 to 20)
#    0.000    0.750    2.500    3.750   10.500    2.500 
#    0.000    0.000    0.000    0.000    0.000    0.000 
#    0.000    0.000    0.000    0.000    0.000    0.000 
#
# Total GULP energy -198433.783863 kJ/mol
# GULP energy per Si atom -12402.111491 kJ/mol
# Density = 2.326359 g / cm^3
# Si number density = 23.316661 Si / 1000 Ang^3
#
#
#
# Elastic Constant Matrix: (Units=GPa)
#
#
# Indices 1 2 3 4 5 6 
#
# 1 116.0544 49.0226 20.8977 -14.5677 8.7331 17.5115
# 2 49.0226 126.4924 33.3470 -18.9064 9.3669 -5.1586
# 3 20.8977 33.3470 93.4025 -16.7097 21.6683 7.5920
# 4 -14.5677 -18.9064 -16.7097 44.7390 6.6258 -0.1536
# 5 8.7331 9.3669 21.6683 6.6258 31.7150 -3.5941
# 6 17.5115 -5.1586 7.5920 -0.1536 -3.5941 39.1703
#
#
#
# Elastic Compliance Matrix: (Units=1/GPa)
#
#
# Indices 1 2 3 4 5 6 
#
# 1 0.011949 -0.004392 0.000843 0.002906 -0.003905 -0.006431
# 2 -0.004392 0.010831 -0.002809 0.002121 -0.000067 0.003936
# 3 0.000843 -0.002809 0.016019 0.006882 -0.012347 -0.004958
# 4 0.002906 0.002121 0.006882 0.028603 -0.012488 -0.003387
# 5 -0.003905 -0.000067 -0.012347 -0.012488 0.044597 0.008173
# 6 -0.006431 0.003936 -0.004958 -0.003387 0.008173 0.030620
#
#
# Mechanical properties :
#
#
# Convention : Reuss Voigt Hill
#
# Bulk Modulus (GPa) = 38.33911 60.27597 49.30754
# Shear Modulus (GPa) = 30.48252 38.63701 34.55976
#
# Velocity S-wave (km/s) = 3.61962 4.07511 3.85410
# Velocity P-wave (km/s) = 5.82644 6.93175 6.40299
#
# Compressibility (1/GPa) = 0.02608302
#
# Stress axis : x y z
#
# Youngs Moduli (GPa) = 83.68949 92.32903 62.42576
#
# Poissons Ratio (x) = 0.40550 -0.05263
# Poissons Ratio (y) = 0.36755 0.17536
# Poissons Ratio (z) = -0.07055 0.25936
#
# Static dielectric constant tensor:
#      x y z
#    x 4.131050 0.043780 0.101810 
#    y 0.043780 4.184710 -0.437650 
#    z 0.101810 -0.437650 3.382080 
# 
# 
# High freq. dielectric constant tensor:
#      x y z
#    x 1.932520 0.000690 0.010020 
#    y 0.000690 1.925550 -0.011020 
#    z 0.010020 -0.011020 1.926990 
# 
# From -- ./inp_files/272323.got.cif
#   From: 2010.06.25/outbox.cif.g09.slc.cpg/sg2_137_cif.got.tgz:272323.got - 2010.06.27 13:26:56.
