data_PCOD8032635
_publ_section_title
;
Structure prediction by ZEFSAII (Michael W. Deem and Ramdas Pophale) SiO2 
 PCOD8032635
Probable space group: P -1
;
_chemical_formula_sum "Si O2"
_cell_formula_units_Z 16
_cell_length_a 6.172058
_cell_length_b 11.286792
_cell_length_c 11.401756
_cell_angle_alpha 72.419517
_cell_angle_beta 74.299637
_cell_angle_gamma 74.131235
_cell_volume 712.849256
_symmetry_space_group_name_H-M "P -1"
_symmetry_group_IT_number 2
_symmetry_cell_setting 'triclinic'
loop_
_space_group_symop_operation_xyz
x,y,z
-x,-y,-z
loop_
_atom_site_type_symbol
_atom_site_label
_atom_site_fract_x
_atom_site_fract_y
_atom_site_fract_z
Si Si1 0.124020 0.943457 0.734745
Si Si2 0.534246 0.251070 0.110065
Si Si3 0.908693 0.779268 0.375879
Si Si4 0.727363 0.899971 0.957338
Si Si5 0.584690 0.600039 0.542647
Si Si6 0.895360 0.248936 0.389927
Si Si7 0.197728 0.443446 0.234746
Si Si8 0.063870 0.720721 0.124113
O O1 0.337858 0.840736 0.781195
O O2 0.041565 0.887513 0.642713
O O3 0.917147 0.971326 0.853035
O O4 0.214410 0.071785 0.657416
O O5 0.328317 0.192726 0.106633
O O6 0.428175 0.387502 0.142736
O O7 0.704259 0.261014 0.976065
O O8 0.726184 0.687727 0.423181
O O9 0.058615 0.760979 0.476093
O O10 0.081318 0.749988 0.250006
O O11 0.837144 0.812283 0.076787
O O12 0.500000 0.000000 0.000000
O O13 0.500000 0.500000 0.500000
O O14 0.372370 0.692750 0.606614
O O15 0.741571 0.528700 0.646943
O O16 0.040104 0.340760 0.281166
O O17 0.056379 0.571785 0.157391
#
# Coordination Sequence:
#
# PCOD8032635 Si02
#       8
#     2   2   2   2   2   2   2   2
#     4  11  23  44  68  99 138 173 229 278 336 405
#     4  11  23  43  68  98 135 181 220 281 338 395
#     4  11  25  42  65 102 133 176 230 278 332 407
#     4  11  24  43  69  97 136 184 221 279 341 393
#     4  11  24  43  69  97 136 184 221 279 341 393
#     4  11  23  43  68  98 135 181 220 281 338 395
#     4  11  23  44  68  99 138 173 229 278 336 405
#     4  11  25  42  65 102 133 176 230 278 332 407
#
# _framework density 22.445139000000001
#
# number of rings (size 3 to 8) (size 9 to 14) (size 15 to 20)
#    0.000    1.000    2.500    3.750    0.000   10.000 
#    0.000    0.000    0.000    0.000    0.000    0.000 
#    0.000    0.000    0.000    0.000    0.000    0.000 
#
# Total GULP energy -198416.083315 kJ/mol
# GULP energy per Si atom -12401.005207 kJ/mol
# Density = 2.239405 g / cm^3
# Si number density = 22.445139 Si / 1000 Ang^3
#
#
#
# Elastic Constant Matrix: (Units=GPa)
#
#
# Indices 1 2 3 4 5 6 
#
# 1 75.9525 31.5004 44.0641 -14.1283 -0.1882 2.4862
# 2 31.5004 133.3515 52.7781 -19.0853 -0.4553 -0.6251
# 3 44.0641 52.7781 111.3451 -4.4000 0.8831 0.0495
# 4 -14.1283 -19.0853 -4.4000 32.6861 0.9736 -1.0681
# 5 -0.1882 -0.4553 0.8831 0.9736 19.1302 2.8418
# 6 2.4862 -0.6251 0.0495 -1.0681 2.8418 49.6631
#
#
#
# Elastic Compliance Matrix: (Units=1/GPa)
#
#
# Indices 1 2 3 4 5 6 
#
# 1 0.018681 -0.000786 -0.006758 0.006672 0.000258 -0.000810
# 2 -0.000786 0.010092 -0.004277 0.004982 0.000136 0.000270
# 3 -0.006758 -0.004277 0.013547 -0.003568 -0.000646 0.000231
# 4 0.006672 0.004982 -0.003568 0.035973 -0.001570 0.000596
# 5 0.000258 0.000136 -0.000646 -0.001570 0.052845 -0.003068
# 6 -0.000810 0.000270 0.000231 0.000596 -0.003068 0.020368
#
#
# Mechanical properties :
#
#
# Convention : Reuss Voigt Hill
#
# Bulk Modulus (GPa) = 53.54028 64.14826 58.84427
# Shear Modulus (GPa) = 27.56726 33.11632 30.34179
#
# Velocity S-wave (km/s) = 3.50838 3.84531 3.68070
# Velocity P-wave (km/s) = 6.34959 6.95394 6.65862
#
# Compressibility (1/GPa) = 0.01867753
#
# Stress axis : x y z
#
# Youngs Moduli (GPa) = 53.52949 99.08669 73.81696
#
# Poissons Ratio (x) = 0.07789 0.49889
# Poissons Ratio (y) = 0.04208 0.31571
# Poissons Ratio (z) = 0.36178 0.42379
#
# Static dielectric constant tensor:
#      x y z
#    x 3.889640 0.013840 0.007630 
#    y 0.013840 4.166540 -0.011070 
#    z 0.007630 -0.011070 4.103380 
# 
# 
# High freq. dielectric constant tensor:
#      x y z
#    x 1.874080 0.001550 0.001180 
#    y 0.001550 1.898240 0.008180 
#    z 0.001180 0.008180 1.893890 
# 
# From -- ./inp_files/69712.got.cif
#   From: 2010.06.25/outbox.cif.g09.slc.cpg/sg2_35_cif.got.tgz:69712.got - 2010.06.27 13:26:56.
