data_PCOD8032361
_publ_section_title
;
Structure prediction by ZEFSAII (Michael W. Deem and Ramdas Pophale) SiO2 
 PCOD8032361
Probable space group: P -1
;
_chemical_formula_sum "Si O2"
_cell_formula_units_Z 16
_cell_length_a 11.722850
_cell_length_b 17.362139
_cell_length_c 9.527137
_cell_angle_alpha 141.932014
_cell_angle_beta 37.862536
_cell_angle_gamma 140.559766
_cell_volume 673.118523
_symmetry_space_group_name_H-M "P -1"
_symmetry_group_IT_number 2
_symmetry_cell_setting 'triclinic'
loop_
_space_group_symop_operation_xyz
x,y,z
-x,-y,-z
loop_
_atom_site_type_symbol
_atom_site_label
_atom_site_fract_x
_atom_site_fract_y
_atom_site_fract_z
Si Si1 0.259266 0.912596 0.934631
Si Si2 0.208269 0.623369 0.507917
Si Si3 0.930995 0.985229 0.205488
Si Si4 0.986897 0.272552 0.669925
Si Si5 0.733154 0.538681 0.556886
Si Si6 0.602212 0.164174 0.029834
Si Si7 0.641930 0.698665 0.117954
Si Si8 0.342644 0.323450 0.607704
O O1 0.212165 0.772457 0.694485
O O2 0.475751 0.035698 0.866158
O O3 0.081413 0.958451 0.130564
O O4 0.273853 0.885105 0.046915
O O5 0.245310 0.598043 0.599932
O O6 0.397720 0.620065 0.228619
O O7 0.000000 0.500000 0.500000
O O8 0.712806 0.859148 0.248000
O O9 0.914296 0.123469 0.462077
O O10 0.000000 0.000000 0.000000
O O11 0.090537 0.386917 0.616922
O O12 0.138803 0.292794 0.678949
O O13 0.777434 0.281725 0.937655
O O14 0.506313 0.475598 0.621852
O O15 0.750840 0.637907 0.813160
O O16 0.433619 0.211272 0.324791
O O17 0.711827 0.679588 0.179315
#
# Coordination Sequence:
#
# PCOD8032361 Si02
#       8
#     2   2   2   2   2   2   2   2
#     4  11  23  45  70 100 138 176 243 293 340 415
#     4  11  23  42  68 101 132 182 233 285 345 410
#     4  12  25  45  71 101 141 187 233 290 365 415
#     4  12  26  44  70 107 145 184 228 291 367 415
#     4  11  24  47  66 103 142 182 233 285 355 430
#     4  11  24  44  74 104 139 184 238 296 346 420
#     4  11  23  45  74  98 137 183 239 289 337 426
#     4  11  23  47  72 101 141 187 238 287 350 422
#
# _framework density 23.769959
#
# number of rings (size 3 to 8) (size 9 to 14) (size 15 to 20)
#    0.000    0.750    5.000    4.125    1.750    2.500 
#    4.500    1.250    0.000    0.000    0.000    0.000 
#    0.000    0.000    0.000    0.000    0.000    0.000 
#
# Total GULP energy -198290.489350 kJ/mol
# GULP energy per Si atom -12393.155584 kJ/mol
# Density = 2.371586 g / cm^3
# Si number density = 23.769959 Si / 1000 Ang^3
#
#
#
# Elastic Constant Matrix: (Units=GPa)
#
#
# Indices 1 2 3 4 5 6 
#
# 1 62.7423 27.4461 16.1669 -6.7337 -1.0109 17.8669
# 2 27.4461 158.6643 10.8651 -21.5248 9.9933 18.2559
# 3 16.1669 10.8651 44.7386 -8.6375 7.4725 4.2433
# 4 -6.7337 -21.5248 -8.6375 43.4281 1.0614 -1.5525
# 5 -1.0109 9.9933 7.4725 1.0614 27.6484 6.0507
# 6 17.8669 18.2559 4.2433 -1.5525 6.0507 39.5144
#
#
#
# Elastic Compliance Matrix: (Units=1/GPa)
#
#
# Indices 1 2 3 4 5 6 
#
# 1 0.021470 -0.002554 -0.007211 0.000186 0.005530 -0.008593
# 2 -0.002554 0.007563 0.000365 0.003424 -0.002655 -0.001837
# 3 -0.007211 0.000365 0.026994 0.004692 -0.008230 0.001637
# 4 0.000186 0.003424 0.004692 0.025744 -0.003346 -0.000646
# 5 0.005530 -0.002655 -0.008230 -0.003346 0.041177 -0.006827
# 6 -0.008593 -0.001837 0.001637 -0.000646 -0.006827 0.030886
#
#
# Mechanical properties :
#
#
# Convention : Reuss Voigt Hill
#
# Bulk Modulus (GPa) = 26.86258 41.67792 34.27025
# Shear Modulus (GPa) = 27.02089 36.22933 31.62511
#
# Velocity S-wave (km/s) = 3.37525 3.90829 3.65151
# Velocity P-wave (km/s) = 5.14931 6.15940 5.67687
#
# Compressibility (1/GPa) = 0.03722651
#
# Stress axis : x y z
#
# Youngs Moduli (GPa) = 46.57734 132.22969 37.04506
#
# Poissons Ratio (x) = 0.33777 0.26712
# Poissons Ratio (y) = 0.11898 -0.01353
# Poissons Ratio (z) = 0.33586 -0.04829
#
# Static dielectric constant tensor:
#      x y z
#    x 4.319790 0.372990 0.026580 
#    y 0.372990 4.943030 0.027430 
#    z 0.026580 0.027430 4.148250 
# 
# 
# High freq. dielectric constant tensor:
#      x y z
#    x 1.922150 0.022890 0.005200 
#    y 0.022890 1.973190 0.008450 
#    z 0.005200 0.008450 1.929890 
# 
# From -- ./inp_files/280044.got.cif
#   From: 2010.06.25/outbox.cif.g09.slc.cpg/sg2_141_cif.got.tgz:280044.got - 2010.06.27 13:26:56.
