data_PCOD8032736
_publ_section_title
;
Structure prediction by ZEFSAII (Michael W. Deem and Ramdas Pophale) SiO2 
 PCOD8032736
Probable space group: P -1
;
_chemical_formula_sum "Si O2"
_cell_formula_units_Z 12
_cell_length_a 12.695190
_cell_length_b 15.381616
_cell_length_c 8.749508
_cell_angle_alpha 141.991310
_cell_angle_beta 129.090430
_cell_angle_gamma 27.671279
_cell_volume 474.882454
_symmetry_space_group_name_H-M "P -1"
_symmetry_group_IT_number 2
_symmetry_cell_setting 'triclinic'
loop_
_space_group_symop_operation_xyz
x,y,z
-x,-y,-z
loop_
_atom_site_type_symbol
_atom_site_label
_atom_site_fract_x
_atom_site_fract_y
_atom_site_fract_z
Si Si1 0.180854 0.277961 0.202099
Si Si2 0.044489 0.161698 0.122657
Si Si3 0.633079 0.054995 0.352328
Si Si4 0.784206 0.230489 0.723956
Si Si5 0.545127 0.603243 0.776706
Si Si6 0.960681 0.359873 0.626159
O O1 0.027824 0.335542 0.276650
O O2 0.378375 0.208391 0.363481
O O3 0.029062 0.495412 0.243158
O O4 0.289062 0.053036 0.897314
O O5 0.958998 0.239634 0.327416
O O6 0.875525 0.198240 0.929341
O O7 0.312536 0.887826 0.983679
O O8 0.613282 0.241511 0.602959
O O9 0.809198 0.845823 0.348374
O O10 0.653024 0.471775 0.858296
O O11 0.000000 0.000000 0.500000
O O12 0.500000 0.500000 0.500000
O O13 0.728107 0.544150 0.769284
#
# Coordination Sequence:
#
# PCOD8032736 Si02
#       6
#     2   2   2   2   2   2
#     4  11  23  44  69  97 140 181 224 279 338 400
#     4  12  27  45  69 105 138 176 229 282 336 405
#     4  11  23  43  71 102 133 180 232 274 339 408
#     4  12  22  45  71 100 139 179 224 280 344 401
#     4  12  23  43  70  96 138 180 218 278 340 396
#     4  12  26  43  71 103 135 180 231 277 337 404
#
# _framework density 25.269411000000002
#
# number of rings (size 3 to 8) (size 9 to 14) (size 15 to 20)
#    0.000    0.333    5.000    4.000    0.000    6.000 
#    0.000    2.500    0.000    0.000    0.000    0.000 
#    0.000    0.000    0.000    0.000    0.000    0.000 
#
# Total GULP energy -148891.842828 kJ/mol
# GULP energy per Si atom -12407.653569 kJ/mol
# Density = 2.521190 g / cm^3
# Si number density = 25.269411 Si / 1000 Ang^3
#
#
#
# Elastic Constant Matrix: (Units=GPa)
#
#
# Indices 1 2 3 4 5 6 
#
# 1 101.0404 47.3326 41.6826 -5.9954 16.0138 5.6720
# 2 47.3326 136.7420 39.0668 -9.2697 -3.1125 24.5416
# 3 41.6826 39.0668 94.2074 -20.8805 2.4685 -8.1066
# 4 -5.9954 -9.2697 -20.8805 46.5784 1.5465 11.5237
# 5 16.0138 -3.1125 2.4685 1.5465 38.5844 2.0863
# 6 5.6720 24.5416 -8.1066 11.5237 2.0863 27.1702
#
#
#
# Elastic Compliance Matrix: (Units=1/GPa)
#
#
# Indices 1 2 3 4 5 6 
#
# 1 0.014638 -0.003789 -0.004955 -0.000816 -0.006015 -0.000304
# 2 -0.003789 0.012469 -0.003980 0.003403 0.003419 -0.013364
# 3 -0.004955 -0.003980 0.015965 0.003800 0.000142 0.007770
# 4 -0.000816 0.003403 0.003800 0.027017 0.000002 -0.013228
# 5 -0.006015 0.003419 0.000142 0.000002 0.028897 -0.004010
# 6 -0.000304 -0.013364 0.007770 -0.013228 -0.004010 0.057176
#
#
# Mechanical properties :
#
#
# Convention : Reuss Voigt Hill
#
# Bulk Modulus (GPa) = 56.73985 65.35041 61.04513
# Shear Modulus (GPa) = 26.66902 36.06045 31.36473
#
# Velocity S-wave (km/s) = 3.25220 3.78172 3.52691
# Velocity P-wave (km/s) = 6.05021 6.70717 6.38714
#
# Compressibility (1/GPa) = 0.01762430
#
# Stress axis : x y z
#
# Youngs Moduli (GPa) = 68.31571 80.20161 62.63881
#
# Poissons Ratio (x) = 0.30389 0.31036
# Poissons Ratio (y) = 0.25885 0.24927
# Poissons Ratio (z) = 0.33849 0.31916
#
# Static dielectric constant tensor:
#      x y z
#    x 4.681170 0.255040 0.096740 
#    y 0.255040 4.819930 -0.012330 
#    z 0.096740 -0.012330 4.747130 
# 
# 
# High freq. dielectric constant tensor:
#      x y z
#    x 2.005860 0.011610 0.005860 
#    y 0.011610 2.020060 -0.002190 
#    z 0.005860 -0.002190 2.014420 
# 
# From -- ./inp_files/269334.got.cif
#   From: 2010.06.25/outbox.cif.g09.slc.cpg/sg2_135_cif.got.tgz:269334.got - 2010.06.27 13:26:56.
