data_PCOD8032629
_publ_section_title
;
Structure prediction by ZEFSAII (Michael W. Deem and Ramdas Pophale) SiO2 
 PCOD8032629
Probable space group: P -1
;
_chemical_formula_sum "Si O2"
_cell_formula_units_Z 14
_cell_length_a 20.692194
_cell_length_b 9.046352
_cell_length_c 14.571020
_cell_angle_alpha 50.667653
_cell_angle_beta 150.266519
_cell_angle_gamma 147.504139
_cell_volume 675.201301
_symmetry_space_group_name_H-M "P -1"
_symmetry_group_IT_number 2
_symmetry_cell_setting 'triclinic'
loop_
_space_group_symop_operation_xyz
x,y,z
-x,-y,-z
loop_
_atom_site_type_symbol
_atom_site_label
_atom_site_fract_x
_atom_site_fract_y
_atom_site_fract_z
Si Si1 0.549098 0.754716 0.914760
Si Si2 0.970398 0.652446 0.966011
Si Si3 0.119234 0.609819 0.854629
Si Si4 0.525665 0.189495 0.881587
Si Si5 0.374516 0.281360 0.175866
Si Si6 0.468550 0.656001 0.459770
Si Si7 0.280557 0.805857 0.570839
O O1 0.560832 0.765221 0.815016
O O2 0.367573 0.692615 0.740923
O O3 0.500000 0.500000 0.000000
O O4 0.762858 0.067084 0.096101
O O5 0.757039 0.517292 0.749920
O O6 0.005340 0.622194 0.124711
O O7 0.000000 0.500000 0.000000
O O8 0.134462 0.996358 0.006873
O O9 0.959779 0.478772 0.628937
O O10 0.279283 0.632347 0.010103
O O11 0.559478 0.428441 0.878285
O O12 0.329487 0.980997 0.654944
O O13 0.500000 0.000000 0.000000
O O14 0.484926 0.325107 0.384069
O O15 0.500000 0.500000 0.500000
O O16 0.612405 0.980452 0.469208
#
# Coordination Sequence:
#
# PCOD8032629 Si02
#       7
#     2   2   2   2   2   2   2
#     4  11  25  46  65  95 138 183 224 272 332 410
#     4  12  24  41  66 103 140 171 220 285 349 405
#     4  11  23  43  68  95 136 174 218 284 342 392
#     4  11  25  46  65  95 138 183 224 272 332 410
#     4  12  24  38  74 100 130 178 228 274 346 410
#     4  12  24  41  66 103 140 171 220 285 349 405
#     4  11  23  43  68  95 136 174 218 284 342 392
#
# _framework density 20.734556999999999
#
# number of rings (size 3 to 8) (size 9 to 14) (size 15 to 20)
#    0.000    0.571    7.143    1.714    4.000    3.429 
#    0.000    2.857    0.000    0.000    0.000    0.000 
#    0.000    0.000    0.000    0.000    0.000    0.000 
#
# Total GULP energy -173622.277080 kJ/mol
# GULP energy per Si atom -12401.591220 kJ/mol
# Density = 2.068736 g / cm^3
# Si number density = 20.734557 Si / 1000 Ang^3
#
#
#
# Elastic Constant Matrix: (Units=GPa)
#
#
# Indices 1 2 3 4 5 6 
#
# 1 77.1362 5.3811 31.4306 11.5943 -3.8780 -10.7610
# 2 5.3811 98.5111 33.2657 -2.6690 -6.9336 -13.2848
# 3 31.4306 33.2657 138.4872 16.9662 -11.8681 -16.6215
# 4 11.5943 -2.6690 16.9662 31.9390 -6.1700 -7.2266
# 5 -3.8780 -6.9336 -11.8681 -6.1700 32.2192 -7.7852
# 6 -10.7610 -13.2848 -16.6215 -7.2266 -7.7852 35.7796
#
#
#
# Elastic Compliance Matrix: (Units=1/GPa)
#
#
# Indices 1 2 3 4 5 6 
#
# 1 0.014963 0.000491 -0.002680 -0.003071 0.001068 0.003050
# 2 0.000491 0.012046 -0.002579 0.004054 0.003697 0.005045
# 3 -0.002680 -0.002579 0.009356 -0.003149 0.002571 0.002506
# 4 -0.003071 0.004054 -0.003149 0.038097 0.008745 0.008717
# 5 0.001068 0.003697 0.002571 0.008745 0.037689 0.012855
# 6 0.003050 0.005045 0.002506 0.008717 0.012855 0.036461
#
#
# Mechanical properties :
#
#
# Convention : Reuss Voigt Hill
#
# Bulk Modulus (GPa) = 37.27570 50.47660 43.87615
# Shear Modulus (GPa) = 29.92388 36.25804 33.09096
#
# Velocity S-wave (km/s) = 3.80305 4.18626 3.99925
# Velocity P-wave (km/s) = 6.10745 6.91110 6.52167
#
# Compressibility (1/GPa) = 0.02682713
#
# Stress axis : x y z
#
# Youngs Moduli (GPa) = 66.83356 83.01718 106.88859
#
# Poissons Ratio (x) = -0.04076 0.28646
# Poissons Ratio (y) = -0.03281 0.27569
# Poissons Ratio (z) = 0.17912 0.21412
#
# Static dielectric constant tensor:
#      x y z
#    x 4.115240 -0.146440 -0.191480 
#    y -0.146440 3.828500 0.114610 
#    z -0.191480 0.114610 3.786450 
# 
# 
# High freq. dielectric constant tensor:
#      x y z
#    x 1.817090 -0.001950 -0.013360 
#    y -0.001950 1.818170 0.002490 
#    z -0.013360 0.002490 1.811910 
# 
# From -- ./inp_files/258734.got.cif
#   From: 2010.06.25/outbox.cif.g09.slc.cpg/sg2_130_cif.got.tgz:258734.got - 2010.06.27 13:26:56.
