data_PCOD8032452
_publ_section_title
;
Structure prediction by ZEFSAII (Michael W. Deem and Ramdas Pophale) SiO2 
 PCOD8032452
Probable space group: P -1
;
_chemical_formula_sum "Si O2"
_cell_formula_units_Z 16
_cell_length_a 14.850104
_cell_length_b 9.069684
_cell_length_c 9.051027
_cell_angle_alpha 136.489233
_cell_angle_beta 61.243001
_cell_angle_gamma 99.429459
_cell_volume 700.342842
_symmetry_space_group_name_H-M "P -1"
_symmetry_group_IT_number 2
_symmetry_cell_setting 'triclinic'
loop_
_space_group_symop_operation_xyz
x,y,z
-x,-y,-z
loop_
_atom_site_type_symbol
_atom_site_label
_atom_site_fract_x
_atom_site_fract_y
_atom_site_fract_z
Si Si1 0.277095 0.713894 0.402455
Si Si2 0.440429 0.874006 0.552974
Si Si3 0.949739 0.508306 0.884180
Si Si4 0.107793 0.052510 0.937610
Si Si5 0.150160 0.187051 0.330011
Si Si6 0.780570 0.237319 0.847012
Si Si7 0.632165 0.763956 0.886282
Si Si8 0.542591 0.406596 0.243140
O O1 0.337785 0.875714 0.542318
O O2 0.259366 0.791554 0.305122
O O3 0.333232 0.446622 0.180557
O O4 0.169713 0.801581 0.646739
O O5 0.518500 0.620429 0.311849
O O6 0.500000 0.000000 0.500000
O O7 0.404277 0.996795 0.827526
O O8 0.897018 0.759566 0.046708
O O9 0.850293 0.408164 0.906917
O O10 0.042635 0.386738 0.603776
O O11 0.000000 0.500000 0.000000
O O12 0.148268 0.119830 0.111011
O O13 0.000000 0.000000 0.000000
O O14 0.262744 0.248412 0.307569
O O15 0.145074 0.991093 0.304388
O O16 0.671416 0.302295 0.078253
O O17 0.526382 0.757489 0.873059
O O18 0.500000 0.500000 0.500000
#
# Coordination Sequence:
#
# PCOD8032452 Si02
#       8
#     2   2   2   2   2   2   2   2
#     4  11  24  43  69 104 138 183 228 287 348 411
#     4  11  23  42  70  98 141 182 233 281 350 412
#     4  12  27  46  71 105 142 184 232 294 354 412
#     4  12  24  44  73 102 139 184 236 284 349 420
#     4  12  25  45  73 101 141 186 231 289 351 419
#     4  12  26  45  69 103 145 179 238 291 349 419
#     4  11  24  46  70 104 143 183 239 284 346 421
#     4  11  27  43  69 103 142 189 231 290 346 413
#
# _framework density 22.845952
#
# number of rings (size 3 to 8) (size 9 to 14) (size 15 to 20)
#    0.000    0.500    1.250    6.750    5.250    5.000 
#    0.000    0.000    0.000    0.000    0.000    0.000 
#    0.000    0.000    0.000    0.000    0.000    0.000 
#
# Total GULP energy -198295.442280 kJ/mol
# GULP energy per Si atom -12393.465142 kJ/mol
# Density = 2.279395 g / cm^3
# Si number density = 22.845952 Si / 1000 Ang^3
#
#
#
# Elastic Constant Matrix: (Units=GPa)
#
#
# Indices 1 2 3 4 5 6 
#
# 1 87.5046 20.1176 10.5316 8.4816 -1.1298 29.5187
# 2 20.1176 96.0789 -6.5988 9.1497 12.8092 10.0177
# 3 10.5316 -6.5988 79.4844 -1.1342 2.2766 3.5056
# 4 8.4816 9.1497 -1.1342 39.5180 3.6694 -1.2448
# 5 -1.1298 12.8092 2.2766 3.6694 40.5171 -8.7002
# 6 29.5187 10.0177 3.5056 -1.2448 -8.7002 55.8778
#
#
#
# Elastic Compliance Matrix: (Units=1/GPa)
#
#
# Indices 1 2 3 4 5 6 
#
# 1 0.014967 -0.002181 -0.001873 -0.002985 -0.000124 -0.007484
# 2 -0.002181 0.011875 0.001442 -0.001914 -0.004098 -0.001748
# 3 -0.001873 0.001442 0.013008 0.000558 -0.001350 -0.000283
# 4 -0.002985 -0.001914 0.000558 0.026609 -0.001435 0.002255
# 5 -0.000124 -0.004098 -0.001350 -0.001435 0.027274 0.005100
# 6 -0.007484 -0.001748 -0.000283 0.002255 0.005100 0.023025
#
#
# Mechanical properties :
#
#
# Convention : Reuss Voigt Hill
#
# Bulk Modulus (GPa) = 28.88082 34.57432 31.72757
# Shear Modulus (GPa) = 37.44605 43.11706 40.28156
#
# Velocity S-wave (km/s) = 4.05293 4.34901 4.20358
# Velocity P-wave (km/s) = 5.87968 6.35493 6.12192
#
# Compressibility (1/GPa) = 0.03462505
#
# Stress axis : x y z
#
# Youngs Moduli (GPa) = 66.81196 84.21214 76.87514
#
# Poissons Ratio (x) = 0.18370 0.14400
# Poissons Ratio (y) = 0.14574 -0.11085
# Poissons Ratio (z) = 0.12515 -0.12143
#
# Static dielectric constant tensor:
#      x y z
#    x 4.182680 0.146720 0.290260 
#    y 0.146720 4.267910 0.009790 
#    z 0.290260 0.009790 4.275490 
# 
# 
# High freq. dielectric constant tensor:
#      x y z
#    x 1.920910 0.005650 -0.006750 
#    y 0.005650 1.915110 0.001050 
#    z -0.006750 0.001050 1.905590 
# 
# From -- ./inp_files/90083.got.cif
#   From: 2010.06.25/outbox.cif.g09.slc.cpg/sg2_46_cif.got.tgz:90083.got - 2010.06.27 13:26:56.
