data_PCOD8032395
_publ_section_title
;
Structure prediction by ZEFSAII (Michael W. Deem and Ramdas Pophale) SiO2 
 PCOD8032395
Probable space group: P -1
;
_chemical_formula_sum "Si O2"
_cell_formula_units_Z 16
_cell_length_a 12.203181
_cell_length_b 12.076619
_cell_length_c 10.650362
_cell_angle_alpha 99.194913
_cell_angle_beta 43.774400
_cell_angle_gamma 66.982926
_cell_volume 719.213532
_symmetry_space_group_name_H-M "P -1"
_symmetry_group_IT_number 2
_symmetry_cell_setting 'triclinic'
loop_
_space_group_symop_operation_xyz
x,y,z
-x,-y,-z
loop_
_atom_site_type_symbol
_atom_site_label
_atom_site_fract_x
_atom_site_fract_y
_atom_site_fract_z
Si Si1 0.824836 0.046890 0.448720
Si Si2 0.374813 0.371486 0.020997
Si Si3 0.844150 0.317269 0.909080
Si Si4 0.876929 0.678148 0.134627
Si Si5 0.393859 0.933296 0.615289
Si Si6 0.087053 0.313401 0.180160
Si Si7 0.224661 0.002068 0.033035
Si Si8 0.562830 0.634338 0.746520
O O1 0.711581 0.077032 0.415618
O O2 0.627879 0.193743 0.733693
O O3 0.966507 0.863158 0.352450
O O4 0.004384 0.053347 0.281471
O O5 0.261862 0.528948 0.059543
O O6 0.194161 0.363653 0.171587
O O7 0.403788 0.406436 0.141114
O O8 0.984281 0.293748 0.908272
O O9 0.633404 0.349357 0.141168
O O10 0.825257 0.742975 0.046220
O O11 0.000000 0.500000 0.000000
O O12 0.646388 0.751603 0.413088
O O13 0.211351 0.016468 0.895072
O O14 0.500000 0.000000 0.500000
O O15 0.804437 0.476971 0.447508
O O16 0.191259 0.148142 0.134890
O O17 0.469750 0.811744 0.836243
#
# Coordination Sequence:
#
# PCOD8032395 Si02
#       8
#     2   2   2   2   2   2   2   2
#     4  11  23  42  69 100 136 176 220 274 337 396
#     4  12  25  45  69  96 133 184 230 272 322 390
#     4  11  24  43  70  98 131 177 221 277 334 397
#     4  12  22  39  69 100 128 169 216 272 339 397
#     4  12  20  40  66  98 134 165 214 273 335 403
#     4  12  24  43  68  97 134 175 223 278 334 394
#     4  11  25  41  67 100 137 173 219 275 338 400
#     4  11  28  45  64  99 138 179 227 275 325 391
#
# _framework density 22.246521000000001
#
# number of rings (size 3 to 8) (size 9 to 14) (size 15 to 20)
#    0.000    0.500    5.000    2.625    0.000    5.000 
#    0.000    0.000    0.000    0.000    0.000    0.000 
#    0.000    0.000    0.000    0.000    0.000    0.000 
#
# Total GULP energy -198210.107418 kJ/mol
# GULP energy per Si atom -12388.131714 kJ/mol
# Density = 2.219589 g / cm^3
# Si number density = 22.246521 Si / 1000 Ang^3
#
#
#
# Elastic Constant Matrix: (Units=GPa)
#
#
# Indices 1 2 3 4 5 6 
#
# 1 43.8525 -4.8651 -1.6241 -1.7185 -0.3075 6.7041
# 2 -4.8651 130.7513 28.2277 35.0125 -5.3117 20.3472
# 3 -1.6241 28.2277 109.6316 22.3709 -9.8756 6.9386
# 4 -1.7185 35.0125 22.3709 32.4570 -4.8004 0.0172
# 5 -0.3075 -5.3117 -9.8756 -4.8004 29.7160 -4.7139
# 6 6.7041 20.3472 6.9386 0.0172 -4.7139 26.7279
#
#
#
# Elastic Compliance Matrix: (Units=1/GPa)
#
#
# Indices 1 2 3 4 5 6 
#
# 1 0.024303 0.002584 0.000562 -0.001994 -0.000745 -0.008339
# 2 0.002584 0.013246 0.000133 -0.014482 -0.001654 -0.011049
# 3 0.000562 0.000133 0.010954 -0.007359 0.002050 -0.002720
# 4 -0.001994 -0.014482 -0.007359 0.052230 0.005667 0.014402
# 5 -0.000745 -0.001654 0.002050 0.005667 0.036100 0.007277
# 6 -0.008339 -0.011049 -0.002720 0.014402 0.007277 0.049897
#
#
# Mechanical properties :
#
#
# Convention : Reuss Voigt Hill
#
# Bulk Modulus (GPa) = 18.16113 36.41250 27.28682
# Shear Modulus (GPa) = 25.18596 35.27998 30.23297
#
# Velocity S-wave (km/s) = 3.36836 3.98661 3.69046
# Velocity P-wave (km/s) = 4.82795 6.13140 5.51830
#
# Compressibility (1/GPa) = 0.05506266
#
# Stress axis : x y z
#
# Youngs Moduli (GPa) = 41.14751 75.49576 91.29106
#
# Poissons Ratio (x) = -0.19512 -0.05133
# Poissons Ratio (y) = -0.10634 -0.01217
# Poissons Ratio (z) = -0.02314 -0.01007
#
# Static dielectric constant tensor:
#      x y z
#    x 3.884430 0.015570 -0.378420 
#    y 0.015570 4.563130 0.842600 
#    z -0.378420 0.842600 4.647020 
# 
# 
# High freq. dielectric constant tensor:
#      x y z
#    x 1.861260 0.010240 -0.010790 
#    y 0.010240 1.894730 0.020620 
#    z -0.010790 0.020620 1.895030 
# 
# From -- ./inp_files/329064.got.cif
#   From: 2010.06.25/outbox.cif.g09.slc.cpg/sg2_165_cif.got.tgz:329064.got - 2010.06.27 13:26:56.
