data_PCOD8032677
_publ_section_title
;
Structure prediction by ZEFSAII (Michael W. Deem and Ramdas Pophale) SiO2 
 PCOD8032677
Probable space group: P -1
;
_chemical_formula_sum "Si O2"
_cell_formula_units_Z 16
_cell_length_a 11.488375
_cell_length_b 11.951355
_cell_length_c 10.795533
_cell_angle_alpha 73.219153
_cell_angle_beta 145.120748
_cell_angle_gamma 117.779521
_cell_volume 736.975184
_symmetry_space_group_name_H-M "P -1"
_symmetry_group_IT_number 2
_symmetry_cell_setting 'triclinic'
loop_
_space_group_symop_operation_xyz
x,y,z
-x,-y,-z
loop_
_atom_site_type_symbol
_atom_site_label
_atom_site_fract_x
_atom_site_fract_y
_atom_site_fract_z
Si Si1 0.911911 0.063502 0.506769
Si Si2 0.420712 0.395540 0.117763
Si Si3 0.401573 0.409935 0.562950
Si Si4 0.722296 0.074682 0.745141
Si Si5 0.101907 0.735074 0.755643
Si Si6 0.135886 0.122828 0.937466
Si Si7 0.193529 0.533571 0.755575
Si Si8 0.453596 0.822620 0.235558
O O1 0.895519 0.187187 0.391657
O O2 0.101222 0.116202 0.761378
O O3 0.678485 0.955548 0.389356
O O4 0.000000 0.000000 0.500000
O O5 0.544282 0.497324 0.300351
O O6 0.573789 0.401995 0.132691
O O7 0.337053 0.247955 0.131595
O O8 0.199317 0.411396 0.871510
O O9 0.500000 0.500000 0.500000
O O10 0.507664 0.306764 0.696469
O O11 0.133518 0.325943 0.355302
O O12 0.682246 0.182700 0.755037
O O13 0.915454 0.131637 0.795573
O O14 0.500000 0.000000 0.500000
O O15 0.803716 0.993154 0.935458
O O16 0.170241 0.622279 0.813583
O O17 0.296721 0.828740 0.985074
O O18 0.000000 0.500000 0.500000
#
# Coordination Sequence:
#
# PCOD8032677 Si02
#       8
#     2   2   2   2   2   2   2   2
#     4  12  25  45  76 107 144 182 232 301 360 413
#     4  11  26  44  69 103 140 181 231 286 345 419
#     4  12  29  48  70 102 145 192 237 290 347 425
#     4  11  26  48  70 103 141 187 237 290 347 416
#     4  12  26  46  72 105 143 184 237 292 359 418
#     4  11  27  45  72 105 143 183 235 291 349 417
#     4  11  23  43  69  99 139 178 226 282 345 413
#     4  12  27  48  73 105 142 186 241 290 356 423
#
# _framework density 21.710366
#
# number of rings (size 3 to 8) (size 9 to 14) (size 15 to 20)
#    0.000    0.500    5.000    1.875    8.750    2.500 
#    0.000    0.000    0.000    0.000    0.000    0.000 
#    0.000    0.000    0.000    0.000    0.000    0.000 
#
# Total GULP energy -198326.002295 kJ/mol
# GULP energy per Si atom -12395.375143 kJ/mol
# Density = 2.166095 g / cm^3
# Si number density = 21.710366 Si / 1000 Ang^3
#
#
#
# Elastic Constant Matrix: (Units=GPa)
#
#
# Indices 1 2 3 4 5 6 
#
# 1 114.5066 28.7443 21.4639 -9.7293 6.1690 -18.7704
# 2 28.7443 82.5020 14.3474 7.0982 9.5766 3.0901
# 3 21.4639 14.3474 102.4041 1.8095 -3.7449 -3.7259
# 4 -9.7293 7.0982 1.8095 30.6980 -3.9512 -4.4189
# 5 6.1690 9.5766 -3.7449 -3.9512 36.2249 -2.8536
# 6 -18.7704 3.0901 -3.7259 -4.4189 -2.8536 42.6325
#
#
#
# Elastic Compliance Matrix: (Units=1/GPa)
#
#
# Indices 1 2 3 4 5 6 
#
# 1 0.011614 -0.004475 -0.001689 0.005677 0.000113 0.005886
# 2 -0.004475 0.015091 -0.001379 -0.005975 -0.004344 -0.004095
# 3 -0.001689 -0.001379 0.010396 -0.000566 0.001690 0.000319
# 4 0.005677 -0.005975 -0.000566 0.037484 0.005203 0.007117
# 5 0.000113 -0.004344 0.001690 0.005203 0.029716 0.003041
# 6 0.005886 -0.004095 0.000319 0.007117 0.003041 0.027314
#
#
# Mechanical properties :
#
#
# Convention : Reuss Voigt Hill
#
# Bulk Modulus (GPa) = 45.42197 47.61375 46.51786
# Shear Modulus (GPa) = 32.45908 37.56822 35.01365
#
# Velocity S-wave (km/s) = 3.87084 4.16435 4.02028
# Velocity P-wave (km/s) = 6.39884 6.71576 6.55921
#
# Compressibility (1/GPa) = 0.02201578
#
# Stress axis : x y z
#
# Youngs Moduli (GPa) = 86.10105 66.26261 96.19148
#
# Poissons Ratio (x) = 0.29651 0.16251
# Poissons Ratio (y) = 0.38528 0.13262
# Poissons Ratio (z) = 0.14546 0.09136
#
# Static dielectric constant tensor:
#      x y z
#    x 3.931070 0.037480 0.243440 
#    y 0.037480 4.271480 0.068490 
#    z 0.243440 0.068490 3.989910 
# 
# 
# High freq. dielectric constant tensor:
#      x y z
#    x 1.867690 -0.014850 0.001630 
#    y -0.014850 1.852810 -0.004670 
#    z 0.001630 -0.004670 1.865780 
# 
# From -- ./inp_files/81112.got.cif
#   From: 2010.06.25/outbox.cif.g09.slc.cpg/sg2_41_cif.got.tgz:81112.got - 2010.06.27 13:26:56.
