data_PCOD8032154
_publ_section_title
;
Structure prediction by ZEFSAII (Michael W. Deem and Ramdas Pophale) SiO2 
 PCOD8032154
Probable space group: P -1
;
_chemical_formula_sum "Si O2"
_cell_formula_units_Z 16
_cell_length_a 13.913010
_cell_length_b 12.076372
_cell_length_c 14.176706
_cell_angle_alpha 20.362827
_cell_angle_beta 67.000017
_cell_angle_gamma 71.287136
_cell_volume 755.212176
_symmetry_space_group_name_H-M "P -1"
_symmetry_group_IT_number 2
_symmetry_cell_setting 'triclinic'
loop_
_space_group_symop_operation_xyz
x,y,z
-x,-y,-z
loop_
_atom_site_type_symbol
_atom_site_label
_atom_site_fract_x
_atom_site_fract_y
_atom_site_fract_z
Si Si1 0.445107 0.801233 0.093844
Si Si2 0.813668 0.686299 0.820875
Si Si3 0.699527 0.795515 0.288751
Si Si4 0.819754 0.352597 0.478921
Si Si5 0.858832 0.250889 0.983496
Si Si6 0.340056 0.262778 0.018422
Si Si7 0.013700 0.283326 0.578560
Si Si8 0.168026 0.606341 0.765045
O O1 0.375569 0.479683 0.409948
O O2 0.535109 0.707602 0.064111
O O3 0.500000 0.000000 0.000000
O O4 0.370931 0.015095 0.900147
O O5 0.820803 0.407145 0.967857
O O6 0.691580 0.696731 0.891313
O O7 0.854587 0.036297 0.483141
O O8 0.877530 0.623775 0.945344
O O9 0.785828 0.661453 0.296990
O O10 0.758464 0.023701 0.162984
O O11 0.904036 0.201133 0.630998
O O12 0.877066 0.463337 0.268055
O O13 0.718490 0.082058 0.721456
O O14 0.896746 0.527088 0.673448
O O15 0.952728 0.050179 0.132811
O O16 0.292333 0.551849 0.750294
O O17 0.000000 0.500000 0.500000
#
# Coordination Sequence:
#
# PCOD8032154 Si02
#       8
#     2   2   2   2   2   2   2   2
#     4  12  24  40  65 105 131 174 213 278 329 397
#     4   9  21  42  69  89 130 187 211 268 334 375
#     4  12  27  39  68  97 140 167 224 261 344 386
#     4  11  23  41  67 101 131 172 216 280 339 391
#     4  12  26  49  66  96 139 176 223 273 316 406
#     4   9  22  40  68  94 140 161 224 267 338 379
#     4  12  27  43  70  98 134 177 223 267 337 397
#     4   9  20  38  67  91 126 174 214 269 325 381
#
# _framework density 21.186098000000001
#
# number of rings (size 3 to 8) (size 9 to 14) (size 15 to 20)
#    0.750    0.500    2.500    3.000    5.250    0.000 
#    0.000   10.000    0.000    0.000    0.000    0.000 
#    0.000    0.000    0.000    0.000    0.000    0.000 
#
# Total GULP energy -198264.814311 kJ/mol
# GULP energy per Si atom -12391.550894 kJ/mol
# Density = 2.113788 g / cm^3
# Si number density = 21.186098 Si / 1000 Ang^3
#
#
#
# Elastic Constant Matrix: (Units=GPa)
#
#
# Indices 1 2 3 4 5 6 
#
# 1 87.5918 14.3436 12.4338 -1.1644 14.8833 5.3526
# 2 14.3436 110.1254 4.5731 -11.3039 0.7040 -1.7415
# 3 12.4338 4.5731 84.2193 9.7006 17.1058 -0.5864
# 4 -1.1644 -11.3039 9.7006 37.0717 -3.8691 9.4530
# 5 14.8833 0.7040 17.1058 -3.8691 40.4115 4.4953
# 6 5.3526 -1.7415 -0.5864 9.4530 4.4953 21.3515
#
#
#
# Elastic Compliance Matrix: (Units=1/GPa)
#
#
# Indices 1 2 3 4 5 6 
#
# 1 0.012651 -0.001570 -0.001084 0.000505 -0.003819 -0.002749
# 2 -0.001570 0.009658 -0.000935 0.003422 0.001201 -0.000612
# 3 -0.001084 -0.000935 0.014144 -0.005884 -0.006645 0.004588
# 4 0.000505 0.003422 -0.005884 0.034666 0.007447 -0.016925
# 5 -0.003819 0.001201 -0.006645 0.007447 0.030644 -0.008876
# 6 -0.002749 -0.000612 0.004588 -0.016925 -0.008876 0.056962
#
#
# Mechanical properties :
#
#
# Convention : Reuss Voigt Hill
#
# Bulk Modulus (GPa) = 34.15940 38.29306 36.22623
# Shear Modulus (GPa) = 28.46382 36.47269 32.46826
#
# Velocity S-wave (km/s) = 3.66937 4.15364 3.91900
# Velocity P-wave (km/s) = 5.84045 6.41230 6.13304
#
# Compressibility (1/GPa) = 0.02927452
#
# Stress axis : x y z
#
# Youngs Moduli (GPa) = 79.04403 103.54395 70.70185
#
# Poissons Ratio (x) = 0.16257 0.07665
# Poissons Ratio (y) = 0.12410 0.06611
# Poissons Ratio (z) = 0.08569 0.09682
#
# Static dielectric constant tensor:
#      x y z
#    x 3.811420 -0.097230 0.261380 
#    y -0.097230 4.008430 0.024240 
#    z 0.261380 0.024240 3.943360 
# 
# 
# High freq. dielectric constant tensor:
#      x y z
#    x 1.807120 -0.003290 0.022660 
#    y -0.003290 1.837320 0.001080 
#    z 0.022660 0.001080 1.845300 
# 
# From -- ./inp_files/519463.got.cif
#   From: 2010.06.25/outbox.cif.g09.slc.cpg/sg2_260_cif.got.tgz:519463.got - 2010.06.27 13:26:56.
