data_PCOD8032591
_publ_section_title
;
Structure prediction by ZEFSAII (Michael W. Deem and Ramdas Pophale) SiO2 
 PCOD8032591
Probable space group: P -1
;
_chemical_formula_sum "Si O2"
_cell_formula_units_Z 16
_cell_length_a 21.768909
_cell_length_b 12.169685
_cell_length_c 8.898548
_cell_angle_alpha 32.541529
_cell_angle_beta 131.684125
_cell_angle_gamma 144.493761
_cell_volume 734.786567
_symmetry_space_group_name_H-M "P -1"
_symmetry_group_IT_number 2
_symmetry_cell_setting 'triclinic'
loop_
_space_group_symop_operation_xyz
x,y,z
-x,-y,-z
loop_
_atom_site_type_symbol
_atom_site_label
_atom_site_fract_x
_atom_site_fract_y
_atom_site_fract_z
Si Si1 0.804116 0.485664 0.925564
Si Si2 0.059224 0.021409 0.221660
Si Si3 0.521502 0.514489 0.690988
Si Si4 0.238949 0.001358 0.427825
Si Si5 0.239279 0.968557 0.123367
Si Si6 0.581738 0.015813 0.716466
Si Si7 0.338004 0.500520 0.516257
Si Si8 0.081708 0.473923 0.232450
O O1 0.890799 0.703661 0.932259
O O2 0.711231 0.507255 0.716526
O O3 0.852206 0.522544 0.797366
O O4 0.754967 0.204781 0.239823
O O5 0.153100 0.008420 0.360583
O O6 0.973736 0.792797 0.458097
O O7 0.000000 0.000000 0.000000
O O8 0.500000 0.500000 0.500000
O O9 0.644215 0.719694 0.698260
O O10 0.453410 0.580248 0.590915
O O11 0.482171 0.226989 0.994837
O O12 0.201343 0.925128 0.282899
O O13 0.346570 0.006555 0.251188
O O14 0.150743 0.713980 0.180834
O O15 0.257779 0.219590 0.791412
O O16 0.653100 0.285841 0.612786
O O17 0.500000 0.000000 0.500000
O O18 0.000000 0.500000 0.000000
#
# Coordination Sequence:
#
# PCOD8032591 Si02
#       8
#     2   2   2   2   2   2   2   2
#     4  12  26  46  73 100 137 179 231 280 341 407
#     4  12  29  46  70 103 137 180 230 282 344 401
#     4  11  25  42  69 100 142 177 224 282 337 405
#     4  12  27  46  67 104 142 178 227 286 337 405
#     4  11  26  44  69 102 140 177 227 284 337 405
#     4  11  23  43  67 100 137 180 227 271 341 407
#     4  11  24  43  72 102 134 182 226 276 341 408
#     4  12  25  47  73  98 136 181 229 286 337 400
#
# _framework density 21.775030000000001
#
# number of rings (size 3 to 8) (size 9 to 14) (size 15 to 20)
#    0.000    0.500    2.500    4.875    5.250   10.000 
#    0.000    0.000    0.000    0.000    0.000    0.000 
#    0.000    0.000    0.000    0.000    0.000    0.000 
#
# Total GULP energy -198485.302489 kJ/mol
# GULP energy per Si atom -12405.331406 kJ/mol
# Density = 2.172547 g / cm^3
# Si number density = 21.775030 Si / 1000 Ang^3
#
#
#
# Elastic Constant Matrix: (Units=GPa)
#
#
# Indices 1 2 3 4 5 6 
#
# 1 58.9205 7.9331 -7.0943 -5.0173 -4.1069 -8.2631
# 2 7.9331 98.6810 -28.4893 7.5640 15.1919 -7.8396
# 3 -7.0943 -28.4893 29.3544 11.5685 22.1644 4.1628
# 4 -5.0173 7.5640 11.5685 47.2814 -3.2303 0.9470
# 5 -4.1069 15.1919 22.1644 -3.2303 29.3357 2.9899
# 6 -8.2631 -7.8396 4.1628 0.9470 2.9899 40.2535
#
#
#
# Elastic Compliance Matrix: (Units=1/GPa)
#
#
# Indices 1 2 3 4 5 6 
#
# 1 0.017945 -0.000165 0.003593 0.000962 -0.000346 0.003283
# 2 -0.000165 -0.007827 -0.039659 0.013372 0.035508 -0.000409
# 3 0.003593 -0.039659 -0.080360 0.032374 0.085914 -0.005819
# 4 0.000962 0.013372 0.032374 0.009084 -0.030403 0.001498
# 5 -0.000346 0.035508 0.085914 -0.030403 -0.052874 0.002602
# 6 0.003283 -0.000409 -0.005819 0.001498 0.002602 0.025810
#
#
# Mechanical properties :
#
#
# Convention : Reuss Voigt Hill
#
# Bulk Modulus (GPa) = -7.00757 14.62833 3.81038
# Shear Modulus (GPa) = -78.95543 37.68120 -20.63711
#
# Velocity S-wave (km/s) = -6.02813 4.16441 -3.08188
# Velocity P-wave (km/s) = 7.18862 5.46403 3.30308
#
# Compressibility (1/GPa) = -0.14270284
#
# Stress axis : x y z
#
# Youngs Moduli (GPa) = 55.72547 -127.76819 -12.44404
#
# Poissons Ratio (x) = -0.02107 0.04471
# Poissons Ratio (y) = 0.00919 -0.49352
# Poissons Ratio (z) = -0.20024 -5.06717
#
# Static dielectric constant tensor:
#      x y z
#    x 4.197510 -0.006840 0.086780 
#    y -0.006840 4.051720 0.059440 
#    z 0.086780 0.059440 4.108350 
# 
# 
# High freq. dielectric constant tensor:
#      x y z
#    x 1.861690 0.000430 0.002130 
#    y 0.000430 1.873560 0.003510 
#    z 0.002130 0.003510 1.874490 
# 
# From -- ./inp_files/90082.got.cif
#   From: 2010.06.25/outbox.cif.g09.slc.cpg/sg2_46_cif.got.tgz:90082.got - 2010.06.27 13:26:56.
