data_PCOD8032156
_publ_section_title
;
Structure prediction by ZEFSAII (Michael W. Deem and Ramdas Pophale) SiO2 
 PCOD8032156
Probable space group: P -1
;
_chemical_formula_sum "Si O2"
_cell_formula_units_Z 16
_cell_length_a 11.577411
_cell_length_b 9.110006
_cell_length_c 9.091004
_cell_angle_alpha 69.207715
_cell_angle_beta 118.421057
_cell_angle_gamma 121.426013
_cell_volume 712.244148
_symmetry_space_group_name_H-M "P -1"
_symmetry_group_IT_number 2
_symmetry_cell_setting 'triclinic'
loop_
_space_group_symop_operation_xyz
x,y,z
-x,-y,-z
loop_
_atom_site_type_symbol
_atom_site_label
_atom_site_fract_x
_atom_site_fract_y
_atom_site_fract_z
Si Si1 0.623202 0.143156 0.344795
Si Si2 0.347892 0.389469 0.629413
Si Si3 0.649966 0.681343 0.677753
Si Si4 0.859630 0.513975 0.340379
Si Si5 0.685854 0.016295 0.715267
Si Si6 0.853843 0.215791 0.011793
Si Si7 0.153977 0.444684 0.011134
Si Si8 0.625292 0.943735 0.155948
O O1 0.731114 0.329616 0.285540
O O2 0.454332 0.101663 0.227946
O O3 0.646861 0.134188 0.535974
O O4 0.652375 0.998383 0.323976
O O5 0.474745 0.587282 0.629036
O O6 0.302538 0.332313 0.454624
O O7 0.205350 0.385528 0.626980
O O8 0.406332 0.259957 0.792304
O O9 0.728246 0.883866 0.696835
O O10 0.703764 0.581956 0.863120
O O11 0.000000 0.500000 0.500000
O O12 0.901174 0.602501 0.173940
O O13 0.812160 0.152979 0.841440
O O14 0.028320 0.309031 0.089752
O O15 0.778638 0.047244 0.128632
O O16 0.799520 0.357519 0.981734
O O17 0.500000 0.000000 0.000000
#
# Coordination Sequence:
#
# PCOD8032156 Si02
#       8
#     2   2   2   2   2   2   2   2
#     4  11  23  41  67 103 135 184 234 286 349 415
#     4  11  27  45  72 108 142 186 236 296 348 422
#     4  11  25  45  70 106 145 178 237 291 358 418
#     4  12  27  48  72 102 143 190 240 289 353 424
#     4  11  23  41  68 101 143 178 229 290 350 415
#     4  11  25  44  68  99 139 183 234 284 352 423
#     4  11  27  45  70 101 138 190 230 290 361 420
#     4  12  23  44  71 106 138 184 236 290 353 416
#
# _framework density 22.464209
#
# number of rings (size 3 to 8) (size 9 to 14) (size 15 to 20)
#    0.000    0.750    5.000    1.500    7.000    1.000 
#    2.250    1.250    0.000    0.000    0.000    0.000 
#    0.000    0.000    0.000    0.000    0.000    0.000 
#
# Total GULP energy -198317.708867 kJ/mol
# GULP energy per Si atom -12394.856804 kJ/mol
# Density = 2.241308 g / cm^3
# Si number density = 22.464209 Si / 1000 Ang^3
#
#
#
# Elastic Constant Matrix: (Units=GPa)
#
#
# Indices 1 2 3 4 5 6 
#
# 1 100.0053 31.3841 35.7677 0.4146 -5.6537 -12.8019
# 2 31.3841 82.8496 24.5331 5.3732 -6.5046 -4.4301
# 3 35.7677 24.5331 103.4761 4.4571 -4.2840 -15.9239
# 4 0.4146 5.3732 4.4571 33.6891 -7.4631 -3.4035
# 5 -5.6537 -6.5046 -4.2840 -7.4631 33.4130 0.2388
# 6 -12.8019 -4.4301 -15.9239 -3.4035 0.2388 38.3244
#
#
#
# Elastic Compliance Matrix: (Units=1/GPa)
#
#
# Indices 1 2 3 4 5 6 
#
# 1 0.012686 -0.003735 -0.003100 0.001408 0.001318 0.002635
# 2 -0.003735 0.014289 -0.002055 -0.001687 0.001514 -0.000609
# 3 -0.003100 -0.002055 0.011821 -0.000749 0.000398 0.003569
# 4 0.001408 -0.001687 -0.000749 0.031842 0.006906 0.002749
# 5 0.001318 0.001514 0.000398 0.006906 0.032031 0.001194
# 6 0.002635 -0.000609 0.003569 0.002749 0.001194 0.028622
#
#
# Mechanical properties :
#
#
# Convention : Reuss Voigt Hill
#
# Bulk Modulus (GPa) = 47.58276 52.18896 49.88586
# Shear Modulus (GPa) = 32.03537 34.06170 33.04854
#
# Velocity S-wave (km/s) = 3.78042 3.89815 3.83974
# Velocity P-wave (km/s) = 6.34689 6.59873 6.47404
#
# Compressibility (1/GPa) = 0.02101602
#
# Stress axis : x y z
#
# Youngs Moduli (GPa) = 78.82541 69.98365 84.59470
#
# Poissons Ratio (x) = 0.26136 0.26227
# Poissons Ratio (y) = 0.29438 0.17386
# Poissons Ratio (z) = 0.24439 0.14383
#
# Static dielectric constant tensor:
#      x y z
#    x 4.051010 0.050580 -0.221160 
#    y 0.050580 3.975910 0.073540 
#    z -0.221160 0.073540 3.895330 
# 
# 
# High freq. dielectric constant tensor:
#      x y z
#    x 1.883400 0.002280 -0.020570 
#    y 0.002280 1.887340 0.007030 
#    z -0.020570 0.007030 1.879640 
# 
# From -- ./inp_files/243660.got.cif
#   From: 2010.06.25/outbox.cif.g09.slc.cpg/sg2_122_cif.got.tgz:243660.got - 2010.06.27 13:26:56.
