data_PCOD8032925
_publ_section_title
;
Structure prediction by ZEFSAII (Michael W. Deem and Ramdas Pophale) SiO2 
 PCOD8032925
Probable space group: P -1
;
_chemical_formula_sum "Si O2"
_cell_formula_units_Z 14
_cell_length_a 17.238036
_cell_length_b 9.324692
_cell_length_c 12.050130
_cell_angle_alpha 128.163901
_cell_angle_beta 138.424603
_cell_angle_gamma 31.313030
_cell_volume 666.753341
_symmetry_space_group_name_H-M "P -1"
_symmetry_group_IT_number 2
_symmetry_cell_setting 'triclinic'
loop_
_space_group_symop_operation_xyz
x,y,z
-x,-y,-z
loop_
_atom_site_type_symbol
_atom_site_label
_atom_site_fract_x
_atom_site_fract_y
_atom_site_fract_z
Si Si1 0.200889 0.958043 0.651909
Si Si2 0.665622 0.176475 0.513923
Si Si3 0.458058 0.242945 0.019805
Si Si4 0.561130 0.883017 0.289734
Si Si5 0.822876 0.260536 0.877011
Si Si6 0.829893 0.567552 0.849060
Si Si7 0.821815 0.429928 0.530955
O O1 0.234294 0.917636 0.538567
O O2 0.354499 0.875385 0.846215
O O3 0.189415 0.770615 0.600181
O O4 0.012675 0.281447 0.622969
O O5 0.500000 0.500000 0.500000
O O6 0.788147 0.105149 0.709103
O O7 0.603272 0.044599 0.396210
O O8 0.327419 0.512767 0.085963
O O9 0.373061 0.312524 0.839708
O O10 0.500000 0.000000 0.000000
O O11 0.659533 0.708188 0.423103
O O12 0.348827 0.103454 0.172676
O O13 0.847718 0.397940 0.884207
O O14 0.000000 0.000000 0.000000
O O15 0.805850 0.488668 0.671278
O O16 0.000000 0.500000 0.000000
#
# Coordination Sequence:
#
# PCOD8032925 Si02
#       7
#     2   2   2   2   2   2   2
#     4  11  23  44  68  94 140 179 221 282 350 396
#     4  12  21  46  72  95 135 181 226 286 334 401
#     4  12  23  45  72  99 136 178 229 289 336 396
#     4  12  26  43  73 103 131 181 236 279 339 407
#     4  12  28  43  72 104 136 179 232 283 347 399
#     4  12  25  45  65  96 143 177 220 281 342 403
#     4  11  27  42  68 101 137 180 225 276 345 420
#
# _framework density 20.99727
#
# number of rings (size 3 to 8) (size 9 to 14) (size 15 to 20)
#    0.000    0.286    7.143    1.286    4.000    2.286 
#    0.000    0.000    0.000    0.000    0.000    0.000 
#    0.000    0.000    0.000    0.000    0.000    0.000 
#
# Total GULP energy -173586.585853 kJ/mol
# GULP energy per Si atom -12399.041847 kJ/mol
# Density = 2.094948 g / cm^3
# Si number density = 20.997270 Si / 1000 Ang^3
#
#
#
# Elastic Constant Matrix: (Units=GPa)
#
#
# Indices 1 2 3 4 5 6 
#
# 1 101.3475 49.2694 47.9392 -12.9519 8.0577 -10.0341
# 2 49.2694 101.0506 47.6003 -23.0128 -2.3767 -3.4824
# 3 47.9392 47.6003 154.9663 -9.0402 7.2768 4.1360
# 4 -12.9519 -23.0128 -9.0402 45.0689 -0.2322 -1.7111
# 5 8.0577 -2.3767 7.2768 -0.2322 40.9067 0.2233
# 6 -10.0341 -3.4824 4.1360 -1.7111 0.2233 23.2647
#
#
#
# Elastic Compliance Matrix: (Units=1/GPa)
#
#
# Indices 1 2 3 4 5 6 
#
# 1 0.014881 -0.005492 -0.002888 0.001115 -0.002764 0.006218
# 2 -0.005492 0.015279 -0.002800 0.005705 0.002496 0.000812
# 3 -0.002888 -0.002800 0.008299 -0.000721 -0.001057 -0.003183
# 4 0.001115 0.005705 -0.000721 0.025405 0.000366 0.003328
# 5 -0.002764 0.002496 -0.001057 0.000366 0.025330 -0.000847
# 6 0.006218 0.000812 -0.003183 0.003328 -0.000847 0.046606
#
#
# Mechanical properties :
#
#
# Convention : Reuss Voigt Hill
#
# Bulk Modulus (GPa) = 62.11629 71.88688 67.00158
# Shear Modulus (GPa) = 30.57633 36.01842 33.29738
#
# Velocity S-wave (km/s) = 3.82017 4.14621 3.98652
# Velocity P-wave (km/s) = 7.00753 7.56519 7.29169
#
# Compressibility (1/GPa) = 0.01609884
#
# Stress axis : x y z
#
# Youngs Moduli (GPa) = 67.20127 65.45014 120.49808
#
# Poissons Ratio (x) = 0.35946 0.34794
# Poissons Ratio (y) = 0.36908 0.33741
# Poissons Ratio (z) = 0.19404 0.18327
#
# Static dielectric constant tensor:
#      x y z
#    x 3.933320 -0.232330 -0.020640 
#    y -0.232330 3.888150 -0.071560 
#    z -0.020640 -0.071560 4.083240 
# 
# 
# High freq. dielectric constant tensor:
#      x y z
#    x 1.828740 -0.014050 0.001160 
#    y -0.014050 1.819690 0.004210 
#    z 0.001160 0.004210 1.847670 
# 
# From -- ./inp_files/157596.got.cif
#   From: 2010.06.25/outbox.cif.g09.slc.cpg/sg2_79_cif.got.tgz:157596.got - 2010.06.27 13:26:56.
