data_PCOD8032167
_publ_section_title
;
Structure prediction by ZEFSAII (Michael W. Deem and Ramdas Pophale) SiO2 
 PCOD8032167
Probable space group: P -1
;
_chemical_formula_sum "Si O2"
_cell_formula_units_Z 12
_cell_length_a 18.224789
_cell_length_b 11.701992
_cell_length_c 20.675326
_cell_angle_alpha 22.600018
_cell_angle_beta 159.976999
_cell_angle_gamma 146.805186
_cell_volume 564.290771
_symmetry_space_group_name_H-M "P -1"
_symmetry_group_IT_number 2
_symmetry_cell_setting 'triclinic'
loop_
_space_group_symop_operation_xyz
x,y,z
-x,-y,-z
loop_
_atom_site_type_symbol
_atom_site_label
_atom_site_fract_x
_atom_site_fract_y
_atom_site_fract_z
Si Si1 0.760965 0.705824 0.746337
Si Si2 0.008633 0.391896 0.742895
Si Si3 0.285154 0.714118 0.338937
Si Si4 0.184340 0.612212 0.552954
Si Si5 0.392207 0.691252 0.872666
Si Si6 0.202024 0.386685 0.319671
O O1 0.516277 0.717916 0.563193
O O2 0.767936 0.539941 0.768944
O O3 0.808340 0.042929 0.601414
O O4 0.934320 0.494765 0.049865
O O5 0.845717 0.481602 0.622683
O O6 0.859878 0.406685 0.549022
O O7 0.170143 0.616842 0.754055
O O8 0.154700 0.057953 0.047366
O O9 0.314943 0.585914 0.357347
O O10 0.000000 0.500000 0.500000
O O11 0.419518 0.376231 0.881724
O O12 0.319166 0.041506 0.611096
O O13 0.500000 0.500000 0.000000
#
# Coordination Sequence:
#
# PCOD8032167 Si02
#       6
#     2   2   2   2   2   2
#     4  11  23  41  67  98 128 169 220 269 316 381
#     4  11  24  42  66  99 129 175 217 257 326 389
#     4  11  24  42  67  95 135 172 213 265 321 388
#     4  12  23  40  68  96 126 166 218 268 316 381
#     4  12  23  43  66  96 131 168 214 271 323 375
#     4  11  24  41  67  96 130 171 218 266 323 374
#
# _framework density 21.265632
#
# number of rings (size 3 to 8) (size 9 to 14) (size 15 to 20)
#    0.000    0.667    6.667    0.500    0.000    6.667 
#    0.000    1.667    0.000    0.000    0.000    0.000 
#    0.000    0.000    0.000    0.000    0.000    0.000 
#
# Total GULP energy -148765.818742 kJ/mol
# GULP energy per Si atom -12397.151562 kJ/mol
# Density = 2.121723 g / cm^3
# Si number density = 21.265632 Si / 1000 Ang^3
#
#
#
# Elastic Constant Matrix: (Units=GPa)
#
#
# Indices 1 2 3 4 5 6 
#
# 1 -119.2218 -231.3301 -173.0618 71.5620 183.9541 -59.0604
# 2 -231.3301 -285.2655 -236.9683 125.6436 297.6039 -81.8515
# 3 -173.0618 -236.9683 -32.8442 97.4790 198.1434 -67.2613
# 4 71.5620 125.6436 97.4790 11.4861 -86.6198 22.2940
# 5 183.9541 297.6039 198.1434 -86.6198 -193.6259 72.4633
# 6 -59.0604 -81.8515 -67.2613 22.2940 72.4633 8.8518
#
#
#
# Elastic Compliance Matrix: (Units=1/GPa)
#
#
# Indices 1 2 3 4 5 6 
#
# 1 0.025859 -0.007842 0.000560 0.004361 0.011332 0.000524
# 2 -0.007842 0.010380 -0.003143 -0.000784 0.003391 -0.006006
# 3 0.000560 -0.003143 0.007136 -0.001474 0.003904 0.000645
# 4 0.004361 -0.000784 -0.001474 0.022186 -0.006257 0.005984
# 5 0.011332 0.003391 0.003904 -0.006257 0.018368 0.002030
# 6 0.000524 -0.006006 0.000645 0.005984 0.002030 0.034148
#
#
# Mechanical properties :
#
#
# Convention : Reuss Voigt Hill
#
# Bulk Modulus (GPa) = 44.39523 -191.11689 -73.36083
# Shear Modulus (GPa) = 34.14488 -21.05570 6.54459
#
# Velocity S-wave (km/s) = 4.01139 -3.15004 1.75620
# Velocity P-wave (km/s) = 6.50975 10.16350 5.51905
#
# Compressibility (1/GPa) = 0.02252494
#
# Stress axis : x y z
#
# Youngs Moduli (GPa) = 38.67084 96.33698 140.14298
#
# Poissons Ratio (x) = 0.75546 -0.07847
# Poissons Ratio (y) = 0.30325 0.44049
# Poissons Ratio (z) = -0.02165 0.30280
#
# Static dielectric constant tensor:
#      x y z
#    x 4.148050 0.065950 -0.027000 
#    y 0.065950 3.820710 0.320280 
#    z -0.027000 0.320280 4.314250 
# 
# 
# High freq. dielectric constant tensor:
#      x y z
#    x 1.817210 -0.002030 -0.004250 
#    y -0.002030 1.835090 0.020680 
#    z -0.004250 0.020680 1.853380 
# 
# From -- ./inp_files/172662.got.cif
#   From: 2010.06.25/outbox.cif.g09.slc.cpg/sg2_87_cif.got.tgz:172662.got - 2010.06.27 13:26:56.
