data_PCOD8032524
_publ_section_title
;
Structure prediction by ZEFSAII (Michael W. Deem and Ramdas Pophale) SiO2 
 PCOD8032524
Probable space group: P -1
;
_chemical_formula_sum "Si O2"
_cell_formula_units_Z 14
_cell_length_a 9.359394
_cell_length_b 20.339533
_cell_length_c 11.320816
_cell_angle_alpha 147.534754
_cell_angle_beta 115.061683
_cell_angle_gamma 41.702855
_cell_volume 628.142217
_symmetry_space_group_name_H-M "P -1"
_symmetry_group_IT_number 2
_symmetry_cell_setting 'triclinic'
loop_
_space_group_symop_operation_xyz
x,y,z
-x,-y,-z
loop_
_atom_site_type_symbol
_atom_site_label
_atom_site_fract_x
_atom_site_fract_y
_atom_site_fract_z
Si Si1 0.619643 0.113069 0.990542
Si Si2 0.703499 0.141333 0.625424
Si Si3 0.025653 0.318739 0.456157
Si Si4 0.311925 0.124263 0.734989
Si Si5 0.276909 0.497431 0.595844
Si Si6 0.544660 0.339336 0.120626
Si Si7 0.229819 0.449448 0.768672
O O1 0.409742 0.160326 0.919758
O O2 0.482676 0.262140 0.280773
O O3 0.723859 0.154157 0.998797
O O4 0.857733 0.884483 0.775102
O O5 0.506697 0.317874 0.724362
O O6 0.698814 0.999680 0.395044
O O7 0.593754 0.251833 0.878842
O O8 0.000000 0.000000 0.500000
O O9 0.980721 0.353984 0.352287
O O10 0.753719 0.503290 0.709518
O O11 0.220602 0.307650 0.542546
O O12 0.500000 0.000000 0.500000
O O13 0.016022 0.348425 0.932799
O O14 0.403024 0.549905 0.689694
O O15 0.199213 0.534925 0.761332
#
# Coordination Sequence:
#
# PCOD8032524 Si02
#       7
#     2   2   2   2   2   2   2
#     4  11  23  42  74 104 134 183 236 290 340 415
#     4  12  28  46  69 106 142 188 236 287 360 417
#     4  11  23  43  75 103 137 184 235 290 349 413
#     4  12  24  45  73 105 140 182 242 288 344 422
#     4  11  26  45  67 108 147 184 231 285 356 420
#     4  11  25  46  69 101 146 181 237 292 345 420
#     4  12  26  46  73 103 146 188 228 298 350 414
#
# _framework density 22.287946999999999
#
# number of rings (size 3 to 8) (size 9 to 14) (size 15 to 20)
#    0.000    0.571    5.714    3.000    2.000    9.714 
#    0.000    0.000    0.000    0.000    0.000    0.000 
#    0.000    0.000    0.000    0.000    0.000    0.000 
#
# Total GULP energy -173621.568539 kJ/mol
# GULP energy per Si atom -12401.540610 kJ/mol
# Density = 2.223722 g / cm^3
# Si number density = 22.287947 Si / 1000 Ang^3
#
#
#
# Elastic Constant Matrix: (Units=GPa)
#
#
# Indices 1 2 3 4 5 6 
#
# 1 115.6283 42.6058 46.6504 9.9795 -2.9971 6.8501
# 2 42.6058 118.9932 66.4663 26.6192 -19.4436 8.9291
# 3 46.6504 66.4663 123.9710 12.3567 2.7974 13.9390
# 4 9.9795 26.6192 12.3567 35.5621 4.4307 6.0621
# 5 -2.9971 -19.4436 2.7974 4.4307 32.5600 0.9751
# 6 6.8501 8.9291 13.9390 6.0621 0.9751 36.5764
#
#
#
# Elastic Compliance Matrix: (Units=1/GPa)
#
#
# Indices 1 2 3 4 5 6 
#
# 1 0.010607 -0.002155 -0.002762 -0.000342 -0.000016 -0.000351
# 2 -0.002155 0.018748 -0.008397 -0.012298 0.013371 0.000708
# 3 -0.002762 -0.008397 0.013745 0.003666 -0.006855 -0.003096
# 4 -0.000342 -0.012298 0.003666 0.038486 -0.012797 -0.004368
# 5 -0.000016 0.013371 -0.006855 -0.012797 0.041015 0.000379
# 6 -0.000351 0.000708 -0.003096 -0.004368 0.000379 0.029127
#
#
# Mechanical properties :
#
#
# Convention : Reuss Voigt Hill
#
# Bulk Modulus (GPa) = 60.70506 74.44860 67.57683
# Shear Modulus (GPa) = 27.19683 34.46437 30.83060
#
# Velocity S-wave (km/s) = 3.49699 3.93660 3.72329
# Velocity P-wave (km/s) = 6.60312 7.35785 6.99068
#
# Compressibility (1/GPa) = 0.01647309
#
# Stress axis : x y z
#
# Youngs Moduli (GPa) = 94.28075 53.33858 72.75408
#
# Poissons Ratio (x) = 0.11492 0.20096
# Poissons Ratio (y) = 0.20314 0.61088
# Poissons Ratio (z) = 0.26042 0.44786
#
# Static dielectric constant tensor:
#      x y z
#    x 4.360260 0.124500 0.346680 
#    y 0.124500 3.995660 0.035200 
#    z 0.346680 0.035200 4.281530 
# 
# 
# High freq. dielectric constant tensor:
#      x y z
#    x 1.882550 0.003840 0.015950 
#    y 0.003840 1.871580 -0.001540 
#    z 0.015950 -0.001540 1.894760 
# 
# From -- ./inp_files/283403.got.cif
#   From: 2010.06.25/outbox.cif.g09.slc.cpg/sg2_142_cif.got.tgz:283403.got - 2010.06.27 13:26:56.
