data_PCOD8032130
_publ_section_title
;
Structure prediction by ZEFSAII (Michael W. Deem and Ramdas Pophale) SiO2 
 PCOD8032130
Probable space group: P -1
;
_chemical_formula_sum "Si O2"
_cell_formula_units_Z 16
_cell_length_a 9.008295
_cell_length_b 8.931400
_cell_length_c 12.433800
_cell_angle_alpha 93.645830
_cell_angle_beta 133.640437
_cell_angle_gamma 87.484792
_cell_volume 722.496506
_symmetry_space_group_name_H-M "P -1"
_symmetry_group_IT_number 2
_symmetry_cell_setting 'triclinic'
loop_
_space_group_symop_operation_xyz
x,y,z
-x,-y,-z
loop_
_atom_site_type_symbol
_atom_site_label
_atom_site_fract_x
_atom_site_fract_y
_atom_site_fract_z
Si Si1 0.505229 0.876777 0.585913
Si Si2 0.642811 0.316523 0.190431
Si Si3 0.099269 0.838972 0.520272
Si Si4 0.505229 0.623223 0.419316
Si Si5 0.283628 0.355693 0.690307
Si Si6 0.283629 0.144307 0.093322
Si Si7 0.642810 0.183477 0.952379
Si Si8 0.099269 0.661028 0.078997
O O1 0.280567 0.849786 0.524316
O O2 0.586714 0.750000 0.543357
O O3 0.677152 0.905315 0.765255
O O4 0.500000 0.000000 0.500000
O O5 0.826513 0.224539 0.331501
O O6 0.681313 0.495628 0.213343
O O7 0.437293 0.281716 0.152874
O O8 0.609000 0.250000 0.054500
O O9 0.937580 0.712584 0.395632
O O10 0.000000 0.000000 0.500000
O O11 0.500000 0.500000 0.500000
O O12 0.677152 0.594685 0.411897
O O13 0.280567 0.650214 0.256251
O O14 0.437293 0.218284 0.784419
O O15 0.318687 0.995628 0.032031
O O16 0.062420 0.212584 0.958051
O O17 0.826513 0.275461 0.995012
O O18 0.000000 0.500000 0.000000
#
# Coordination Sequence:
#
# PCOD8032130 Si02
#       8
#     2   2   2   2   2   2   2   2
#     4  11  23  41  65  93 125 167 211 260 319 380
#     4  11  24  42  65  92 126 170 213 265 323 380
#     4  11  24  41  63  94 130 168 214 266 319 385
#     4  11  23  41  65  93 125 167 211 260 319 380
#     4  11  23  44  64  93 131 165 215 271 319 383
#     4  11  23  44  64  93 131 165 215 271 319 383
#     4  11  24  42  65  92 126 170 213 265 323 380
#     4  11  24  41  63  94 130 168 214 266 319 385
#
# _framework density 22.145434000000002
#
# number of rings (size 3 to 8) (size 9 to 14) (size 15 to 20)
#    0.000    1.000    0.000    9.000    0.000    6.000 
#    0.000    0.000    0.000    0.000    0.000    0.000 
#    0.000    0.000    0.000    0.000    0.000    0.000 
#
# Total GULP energy -198284.435420 kJ/mol
# GULP energy per Si atom -12392.777214 kJ/mol
# Density = 2.209503 g / cm^3
# Si number density = 22.145434 Si / 1000 Ang^3
#
#
#
# Elastic Constant Matrix: (Units=GPa)
#
#
# Indices 1 2 3 4 5 6 
#
# 1 72.0626 24.5889 34.6646 -1.9406 5.7436 10.1539
# 2 24.5889 112.2625 26.4477 -5.7976 -4.6436 6.2888
# 3 34.6646 26.4477 67.5675 -3.0085 -3.0683 -2.8108
# 4 -1.9406 -5.7976 -3.0085 42.0093 -8.2894 -0.1297
# 5 5.7436 -4.6436 -3.0683 -8.2894 36.2379 5.7633
# 6 10.1539 6.2888 -2.8108 -0.1297 5.7633 39.7145
#
#
#
# Elastic Compliance Matrix: (Units=1/GPa)
#
#
# Indices 1 2 3 4 5 6 
#
# 1 0.020411 -0.002001 -0.010105 -0.000808 -0.003724 -0.005079
# 2 -0.002001 0.010281 -0.002907 0.001506 0.001988 -0.001606
# 3 -0.010105 -0.002907 0.021470 0.001207 0.002658 0.004182
# 4 -0.000808 0.001506 0.001207 0.025309 0.006337 -0.000784
# 5 -0.003724 0.001988 0.002658 0.006337 0.030689 -0.003607
# 6 -0.005079 -0.001606 0.004182 -0.000784 -0.003607 0.027549
#
#
# Mechanical properties :
#
#
# Convention : Reuss Voigt Hill
#
# Bulk Modulus (GPa) = 45.17426 47.03277 46.10351
# Shear Modulus (GPa) = 28.88268 34.67176 31.77722
#
# Velocity S-wave (km/s) = 3.61533 3.96111 3.79216
# Velocity P-wave (km/s) = 6.15391 6.49652 6.32753
#
# Compressibility (1/GPa) = 0.02213650
#
# Stress axis : x y z
#
# Youngs Moduli (GPa) = 48.99302 97.26851 46.57609
#
# Poissons Ratio (x) = 0.19467 0.47063
# Poissons Ratio (y) = 0.09805 0.13539
# Poissons Ratio (z) = 0.49505 0.28275
#
# Static dielectric constant tensor:
#      x y z
#    x 4.329260 0.094240 0.222910 
#    y 0.094240 4.165370 -0.158640 
#    z 0.222910 -0.158640 4.228510 
# 
# 
# High freq. dielectric constant tensor:
#      x y z
#    x 1.871980 0.005990 -0.001000 
#    y 0.005990 1.894810 -0.003450 
#    z -0.001000 -0.003450 1.871040 
# 
# From -- ./inp_files/187496.got.cif
#   From: 2010.06.25/outbox.cif.g09.slc.cpg/sg2_94_cif.got.tgz:187496.got - 2010.06.27 13:26:56.
