data_PCOD8032289
_publ_section_title
;
Structure prediction by ZEFSAII (Michael W. Deem and Ramdas Pophale) SiO2 
 PCOD8032289
Probable space group: P -1
;
_chemical_formula_sum "Si O2"
_cell_formula_units_Z 16
_cell_length_a 10.764386
_cell_length_b 5.275307
_cell_length_c 15.091709
_cell_angle_alpha 98.431484
_cell_angle_beta 77.989121
_cell_angle_gamma 56.280131
_cell_volume 660.018931
_symmetry_space_group_name_H-M "P -1"
_symmetry_group_IT_number 2
_symmetry_cell_setting 'triclinic'
loop_
_space_group_symop_operation_xyz
x,y,z
-x,-y,-z
loop_
_atom_site_type_symbol
_atom_site_label
_atom_site_fract_x
_atom_site_fract_y
_atom_site_fract_z
Si Si1 0.636603 0.134159 0.442496
Si Si2 0.342976 0.170308 0.270046
Si Si3 0.320812 0.237203 0.738560
Si Si4 0.189089 0.263505 0.935934
Si Si5 0.779288 0.226515 0.787100
Si Si6 0.132698 0.807946 0.673054
Si Si7 0.320848 0.644808 0.001037
Si Si8 0.824103 0.611481 0.518149
O O1 0.500000 0.500000 0.500000
O O2 0.775929 0.040592 0.347279
O O3 0.581909 0.974342 0.376976
O O4 0.709699 0.977402 0.518451
O O5 0.341338 0.405132 0.210812
O O6 0.252995 0.398094 0.380657
O O7 0.524836 0.851634 0.235519
O O8 0.252214 0.024860 0.249433
O O9 0.217909 0.190094 0.821493
O O10 0.195264 0.602643 0.743339
O O11 0.288611 0.400394 0.953828
O O12 0.000000 0.500000 0.000000
O O13 0.266056 0.924174 0.953895
O O14 0.791252 0.210711 0.889607
O O15 0.949070 0.098628 0.717198
O O16 0.177920 0.602951 0.566277
O O17 0.500000 0.500000 0.000000
O O18 0.000000 0.500000 0.500000
#
# Coordination Sequence:
#
# PCOD8032289 Si02
#       8
#     2   2   2   2   2   2   2   2
#     4  11  25  42  69  98 142 183 231 288 346 415
#     4  12  26  44  71 103 141 185 239 287 346 422
#     4  11  27  44  70 104 141 184 237 285 356 417
#     4  12  27  47  77 107 144 189 239 299 357 433
#     4  12  27  45  73 104 139 185 235 294 352 416
#     4  11  25  42  69  98 143 184 233 290 348 415
#     4  12  26  49  75 105 146 185 240 298 365 422
#     4  11  23  42  63 101 137 182 233 286 344 411
#
# _framework density 24.241726
#
# number of rings (size 3 to 8) (size 9 to 14) (size 15 to 20)
#    0.000    0.500    1.250    6.000   10.500    3.000 
#    0.000    0.000    0.000    0.000    0.000    0.000 
#    0.000    0.000    0.000    0.000    0.000    0.000 
#
# Total GULP energy -198240.263141 kJ/mol
# GULP energy per Si atom -12390.016446 kJ/mol
# Density = 2.418655 g / cm^3
# Si number density = 24.241726 Si / 1000 Ang^3
#
#
#
# Elastic Constant Matrix: (Units=GPa)
#
#
# Indices 1 2 3 4 5 6 
#
# 1 69.0596 21.3724 -4.2555 1.5971 -6.1280 0.9861
# 2 21.3724 100.7542 11.6497 -15.6963 11.8131 8.4303
# 3 -4.2555 11.6497 99.6845 -13.3282 -2.4199 -0.8601
# 4 1.5971 -15.6963 -13.3282 44.6738 -2.5882 -9.6426
# 5 -6.1280 11.8131 -2.4199 -2.5882 21.9623 -6.7346
# 6 0.9861 8.4303 -0.8601 -9.6426 -6.7346 32.3776
#
#
#
# Elastic Compliance Matrix: (Units=1/GPa)
#
#
# Indices 1 2 3 4 5 6 
#
# 1 0.016832 -0.005025 0.001388 -0.001003 0.008115 0.002222
# 2 -0.005025 0.013127 -0.001653 0.002765 -0.009700 -0.004503
# 3 0.001388 -0.001653 0.010838 0.003334 0.003605 0.002419
# 4 -0.001003 0.002765 0.003334 0.026385 0.004203 0.008132
# 5 0.008115 -0.009700 0.003605 0.004203 0.058767 0.015850
# 6 0.002222 -0.004503 0.002419 0.008132 0.015850 0.037773
#
#
# Mechanical properties :
#
#
# Convention : Reuss Voigt Hill
#
# Bulk Modulus (GPa) = 33.09377 36.33685 34.71531
# Shear Modulus (GPa) = 27.11853 35.85152 31.48503
#
# Velocity S-wave (km/s) = 3.34828 3.84984 3.60779
# Velocity P-wave (km/s) = 5.35063 5.89777 5.63085
#
# Compressibility (1/GPa) = 0.03021717
#
# Stress axis : x y z
#
# Youngs Moduli (GPa) = 59.40923 76.17927 92.26561
#
# Poissons Ratio (x) = 0.38278 -0.12804
# Poissons Ratio (y) = 0.29852 0.15254
# Poissons Ratio (z) = -0.08245 0.12594
#
# Static dielectric constant tensor:
#      x y z
#    x -9.780640 1.193910 -0.355730 
#    y 1.193910 4.156040 -0.208190 
#    z -0.355730 -0.208190 4.698030 
# 
# 
# High freq. dielectric constant tensor:
#      x y z
#    x 1.971680 -0.009200 -0.006120 
#    y -0.009200 1.963100 -0.007090 
#    z -0.006120 -0.007090 1.987210 
# 
# From -- ./inp_files/98253.got.cif
#   From: 2010.06.25/outbox.cif.g09.slc.cpg/sg2_50_cif.got.tgz:98253.got - 2010.06.27 13:26:56.
