data_PCOD8032148
_publ_section_title
;
Structure prediction by ZEFSAII (Michael W. Deem and Ramdas Pophale) SiO2 
 PCOD8032148
Probable space group: P -1
;
_chemical_formula_sum "Si O2"
_cell_formula_units_Z 16
_cell_length_a 9.734318
_cell_length_b 12.018596
_cell_length_c 18.035834
_cell_angle_alpha 40.827428
_cell_angle_beta 94.525058
_cell_angle_gamma 126.025554
_cell_volume 804.913244
_symmetry_space_group_name_H-M "P -1"
_symmetry_group_IT_number 2
_symmetry_cell_setting 'triclinic'
loop_
_space_group_symop_operation_xyz
x,y,z
-x,-y,-z
loop_
_atom_site_type_symbol
_atom_site_label
_atom_site_fract_x
_atom_site_fract_y
_atom_site_fract_z
Si Si1 0.500383 0.147699 0.669368
Si Si2 0.023994 0.823410 0.850975
Si Si3 0.010174 0.201924 0.668625
Si Si4 0.724162 0.931341 0.646602
Si Si5 0.251577 0.440431 0.175202
Si Si6 0.730797 0.335665 0.203814
Si Si7 0.300102 0.914946 0.174159
Si Si8 0.991893 0.578325 0.705877
O O1 0.716698 0.484442 0.487780
O O2 0.566113 0.074516 0.769657
O O3 0.410400 0.966486 0.682426
O O4 0.302252 0.071797 0.733255
O O5 0.908130 0.662705 0.848504
O O6 0.916289 0.589177 0.024434
O O7 0.972390 0.964852 0.800537
O O8 0.914552 0.206126 0.733341
O O9 0.869351 0.123002 0.630054
O O10 0.754716 0.766978 0.708547
O O11 0.450207 0.696007 0.767018
O O12 0.816600 0.138996 0.479458
O O13 0.146248 0.419626 0.254149
O O14 0.519139 0.763882 0.010050
O O15 0.872829 0.423417 0.238007
O O16 0.203501 0.713951 0.202383
#
# Coordination Sequence:
#
# PCOD8032148 Si02
#       8
#     2   2   2   2   2   2   2   2
#     4  12  21  40  65  94 126 160 212 252 307 372
#     4  11  23  41  66  96 125 162 211 262 309 365
#     4  11  23  41  66  96 125 162 211 262 309 365
#     4  11  23  42  65  94 127 166 208 255 314 373
#     4  11  23  42  65  94 127 166 208 255 314 373
#     4  12  23  42  67  94 125 164 213 258 308 369
#     4  12  23  42  67  94 125 164 213 258 308 369
#     4  12  25  42  61  96 132 164 204 256 317 372
#
# _framework density 19.877918999999999
#
# number of rings (size 3 to 8) (size 9 to 14) (size 15 to 20)
#    0.000    0.500    5.000    4.500    0.000    2.000 
#    0.000    5.000    0.000    0.000    0.000    0.000 
#    0.000    0.000    0.000    0.000    0.000    0.000 
#
# Total GULP energy -198541.502717 kJ/mol
# GULP energy per Si atom -12408.843920 kJ/mol
# Density = 1.983268 g / cm^3
# Si number density = 19.877919 Si / 1000 Ang^3
#
#
#
# Elastic Constant Matrix: (Units=GPa)
#
#
# Indices 1 2 3 4 5 6 
#
# 1 100.2834 24.6014 23.2195 3.1236 -23.1518 -5.0300
# 2 24.6014 39.9375 26.0399 4.6388 -7.8495 -12.6902
# 3 23.2195 26.0399 86.2483 -11.0301 -10.8652 -4.3974
# 4 3.1236 4.6388 -11.0301 24.1760 4.2771 -1.6506
# 5 -23.1518 -7.8495 -10.8652 4.2771 37.2038 -1.3693
# 6 -5.0300 -12.6902 -4.3974 -1.6506 -1.3693 25.7017
#
#
#
# Elastic Compliance Matrix: (Units=1/GPa)
#
#
# Indices 1 2 3 4 5 6 
#
# 1 0.013376 -0.005823 -0.001289 -0.002454 0.006991 -0.000263
# 2 -0.005823 0.044663 -0.012074 -0.012862 0.004424 0.018257
# 3 -0.001289 -0.012074 0.016753 0.009888 0.000307 -0.002696
# 4 -0.002454 -0.012862 0.009888 0.049768 -0.007160 -0.002324
# 5 0.006991 0.004424 0.000307 -0.007160 0.033257 0.004917
# 6 -0.000263 0.018257 -0.002696 -0.002324 0.004917 0.047522
#
#
# Mechanical properties :
#
#
# Convention : Reuss Voigt Hill
#
# Bulk Modulus (GPa) = 27.45834 41.57673 34.51753
# Shear Modulus (GPa) = 19.54266 27.59019 23.56643
#
# Velocity S-wave (km/s) = 3.13890 3.72960 3.44693
# Velocity P-wave (km/s) = 5.19426 6.28554 5.76578
#
# Compressibility (1/GPa) = 0.03641881
#
# Stress axis : x y z
#
# Youngs Moduli (GPa) = 74.76005 22.38989 59.69250
#
# Poissons Ratio (x) = 0.13039 0.07697
# Poissons Ratio (y) = 0.43536 0.72070
# Poissons Ratio (z) = 0.09640 0.27032
#
# Static dielectric constant tensor:
#      x y z
#    x 3.663480 0.006250 -0.091290 
#    y 0.006250 3.749700 -0.122100 
#    z -0.091290 -0.122100 3.720410 
# 
# 
# High freq. dielectric constant tensor:
#      x y z
#    x 1.789690 -0.002450 -0.005440 
#    y -0.002450 1.772580 -0.002840 
#    z -0.005440 -0.002840 1.788160 
# 
# From -- ./inp_files/189900.got.cif
#   From: 2010.06.25/outbox.cif.g09.slc.cpg/sg2_95_cif.got.tgz:189900.got - 2010.06.27 13:26:56.
