data_PCOD8032495
_publ_section_title
;
Structure prediction by ZEFSAII (Michael W. Deem and Ramdas Pophale) SiO2 
 PCOD8032495
Probable space group: P -1
;
_chemical_formula_sum "Si O2"
_cell_formula_units_Z 16
_cell_length_a 8.636985
_cell_length_b 14.900077
_cell_length_c 11.489496
_cell_angle_alpha 78.421667
_cell_angle_beta 90.963450
_cell_angle_gamma 147.544712
_cell_volume 743.890357
_symmetry_space_group_name_H-M "P -1"
_symmetry_group_IT_number 2
_symmetry_cell_setting 'triclinic'
loop_
_space_group_symop_operation_xyz
x,y,z
-x,-y,-z
loop_
_atom_site_type_symbol
_atom_site_label
_atom_site_fract_x
_atom_site_fract_y
_atom_site_fract_z
Si Si1 0.931388 0.092403 0.438341
Si Si2 0.814945 0.932248 0.699225
Si Si3 0.840874 0.964617 0.113873
Si Si4 0.653893 0.065533 0.108056
Si Si5 0.749037 0.403587 0.730490
Si Si6 0.814980 0.343594 0.128435
Si Si7 0.311666 0.795609 0.367879
Si Si8 0.243773 0.414713 0.440653
O O1 0.173921 0.143568 0.376239
O O2 0.112051 0.278641 0.377615
O O3 0.872938 0.050642 0.588581
O O4 0.610846 0.928788 0.412825
O O5 0.520226 0.788790 0.815188
O O6 0.082356 0.047918 0.762447
O O7 0.488447 0.764894 0.141268
O O8 0.891337 0.100336 0.091390
O O9 0.000000 0.000000 0.000000
O O10 0.818429 0.242051 0.104342
O O11 0.394621 0.908826 0.237527
O O12 0.500000 0.000000 0.000000
O O13 0.823889 0.368047 0.640717
O O14 0.613575 0.426207 0.664308
O O15 0.038895 0.579297 0.762287
O O16 0.000000 0.500000 0.000000
O O17 0.047389 0.704251 0.460448
O O18 0.500000 0.500000 0.500000
#
# Coordination Sequence:
#
# PCOD8032495 Si02
#       8
#     2   2   2   2   2   2   2   2
#     4  11  23  43  70  96 132 179 225 266 334 407
#     4  11  23  42  72  94 132 175 230 267 327 403
#     4  11  23  46  70  95 130 179 228 272 320 407
#     4  11  23  43  69  93 128 179 228 263 331 406
#     4  11  24  42  64  95 137 169 213 274 340 385
#     4  12  25  44  66  99 134 173 223 283 340 384
#     4  11  23  46  66  91 133 181 218 262 336 410
#     4  12  26  38  65 103 134 163 217 279 334 386
#
# _framework density 21.508547
#
# number of rings (size 3 to 8) (size 9 to 14) (size 15 to 20)
#    0.000    0.750    2.500    6.750    3.500    1.000 
#    2.250    1.250    0.000    0.000    0.000    0.000 
#    0.000    0.000    0.000    0.000    0.000    0.000 
#
# Total GULP energy -198318.781625 kJ/mol
# GULP energy per Si atom -12394.923852 kJ/mol
# Density = 2.145959 g / cm^3
# Si number density = 21.508547 Si / 1000 Ang^3
#
#
#
# Elastic Constant Matrix: (Units=GPa)
#
#
# Indices 1 2 3 4 5 6 
#
# 1 117.6652 53.7302 36.6126 -5.4338 -7.1169 -14.1058
# 2 53.7302 118.8887 16.9336 16.3494 5.5093 -24.4874
# 3 36.6126 16.9336 93.4899 -0.8825 3.5631 -11.4055
# 4 -5.4338 16.3494 -0.8825 39.4258 7.9448 4.5244
# 5 -7.1169 5.5093 3.5631 7.9448 51.8207 1.5602
# 6 -14.1058 -24.4874 -11.4055 4.5244 1.5602 43.9911
#
#
#
# Elastic Compliance Matrix: (Units=1/GPa)
#
#
# Indices 1 2 3 4 5 6 
#
# 1 0.012665 -0.005919 -0.004022 0.003774 0.002089 -0.000739
# 2 -0.005919 0.013312 0.000683 -0.006771 -0.001431 0.006436
# 3 -0.004022 0.000683 0.012496 -0.000540 -0.001475 0.002438
# 4 0.003774 -0.006771 -0.000540 0.029965 -0.003148 -0.005669
# 5 0.002089 -0.001431 -0.001475 -0.003148 0.020348 -0.000907
# 6 -0.000739 0.006436 0.002438 -0.005669 -0.000907 0.027325
#
#
# Mechanical properties :
#
#
# Convention : Reuss Voigt Hill
#
# Bulk Modulus (GPa) = 50.10752 60.51073 55.30912
# Shear Modulus (GPa) = 35.39077 41.89867 38.64472
#
# Velocity S-wave (km/s) = 4.06079 4.41840 4.24337
# Velocity P-wave (km/s) = 6.73304 7.36370 7.05542
#
# Compressibility (1/GPa) = 0.01995709
#
# Stress axis : x y z
#
# Youngs Moduli (GPa) = 78.95808 75.11975 80.02357
#
# Poissons Ratio (x) = 0.44462 0.32185
# Poissons Ratio (y) = 0.46734 -0.05462
# Poissons Ratio (z) = 0.31756 -0.05127
#
# Static dielectric constant tensor:
#      x y z
#    x 4.320000 -0.187290 0.151580 
#    y -0.187290 3.922830 0.106800 
#    z 0.151580 0.106800 4.228360 
# 
# 
# High freq. dielectric constant tensor:
#      x y z
#    x 1.856420 -0.011110 0.003690 
#    y -0.011110 1.843340 0.010490 
#    z 0.003690 0.010490 1.853480 
# 
# From -- ./inp_files/176119.got.cif
#   From: 2010.06.25/outbox.cif.g09.slc.cpg/sg2_89_cif.got.tgz:176119.got - 2010.06.27 13:26:56.
