data_PCOD8032920
_publ_section_title
;
Structure prediction by ZEFSAII (Michael W. Deem and Ramdas Pophale) SiO2 
 PCOD8032920
Probable space group: P -1
;
_chemical_formula_sum "Si O2"
_cell_formula_units_Z 16
_cell_length_a 17.588712
_cell_length_b 10.854122
_cell_length_c 8.512015
_cell_angle_alpha 58.650872
_cell_angle_beta 130.797652
_cell_angle_gamma 147.288689
_cell_volume 663.066304
_symmetry_space_group_name_H-M "P -1"
_symmetry_group_IT_number 2
_symmetry_cell_setting 'triclinic'
loop_
_space_group_symop_operation_xyz
x,y,z
-x,-y,-z
loop_
_atom_site_type_symbol
_atom_site_label
_atom_site_fract_x
_atom_site_fract_y
_atom_site_fract_z
Si Si1 0.275042 0.302891 0.810819
Si Si2 0.684297 0.171695 0.672767
Si Si3 0.498343 0.325866 0.626219
Si Si4 0.994019 0.498448 0.677805
Si Si5 0.814824 0.527258 0.875807
Si Si6 0.560207 0.748800 0.756297
Si Si7 0.786437 0.993739 0.345034
Si Si8 0.971234 0.986552 0.786351
O O1 0.377630 0.545094 0.708383
O O2 0.225291 0.128473 0.733168
O O3 0.373086 0.336445 0.063075
O O4 0.125499 0.211415 0.749877
O O5 0.750591 0.348656 0.776930
O O6 0.811242 0.316125 0.605797
O O7 0.500000 0.000000 0.500000
O O8 0.670490 0.989749 0.834989
O O9 0.500000 0.500000 0.500000
O O10 0.668094 0.443325 0.821454
O O11 0.440448 0.206587 0.456518
O O12 0.385789 0.143796 0.736091
O O13 0.000000 0.500000 0.500000
O O14 0.101719 0.749035 0.723177
O O15 0.069786 0.432029 0.880346
O O16 0.917824 0.773817 0.779770
O O17 0.846179 0.973685 0.594202
O O18 0.000000 0.000000 0.000000
#
# Coordination Sequence:
#
# PCOD8032920 Si02
#       8
#     2   2   2   2   2   2   2   2
#     4  11  24  40  70 104 140 186 248 304 371 430
#     4  12  26  48  77 106 152 198 248 298 377 455
#     4  12  23  46  71 107 147 192 247 303 376 433
#     4  12  28  50  73 111 151 196 251 310 373 445
#     4  12  26  49  78 106 149 204 243 303 379 448
#     4  11  23  44  68 105 143 187 240 306 361 444
#     4  12  25  44  71 103 149 186 247 316 357 443
#     4  12  25  44  73 104 141 196 249 307 376 440
#
# _framework density 24.130316000000001
#
# number of rings (size 3 to 8) (size 9 to 14) (size 15 to 20)
#    0.000    0.250    3.750    5.250    1.750    0.500 
#    2.250    0.000    0.000    0.000    0.000    0.000 
#    0.000    0.000    0.000    0.000    0.000    0.000 
#
# Total GULP energy -198374.530292 kJ/mol
# GULP energy per Si atom -12398.408143 kJ/mol
# Density = 2.407539 g / cm^3
# Si number density = 24.130316 Si / 1000 Ang^3
#
#
#
# Elastic Constant Matrix: (Units=GPa)
#
#
# Indices 1 2 3 4 5 6 
#
# 1 117.9526 55.2004 20.5588 7.6507 6.2662 28.2210
# 2 55.2004 162.5006 -8.2786 1.8105 4.2087 11.1438
# 3 20.5588 -8.2786 68.7303 9.9865 20.4309 18.0919
# 4 7.6507 1.8105 9.9865 32.8598 -4.1095 4.5869
# 5 6.2662 4.2087 20.4309 -4.1095 36.2128 2.0582
# 6 28.2210 11.1438 18.0919 4.5869 2.0582 54.7318
#
#
#
# Elastic Compliance Matrix: (Units=1/GPa)
#
#
# Indices 1 2 3 4 5 6 
#
# 1 0.011868 -0.003862 -0.002728 -0.001109 0.000055 -0.004341
# 2 -0.003862 0.007690 0.002817 -0.000558 -0.001856 -0.000389
# 3 -0.002728 0.002817 0.021910 -0.007022 -0.012710 -0.005343
# 4 -0.001109 -0.000558 -0.007022 0.033884 0.008072 -0.000137
# 5 0.000055 -0.001856 -0.012710 0.008072 0.035764 0.002529
# 6 -0.004341 -0.000389 -0.005343 -0.000137 0.002529 0.022271
#
#
# Mechanical properties :
#
#
# Convention : Reuss Voigt Hill
#
# Bulk Modulus (GPa) = 29.47962 53.79385 41.63674
# Shear Modulus (GPa) = 32.84279 43.54107 38.19193
#
# Velocity S-wave (km/s) = 3.69326 4.25245 3.98268
# Velocity P-wave (km/s) = 5.51636 6.81561 6.20011
#
# Compressibility (1/GPa) = 0.03392174
#
# Stress axis : x y z
#
# Youngs Moduli (GPa) = 84.25786 130.03614 45.64171
#
# Poissons Ratio (x) = 0.50220 0.12451
# Poissons Ratio (y) = 0.32540 -0.12856
# Poissons Ratio (z) = 0.22985 -0.36627
#
# Static dielectric constant tensor:
#      x y z
#    x 4.500540 0.039630 0.275550 
#    y 0.039630 4.998410 0.130030 
#    z 0.275550 0.130030 4.687210 
# 
# 
# High freq. dielectric constant tensor:
#      x y z
#    x 1.959430 0.001210 0.007650 
#    y 0.001210 1.977900 0.009360 
#    z 0.007650 0.009360 1.951710 
# 
# From -- ./inp_files/333064.got.cif
#   From: 2010.06.25/outbox.cif.g09.slc.cpg/sg2_167_cif.got.tgz:333064.got - 2010.06.27 13:26:56.
