data_PCOD8032552
_publ_section_title
;
Structure prediction by ZEFSAII (Michael W. Deem and Ramdas Pophale) SiO2 
 PCOD8032552
Probable space group: P -1
;
_chemical_formula_sum "Si O2"
_cell_formula_units_Z 16
_cell_length_a 5.090941
_cell_length_b 20.274124
_cell_length_c 11.932564
_cell_angle_alpha 137.435916
_cell_angle_beta 115.976866
_cell_angle_gamma 73.890488
_cell_volume 746.849585
_symmetry_space_group_name_H-M "P -1"
_symmetry_group_IT_number 2
_symmetry_cell_setting 'triclinic'
loop_
_space_group_symop_operation_xyz
x,y,z
-x,-y,-z
loop_
_atom_site_type_symbol
_atom_site_label
_atom_site_fract_x
_atom_site_fract_y
_atom_site_fract_z
Si Si1 0.856285 0.795189 0.464989
Si Si2 0.249648 0.990297 0.346091
Si Si3 0.525246 0.288105 0.521780
Si Si4 0.956944 0.789619 0.092464
Si Si5 0.861739 0.078158 0.994312
Si Si6 0.405547 0.206388 0.167855
Si Si7 0.342472 0.504086 0.092507
Si Si8 0.437227 0.296300 0.904472
O O1 0.736741 0.778656 0.549150
O O2 0.611814 0.729660 0.267561
O O3 0.170180 0.756772 0.453775
O O4 0.887344 0.906456 0.567218
O O5 0.011524 0.907486 0.245443
O O6 0.500000 0.000000 0.500000
O O7 0.344640 0.961701 0.199845
O O8 0.465990 0.286634 0.375747
O O9 0.536839 0.400489 0.699068
O O10 0.838154 0.761033 0.156961
O O11 0.249927 0.739664 0.047586
O O12 0.693817 0.745704 0.906790
O O13 0.689725 0.146534 0.129128
O O14 0.134737 0.133325 0.056405
O O15 0.000000 0.000000 0.000000
O O16 0.500000 0.500000 0.000000
O O17 0.426258 0.411937 0.067434
O O18 0.000000 0.500000 0.000000
#
# Coordination Sequence:
#
# PCOD8032552 Si02
#       8
#     2   2   2   2   2   2   2   2
#     4  12  25  39  67  98 134 166 214 270 329 383
#     4  11  24  40  64 100 132 177 220 267 321 391
#     4  12  24  45  66 101 127 165 222 275 323 397
#     4  11  25  43  62  93 136 176 214 259 321 390
#     4  11  23  43  62  92 131 177 227 269 320 387
#     4  11  24  42  66  87 131 178 213 263 325 383
#     4  12  23  42  69  99 128 163 213 274 343 383
#     4  12  23  43  65  95 132 169 209 270 332 387
#
# _framework density 21.423321000000001
#
# number of rings (size 3 to 8) (size 9 to 14) (size 15 to 20)
#    0.000    0.500    3.750    5.625    0.000    4.500 
#    0.000    1.250    0.000    0.000    0.000    0.000 
#    0.000    0.000    0.000    0.000    0.000    0.000 
#
# Total GULP energy -198360.277032 kJ/mol
# GULP energy per Si atom -12397.517314 kJ/mol
# Density = 2.137456 g / cm^3
# Si number density = 21.423321 Si / 1000 Ang^3
#
#
#
# Elastic Constant Matrix: (Units=GPa)
#
#
# Indices 1 2 3 4 5 6 
#
# 1 128.8858 31.2888 32.5770 12.3923 -8.4672 -7.7852
# 2 31.2888 83.3363 50.7476 14.0665 3.0292 -4.4398
# 3 32.5770 50.7476 156.7752 -1.7061 -14.0024 -13.0241
# 4 12.3923 14.0665 -1.7061 45.4948 -0.0400 -4.7634
# 5 -8.4672 3.0292 -14.0024 -0.0400 27.8995 -1.4818
# 6 -7.7852 -4.4398 -13.0241 -4.7634 -1.4818 39.5655
#
#
#
# Elastic Compliance Matrix: (Units=1/GPa)
#
#
# Indices 1 2 3 4 5 6 
#
# 1 0.008990 -0.002770 -0.000643 -0.001491 0.002766 0.001170
# 2 -0.002770 0.017545 -0.005777 -0.005028 -0.005721 -0.001298
# 3 -0.000643 -0.005777 0.009096 0.002592 0.005146 0.002724
# 4 -0.001491 -0.005028 0.002592 0.024353 0.001588 0.002987
# 5 0.002766 -0.005721 0.005146 0.001588 0.040063 0.003288
# 6 0.001170 -0.001298 0.002724 0.002987 0.003288 0.026739
#
#
# Mechanical properties :
#
#
# Convention : Reuss Voigt Hill
#
# Bulk Modulus (GPa) = 57.97013 66.46937 62.21975
# Shear Modulus (GPa) = 33.13084 39.55086 36.34085
#
# Velocity S-wave (km/s) = 3.93680 4.30136 4.12311
# Velocity P-wave (km/s) = 6.91250 7.46746 7.19533
#
# Compressibility (1/GPa) = 0.01725026
#
# Stress axis : x y z
#
# Youngs Moduli (GPa) = 111.23889 56.99616 109.93316
#
# Poissons Ratio (x) = 0.15787 0.07072
# Poissons Ratio (y) = 0.30812 0.63511
# Poissons Ratio (z) = 0.07156 0.32928
#
# Static dielectric constant tensor:
#      x y z
#    x 3.808160 0.001870 -0.098120 
#    y 0.001870 4.253860 -0.204020 
#    z -0.098120 -0.204020 4.508390 
# 
# 
# High freq. dielectric constant tensor:
#      x y z
#    x 1.848800 0.000430 -0.007090 
#    y 0.000430 1.841480 -0.011240 
#    z -0.007090 -0.011240 1.840980 
# 
# From -- ./inp_files/370471.got.cif
#   From: 2010.06.25/outbox.cif.g09.slc.cpg/sg2_186_cif.got.tgz:370471.got - 2010.06.27 13:26:56.
