data_PCOD8032754
_publ_section_title
;
Structure prediction by ZEFSAII (Michael W. Deem and Ramdas Pophale) SiO2 
 PCOD8032754
Probable space group: P -1
;
_chemical_formula_sum "Si O2"
_cell_formula_units_Z 16
_cell_length_a 11.403341
_cell_length_b 11.701255
_cell_length_c 10.798924
_cell_angle_alpha 108.692728
_cell_angle_beta 64.283214
_cell_angle_gamma 146.534435
_cell_volume 713.379461
_symmetry_space_group_name_H-M "P -1"
_symmetry_group_IT_number 2
_symmetry_cell_setting 'triclinic'
loop_
_space_group_symop_operation_xyz
x,y,z
-x,-y,-z
loop_
_atom_site_type_symbol
_atom_site_label
_atom_site_fract_x
_atom_site_fract_y
_atom_site_fract_z
Si Si1 0.431006 0.172310 0.373375
Si Si2 0.382779 0.346544 0.617814
Si Si3 0.863694 0.985745 0.770311
Si Si4 0.759007 0.167802 0.948694
Si Si5 0.638930 0.588095 0.840532
Si Si6 0.892298 0.429225 0.200503
Si Si7 0.100351 0.452165 0.325433
Si Si8 0.306997 0.843934 0.433274
O O1 0.409741 0.223669 0.533791
O O2 0.276325 0.126411 0.331463
O O3 0.686011 0.367358 0.275472
O O4 0.364894 0.981442 0.345013
O O5 0.500000 0.500000 0.500000
O O6 0.488831 0.456978 0.740757
O O7 0.123779 0.185892 0.686732
O O8 0.800888 0.824795 0.829090
O O9 0.796008 0.053116 0.901184
O O10 0.884727 0.320857 0.826287
O O11 0.873314 0.314535 0.064568
O O12 0.500000 0.000000 0.000000
O O13 0.793069 0.587995 0.791721
O O14 0.500000 0.500000 0.000000
O O15 0.911317 0.366721 0.294031
O O16 0.300203 0.699523 0.342409
O O17 0.947969 0.309768 0.465684
O O18 0.500000 0.000000 0.500000
#
# Coordination Sequence:
#
# PCOD8032754 Si02
#       8
#     2   2   2   2   2   2   2   2
#     4  12  23  45  77 111 144 181 249 306 370 426
#     4  12  27  48  77 106 148 194 245 305 366 439
#     4  12  27  48  75 109 145 196 249 303 366 437
#     4  11  25  44  72 105 144 184 245 300 365 428
#     4  12  31  50  71 104 152 201 247 297 362 451
#     4  11  25  43  72 107 141 187 231 311 363 439
#     4  11  26  44  70 101 147 189 238 295 372 433
#     4  11  23  43  71 108 143 180 234 306 370 431
#
# _framework density 22.428457999999999
#
# number of rings (size 3 to 8) (size 9 to 14) (size 15 to 20)
#    0.000    0.500    3.750    3.375    7.000    0.500 
#    2.250    0.000    0.000    0.000    0.000    0.000 
#    0.000    0.000    0.000    0.000    0.000    0.000 
#
# Total GULP energy -198404.405627 kJ/mol
# GULP energy per Si atom -12400.275352 kJ/mol
# Density = 2.237741 g / cm^3
# Si number density = 22.428458 Si / 1000 Ang^3
#
#
#
# Elastic Constant Matrix: (Units=GPa)
#
#
# Indices 1 2 3 4 5 6 
#
# 1 96.0335 49.0930 41.5746 -6.2550 -16.6804 0.4888
# 2 49.0930 140.2693 51.9904 -9.7908 -13.1800 -6.9050
# 3 41.5746 51.9904 120.5320 -4.4870 -20.2778 -0.1785
# 4 -6.2550 -9.7908 -4.4870 50.1810 -1.9831 -5.1363
# 5 -16.6804 -13.1800 -20.2778 -1.9831 49.7488 3.1046
# 6 0.4888 -6.9050 -0.1785 -5.1363 3.1046 42.2782
#
#
#
# Elastic Compliance Matrix: (Units=1/GPa)
#
#
# Indices 1 2 3 4 5 6 
#
# 1 0.013982 -0.003592 -0.002793 0.000810 0.002684 -0.000859
# 2 -0.003592 0.009633 -0.002840 0.001363 0.000135 0.001759
# 3 -0.002793 -0.002840 0.010964 0.000130 0.002821 -0.000577
# 4 0.000810 0.001363 0.000130 0.020628 0.001345 0.002621
# 5 0.002684 0.000135 0.002821 0.001345 0.022332 -0.001474
# 6 -0.000859 0.001759 -0.000577 0.002621 -0.001474 0.024374
#
#
# Mechanical properties :
#
#
# Convention : Reuss Voigt Hill
#
# Bulk Modulus (GPa) = 62.00181 71.35009 66.67595
# Shear Modulus (GPa) = 39.76487 42.72004 41.24245
#
# Velocity S-wave (km/s) = 4.21523 4.36905 4.29283
# Velocity P-wave (km/s) = 7.16904 7.57184 7.37319
#
# Compressibility (1/GPa) = 0.01612856
#
# Stress axis : x y z
#
# Youngs Moduli (GPa) = 71.52258 103.80573 91.21025
#
# Poissons Ratio (x) = 0.37285 0.25474
# Poissons Ratio (y) = 0.25689 0.25907
# Poissons Ratio (z) = 0.19976 0.29485
#
# Static dielectric constant tensor:
#      x y z
#    x 4.039110 -0.200510 -0.096150 
#    y -0.200510 4.388270 0.089770 
#    z -0.096150 0.089770 4.249850 
# 
# 
# High freq. dielectric constant tensor:
#      x y z
#    x 1.881750 -0.002890 -0.006710 
#    y -0.002890 1.906720 0.001590 
#    z -0.006710 0.001590 1.887120 
# 
# From -- ./inp_files/365215.got.cif
#   From: 2010.06.25/outbox.cif.g09.slc.cpg/sg2_183_cif.got.tgz:365215.got - 2010.06.27 13:26:56.
