data_PCOD8032622
_publ_section_title
;
Structure prediction by ZEFSAII (Michael W. Deem and Ramdas Pophale) SiO2 
 PCOD8032622
Probable space group: P -1
;
_chemical_formula_sum "Si O2"
_cell_formula_units_Z 14
_cell_length_a 17.305203
_cell_length_b 5.162299
_cell_length_c 14.576387
_cell_angle_alpha 65.912755
_cell_angle_beta 34.199822
_cell_angle_gamma 82.252559
_cell_volume 613.825791
_symmetry_space_group_name_H-M "P -1"
_symmetry_group_IT_number 2
_symmetry_cell_setting 'triclinic'
loop_
_space_group_symop_operation_xyz
x,y,z
-x,-y,-z
loop_
_atom_site_type_symbol
_atom_site_label
_atom_site_fract_x
_atom_site_fract_y
_atom_site_fract_z
Si Si1 0.424924 0.218945 0.012783
Si Si2 0.738855 0.842873 0.995741
Si Si3 0.694687 0.159686 0.455705
Si Si4 0.344773 0.859771 0.798456
Si Si5 0.699063 0.828157 0.677319
Si Si6 0.824780 0.890037 0.215420
Si Si7 0.987142 0.816528 0.445489
O O1 0.533989 0.574051 0.861307
O O2 0.385173 0.169030 0.953542
O O3 0.285262 0.108952 0.236466
O O4 0.500000 0.000000 0.000000
O O5 0.895316 0.968014 0.773498
O O6 0.704680 0.504318 0.119074
O O7 0.732101 0.083103 0.042884
O O8 0.525042 0.020151 0.603449
O O9 0.707240 0.101443 0.560677
O O10 0.799952 0.012487 0.322130
O O11 0.757327 0.523349 0.328845
O O12 0.275208 0.989386 0.767500
O O13 0.836704 0.727746 0.544691
O O14 0.000000 0.000000 0.000000
O O15 0.000000 0.500000 0.500000
O O16 0.000000 0.000000 0.500000
#
# Coordination Sequence:
#
# PCOD8032622 Si02
#       7
#     2   2   2   2   2   2   2
#     4  11  23  43  68 103 145 183 232 289 336 416
#     4  12  25  44  72 102 143 184 238 285 352 420
#     4  12  26  49  76 106 139 187 240 286 360 424
#     4  12  26  49  74 105 136 188 236 295 357 415
#     4  11  26  41  71 103 142 186 234 287 345 419
#     4  12  29  49  76 106 143 180 236 303 358 417
#     4  12  26  44  64 101 145 195 230 285 350 415
#
# _framework density 22.807773000000001
#
# number of rings (size 3 to 8) (size 9 to 14) (size 15 to 20)
#    0.000    0.286    2.857    5.571    8.000    0.000 
#    0.000    0.000    0.000    0.000    0.000    0.000 
#    0.000    0.000    0.000    0.000    0.000    0.000 
#
# Total GULP energy -173478.892282 kJ/mol
# GULP energy per Si atom -12391.349449 kJ/mol
# Density = 2.275586 g / cm^3
# Si number density = 22.807773 Si / 1000 Ang^3
#
#
#
# Elastic Constant Matrix: (Units=GPa)
#
#
# Indices 1 2 3 4 5 6 
#
# 1 98.1565 18.7358 20.9978 -6.9006 -1.2782 -29.1184
# 2 18.7358 114.7766 37.0162 -5.2393 -0.6049 -15.2969
# 3 20.9978 37.0162 134.3203 -4.0503 -8.1031 -10.5437
# 4 -6.9006 -5.2393 -4.0503 40.2712 -1.2093 10.8310
# 5 -1.2782 -0.6049 -8.1031 -1.2093 35.2440 9.6362
# 6 -29.1184 -15.2969 -10.5437 10.8310 9.6362 43.8151
#
#
#
# Elastic Compliance Matrix: (Units=1/GPa)
#
#
# Indices 1 2 3 4 5 6 
#
# 1 0.013141 -0.000564 -0.001356 -0.000394 -0.002266 0.008805
# 2 -0.000564 0.009979 -0.002513 0.000184 -0.001163 0.002715
# 3 -0.001356 -0.002513 0.008458 0.000424 0.001942 -0.000275
# 4 -0.000394 0.000184 0.000424 0.026917 0.003038 -0.007418
# 5 -0.002266 -0.001163 0.001942 0.003038 0.031305 -0.009080
# 6 0.008805 0.002715 -0.000275 -0.007418 -0.009080 0.033387
#
#
# Mechanical properties :
#
#
# Convention : Reuss Voigt Hill
#
# Bulk Modulus (GPa) = 44.03276 55.63922 49.83599
# Shear Modulus (GPa) = 35.81038 41.89964 38.85501
#
# Velocity S-wave (km/s) = 3.96674 4.29076 4.13193
# Velocity P-wave (km/s) = 6.35043 6.99967 6.68294
#
# Compressibility (1/GPa) = 0.02271036
#
# Stress axis : x y z
#
# Youngs Moduli (GPa) = 76.10045 100.20731 118.23289
#
# Poissons Ratio (x) = 0.05652 0.16034
# Poissons Ratio (y) = 0.04292 0.29717
# Poissons Ratio (z) = 0.10321 0.25187
#
# Static dielectric constant tensor:
#      x y z
#    x 4.585250 0.223600 0.050920 
#    y 0.223600 4.268200 0.114210 
#    z 0.050920 0.114210 4.277430 
# 
# 
# High freq. dielectric constant tensor:
#      x y z
#    x 1.913050 -0.010360 0.002650 
#    y -0.010360 1.905070 0.004760 
#    z 0.002650 0.004760 1.920440 
# 
# From -- ./inp_files/536278.got.cif
#   From: 2010.06.25/outbox.cif.g09.slc.cpg/sg2_269_cif.got.tgz:536278.got - 2010.06.27 13:26:56.
