data_PCOD8032565
_publ_section_title
;
Structure prediction by ZEFSAII (Michael W. Deem and Ramdas Pophale) SiO2 
 PCOD8032565
Probable space group: P -1
;
_chemical_formula_sum "Si O2"
_cell_formula_units_Z 16
_cell_length_a 6.531273
_cell_length_b 12.919155
_cell_length_c 15.244967
_cell_angle_alpha 123.862488
_cell_angle_beta 55.953086
_cell_angle_gamma 127.878549
_cell_volume 795.217876
_symmetry_space_group_name_H-M "P -1"
_symmetry_group_IT_number 2
_symmetry_cell_setting 'triclinic'
loop_
_space_group_symop_operation_xyz
x,y,z
-x,-y,-z
loop_
_atom_site_type_symbol
_atom_site_label
_atom_site_fract_x
_atom_site_fract_y
_atom_site_fract_z
Si Si1 0.308911 0.525046 0.442294
Si Si2 0.387010 0.052221 0.172434
Si Si3 0.439714 0.347736 0.914096
Si Si4 0.695147 0.733155 0.580846
Si Si5 0.599779 0.678210 0.290074
Si Si6 0.307407 0.865613 0.431942
Si Si7 0.931373 0.083291 0.980234
Si Si8 0.774082 0.184496 0.765703
O O1 0.475161 0.667006 0.524484
O O2 0.322085 0.392040 0.415504
O O3 0.449019 0.540338 0.319989
O O4 0.000000 0.500000 0.500000
O O5 0.374652 0.164552 0.294170
O O6 0.149572 0.006977 0.133261
O O7 0.356498 0.916837 0.169340
O O8 0.682296 0.117188 0.085450
O O9 0.367930 0.351240 0.831736
O O10 0.703455 0.316532 0.852298
O O11 0.185974 0.231050 0.971737
O O12 0.500000 0.500000 0.000000
O O13 0.992723 0.820006 0.509308
O O14 0.398400 0.749824 0.385120
O O15 0.903057 0.768027 0.296811
O O16 0.358571 0.896558 0.330638
O O17 0.500000 0.000000 0.500000
O O18 0.000000 0.000000 0.000000
#
# Coordination Sequence:
#
# PCOD8032565 Si02
#       8
#     2   2   2   2   2   2   2   2
#     4  11  24  44  64  95 143 178 218 273 333 406
#     4  11  25  42  71  97 131 176 227 279 345 394
#     4  11  26  44  69 100 132 179 231 278 344 404
#     4  11  25  41  67 102 130 179 228 267 333 416
#     4  11  23  43  65  94 136 176 217 275 335 398
#     4  11  24  38  66 102 136 171 222 269 334 401
#     4  11  24  47  67  98 138 171 226 291 337 398
#     4  11  23  43  66  99 136 174 222 283 327 409
#
# _framework density 20.120270999999999
#
# number of rings (size 3 to 8) (size 9 to 14) (size 15 to 20)
#    0.000    1.000    5.000    0.750    3.500    5.500 
#    0.000    0.000    0.000    0.000    0.000    0.000 
#    0.000    0.000    0.000    0.000    0.000    0.000 
#
# Total GULP energy -198409.368862 kJ/mol
# GULP energy per Si atom -12400.585554 kJ/mol
# Density = 2.007448 g / cm^3
# Si number density = 20.120271 Si / 1000 Ang^3
#
#
#
# Elastic Constant Matrix: (Units=GPa)
#
#
# Indices 1 2 3 4 5 6 
#
# 1 122.8891 48.1788 49.0920 -0.1078 11.5505 7.4130
# 2 48.1788 118.8566 60.1925 -9.7873 18.8030 7.2127
# 3 49.0920 60.1925 112.4678 5.5491 3.3870 -1.6130
# 4 -0.1078 -9.7873 5.5491 44.4350 0.0804 0.1930
# 5 11.5505 18.8030 3.3870 0.0804 30.2489 -14.1864
# 6 7.4130 7.2127 -1.6130 0.1930 -14.1864 34.7622
#
#
#
# Elastic Compliance Matrix: (Units=1/GPa)
#
#
# Indices 1 2 3 4 5 6 
#
# 1 0.010984 -0.001393 -0.003975 0.000243 -0.004865 -0.004224
# 2 -0.001393 0.015759 -0.007797 0.004500 -0.012340 -0.008395
# 3 -0.003975 -0.007797 0.014837 -0.003621 0.007669 0.006304
# 4 0.000243 0.004500 -0.003621 0.023968 -0.003898 -0.002877
# 5 -0.004865 -0.012340 0.007669 -0.003898 0.053924 0.025982
# 6 -0.004224 -0.008395 0.006304 -0.002877 0.025982 0.042321
#
#
# Mechanical properties :
#
#
# Convention : Reuss Voigt Hill
#
# Bulk Modulus (GPa) = 65.57249 74.34892 69.96071
# Shear Modulus (GPa) = 25.87892 35.00591 30.44242
#
# Velocity S-wave (km/s) = 3.59027 4.17566 3.89398
# Velocity P-wave (km/s) = 7.06029 7.76406 7.42052
#
# Compressibility (1/GPa) = 0.01525030
#
# Stress axis : x y z
#
# Youngs Moduli (GPa) = 91.04307 63.45524 67.39737
#
# Poissons Ratio (x) = 0.08842 0.26789
# Poissons Ratio (y) = 0.12686 0.52549
# Poissons Ratio (z) = 0.36187 0.49475
#
# Static dielectric constant tensor:
#      x y z
#    x 3.928080 -0.041200 0.055990 
#    y -0.041200 3.749120 -0.200280 
#    z 0.055990 -0.200280 3.770560 
# 
# 
# High freq. dielectric constant tensor:
#      x y z
#    x 1.804920 -0.003900 0.003360 
#    y -0.003900 1.786900 -0.020800 
#    z 0.003360 -0.020800 1.788420 
# 
# From -- ./inp_files/70793.got.cif
#   From: 2010.06.25/outbox.cif.g09.slc.cpg/sg2_36_cif.got.tgz:70793.got - 2010.06.27 13:26:56.
