data_PCOD8032322
_publ_section_title
;
Structure prediction by ZEFSAII (Michael W. Deem and Ramdas Pophale) SiO2 
 PCOD8032322
Probable space group: P -1
;
_chemical_formula_sum "Si O2"
_cell_formula_units_Z 14
_cell_length_a 6.741688
_cell_length_b 5.281085
_cell_length_c 21.223609
_cell_angle_alpha 67.857604
_cell_angle_beta 79.927364
_cell_angle_gamma 111.047447
_cell_volume 609.688208
_symmetry_space_group_name_H-M "P -1"
_symmetry_group_IT_number 2
_symmetry_cell_setting 'triclinic'
loop_
_space_group_symop_operation_xyz
x,y,z
-x,-y,-z
loop_
_atom_site_type_symbol
_atom_site_label
_atom_site_fract_x
_atom_site_fract_y
_atom_site_fract_z
Si Si1 0.924725 0.374618 0.087398
Si Si2 0.525568 0.440104 0.171658
Si Si3 0.855527 0.679220 0.501794
Si Si4 0.266403 0.604619 0.710430
Si Si5 0.107050 0.999299 0.170552
Si Si6 0.633016 0.709627 0.382363
Si Si7 0.370269 0.847066 0.082846
O O1 0.696796 0.382270 0.121195
O O2 0.129823 0.563618 0.106013
O O3 0.911221 0.042729 0.137965
O O4 0.000000 0.500000 0.000000
O O5 0.563889 0.408330 0.245672
O O6 0.544790 0.772739 0.121237
O O7 0.253309 0.211773 0.200249
O O8 0.778153 0.747324 0.432944
O O9 0.635873 0.454650 0.575213
O O10 0.000000 0.500000 0.500000
O O11 0.000000 0.000000 0.500000
O O12 0.324877 0.507112 0.649190
O O13 0.009691 0.354655 0.766022
O O14 0.285307 0.944061 0.679601
O O15 0.314592 0.082572 0.102443
O O16 0.500000 0.000000 0.000000
#
# Coordination Sequence:
#
# PCOD8032322 Si02
#       7
#     2   2   2   2   2   2   2
#     4  11  23  42  66  93 130 182 243 314 382 434
#     4  11  26  43  65  95 138 185 238 305 371 438
#     4  11  24  49  80 113 151 189 240 287 345 414
#     4  12  26  47  71 103 154 193 236 297 369 430
#     4  11  26  43  64  97 137 181 247 300 366 448
#     4  11  27  47  74 114 147 191 242 289 342 438
#     4  11  24  41  65  97 126 179 249 309 366 437
#
# _framework density 22.962555999999999
#
# number of rings (size 3 to 8) (size 9 to 14) (size 15 to 20)
#    0.000    0.857    1.429    4.286    8.000    9.143 
#    0.000    0.000    0.000    0.000    0.000    0.000 
#    0.000    0.000    0.000    0.000    0.000    0.000 
#
# Total GULP energy -173469.334335 kJ/mol
# GULP energy per Si atom -12390.666738 kJ/mol
# Density = 2.291029 g / cm^3
# Si number density = 22.962556 Si / 1000 Ang^3
#
#
#
# Elastic Constant Matrix: (Units=GPa)
#
#
# Indices 1 2 3 4 5 6 
#
# 1 130.1428 32.0453 22.8370 1.9145 6.3557 4.4136
# 2 32.0453 69.2024 21.9653 8.9455 4.7464 -3.8054
# 3 22.8370 21.9653 93.1081 -0.5435 4.0868 9.7513
# 4 1.9145 8.9455 -0.5435 40.1820 -3.7503 5.6692
# 5 6.3557 4.7464 4.0868 -3.7503 38.2715 4.9096
# 6 4.4136 -3.8054 9.7513 5.6692 4.9096 47.6351
#
#
#
# Elastic Compliance Matrix: (Units=1/GPa)
#
#
# Indices 1 2 3 4 5 6 
#
# 1 0.008881 -0.003804 -0.001155 0.000464 -0.000723 -0.000871
# 2 -0.003804 0.018301 -0.003667 -0.004611 -0.002126 0.003333
# 3 -0.001155 -0.003667 0.012201 0.001422 -0.000153 -0.002837
# 4 0.000464 -0.004611 0.001422 0.026840 0.003520 -0.004260
# 5 -0.000723 -0.002126 -0.000153 0.003520 0.027298 -0.003304
# 6 -0.000871 0.003333 -0.002837 -0.004260 -0.003304 0.022768
#
#
# Mechanical properties :
#
#
# Convention : Reuss Voigt Hill
#
# Bulk Modulus (GPa) = 45.18718 49.57205 47.37962
# Shear Modulus (GPa) = 35.48140 39.59142 37.53641
#
# Velocity S-wave (km/s) = 3.93515 4.15682 4.04750
# Velocity P-wave (km/s) = 6.35363 6.68386 6.52083
#
# Compressibility (1/GPa) = 0.02213017
#
# Stress axis : x y z
#
# Youngs Moduli (GPa) = 112.59594 54.64155 81.96185
#
# Poissons Ratio (x) = 0.20787 0.09469
# Poissons Ratio (y) = 0.42834 0.30056
# Poissons Ratio (z) = 0.13008 0.20037
#
# Static dielectric constant tensor:
#      x y z
#    x 2.634470 -2.887330 0.833890 
#    y -2.887330 -1.536420 1.596060 
#    z 0.833890 1.596060 3.702220 
# 
# 
# High freq. dielectric constant tensor:
#      x y z
#    x 1.927370 0.011210 0.004510 
#    y 0.011210 1.926190 0.001270 
#    z 0.004510 0.001270 1.904630 
# 
# From -- ./inp_files/10160.got.cif
#   From: 2010.06.25/outbox.cif.g09.slc.cpg/sg2_6_cif.got.tgz:10160.got - 2010.06.27 13:26:56.
