data_PCOD8032873
_publ_section_title
;
Structure prediction by ZEFSAII (Michael W. Deem and Ramdas Pophale) SiO2 
 PCOD8032873
Probable space group: P -1
;
_chemical_formula_sum "Si O2"
_cell_formula_units_Z 16
_cell_length_a 5.298049
_cell_length_b 14.962418
_cell_length_c 13.522949
_cell_angle_alpha 47.613014
_cell_angle_beta 92.695196
_cell_angle_gamma 71.551787
_cell_volume 697.310189
_symmetry_space_group_name_H-M "P -1"
_symmetry_group_IT_number 2
_symmetry_cell_setting 'triclinic'
loop_
_space_group_symop_operation_xyz
x,y,z
-x,-y,-z
loop_
_atom_site_type_symbol
_atom_site_label
_atom_site_fract_x
_atom_site_fract_y
_atom_site_fract_z
Si Si1 0.451260 0.462751 0.418386
Si Si2 0.184915 0.267169 0.385421
Si Si3 0.259319 0.454594 0.787467
Si Si4 0.791291 0.910262 0.894504
Si Si5 0.601341 0.214512 0.101552
Si Si6 0.110604 0.276764 0.794423
Si Si7 0.783863 0.160731 0.368094
Si Si8 0.658070 0.789737 0.362554
O O1 0.500000 0.500000 0.500000
O O2 0.682958 0.437663 0.356775
O O3 0.423377 0.327168 0.524701
O O4 0.182863 0.596610 0.271653
O O5 0.512704 0.200575 0.404610
O O6 0.195083 0.194341 0.546632
O O7 0.059929 0.434515 0.263429
O O8 0.969679 0.238551 0.335021
O O9 0.322851 0.329732 0.804605
O O10 0.457755 0.374633 0.944601
O O11 0.614490 0.847188 0.880570
O O12 0.091879 0.872232 0.878442
O O13 0.622669 0.073578 0.774467
O O14 0.843521 0.860441 0.046805
O O15 0.645864 0.208133 0.223199
O O16 0.126069 0.256127 0.692264
O O17 0.000000 0.000000 0.500000
#
# Coordination Sequence:
#
# PCOD8032873 Si02
#       8
#     2   2   2   2   2   2   2   2
#     4  12  22  40  68  95 143 191 233 278 345 410
#     4  12  26  42  72 104 138 176 242 291 340 425
#     4  11  24  44  67 104 140 188 234 285 354 420
#     4  11  25  45  72 105 140 188 238 288 351 428
#     4  11  25  48  74  96 146 185 231 298 363 416
#     4  11  23  44  64 101 146 188 230 283 356 415
#     4  12  26  48  71 101 137 183 231 297 364 413
#     4  12  24  43  68 108 140 188 239 292 344 418
#
# _framework density 22.945312999999999
#
# number of rings (size 3 to 8) (size 9 to 14) (size 15 to 20)
#    0.000    0.500    3.750    4.875    0.000    3.000 
#    0.000    2.500    0.000    0.000    0.000    0.000 
#    0.000    0.000    0.000    0.000    0.000    0.000 
#
# Total GULP energy -198291.584713 kJ/mol
# GULP energy per Si atom -12393.224045 kJ/mol
# Density = 2.289309 g / cm^3
# Si number density = 22.945313 Si / 1000 Ang^3
#
#
#
# Elastic Constant Matrix: (Units=GPa)
#
#
# Indices 1 2 3 4 5 6 
#
# 1 87.6263 17.0364 10.9310 3.4992 11.5555 -18.1312
# 2 17.0364 26.4744 7.9775 32.1420 66.5624 -50.8976
# 3 10.9310 7.9775 129.8943 20.7975 45.9767 -25.5645
# 4 3.4992 32.1420 20.7975 33.3500 -38.3751 24.1496
# 5 11.5555 66.5624 45.9767 -38.3751 -34.7279 23.8212
# 6 -18.1312 -50.8976 -25.5645 24.1496 23.8212 26.6750
#
#
#
# Elastic Compliance Matrix: (Units=1/GPa)
#
#
# Indices 1 2 3 4 5 6 
#
# 1 0.012570 -0.002912 -0.000364 -0.000121 0.000086 0.002672
# 2 -0.002912 0.011297 -0.004710 0.003998 0.011088 0.001541
# 3 -0.000364 -0.004710 0.007784 0.000415 -0.000482 -0.001720
# 4 -0.000121 0.003998 0.000415 0.015569 -0.008219 0.001187
# 5 0.000086 0.011088 -0.000482 -0.008219 0.012570 0.016969
# 6 0.002672 0.001541 -0.001720 0.001187 0.016969 0.024368
#
#
# Mechanical properties :
#
#
# Convention : Reuss Voigt Hill
#
# Bulk Modulus (GPa) = 63.77989 35.09829 49.43909
# Shear Modulus (GPa) = 47.45756 18.92944 33.19350
#
# Velocity S-wave (km/s) = 4.55278 2.87536 3.80759
# Velocity P-wave (km/s) = 7.44942 5.13355 6.39716
#
# Compressibility (1/GPa) = 0.01567892
#
# Stress axis : x y z
#
# Youngs Moduli (GPa) = 79.55466 88.51764 128.46697
#
# Poissons Ratio (x) = 0.25774 0.04679
# Poissons Ratio (y) = 0.23164 0.60511
# Poissons Ratio (z) = 0.02897 0.41694
#
# Static dielectric constant tensor:
#      x y z
#    x 4.104360 -0.088720 0.075290 
#    y -0.088720 4.091170 -0.083460 
#    z 0.075290 -0.083460 4.308000 
# 
# 
# High freq. dielectric constant tensor:
#      x y z
#    x 1.905090 -0.009360 0.013240 
#    y -0.009360 1.905450 -0.002370 
#    z 0.013240 -0.002370 1.928400 
# 
# From -- ./inp_files/364320.got.cif
#   From: 2010.06.25/outbox.cif.g09.slc.cpg/sg2_183_cif.got.tgz:364320.got - 2010.06.27 13:26:56.
