data_PCOD8032059
_publ_section_title
;
Structure prediction by ZEFSAII (Michael W. Deem and Ramdas Pophale) SiO2 
 PCOD8032059
Probable space group: P -1
;
_chemical_formula_sum "Si O2"
_cell_formula_units_Z 16
_cell_length_a 15.371710
_cell_length_b 9.217012
_cell_length_c 19.005758
_cell_angle_alpha 149.801195
_cell_angle_beta 146.658363
_cell_angle_gamma 39.120927
_cell_volume 730.229718
_symmetry_space_group_name_H-M "P -1"
_symmetry_group_IT_number 2
_symmetry_cell_setting 'triclinic'
loop_
_space_group_symop_operation_xyz
x,y,z
-x,-y,-z
loop_
_atom_site_type_symbol
_atom_site_label
_atom_site_fract_x
_atom_site_fract_y
_atom_site_fract_z
Si Si1 0.693110 0.372394 0.071388
Si Si2 0.316489 0.732585 0.474164
Si Si3 0.450981 0.766566 0.318338
Si Si4 0.851401 0.956534 0.113565
Si Si5 0.645620 0.879191 0.737877
Si Si6 0.825741 0.915986 0.351941
Si Si7 0.349489 0.862217 0.815044
Si Si8 0.207764 0.663834 0.220469
O O1 0.801654 0.578055 0.192722
O O2 0.763950 0.267809 0.151722
O O3 0.500000 0.500000 0.000000
O O4 0.731380 0.069817 0.927158
O O5 0.498615 0.763647 0.629410
O O6 0.249430 0.448108 0.342601
O O7 0.303518 0.752372 0.389317
O O8 0.217870 0.004926 0.563589
O O9 0.596615 0.489655 0.289524
O O10 0.294565 0.678675 0.210851
O O11 0.500000 0.000000 0.500000
O O12 0.404558 0.917050 0.276517
O O13 0.042956 0.903333 0.212378
O O14 0.801867 0.994506 0.178236
O O15 0.804222 0.676647 0.924987
O O16 0.704254 0.074621 0.275917
O O17 0.000000 0.000000 0.500000
O O18 0.500000 0.000000 0.000000
#
# Coordination Sequence:
#
# PCOD8032059 Si02
#       8
#     2   2   2   2   2   2   2   2
#     4  12  24  44  73 103 135 188 248 285 346 436
#     4  11  23  44  70  97 142 182 231 288 359 415
#     4  12  24  41  68 105 137 180 238 296 348 422
#     4  11  25  45  70 103 141 191 235 293 361 429
#     4  11  23  40  69 102 130 179 237 290 336 417
#     4  12  28  47  68 104 149 186 230 302 370 421
#     4  12  25  45  74 103 143 188 243 296 357 431
#     4  11  24  45  69 102 146 184 233 298 367 419
#
# _framework density 21.910913000000001
#
# number of rings (size 3 to 8) (size 9 to 14) (size 15 to 20)
#    0.000    0.500    5.000    3.750    1.750    2.000 
#    0.000    3.125    0.000    0.000    0.000    0.000 
#    0.000    0.000    0.000    0.000    0.000    0.000 
#
# Total GULP energy -198213.316646 kJ/mol
# GULP energy per Si atom -12388.332290 kJ/mol
# Density = 2.186104 g / cm^3
# Si number density = 21.910913 Si / 1000 Ang^3
#
#
#
# Elastic Constant Matrix: (Units=GPa)
#
#
# Indices 1 2 3 4 5 6 
#
# 1 87.7043 33.7975 23.8264 2.1261 1.4796 1.6959
# 2 33.7975 105.6622 24.8585 8.6046 7.5883 10.8812
# 3 23.8264 24.8585 118.4200 7.9228 6.5839 2.1934
# 4 2.1261 8.6046 7.9228 32.9207 -1.4139 2.5560
# 5 1.4796 7.5883 6.5839 -1.4139 44.5391 2.0791
# 6 1.6959 10.8812 2.1934 2.5560 2.0791 42.1741
#
#
#
# Elastic Compliance Matrix: (Units=1/GPa)
#
#
# Indices 1 2 3 4 5 6 
#
# 1 0.013431 -0.003980 -0.001947 0.000623 0.000515 0.000525
# 2 -0.003980 0.011621 -0.001347 -0.002327 -0.001604 -0.002548
# 3 -0.001947 -0.001347 0.009302 -0.001819 -0.001144 0.000109
# 4 0.000623 -0.002327 -0.001819 0.031558 0.001708 -0.001327
# 5 0.000515 -0.001604 -0.001144 0.001708 0.022968 -0.000783
# 6 0.000525 -0.002548 0.000109 -0.001327 -0.000783 0.024461
#
#
# Mechanical properties :
#
#
# Convention : Reuss Voigt Hill
#
# Bulk Modulus (GPa) = 50.48647 52.97237 51.72942
# Shear Modulus (GPa) = 37.17755 39.21371 38.19563
#
# Velocity S-wave (km/s) = 4.12364 4.23506 4.17972
# Velocity P-wave (km/s) = 6.76493 6.93852 6.85228
#
# Compressibility (1/GPa) = 0.01980729
#
# Stress axis : x y z
#
# Youngs Moduli (GPa) = 74.45737 86.05121 107.50178
#
# Poissons Ratio (x) = 0.34245 0.20929
# Poissons Ratio (y) = 0.29631 0.14477
# Poissons Ratio (z) = 0.14496 0.11588
#
# Static dielectric constant tensor:
#      x y z
#    x 2.477810 -0.586160 -0.100100 
#    y -0.586160 3.881410 0.269010 
#    z -0.100100 0.269010 4.211040 
# 
# 
# High freq. dielectric constant tensor:
#      x y z
#    x 1.856560 0.011220 -0.008200 
#    y 0.011220 1.860010 0.011640 
#    z -0.008200 0.011640 1.877670 
# 
# From -- ./inp_files/572963.got.cif
#   From: 2010.06.25/outbox.cif.g09.slc.cpg/sg2_287_cif.got.tgz:572963.got - 2010.06.27 13:26:56.
