data_PCOD8032951
_publ_section_title
;
Structure prediction by ZEFSAII (Michael W. Deem and Ramdas Pophale) SiO2 
 PCOD8032951
Probable space group: P -1
;
_chemical_formula_sum "Si O2"
_cell_formula_units_Z 16
_cell_length_a 11.027134
_cell_length_b 11.753292
_cell_length_c 9.058010
_cell_angle_alpha 59.443307
_cell_angle_beta 127.995453
_cell_angle_gamma 130.429331
_cell_volume 692.473329
_symmetry_space_group_name_H-M "P -1"
_symmetry_group_IT_number 2
_symmetry_cell_setting 'triclinic'
loop_
_space_group_symop_operation_xyz
x,y,z
-x,-y,-z
loop_
_atom_site_type_symbol
_atom_site_label
_atom_site_fract_x
_atom_site_fract_y
_atom_site_fract_z
Si Si1 0.862535 0.861980 0.591507
Si Si2 0.128743 0.032274 0.914896
Si Si3 0.969283 0.206642 0.775063
Si Si4 0.687398 0.250758 0.360210
Si Si5 0.444251 0.005471 0.117479
Si Si6 0.800635 0.535973 0.710511
Si Si7 0.878108 0.505488 0.113390
Si Si8 0.467945 0.756564 0.444871
O O1 0.827877 0.703440 0.601769
O O2 0.672185 0.850539 0.483930
O O3 0.959079 0.895554 0.798267
O O4 0.000000 0.000000 0.500000
O O5 0.142436 0.965339 0.129524
O O6 0.309458 0.068473 0.947331
O O7 0.122625 0.190463 0.811915
O O8 0.858850 0.251085 0.553846
O O9 0.044141 0.323067 0.888684
O O10 0.744827 0.402426 0.209565
O O11 0.553481 0.241423 0.394937
O O12 0.600405 0.111456 0.274685
O O13 0.362846 0.836745 0.239602
O O14 0.500000 0.000000 0.000000
O O15 0.625307 0.416723 0.568737
O O16 0.970234 0.538887 0.763579
O O17 0.775880 0.484831 0.896922
#
# Coordination Sequence:
#
# PCOD8032951 Si02
#       8
#     2   2   2   2   2   2   2   2
#     4  12  28  47  75 110 149 197 245 307 372 442
#     4  11  25  43  72 101 141 191 240 302 364 434
#     4  11  23  44  69 104 143 187 245 297 363 429
#     4  12  26  43  75 108 145 196 248 308 364 441
#     4  12  26  46  70 106 147 192 247 300 371 440
#     4  11  25  47  75 107 152 193 247 303 368 442
#     4  11  24  45  75 107 146 199 247 301 371 438
#     4  12  26  47  72 110 150 191 251 309 365 436
#
# _framework density 23.105582999999999
#
# number of rings (size 3 to 8) (size 9 to 14) (size 15 to 20)
#    0.000    0.500    3.750    3.375   10.500    0.000 
#    0.000    3.750    0.000    0.000    0.000    0.000 
#    0.000    0.000    0.000    0.000    0.000    0.000 
#
# Total GULP energy -198367.411100 kJ/mol
# GULP energy per Si atom -12397.963194 kJ/mol
# Density = 2.305299 g / cm^3
# Si number density = 23.105583 Si / 1000 Ang^3
#
#
#
# Elastic Constant Matrix: (Units=GPa)
#
#
# Indices 1 2 3 4 5 6 
#
# 1 163.9075 51.9017 54.6395 -6.0714 -8.9481 -9.0103
# 2 51.9017 107.0711 46.3363 -3.7948 -14.0867 -17.2975
# 3 54.6395 46.3363 86.9039 2.7796 -19.4091 -0.9834
# 4 -6.0714 -3.7948 2.7796 41.3482 -5.8055 -6.1034
# 5 -8.9481 -14.0867 -19.4091 -5.8055 43.5451 -4.1265
# 6 -9.0103 -17.2975 -0.9834 -6.1034 -4.1265 44.0334
#
#
#
# Elastic Compliance Matrix: (Units=1/GPa)
#
#
# Indices 1 2 3 4 5 6 
#
# 1 0.008232 -0.002027 -0.004261 0.001363 -0.000594 0.000926
# 2 -0.002027 0.014115 -0.005718 0.002554 0.002471 0.005588
# 3 -0.004261 -0.005718 0.018378 -0.002064 0.004951 -0.002530
# 4 0.001363 0.002554 -0.002064 0.026117 0.004165 0.005246
# 5 -0.000594 0.002471 0.004951 0.004165 0.026788 0.004047
# 6 0.000926 0.005588 -0.002530 0.005246 0.004047 0.026145
#
#
# Mechanical properties :
#
#
# Convention : Reuss Voigt Hill
#
# Bulk Modulus (GPa) = 59.83234 73.73752 66.78493
# Shear Modulus (GPa) = 33.47656 39.45233 36.46445
#
# Velocity S-wave (km/s) = 3.81051 4.13665 3.97692
# Velocity P-wave (km/s) = 6.73137 7.40259 7.07495
#
# Compressibility (1/GPa) = 0.01671337
#
# Stress axis : x y z
#
# Youngs Moduli (GPa) = 121.47508 70.84655 54.41242
#
# Poissons Ratio (x) = 0.14358 0.23185
# Poissons Ratio (y) = 0.24618 0.31115
# Poissons Ratio (z) = 0.51760 0.40513
#
# Static dielectric constant tensor:
#      x y z
#    x 4.503300 -0.384200 0.092490 
#    y -0.384200 4.227350 -0.040500 
#    z 0.092490 -0.040500 4.266120 
# 
# 
# High freq. dielectric constant tensor:
#      x y z
#    x 1.922110 -0.019120 -0.008620 
#    y -0.019120 1.910810 0.000770 
#    z -0.008620 0.000770 1.916050 
# 
# From -- ./inp_files/262197.got.cif
#   From: 2010.06.25/outbox.cif.g09.slc.cpg/sg2_132_cif.got.tgz:262197.got - 2010.06.27 13:26:56.
