data_PCOD8032679
_publ_section_title
;
Structure prediction by ZEFSAII (Michael W. Deem and Ramdas Pophale) SiO2 
 PCOD8032679
Probable space group: P -1
;
_chemical_formula_sum "Si O2"
_cell_formula_units_Z 14
_cell_length_a 5.351983
_cell_length_b 8.113745
_cell_length_c 19.602534
_cell_angle_alpha 135.196227
_cell_angle_beta 114.149800
_cell_angle_gamma 85.021569
_cell_volume 519.212928
_symmetry_space_group_name_H-M "P -1"
_symmetry_group_IT_number 2
_symmetry_cell_setting 'triclinic'
loop_
_space_group_symop_operation_xyz
x,y,z
-x,-y,-z
loop_
_atom_site_type_symbol
_atom_site_label
_atom_site_fract_x
_atom_site_fract_y
_atom_site_fract_z
Si Si1 0.486713 0.242260 0.892842
Si Si2 0.915641 0.237709 0.329996
Si Si3 0.815542 0.183378 0.034108
Si Si4 0.283576 0.663158 0.201376
Si Si5 0.470895 0.780542 0.588816
Si Si6 0.742940 0.419928 0.225086
Si Si7 0.803480 0.157659 0.551708
O O1 0.686697 0.296972 0.864888
O O2 0.168153 0.059122 0.782245
O O3 0.500000 0.500000 0.000000
O O4 0.593043 0.091066 0.919701
O O5 0.733129 0.278989 0.385754
O O6 0.791095 0.354832 0.288712
O O7 0.265415 0.339538 0.413275
O O8 0.694154 0.188878 0.099293
O O9 0.962680 0.477680 0.122760
O O10 0.000000 0.000000 0.000000
O O11 0.469110 0.508984 0.211962
O O12 0.369871 0.930315 0.323601
O O13 0.257037 0.683885 0.472340
O O14 0.031312 0.657091 0.314544
O O15 0.500000 0.000000 0.500000
O O16 0.000000 0.000000 0.500000
#
# Coordination Sequence:
#
# PCOD8032679 Si02
#       7
#     2   2   2   2   2   2   2
#     4  11  23  43  69  99 141 196 247 296 360 434
#     4  11  28  45  72 110 150 194 242 306 369 438
#     4  12  27  43  70 105 150 195 245 308 371 435
#     4  11  24  43  72 100 140 194 248 299 360 442
#     4  11  25  49  75 106 150 189 249 300 370 441
#     4  12  28  46  71 110 149 189 252 308 368 444
#     4  12  26  47  82 113 144 193 246 309 371 440
#
# _framework density 26.963894
#
# number of rings (size 3 to 8) (size 9 to 14) (size 15 to 20)
#    0.000    0.571    2.857    3.857   12.000    2.286 
#    0.000    0.000    0.000    0.000    0.000    0.000 
#    0.000    0.000    0.000    0.000    0.000    0.000 
#
# Total GULP energy -173538.988863 kJ/mol
# GULP energy per Si atom -12395.642062 kJ/mol
# Density = 2.690252 g / cm^3
# Si number density = 26.963894 Si / 1000 Ang^3
#
#
#
# Elastic Constant Matrix: (Units=GPa)
#
#
# Indices 1 2 3 4 5 6 
#
# 1 117.4272 31.3460 16.8338 -14.9975 6.2900 -18.0450
# 2 31.3460 135.6878 10.9043 -35.2955 -4.5803 -16.1270
# 3 16.8338 10.9043 116.7913 -22.1742 9.8746 -17.1411
# 4 -14.9975 -35.2955 -22.1742 52.0936 -6.7228 -2.8963
# 5 6.2900 -4.5803 9.8746 -6.7228 43.2222 5.7498
# 6 -18.0450 -16.1270 -17.1411 -2.8963 5.7498 43.6762
#
#
#
# Elastic Compliance Matrix: (Units=1/GPa)
#
#
# Indices 1 2 3 4 5 6 
#
# 1 0.009827 -0.001401 -0.000247 0.001760 -0.001753 0.003793
# 2 -0.001401 0.010000 0.001062 0.007247 0.001643 0.003795
# 3 -0.000247 0.001062 0.010367 0.005068 -0.002093 0.004971
# 4 0.001760 0.007247 0.005068 0.027502 0.002720 0.006858
# 5 -0.001753 0.001643 -0.002093 0.002720 0.025006 -0.004051
# 6 0.003793 0.003795 0.004971 0.006858 -0.004051 0.028803
#
#
# Mechanical properties :
#
#
# Convention : Reuss Voigt Hill
#
# Bulk Modulus (GPa) = 34.45498 54.23051 44.34275
# Shear Modulus (GPa) = 40.86646 48.51989 44.69317
#
# Velocity S-wave (km/s) = 3.89729 4.24658 4.07568
# Velocity P-wave (km/s) = 5.74959 6.64835 6.21524
#
# Compressibility (1/GPa) = 0.02902338
#
# Stress axis : x y z
#
# Youngs Moduli (GPa) = 101.76266 100.00255 96.45664
#
# Poissons Ratio (x) = 0.14010 0.02378
# Poissons Ratio (y) = 0.14256 -0.10246
# Poissons Ratio (z) = 0.02509 -0.10622
#
# Static dielectric constant tensor:
#      x y z
#    x 4.549340 0.036680 0.457770 
#    y 0.036680 4.702620 0.735360 
#    z 0.457770 0.735360 4.698400 
# 
# 
# High freq. dielectric constant tensor:
#      x y z
#    x 2.064510 0.002300 0.019130 
#    y 0.002300 2.118230 0.009560 
#    z 0.019130 0.009560 2.132590 
# 
# From -- ./inp_files/367889.got.cif
#   From: 2010.06.25/outbox.cif.g09.slc.cpg/sg2_184_cif.got.tgz:367889.got - 2010.06.27 13:26:56.
