data_PCOD8032914
_publ_section_title
;
Structure prediction by ZEFSAII (Michael W. Deem and Ramdas Pophale) SiO2 
 PCOD8032914
Probable space group: P -1
;
_chemical_formula_sum "Si O2"
_cell_formula_units_Z 16
_cell_length_a 9.113719
_cell_length_b 11.972202
_cell_length_c 9.221660
_cell_angle_alpha 55.436070
_cell_angle_beta 119.178595
_cell_angle_gamma 98.388954
_cell_volume 711.391488
_symmetry_space_group_name_H-M "P -1"
_symmetry_group_IT_number 2
_symmetry_cell_setting 'triclinic'
loop_
_space_group_symop_operation_xyz
x,y,z
-x,-y,-z
loop_
_atom_site_type_symbol
_atom_site_label
_atom_site_fract_x
_atom_site_fract_y
_atom_site_fract_z
Si Si1 0.404348 0.421373 0.127317
Si Si2 0.097756 0.862861 0.723399
Si Si3 0.490645 0.419485 0.697586
Si Si4 0.377454 0.896455 0.054133
Si Si5 0.261588 0.782103 0.567169
Si Si6 0.818983 0.992862 0.850611
Si Si7 0.133038 0.581593 0.442995
Si Si8 0.082113 0.290307 0.012526
O O1 0.375321 0.526265 0.171474
O O2 0.537065 0.277288 0.320572
O O3 0.214354 0.394836 0.021446
O O4 0.500000 0.500000 0.000000
O O5 0.208969 0.771048 0.719123
O O6 0.981571 0.768201 0.822998
O O7 0.214147 0.921643 0.853528
O O8 0.000000 0.000000 0.500000
O O9 0.500000 0.500000 0.500000
O O10 0.524706 0.258044 0.805487
O O11 0.300455 0.466281 0.628075
O O12 0.325528 0.926247 0.173454
O O13 0.500000 0.000000 0.000000
O O14 0.216712 0.940229 0.375690
O O15 0.144183 0.708145 0.460609
O O16 0.811479 0.832494 0.942830
O O17 0.000000 0.000000 0.000000
O O18 0.000000 0.500000 0.500000
O O19 0.084023 0.635721 0.214933
#
# Coordination Sequence:
#
# PCOD8032914 Si02
#       8
#     2   2   2   2   2   2   2   2
#     4  11  26  46  71 102 142 191 239 295 360 432
#     4  12  25  44  66 110 148 187 242 300 361 428
#     4  11  25  49  69 101 141 184 238 293 359 429
#     4  12  28  45  74 107 146 192 241 307 363 433
#     4  11  23  44  68 101 146 186 238 299 356 432
#     4  12  23  46  74 103 147 189 239 298 367 433
#     4  11  25  43  75 100 136 193 241 286 360 434
#     4  12  25  46  76 108 144 193 240 302 364 428
#
# _framework density 22.491132
#
# number of rings (size 3 to 8) (size 9 to 14) (size 15 to 20)
#    0.000    0.500    3.750    4.500    5.250    3.500 
#    0.000    3.750    0.000    0.000    0.000    0.000 
#    0.000    0.000    0.000    0.000    0.000    0.000 
#
# Total GULP energy -198328.729899 kJ/mol
# GULP energy per Si atom -12395.545619 kJ/mol
# Density = 2.243994 g / cm^3
# Si number density = 22.491132 Si / 1000 Ang^3
#
#
#
# Elastic Constant Matrix: (Units=GPa)
#
#
# Indices 1 2 3 4 5 6 
#
# 1 88.4053 50.6993 14.7584 13.2538 -14.4276 6.0119
# 2 50.6993 137.3360 33.5009 2.6402 -0.7980 -1.1883
# 3 14.7584 33.5009 108.1026 -1.7856 -9.2400 4.4583
# 4 13.2538 2.6402 -1.7856 43.0202 -6.1471 2.1768
# 5 -14.4276 -0.7980 -9.2400 -6.1471 39.3478 4.7126
# 6 6.0119 -1.1883 4.4583 2.1768 4.7126 48.9846
#
#
#
# Elastic Compliance Matrix: (Units=1/GPa)
#
#
# Indices 1 2 3 4 5 6 
#
# 1 0.016383 -0.006002 0.000149 -0.003738 0.005641 -0.002546
# 2 -0.006002 0.010113 -0.002592 0.000666 -0.002673 0.001445
# 3 0.000149 -0.002592 0.010340 0.001002 0.002746 -0.001331
# 4 -0.003738 0.000666 0.001002 0.024859 0.002881 -0.000998
# 5 0.005641 -0.002673 0.002746 0.002881 0.028994 -0.003925
# 6 -0.002546 0.001445 -0.001331 -0.000998 -0.003925 0.021305
#
#
# Mechanical properties :
#
#
# Convention : Reuss Voigt Hill
#
# Bulk Modulus (GPa) = 50.13484 59.08456 54.60970
# Shear Modulus (GPa) = 36.89160 41.92952 39.41056
#
# Velocity S-wave (km/s) = 4.05442 4.32240 4.19055
# Velocity P-wave (km/s) = 6.65260 7.15808 6.90996
#
# Compressibility (1/GPa) = 0.01994621
#
# Stress axis : x y z
#
# Youngs Moduli (GPa) = 61.03990 98.87872 96.71611
#
# Poissons Ratio (x) = 0.59343 -0.01439
# Poissons Ratio (y) = 0.36634 0.25068
# Poissons Ratio (z) = -0.00908 0.25628
#
# Static dielectric constant tensor:
#      x y z
#    x 4.112020 -0.229800 0.161410 
#    y -0.229800 4.131080 -0.132290 
#    z 0.161410 -0.132290 4.279840 
# 
# 
# High freq. dielectric constant tensor:
#      x y z
#    x 1.885910 -0.010230 -0.003110 
#    y -0.010230 1.892950 -0.003680 
#    z -0.003110 -0.003680 1.905220 
# 
# From -- ./inp_files/185363.got.cif
#   From: 2010.06.25/outbox.cif.g09.slc.cpg/sg2_93_cif.got.tgz:185363.got - 2010.06.27 13:26:56.
