data_PCOD8032258
_publ_section_title
;
Structure prediction by ZEFSAII (Michael W. Deem and Ramdas Pophale) SiO2 
 PCOD8032258
Probable space group: P -1
;
_chemical_formula_sum "Si O2"
_cell_formula_units_Z 16
_cell_length_a 11.754698
_cell_length_b 16.784874
_cell_length_c 19.568806
_cell_angle_alpha 158.379528
_cell_angle_beta 150.369190
_cell_angle_gamma 40.197343
_cell_volume 682.278857
_symmetry_space_group_name_H-M "P -1"
_symmetry_group_IT_number 2
_symmetry_cell_setting 'triclinic'
loop_
_space_group_symop_operation_xyz
x,y,z
-x,-y,-z
loop_
_atom_site_type_symbol
_atom_site_label
_atom_site_fract_x
_atom_site_fract_y
_atom_site_fract_z
Si Si1 0.744410 0.710426 0.556592
Si Si2 0.228731 0.058017 0.715497
Si Si3 0.162291 0.874970 0.230274
Si Si4 0.367548 0.906637 0.136597
Si Si5 0.015079 0.432049 0.552718
Si Si6 0.498079 0.242569 0.781669
Si Si7 0.765623 0.053356 0.210565
Si Si8 0.239798 0.547983 0.122063
O O1 0.872890 0.735915 0.569604
O O2 0.462782 0.690917 0.393405
O O3 0.798733 0.496319 0.451007
O O4 0.818234 0.941518 0.821945
O O5 0.461235 0.985103 0.750580
O O6 0.194012 0.966216 0.702234
O O7 0.314219 0.321951 0.966061
O O8 0.000000 0.000000 0.500000
O O9 0.246931 0.808836 0.147723
O O10 0.210797 0.672616 0.137662
O O11 0.306172 0.122437 0.529295
O O12 0.886222 0.877254 0.093454
O O13 0.556855 0.887058 0.279210
O O14 0.214060 0.655802 0.846596
O O15 0.904861 0.304782 0.462472
O O16 0.500000 0.500000 0.000000
O O17 0.500000 0.000000 0.000000
O O18 0.000000 0.500000 0.000000
#
# Coordination Sequence:
#
# PCOD8032258 Si02
#       8
#     2   2   2   2   2   2   2   2
#     4  11  24  47  73 108 140 194 252 304 367 445
#     4  12  26  47  73 111 152 193 245 309 370 448
#     4  11  24  43  72 103 139 190 238 300 370 433
#     4  12  23  44  73 106 141 188 248 301 366 445
#     4  11  26  45  76 101 148 194 250 306 366 440
#     4  11  23  41  72 108 143 174 238 314 369 429
#     4  12  27  49  74 105 153 202 248 304 381 447
#     4  12  22  43  72  99 145 193 242 297 370 442
#
# _framework density 23.450821999999999
#
# number of rings (size 3 to 8) (size 9 to 14) (size 15 to 20)
#    0.000    0.500    3.750    4.875    3.500    1.000 
#    2.250    0.625    0.000    0.000    0.000    0.000 
#    0.000    0.000    0.000    0.000    0.000    0.000 
#
# Total GULP energy -198233.496677 kJ/mol
# GULP energy per Si atom -12389.593542 kJ/mol
# Density = 2.339745 g / cm^3
# Si number density = 23.450822 Si / 1000 Ang^3
#
#
#
# Elastic Constant Matrix: (Units=GPa)
#
#
# Indices 1 2 3 4 5 6 
#
# 1 151.9740 57.8221 54.6315 7.5351 9.0857 -12.2790
# 2 57.8221 111.5538 40.8675 -5.5868 3.0300 -11.0155
# 3 54.6315 40.8675 80.6649 10.2986 7.2239 -5.9768
# 4 7.5351 -5.5868 10.2986 49.3385 -7.9669 -4.3073
# 5 9.0857 3.0300 7.2239 -7.9669 36.1856 7.2459
# 6 -12.2790 -11.0155 -5.9768 -4.3073 7.2459 49.8521
#
#
#
# Elastic Compliance Matrix: (Units=1/GPa)
#
#
# Indices 1 2 3 4 5 6 
#
# 1 0.009711 -0.003248 -0.004541 -0.001074 -0.001755 0.001292
# 2 -0.003248 0.012608 -0.004574 0.003186 0.001062 0.001558
# 3 -0.004541 -0.004574 0.018625 -0.004205 -0.003161 0.000200
# 4 -0.001074 0.003186 -0.004205 0.022672 0.005618 0.001078
# 5 -0.001755 0.001062 -0.003161 0.005618 0.030769 -0.004563
# 6 0.001292 0.001558 0.000200 0.001078 -0.004563 0.021502
#
#
# Mechanical properties :
#
#
# Convention : Reuss Voigt Hill
#
# Bulk Modulus (GPa) = 61.66617 72.31499 66.99058
# Shear Modulus (GPa) = 34.24185 39.80001 37.02093
#
# Velocity S-wave (km/s) = 3.82534 4.12414 3.97755
# Velocity P-wave (km/s) = 6.77230 7.31996 7.05145
#
# Compressibility (1/GPa) = 0.01621635
#
# Stress axis : x y z
#
# Youngs Moduli (GPa) = 102.97594 79.31215 53.69183
#
# Poissons Ratio (x) = 0.25764 0.24383
# Poissons Ratio (y) = 0.33451 0.24560
# Poissons Ratio (z) = 0.46764 0.36280
#
# Static dielectric constant tensor:
#      x y z
#    x 4.545920 -0.286950 -0.361150 
#    y -0.286950 4.734740 0.340360 
#    z -0.361150 0.340360 4.429500 
# 
# 
# High freq. dielectric constant tensor:
#      x y z
#    x 1.936610 -0.006940 0.003240 
#    y -0.006940 1.946220 0.009560 
#    z 0.003240 0.009560 1.916600 
# 
# From -- ./inp_files/596099.got.cif
#   From: 2010.06.25/outbox.cif.g09.slc.cpg/sg2_299_cif.got.tgz:596099.got - 2010.06.27 13:26:56.
