data_PCOD8032162
_publ_section_title
;
Structure prediction by ZEFSAII (Michael W. Deem and Ramdas Pophale) SiO2 
 PCOD8032162
Probable space group: P -1
;
_chemical_formula_sum "Si O2"
_cell_formula_units_Z 12
_cell_length_a 8.860637
_cell_length_b 15.451073
_cell_length_c 12.006368
_cell_angle_alpha 27.284419
_cell_angle_beta 139.691329
_cell_angle_gamma 129.178633
_cell_volume 481.550536
_symmetry_space_group_name_H-M "P -1"
_symmetry_group_IT_number 2
_symmetry_cell_setting 'triclinic'
loop_
_space_group_symop_operation_xyz
x,y,z
-x,-y,-z
loop_
_atom_site_type_symbol
_atom_site_label
_atom_site_fract_x
_atom_site_fract_y
_atom_site_fract_z
Si Si1 0.046454 0.308676 0.676717
Si Si2 0.585318 0.702168 0.301915
Si Si3 0.428863 0.111037 0.704557
Si Si4 0.270061 0.722570 0.656173
Si Si5 0.020663 0.895893 0.921872
Si Si6 0.263860 0.303696 0.162697
O O1 0.242949 0.310080 0.691993
O O2 0.000000 0.500000 0.500000
O O3 0.804162 0.288934 0.501454
O O4 0.113920 0.139844 0.997064
O O5 0.500000 0.500000 0.500000
O O6 0.706402 0.755277 0.426239
O O7 0.384089 0.889737 0.948552
O O8 0.331093 0.180397 0.451254
O O9 0.706898 0.118968 0.873377
O O10 0.544783 0.744924 0.774426
O O11 0.234451 0.527218 0.923125
O O12 0.108493 0.896502 0.429628
O O13 0.979357 0.744830 0.973971
#
# Coordination Sequence:
#
# PCOD8032162 Si02
#       6
#     2   2   2   2   2   2
#     4  12  22  43  77 104 138 188 235 289 351 413
#     4  11  26  44  74 102 140 195 234 280 354 420
#     4  11  25  49  73 103 144 186 233 289 350 423
#     4  11  23  41  67 110 144 175 232 297 350 409
#     4  12  23  44  78 104 139 182 235 292 353 410
#     4  11  25  41  69 111 142 176 234 293 352 415
#
# _framework density 24.919504
#
# number of rings (size 3 to 8) (size 9 to 14) (size 15 to 20)
#    0.000    0.667    5.000    3.000    0.000    1.333 
#    0.000    4.167    3.667    0.000    0.000    0.000 
#    0.000    0.000    0.000    0.000    0.000    0.000 
#
# Total GULP energy -148668.832967 kJ/mol
# GULP energy per Si atom -12389.069414 kJ/mol
# Density = 2.486279 g / cm^3
# Si number density = 24.919504 Si / 1000 Ang^3
#
#
#
# Elastic Constant Matrix: (Units=GPa)
#
#
# Indices 1 2 3 4 5 6 
#
# 1 109.7945 35.0984 29.9394 -10.9706 -21.0854 -7.2430
# 2 35.0984 103.4401 41.2462 -9.2785 -20.0126 -2.8566
# 3 29.9394 41.2462 123.5259 -12.6143 -39.9630 3.4320
# 4 -10.9706 -9.2785 -12.6143 47.3198 -2.9432 1.8608
# 5 -21.0854 -20.0126 -39.9630 -2.9432 44.6274 -7.1348
# 6 -7.2430 -2.8566 3.4320 1.8608 -7.1348 34.2301
#
#
#
# Elastic Compliance Matrix: (Units=1/GPa)
#
#
# Indices 1 2 3 4 5 6 
#
# 1 0.011301 -0.002561 -0.000256 0.002216 0.004594 0.003040
# 2 -0.002561 0.012141 -0.002665 0.001163 0.002103 0.001114
# 3 -0.000256 -0.002665 0.012752 0.003447 0.010398 0.000425
# 4 0.002216 0.001163 0.003447 0.023171 0.006225 0.000258
# 5 0.004594 0.002103 0.010398 0.006225 0.036419 0.007358
# 6 0.003040 0.001114 0.000425 0.000258 0.007358 0.031427
#
#
# Mechanical properties :
#
#
# Convention : Reuss Voigt Hill
#
# Bulk Modulus (GPa) = 39.63625 61.03648 50.33637
# Shear Modulus (GPa) = 34.11014 40.60056 37.35535
#
# Velocity S-wave (km/s) = 3.70376 4.04080 3.87595
# Velocity P-wave (km/s) = 5.85070 6.80569 6.34618
#
# Compressibility (1/GPa) = 0.02522943
#
# Stress axis : x y z
#
# Youngs Moduli (GPa) = 88.49145 82.36551 78.42142
#
# Poissons Ratio (x) = 0.21093 0.02006
# Poissons Ratio (y) = 0.22662 0.20901
# Poissons Ratio (z) = 0.02264 0.21952
#
# Static dielectric constant tensor:
#      x y z
#    x 2.938410 0.330180 0.235450 
#    y 0.330180 4.614890 -0.322410 
#    z 0.235450 -0.322410 4.655940 
# 
# 
# High freq. dielectric constant tensor:
#      x y z
#    x 1.991200 0.002060 -0.011690 
#    y 0.002060 1.990950 -0.021790 
#    z -0.011690 -0.021790 1.996460 
# 
# From -- ./inp_files/398331.got.cif
#   From: 2010.06.25/outbox.cif.g09.slc.cpg/sg2_200_cif.got.tgz:398331.got - 2010.06.27 13:26:56.
