data_PCOD8032611
_publ_section_title
;
Structure prediction by ZEFSAII (Michael W. Deem and Ramdas Pophale) SiO2 
 PCOD8032611
Probable space group: P -1
;
_chemical_formula_sum "Si O2"
_cell_formula_units_Z 16
_cell_length_a 26.533479
_cell_length_b 13.726943
_cell_length_c 13.281704
_cell_angle_alpha 33.419743
_cell_angle_beta 147.831923
_cell_angle_gamma 162.940005
_cell_volume 745.515754
_symmetry_space_group_name_H-M "P -1"
_symmetry_group_IT_number 2
_symmetry_cell_setting 'triclinic'
loop_
_space_group_symop_operation_xyz
x,y,z
-x,-y,-z
loop_
_atom_site_type_symbol
_atom_site_label
_atom_site_fract_x
_atom_site_fract_y
_atom_site_fract_z
Si Si1 0.802082 0.760319 0.877998
Si Si2 0.235953 0.279105 0.527054
Si Si3 0.126413 0.451870 0.506547
Si Si4 0.696638 0.257941 0.648697
Si Si5 0.393300 0.231301 0.964281
Si Si6 0.412655 0.709869 0.894490
Si Si7 0.556249 0.290945 0.679689
Si Si8 0.157811 0.773652 0.449747
O O1 0.698628 0.579687 0.753689
O O2 0.815379 0.981889 0.743957
O O3 0.697150 0.485152 0.021285
O O4 0.000000 0.000000 0.000000
O O5 0.218418 0.440511 0.410961
O O6 0.257883 0.158995 0.750473
O O7 0.397232 0.536085 0.495947
O O8 0.049924 0.949559 0.439284
O O9 0.173795 0.588587 0.356352
O O10 0.291288 0.598027 0.698136
O O11 0.094515 0.574355 0.414047
O O12 0.500000 0.000000 0.500000
O O13 0.699478 0.091543 0.869354
O O14 0.500000 0.500000 0.000000
O O15 0.515037 0.360931 0.964216
O O16 0.571781 0.103898 0.848684
O O17 0.351502 0.007565 0.613331
O O18 0.000000 0.500000 0.500000
#
# Coordination Sequence:
#
# PCOD8032611 Si02
#       8
#     2   2   2   2   2   2   2   2
#     4  12  25  41  67 102 136 175 228 284 338 408
#     4  12  24  44  69 103 136 177 225 278 346 402
#     4  11  25  44  68  95 139 178 217 286 341 398
#     4  12  22  46  70  97 136 179 224 278 341 402
#     4  12  25  40  72 101 131 177 231 274 334 416
#     4  11  23  43  67  99 132 181 227 275 339 405
#     4  11  23  45  70  94 137 184 221 280 347 402
#     4  11  24  44  66  95 131 179 228 277 341 404
#
# _framework density 21.461652999999998
#
# number of rings (size 3 to 8) (size 9 to 14) (size 15 to 20)
#    0.000    0.500    3.750    5.625    1.750    2.500 
#    2.250    0.000    0.000    0.000    0.000    0.000 
#    0.000    0.000    0.000    0.000    0.000    0.000 
#
# Total GULP energy -198434.093627 kJ/mol
# GULP energy per Si atom -12402.130852 kJ/mol
# Density = 2.141280 g / cm^3
# Si number density = 21.461653 Si / 1000 Ang^3
#
#
#
# Elastic Constant Matrix: (Units=GPa)
#
#
# Indices 1 2 3 4 5 6 
#
# 1 154.3018 62.1976 47.2315 -7.4170 -0.7434 -9.8320
# 2 62.1976 128.7421 35.7836 -12.7088 4.8474 -22.3656
# 3 47.2315 35.7836 108.0410 -27.2789 -5.3125 -11.0773
# 4 -7.4170 -12.7088 -27.2789 30.4863 -1.7494 -0.3534
# 5 -0.7434 4.8474 -5.3125 -1.7494 39.7754 -14.8892
# 6 -9.8320 -22.3656 -11.0773 -0.3534 -14.8892 46.4138
#
#
#
# Elastic Compliance Matrix: (Units=1/GPa)
#
#
# Indices 1 2 3 4 5 6 
#
# 1 0.008827 -0.003706 -0.003332 -0.002402 -0.000235 -0.000805
# 2 -0.003706 0.010807 -0.000739 0.003009 0.000279 0.004359
# 3 -0.003332 -0.000739 0.014630 0.012242 0.003937 0.003786
# 4 -0.002402 0.003009 0.012242 0.044805 0.005418 0.005942
# 5 -0.000235 0.000279 0.003937 0.005418 0.029850 0.010641
# 6 -0.000805 0.004359 0.003786 0.005942 0.010641 0.027838
#
#
# Mechanical properties :
#
#
# Convention : Reuss Voigt Hill
#
# Bulk Modulus (GPa) = 53.44775 75.72337 64.58556
# Shear Modulus (GPa) = 31.53636 39.72657 35.63146
#
# Velocity S-wave (km/s) = 3.83747 4.30705 4.07902
# Velocity P-wave (km/s) = 6.67778 7.75203 7.23487
#
# Compressibility (1/GPa) = 0.01870986
#
# Stress axis : x y z
#
# Youngs Moduli (GPa) = 113.29175 92.53111 68.35473
#
# Poissons Ratio (x) = 0.34296 0.22773
# Poissons Ratio (y) = 0.41991 0.05050
# Poissons Ratio (z) = 0.37745 0.06836
#
# Static dielectric constant tensor:
#      x y z
#    x 3.952260 -0.082470 0.012680 
#    y -0.082470 3.990750 -0.198180 
#    z 0.012680 -0.198180 3.890240 
# 
# 
# High freq. dielectric constant tensor:
#      x y z
#    x 1.861290 -0.007530 -0.003870 
#    y -0.007530 1.849010 -0.017260 
#    z -0.003870 -0.017260 1.837280 
# 
# From -- ./inp_files/439241.got.cif
#   From: 2010.06.25/outbox.cif.g09.slc.cpg/sg2_220_cif.got.tgz:439241.got - 2010.06.27 13:26:56.
