data_PCOD8032648
_publ_section_title
;
Structure prediction by ZEFSAII (Michael W. Deem and Ramdas Pophale) SiO2 
 PCOD8032648
Probable space group: P -1
;
_chemical_formula_sum "Si O2"
_cell_formula_units_Z 12
_cell_length_a 12.603171
_cell_length_b 11.259309
_cell_length_c 4.874016
_cell_angle_alpha 118.047927
_cell_angle_beta 110.186702
_cell_angle_gamma 39.608295
_cell_volume 388.975245
_symmetry_space_group_name_H-M "P -1"
_symmetry_group_IT_number 2
_symmetry_cell_setting 'triclinic'
loop_
_space_group_symop_operation_xyz
x,y,z
-x,-y,-z
loop_
_atom_site_type_symbol
_atom_site_label
_atom_site_fract_x
_atom_site_fract_y
_atom_site_fract_z
Si Si1 0.171507 0.229782 0.866595
Si Si2 0.251007 0.405608 0.816888
Si Si3 0.917648 0.280396 0.433526
Si Si4 0.621600 0.021670 0.722898
Si Si5 0.207056 0.875981 0.005808
Si Si6 0.618831 0.426921 0.767416
O O1 0.125837 0.415873 0.886383
O O2 0.011175 0.267128 0.764771
O O3 0.303177 0.040448 0.581029
O O4 0.262062 0.171269 0.178849
O O5 0.422294 0.163034 0.680069
O O6 0.182362 0.509723 0.573340
O O7 0.298918 0.496183 0.131014
O O8 0.804361 0.244002 0.351307
O O9 0.042776 0.112645 0.128231
O O10 0.640052 0.161535 0.000945
O O11 0.227971 0.804109 0.260246
O O12 0.500000 0.500000 0.500000
O O13 0.500000 0.500000 0.000000
#
# Coordination Sequence:
#
# PCOD8032648 Si02
#       6
#     2   2   2   2   2   2
#     4  11  25  45  66  99 135 182 217 271 332 397
#     4  11  23  43  69 101 135 174 225 272 333 394
#     4   9  21  41  70  95 138 176 218 274 329 400
#     4  11  24  42  72  95 137 173 226 276 324 390
#     4   9  20  43  66  99 131 174 222 271 335 383
#     4  11  24  40  68  98 128 165 217 278 321 386
#
# _framework density 30.850293000000001
#
# number of rings (size 3 to 8) (size 9 to 14) (size 15 to 20)
#    0.000    1.667    1.667    1.500    4.667    2.000 
#    0.000   25.833    0.000    0.000    0.000    0.000 
#    0.000    0.000    0.000    0.000    0.000    0.000 
#
# Total GULP energy -148709.419229 kJ/mol
# GULP energy per Si atom -12392.451602 kJ/mol
# Density = 3.078008 g / cm^3
# Si number density = 30.850293 Si / 1000 Ang^3
#
#
#
# Elastic Constant Matrix: (Units=GPa)
#
#
# Indices 1 2 3 4 5 6 
#
# 1 191.9826 16.8086 12.2926 -23.5672 39.7697 20.4085
# 2 16.8086 130.9833 26.3371 -16.5101 11.4317 25.8287
# 3 12.2926 26.3371 98.1976 -38.7431 9.9275 -11.5586
# 4 -23.5672 -16.5101 -38.7431 61.3734 -2.3819 3.8327
# 5 39.7697 11.4317 9.9275 -2.3819 45.6935 -16.0528
# 6 20.4085 25.8287 -11.5586 3.8327 -16.0528 44.3202
#
#
#
# Elastic Compliance Matrix: (Units=1/GPa)
#
#
# Indices 1 2 3 4 5 6 
#
# 1 0.009093 0.002479 -0.000138 0.004255 -0.011919 -0.010353
# 2 0.002479 0.011240 -0.002835 0.002592 -0.008318 -0.011668
# 3 -0.000138 -0.002835 0.014790 0.008213 -0.000284 0.004760
# 4 0.004255 0.002592 0.008213 0.023909 -0.006970 -0.005920
# 5 -0.011919 -0.008318 -0.000284 -0.006970 0.043374 0.026575
# 6 -0.010353 -0.011668 0.004760 -0.005920 0.026575 0.045509
#
#
# Mechanical properties :
#
#
# Convention : Reuss Voigt Hill
#
# Bulk Modulus (GPa) = 29.29479 59.11555 44.20517
# Shear Modulus (GPa) = 31.19525 54.65912 42.92718
#
# Velocity S-wave (km/s) = 3.18336 4.21379 3.73428
# Velocity P-wave (km/s) = 4.79876 6.54816 5.74049
#
# Compressibility (1/GPa) = 0.03413576
#
# Stress axis : x y z
#
# Youngs Moduli (GPa) = 109.97934 88.96854 67.61126
#
# Poissons Ratio (x) = -0.22055 0.00932
# Poissons Ratio (y) = -0.27264 0.19167
# Poissons Ratio (z) = 0.01515 0.25221
#
# Static dielectric constant tensor:
#      x y z
#    x 6.451020 -0.451920 1.070780 
#    y -0.451920 6.407560 0.266230 
#    z 1.070780 0.266230 5.645370 
# 
# 
# High freq. dielectric constant tensor:
#      x y z
#    x 2.295690 -0.006790 0.025360 
#    y -0.006790 2.301590 0.019620 
#    z 0.025360 0.019620 2.267530 
# 
# From -- ./inp_files/93958.got.cif
#   From: 2010.06.25/outbox.cif.g09.slc.cpg/sg2_47_cif.got.tgz:93958.got - 2010.06.27 13:26:56.
