data_PCOD8032095
_publ_section_title
;
Structure prediction by ZEFSAII (Michael W. Deem and Ramdas Pophale) SiO2 
 PCOD8032095
Probable space group: P -1
;
_chemical_formula_sum "Si O2"
_cell_formula_units_Z 14
_cell_length_a 21.484764
_cell_length_b 5.213153
_cell_length_c 6.987707
_cell_angle_alpha 105.224222
_cell_angle_beta 50.101083
_cell_angle_gamma 94.820495
_cell_volume 575.578645
_symmetry_space_group_name_H-M "P -1"
_symmetry_group_IT_number 2
_symmetry_cell_setting 'triclinic'
loop_
_space_group_symop_operation_xyz
x,y,z
-x,-y,-z
loop_
_atom_site_type_symbol
_atom_site_label
_atom_site_fract_x
_atom_site_fract_y
_atom_site_fract_z
Si Si1 0.044061 0.079311 0.238607
Si Si2 0.404730 0.043111 0.655238
Si Si3 0.609712 0.483921 0.965358
Si Si4 0.825104 0.664776 0.752371
Si Si5 0.931855 0.339925 0.189804
Si Si6 0.277978 0.783407 0.037662
Si Si7 0.449901 0.262808 0.238120
O O1 0.103162 0.296639 0.229130
O O2 0.969789 0.180463 0.266726
O O3 0.000000 0.000000 0.500000
O O4 0.096310 0.843297 0.965184
O O5 0.362457 0.258941 0.930987
O O6 0.390511 0.163926 0.495509
O O7 0.500000 0.000000 0.500000
O O8 0.354768 0.784589 0.734509
O O9 0.519456 0.437909 0.212423
O O10 0.677835 0.236998 0.841157
O O11 0.606427 0.548340 0.759661
O O12 0.855094 0.527532 0.464789
O O13 0.768805 0.478943 0.944707
O O14 0.783463 0.953163 0.823234
O O15 0.000000 0.500000 0.000000
O O16 0.500000 0.000000 0.000000
#
# Coordination Sequence:
#
# PCOD8032095 Si02
#       7
#     2   2   2   2   2   2   2
#     4  11  24  48  83 118 153 198 261 313 369 463
#     4  12  23  45  77 101 143 201 266 314 377 462
#     4  11  23  44  71 106 144 190 257 317 393 440
#     4  12  27  49  77 115 167 202 252 316 398 465
#     4  11  25  46  85 118 145 204 262 307 370 458
#     4  12  27  47  75 106 157 212 241 323 405 448
#     4  11  23  40  75 107 131 187 265 330 366 443
#
# _framework density 24.323349
#
# number of rings (size 3 to 8) (size 9 to 14) (size 15 to 20)
#    0.000    0.571    5.714    1.714    4.000    0.000 
#    0.000    5.714    0.000    0.000    0.000    0.000 
#    0.000    0.000    0.000    0.000    0.000    0.000 
#
# Total GULP energy -173466.046122 kJ/mol
# GULP energy per Si atom -12390.431866 kJ/mol
# Density = 2.426799 g / cm^3
# Si number density = 24.323349 Si / 1000 Ang^3
#
#
#
# Elastic Constant Matrix: (Units=GPa)
#
#
# Indices 1 2 3 4 5 6 
#
# 1 107.0822 53.5688 52.1218 -19.8545 7.2105 3.6589
# 2 53.5688 135.0051 44.3023 -30.9487 3.2274 5.5978
# 3 52.1218 44.3023 104.0710 -23.4188 9.1677 14.9169
# 4 -19.8545 -30.9487 -23.4188 51.6736 4.1152 -4.0789
# 5 7.2105 3.2274 9.1677 4.1152 34.9568 -4.5274
# 6 3.6589 5.5978 14.9169 -4.0789 -4.5274 54.4345
#
#
#
# Elastic Compliance Matrix: (Units=1/GPa)
#
#
# Indices 1 2 3 4 5 6 
#
# 1 0.013914 -0.003583 -0.005240 0.000986 -0.001172 0.000845
# 2 -0.003583 0.010311 -0.001643 0.004069 -0.000272 -0.000087
# 3 -0.005240 -0.001643 0.014545 0.003595 -0.003456 -0.003483
# 4 0.000986 0.004069 0.003595 0.024143 -0.004367 -0.000024
# 5 -0.001172 -0.000272 -0.003456 -0.004367 0.030719 0.003282
# 6 0.000845 -0.000087 -0.003483 -0.000024 0.003282 0.019548
#
#
# Mechanical properties :
#
#
# Convention : Reuss Voigt Hill
#
# Bulk Modulus (GPa) = 56.05466 71.79382 63.92424
# Shear Modulus (GPa) = 35.69977 41.29068 38.49523
#
# Velocity S-wave (km/s) = 3.83523 4.12463 3.98256
# Velocity P-wave (km/s) = 6.53511 7.22938 6.89100
#
# Compressibility (1/GPa) = 0.01783973
#
# Stress axis : x y z
#
# Youngs Moduli (GPa) = 71.87014 96.98682 68.75246
#
# Poissons Ratio (x) = 0.34747 0.36023
# Poissons Ratio (y) = 0.25748 0.11294
# Poissons Ratio (z) = 0.37657 0.15933
#
# Static dielectric constant tensor:
#      x y z
#    x 4.169040 0.380540 0.736060 
#    y 0.380540 4.835930 -0.656500 
#    z 0.736060 -0.656500 3.502020 
# 
# 
# High freq. dielectric constant tensor:
#      x y z
#    x 1.960200 -0.002030 0.002650 
#    y -0.002030 1.988870 -0.014010 
#    z 0.002650 -0.014010 1.948250 
# 
# From -- ./inp_files/114702.got.cif
#   From: 2010.06.25/outbox.cif.g09.slc.cpg/sg2_58_cif.got.tgz:114702.got - 2010.06.27 13:26:56.
