data_PCOD8032168
_publ_section_title
;
Structure prediction by ZEFSAII (Michael W. Deem and Ramdas Pophale) SiO2 
 PCOD8032168
Probable space group: P -1
;
_chemical_formula_sum "Si O2"
_cell_formula_units_Z 16
_cell_length_a 17.750614
_cell_length_b 8.573344
_cell_length_c 11.929934
_cell_angle_alpha 120.375850
_cell_angle_beta 46.914209
_cell_angle_gamma 145.908219
_cell_volume 735.179190
_symmetry_space_group_name_H-M "P -1"
_symmetry_group_IT_number 2
_symmetry_cell_setting 'triclinic'
loop_
_space_group_symop_operation_xyz
x,y,z
-x,-y,-z
loop_
_atom_site_type_symbol
_atom_site_label
_atom_site_fract_x
_atom_site_fract_y
_atom_site_fract_z
Si Si1 0.255592 0.940698 0.908704
Si Si2 0.991621 0.844016 0.852940
Si Si3 0.287074 0.315670 0.574582
Si Si4 0.142517 0.316985 0.512328
Si Si5 0.671654 0.551930 0.005497
Si Si6 0.510197 0.745444 0.694095
Si Si7 0.979373 0.495664 0.196810
Si Si8 0.574867 0.226611 0.773401
O O1 0.333132 0.239567 0.919489
O O2 0.399796 0.999123 0.812107
O O3 0.176563 0.764065 0.811172
O O4 0.121635 0.771855 0.079420
O O5 0.952902 0.592536 0.845661
O O6 0.157368 0.059561 0.697472
O O7 0.851171 0.716192 0.864984
O O8 0.000000 0.000000 0.000000
O O9 0.205878 0.340720 0.577983
O O10 0.419044 0.600280 0.615778
O O11 0.368524 0.256765 0.406611
O O12 0.074535 0.428962 0.630173
O O13 0.288304 0.503509 0.344981
O O14 0.000000 0.000000 0.500000
O O15 0.613155 0.407543 0.133696
O O16 0.561790 0.322729 0.936296
O O17 0.612345 0.067088 0.701498
#
# Coordination Sequence:
#
# PCOD8032168 Si02
#       8
#     2   2   2   2   2   2   2   2
#     4  11  23  41  67  99 133 172 226 271 328 394
#     4  12  22  41  69  95 130 170 221 275 327 385
#     4  11  24  43  69  95 130 172 220 273 333 389
#     4  12  27  46  66  95 140 178 217 274 334 397
#     4  12  24  43  66  97 135 176 220 273 331 391
#     4  11  24  43  68  98 130 170 222 277 330 389
#     4  11  24  41  69  99 132 174 226 272 326 395
#     4  12  26  42  66  98 136 177 222 270 334 398
#
# _framework density 21.763404000000001
#
# number of rings (size 3 to 8) (size 9 to 14) (size 15 to 20)
#    0.000    0.500    2.500    6.000    1.750    6.000 
#    0.000    2.500    0.000    0.000    0.000    0.000 
#    0.000    0.000    0.000    0.000    0.000    0.000 
#
# Total GULP energy -198540.719404 kJ/mol
# GULP energy per Si atom -12408.794963 kJ/mol
# Density = 2.171387 g / cm^3
# Si number density = 21.763404 Si / 1000 Ang^3
#
#
#
# Elastic Constant Matrix: (Units=GPa)
#
#
# Indices 1 2 3 4 5 6 
#
# 1 80.9811 21.1124 19.3422 12.7581 -6.6995 -16.8654
# 2 21.1124 103.1571 37.3276 10.2457 -0.9815 -19.2838
# 3 19.3422 37.3276 95.1390 10.4294 -5.7062 -2.1655
# 4 12.7581 10.2457 10.4294 32.7244 -3.6950 -5.7973
# 5 -6.6995 -0.9815 -5.7062 -3.6950 35.7017 -4.1490
# 6 -16.8654 -19.2838 -2.1655 -5.7973 -4.1490 28.1936
#
#
#
# Elastic Compliance Matrix: (Units=1/GPa)
#
#
# Indices 1 2 3 4 5 6 
#
# 1 0.015587 -0.000389 -0.002260 -0.003335 0.003216 0.008672
# 2 -0.000389 0.013135 -0.004761 -0.000938 0.000389 0.008250
# 3 -0.002260 -0.004761 0.013060 -0.002403 0.000821 -0.003978
# 4 -0.003335 -0.000938 -0.002403 0.034081 0.003030 0.004632
# 5 0.003216 0.000389 0.000821 0.003030 0.029915 0.007278
# 6 0.008672 0.008250 -0.003978 0.004632 0.007278 0.048017
#
#
# Mechanical properties :
#
#
# Convention : Reuss Voigt Hill
#
# Bulk Modulus (GPa) = 37.08813 48.31573 42.70193
# Shear Modulus (GPa) = 28.15249 32.75694 30.45471
#
# Velocity S-wave (km/s) = 3.60053 3.88382 3.74485
# Velocity P-wave (km/s) = 5.86204 6.50851 6.19372
#
# Compressibility (1/GPa) = 0.02696281
#
# Stress axis : x y z
#
# Youngs Moduli (GPa) = 64.15401 76.13047 76.56741
#
# Poissons Ratio (x) = 0.02963 0.17307
# Poissons Ratio (y) = 0.02497 0.36450
# Poissons Ratio (z) = 0.14501 0.36242
#
# Static dielectric constant tensor:
#      x y z
#    x 3.944310 0.030710 -0.044950 
#    y 0.030710 3.983470 -0.043620 
#    z -0.044950 -0.043620 3.912050 
# 
# 
# High freq. dielectric constant tensor:
#      x y z
#    x 1.861000 -0.005300 -0.006020 
#    y -0.005300 1.863400 -0.001980 
#    z -0.006020 -0.001980 1.860090 
# 
# From -- ./inp_files/226158.got.cif
#   From: 2010.06.25/outbox.cif.g09.slc.cpg/sg2_114_cif.got.tgz:226158.got - 2010.06.27 13:26:56.
