data_PCOD8032239
_publ_section_title
;
Structure prediction by ZEFSAII (Michael W. Deem and Ramdas Pophale) SiO2 
 PCOD8032239
Probable space group: P -1
;
_chemical_formula_sum "Si O2"
_cell_formula_units_Z 12
_cell_length_a 9.395632
_cell_length_b 8.658814
_cell_length_c 9.438534
_cell_angle_alpha 98.112360
_cell_angle_beta 42.009787
_cell_angle_gamma 104.903105
_cell_volume 495.132391
_symmetry_space_group_name_H-M "P -1"
_symmetry_group_IT_number 2
_symmetry_cell_setting 'triclinic'
loop_
_space_group_symop_operation_xyz
x,y,z
-x,-y,-z
loop_
_atom_site_type_symbol
_atom_site_label
_atom_site_fract_x
_atom_site_fract_y
_atom_site_fract_z
Si Si1 0.680230 0.337881 0.631647
Si Si2 0.173181 0.394050 0.245646
Si Si3 0.277468 0.418884 0.868278
Si Si4 0.118942 0.740854 0.044631
Si Si5 0.117785 0.159653 0.510632
Si Si6 0.513423 0.977595 0.654098
O O1 0.703915 0.424221 0.779598
O O2 0.525446 0.408717 0.643101
O O3 0.920007 0.381627 0.390400
O O4 0.597431 0.148071 0.690638
O O5 0.209015 0.286770 0.337657
O O6 0.270775 0.342423 0.022065
O O7 0.105923 0.304132 0.881531
O O8 0.243523 0.597365 0.926769
O O9 0.057132 0.777974 0.254803
O O10 0.274180 0.897089 0.880890
O O11 0.319109 0.133852 0.452363
O O12 0.000000 0.000000 0.500000
O O13 0.500000 0.000000 0.500000
#
# Coordination Sequence:
#
# PCOD8032239 Si02
#       6
#     2   2   2   2   2   2
#     4  11  23  41  71 100 138 186 234 290 352 414
#     4  11  24  46  69 104 142 187 241 290 355 425
#     4  11  25  47  74 103 141 192 239 295 355 426
#     4  11  27  47  72 105 147 188 242 291 358 430
#     4  12  27  47  72 107 146 189 237 297 354 425
#     4  12  27  46  73 110 146 191 234 296 365 425
#
# _framework density 24.235944
#
# number of rings (size 3 to 8) (size 9 to 14) (size 15 to 20)
#    0.000    0.667    1.667    5.500    2.333    4.667 
#    0.000    5.833    0.000    0.000    0.000    0.000 
#    0.000    0.000    0.000    0.000    0.000    0.000 
#
# Total GULP energy -148809.945091 kJ/mol
# GULP energy per Si atom -12400.828758 kJ/mol
# Density = 2.418078 g / cm^3
# Si number density = 24.235944 Si / 1000 Ang^3
#
#
#
# Elastic Constant Matrix: (Units=GPa)
#
#
# Indices 1 2 3 4 5 6 
#
# 1 164.6388 53.8802 42.9512 -9.3992 -22.0871 -10.7278
# 2 53.8802 147.3027 42.4280 -4.3690 -0.2830 16.1661
# 3 42.9512 42.4280 54.2417 -9.0239 15.6314 -0.2747
# 4 -9.3992 -4.3690 -9.0239 31.0386 -3.5516 -2.8606
# 5 -22.0871 -0.2830 15.6314 -3.5516 55.7004 1.1244
# 6 -10.7278 16.1661 -0.2747 -2.8606 1.1244 43.5230
#
#
#
# Elastic Compliance Matrix: (Units=1/GPa)
#
#
# Indices 1 2 3 4 5 6 
#
# 1 0.009768 -0.001500 -0.008098 0.001360 0.006167 0.002844
# 2 -0.001500 0.009824 -0.007168 -0.001374 0.001464 -0.004192
# 3 -0.008098 -0.007168 0.035043 0.005411 -0.012768 0.001573
# 4 0.001360 -0.001374 0.005411 0.034428 0.001146 0.003113
# 5 0.006167 0.001464 -0.012768 0.001146 0.024055 0.000350
# 6 0.002844 -0.004192 0.001573 0.003113 0.000350 0.025440
#
#
# Mechanical properties :
#
#
# Convention : Reuss Voigt Hill
#
# Bulk Modulus (GPa) = 47.38771 71.63354 59.51063
# Shear Modulus (GPa) = 27.91347 41.18066 34.54706
#
# Velocity S-wave (km/s) = 3.39741 4.12655 3.77961
# Velocity P-wave (km/s) = 5.91481 7.23364 6.60721
#
# Compressibility (1/GPa) = 0.02110252
#
# Stress axis : x y z
#
# Youngs Moduli (GPa) = 102.37718 101.78751 28.53645
#
# Poissons Ratio (x) = 0.15272 0.23108
# Poissons Ratio (y) = 0.15360 0.20456
# Poissons Ratio (z) = 0.82901 0.72964
#
# Static dielectric constant tensor:
#      x y z
#    x 4.664060 -0.081380 -0.304360 
#    y -0.081380 4.756880 0.182960 
#    z -0.304360 0.182960 4.317960 
# 
# 
# High freq. dielectric constant tensor:
#      x y z
#    x 1.984400 0.008520 -0.015850 
#    y 0.008520 1.969590 0.005520 
#    z -0.015850 0.005520 1.954380 
# 
# From -- ./inp_files/159043.got.cif
#   From: 2010.06.25/outbox.cif.g09.slc.cpg/sg2_80_cif.got.tgz:159043.got - 2010.06.27 13:26:56.
