data_PCOD8032113
_publ_section_title
;
Structure prediction by ZEFSAII (Michael W. Deem and Ramdas Pophale) SiO2 
 PCOD8032113
Probable space group: P -1
;
_chemical_formula_sum "Si O2"
_cell_formula_units_Z 12
_cell_length_a 11.342438
_cell_length_b 8.695555
_cell_length_c 9.111740
_cell_angle_alpha 46.511623
_cell_angle_beta 116.211481
_cell_angle_gamma 123.210350
_cell_volume 542.398009
_symmetry_space_group_name_H-M "P -1"
_symmetry_group_IT_number 2
_symmetry_cell_setting 'triclinic'
loop_
_space_group_symop_operation_xyz
x,y,z
-x,-y,-z
loop_
_atom_site_type_symbol
_atom_site_label
_atom_site_fract_x
_atom_site_fract_y
_atom_site_fract_z
Si Si1 0.352866 0.644663 0.724474
Si Si2 0.969510 0.130368 0.261317
Si Si3 0.473593 0.715936 0.280664
Si Si4 0.214783 0.563569 0.013909
Si Si5 0.374019 0.979829 0.286492
Si Si6 0.271728 0.165094 0.858970
O O1 0.276573 0.563382 0.888203
O O2 0.299671 0.820258 0.489137
O O3 0.324384 0.432987 0.740414
O O4 0.520916 0.772252 0.760610
O O5 0.872316 0.272576 0.151366
O O6 0.884068 0.928933 0.234007
O O7 0.000000 0.000000 0.500000
O O8 0.116062 0.300737 0.162611
O O9 0.500000 0.500000 0.500000
O O10 0.465149 0.867303 0.315171
O O11 0.608994 0.871564 0.156014
O O12 0.331457 0.640843 0.154797
O O13 0.256407 0.020180 0.095145
#
# Coordination Sequence:
#
# PCOD8032113 Si02
#       6
#     2   2   2   2   2   2
#     4  11  25  40  67 104 140 171 217 280 347 395
#     4  11  26  46  71  95 132 184 234 271 331 403
#     4  12  22  41  73  99 131 177 227 273 332 401
#     4  11  25  46  67  99 138 176 224 285 328 397
#     4  11  23  41  64 102 138 175 214 278 334 395
#     4  12  23  42  70 100 136 176 224 276 337 399
#
# _framework density 22.123972999999999
#
# number of rings (size 3 to 8) (size 9 to 14) (size 15 to 20)
#    0.000    0.667    5.000    3.000    0.000    2.000 
#    0.000    1.667    0.000    0.000    0.000    0.000 
#    0.000    0.000    0.000    0.000    0.000    0.000 
#
# Total GULP energy -148818.169871 kJ/mol
# GULP energy per Si atom -12401.514156 kJ/mol
# Density = 2.207362 g / cm^3
# Si number density = 22.123973 Si / 1000 Ang^3
#
#
#
# Elastic Constant Matrix: (Units=GPa)
#
#
# Indices 1 2 3 4 5 6 
#
# 1 39.3061 29.7402 29.9125 -2.4749 -8.3098 13.8321
# 2 29.7402 162.8889 60.4306 6.0507 -2.3312 10.1533
# 3 29.9125 60.4306 190.9924 8.8545 1.9896 25.2139
# 4 -2.4749 6.0507 8.8545 37.7172 3.8239 4.1783
# 5 -8.3098 -2.3312 1.9896 3.8239 31.5410 1.4824
# 6 13.8321 10.1533 25.2139 4.1783 1.4824 31.5172
#
#
#
# Elastic Compliance Matrix: (Units=1/GPa)
#
#
# Indices 1 2 3 4 5 6 
#
# 1 0.039032 -0.005184 -0.002916 0.004619 0.010193 -0.014219
# 2 -0.005184 0.007682 -0.001737 -0.001257 -0.000601 0.001385
# 3 -0.002916 -0.001737 0.006745 -0.001017 -0.001040 -0.003373
# 4 0.004619 -0.001257 -0.001017 0.027948 -0.001992 -0.004420
# 5 0.010193 -0.000601 -0.001040 -0.001992 0.034879 -0.004824
# 6 -0.014219 0.001385 -0.003373 -0.004420 -0.004824 0.041034
#
#
# Mechanical properties :
#
#
# Convention : Reuss Voigt Hill
#
# Bulk Modulus (GPa) = 29.59843 70.37265 49.98554
# Shear Modulus (GPa) = 26.55931 38.36202 32.46067
#
# Velocity S-wave (km/s) = 3.46855 4.16860 3.83458
# Velocity P-wave (km/s) = 5.42666 7.41937 6.49983
#
# Compressibility (1/GPa) = 0.03378558
#
# Stress axis : x y z
#
# Youngs Moduli (GPa) = 25.61969 130.17749 148.24947
#
# Poissons Ratio (x) = 0.67485 0.43230
# Poissons Ratio (y) = 0.13282 0.25750
# Poissons Ratio (z) = 0.07471 0.22611
#
# Static dielectric constant tensor:
#      x y z
#    x 3.741970 0.009260 -0.080690 
#    y 0.009260 4.252910 0.003670 
#    z -0.080690 0.003670 4.330070 
# 
# 
# High freq. dielectric constant tensor:
#      x y z
#    x 1.834360 -0.006170 -0.005320 
#    y -0.006170 1.887240 -0.003910 
#    z -0.005320 -0.003910 1.902650 
# 
# From -- ./inp_files/176204.got.cif
#   From: 2010.06.25/outbox.cif.g09.slc.cpg/sg2_89_cif.got.tgz:176204.got - 2010.06.27 13:26:56.
