data_PCOD8032606
_publ_section_title
;
Structure prediction by ZEFSAII (Michael W. Deem and Ramdas Pophale) SiO2 
 PCOD8032606
Probable space group: P -1
;
_chemical_formula_sum "Si O2"
_cell_formula_units_Z 14
_cell_length_a 9.007651
_cell_length_b 5.085771
_cell_length_c 18.815235
_cell_angle_alpha 113.159737
_cell_angle_beta 118.955664
_cell_angle_gamma 53.599001
_cell_volume 600.124098
_symmetry_space_group_name_H-M "P -1"
_symmetry_group_IT_number 2
_symmetry_cell_setting 'triclinic'
loop_
_space_group_symop_operation_xyz
x,y,z
-x,-y,-z
loop_
_atom_site_type_symbol
_atom_site_label
_atom_site_fract_x
_atom_site_fract_y
_atom_site_fract_z
Si Si1 0.395177 0.794581 0.389816
Si Si2 0.614003 0.126383 0.838076
Si Si3 0.121845 0.243960 0.259686
Si Si4 0.620495 0.102096 0.326079
Si Si5 0.508402 0.129439 0.092377
Si Si6 0.781344 0.802140 0.478403
Si Si7 0.869560 0.981732 0.243699
O O1 0.417592 0.447812 0.331195
O O2 0.619595 0.697246 0.448141
O O3 0.309107 0.074475 0.338287
O O4 0.255360 0.923067 0.440607
O O5 0.567275 0.485328 0.887518
O O6 0.817992 0.937844 0.822176
O O7 0.440227 0.148947 0.749791
O O8 0.632118 0.926452 0.892819
O O9 0.047256 0.629097 0.272563
O O10 0.950624 0.199325 0.249829
O O11 0.753114 0.955405 0.410429
O O12 0.746066 0.176674 0.305542
O O13 0.732424 0.929630 0.150403
O O14 0.500000 0.000000 0.000000
O O15 0.000000 0.500000 0.500000
#
# Coordination Sequence:
#
# PCOD8032606 Si02
#       7
#     2   2   2   2   2   2   2
#     4  11  25  42  67  96 142 185 236 299 357 404
#     4  11  23  43  73  97 139 187 225 285 352 408
#     4  12  23  44  66 104 137 179 238 289 338 411
#     4  11  23  43  67  95 135 188 238 288 344 420
#     4  11  24  46  71 104 141 182 228 283 354 425
#     4  11  25  43  65  98 140 185 239 294 361 417
#     4  11  25  39  73 101 133 179 239 280 342 425
#
# _framework density 23.328510999999999
#
# number of rings (size 3 to 8) (size 9 to 14) (size 15 to 20)
#    0.000    0.857    1.429    6.857    4.000    0.571 
#    0.000    4.286    0.000    0.000    0.000    0.000 
#    0.000    0.000    0.000    0.000    0.000    0.000 
#
# Total GULP energy -173647.811072 kJ/mol
# GULP energy per Si atom -12403.415077 kJ/mol
# Density = 2.327541 g / cm^3
# Si number density = 23.328511 Si / 1000 Ang^3
#
#
#
# Elastic Constant Matrix: (Units=GPa)
#
#
# Indices 1 2 3 4 5 6 
#
# 1 116.8228 15.3198 28.4109 5.6147 -30.7234 -15.3954
# 2 15.3198 91.3216 31.6171 10.9121 -0.2149 -18.3158
# 3 28.4109 31.6171 121.2469 10.1730 -34.2241 -14.4758
# 4 5.6147 10.9121 10.1730 42.6148 -2.1641 -2.2125
# 5 -30.7234 -0.2149 -34.2241 -2.1641 31.3907 1.3246
# 6 -15.3954 -18.3158 -14.4758 -2.2125 1.3246 44.6056
#
#
#
# Elastic Compliance Matrix: (Units=1/GPa)
#
#
# Indices 1 2 3 4 5 6 
#
# 1 0.012645 -0.001990 0.002167 -0.000740 0.014514 0.003783
# 2 -0.001990 0.013840 -0.004511 -0.002377 -0.007089 0.003625
# 3 0.002167 -0.004511 0.014331 -0.001510 0.017486 0.002952
# 4 -0.000740 -0.002377 -0.001510 0.024473 -0.000679 -0.000487
# 5 0.014514 -0.007089 0.017486 -0.000679 0.064786 0.005816
# 6 0.003783 0.003625 0.002952 -0.000487 0.005816 0.025974
#
#
# Mechanical properties :
#
#
# Convention : Reuss Voigt Hill
#
# Bulk Modulus (GPa) = 31.10744 53.34299 42.22522
# Shear Modulus (GPa) = 28.50062 40.65844 34.57953
#
# Velocity S-wave (km/s) = 3.49909 4.17929 3.85422
# Velocity P-wave (km/s) = 5.44869 6.79737 6.16006
#
# Compressibility (1/GPa) = 0.03214665
#
# Stress axis : x y z
#
# Youngs Moduli (GPa) = 79.08097 72.25210 69.77775
#
# Poissons Ratio (x) = 0.14379 -0.15117
# Poissons Ratio (y) = 0.15738 0.31480
# Poissons Ratio (z) = -0.17133 0.32597
#
# Static dielectric constant tensor:
#      x y z
#    x 4.377500 -0.118260 -0.240580 
#    y -0.118260 4.190820 0.076440 
#    z -0.240580 0.076440 4.140460 
# 
# 
# High freq. dielectric constant tensor:
#      x y z
#    x 1.939140 -0.000150 -0.018520 
#    y -0.000150 1.927400 0.008510 
#    z -0.018520 0.008510 1.907230 
# 
# From -- ./inp_files/112181.got.cif
#   From: 2010.06.25/outbox.cif.g09.slc.cpg/sg2_57_cif.got.tgz:112181.got - 2010.06.27 13:26:56.
