data_PCOD8032790
_publ_section_title
;
Structure prediction by ZEFSAII (Michael W. Deem and Ramdas Pophale) SiO2 
 PCOD8032790
Probable space group: P -1
;
_chemical_formula_sum "Si O2"
_cell_formula_units_Z 16
_cell_length_a 11.942101
_cell_length_b 29.540919
_cell_length_c 17.448832
_cell_angle_alpha 20.221825
_cell_angle_beta 19.603209
_cell_angle_gamma 28.979970
_cell_volume 711.617917
_symmetry_space_group_name_H-M "P -1"
_symmetry_group_IT_number 2
_symmetry_cell_setting 'triclinic'
loop_
_space_group_symop_operation_xyz
x,y,z
-x,-y,-z
loop_
_atom_site_type_symbol
_atom_site_label
_atom_site_fract_x
_atom_site_fract_y
_atom_site_fract_z
Si Si1 0.433068 0.913082 0.543891
Si Si2 0.748463 0.690755 0.769209
Si Si3 0.614926 0.019482 0.709113
Si Si4 0.463165 0.732298 0.288521
Si Si5 0.180011 0.206005 0.775859
Si Si6 0.383272 0.805198 0.959574
Si Si7 0.305867 0.361122 0.855221
Si Si8 0.427480 0.602238 0.676842
O O1 0.675174 0.794262 0.585480
O O2 0.443488 0.944143 0.398642
O O3 0.579881 0.038742 0.298060
O O4 0.062672 0.870379 0.883569
O O5 0.660497 0.758752 0.797139
O O6 0.130971 0.657489 0.584160
O O7 0.533849 0.553000 0.109530
O O8 0.493629 0.125492 0.678470
O O9 0.000000 0.000000 0.500000
O O10 0.407403 0.885936 0.081419
O O11 0.761641 0.702504 0.084656
O O12 0.556043 0.676854 0.398700
O O13 0.334141 0.343161 0.494572
O O14 0.977277 0.233976 0.784553
O O15 0.438575 0.729234 0.122971
O O16 0.500000 0.500000 0.500000
O O17 0.954996 0.366101 0.115656
#
# Coordination Sequence:
#
# PCOD8032790 Si02
#       8
#     2   2   2   2   2   2   2   2
#     4  11  25  46  70 102 141 179 233 288 340 412
#     4  11  23  43  72  99 137 184 234 277 345 412
#     4  12  26  43  69 104 138 181 231 283 353 409
#     4  12  23  41  72  99 135 183 227 288 337 404
#     4  11  27  44  69 102 142 184 224 289 349 398
#     4  11  23  46  71 103 137 179 236 282 339 417
#     4  12  24  42  72 103 137 179 232 282 341 409
#     4  12  26  46  67 105 142 183 230 283 345 410
#
# _framework density 22.483975000000001
#
# number of rings (size 3 to 8) (size 9 to 14) (size 15 to 20)
#    0.000    0.500    3.750    5.625    1.750    4.000 
#    0.000    3.750    0.000    0.000    0.000    0.000 
#    0.000    0.000    0.000    0.000    0.000    0.000 
#
# Total GULP energy -198400.283672 kJ/mol
# GULP energy per Si atom -12400.017730 kJ/mol
# Density = 2.243280 g / cm^3
# Si number density = 22.483975 Si / 1000 Ang^3
#
#
#
# Elastic Constant Matrix: (Units=GPa)
#
#
# Indices 1 2 3 4 5 6 
#
# 1 116.3427 39.3971 48.1606 -20.7801 -2.4679 1.2378
# 2 39.3971 91.9358 26.0458 -21.1811 3.5194 -2.0744
# 3 48.1606 26.0458 94.8157 -25.8035 -7.6762 -6.4907
# 4 -20.7801 -21.1811 -25.8035 38.7147 -0.8104 -7.0624
# 5 -2.4679 3.5194 -7.6762 -0.8104 34.6897 -0.1114
# 6 1.2378 -2.0744 -6.4907 -7.0624 -0.1114 32.4685
#
#
#
# Elastic Compliance Matrix: (Units=1/GPa)
#
#
# Indices 1 2 3 4 5 6 
#
# 1 0.012052 -0.003580 -0.004976 0.000926 0.000136 -0.001481
# 2 -0.003580 0.013982 -0.000420 0.005817 -0.001623 0.002205
# 3 -0.004976 -0.000420 0.016299 0.009021 0.003523 0.005396
# 4 0.000926 0.005817 0.009021 0.037449 0.002380 0.010294
# 5 0.000136 -0.001623 0.003523 0.002380 0.029841 0.001216
# 6 -0.001481 0.002205 0.005396 0.010294 0.001216 0.034318
#
#
# Mechanical properties :
#
#
# Convention : Reuss Voigt Hill
#
# Bulk Modulus (GPa) = 41.01625 58.92235 49.96930
# Shear Modulus (GPa) = 29.40813 33.80729 31.60771
#
# Velocity S-wave (km/s) = 3.62050 3.88186 3.75345
# Velocity P-wave (km/s) = 5.97991 6.80845 6.40759
#
# Compressibility (1/GPa) = 0.02438058
#
# Stress axis : x y z
#
# Youngs Moduli (GPa) = 82.97631 71.51922 61.35182
#
# Poissons Ratio (x) = 0.25603 0.30531
# Poissons Ratio (y) = 0.29705 0.02577
# Poissons Ratio (z) = 0.41293 0.03004
#
# Static dielectric constant tensor:
#      x y z
#    x 4.354730 0.166200 0.080520 
#    y 0.166200 4.615980 -0.168210 
#    z 0.080520 -0.168210 4.170220 
# 
# 
# High freq. dielectric constant tensor:
#      x y z
#    x 1.889970 0.012080 0.003420 
#    y 0.012080 1.897370 -0.005110 
#    z 0.003420 -0.005110 1.885840 
# 
# From -- ./inp_files/278874.got.cif
#   From: 2010.06.25/outbox.cif.g09.slc.cpg/sg2_140_cif.got.tgz:278874.got - 2010.06.27 13:26:56.
