data_PCOD8032551
_publ_section_title
;
Structure prediction by ZEFSAII (Michael W. Deem and Ramdas Pophale) SiO2 
 PCOD8032551
Probable space group: P -1
;
_chemical_formula_sum "Si O2"
_cell_formula_units_Z 14
_cell_length_a 10.378019
_cell_length_b 14.065327
_cell_length_c 8.396469
_cell_angle_alpha 59.973034
_cell_angle_beta 104.030336
_cell_angle_gamma 141.382802
_cell_volume 636.755906
_symmetry_space_group_name_H-M "P -1"
_symmetry_group_IT_number 2
_symmetry_cell_setting 'triclinic'
loop_
_space_group_symop_operation_xyz
x,y,z
-x,-y,-z
loop_
_atom_site_type_symbol
_atom_site_label
_atom_site_fract_x
_atom_site_fract_y
_atom_site_fract_z
Si Si1 0.542363 0.337899 0.987589
Si Si2 0.513305 0.291458 0.385951
Si Si3 0.866068 0.625413 0.394471
Si Si4 0.979868 0.655788 0.732492
Si Si5 0.336640 0.385622 0.389378
Si Si6 0.282388 0.973177 0.076148
Si Si7 0.384446 0.983688 0.748062
O O1 0.484216 0.300443 0.185900
O O2 0.388962 0.156429 0.999558
O O3 0.501171 0.432097 0.820423
O O4 0.794146 0.465106 0.929005
O O5 0.757921 0.472963 0.363164
O O6 0.361314 0.272806 0.460314
O O7 0.451279 0.125729 0.533710
O O8 0.673740 0.580180 0.452415
O O9 0.975284 0.621687 0.570303
O O10 0.039403 0.813333 0.200301
O O11 0.212719 0.794287 0.764267
O O12 0.904527 0.736160 0.643249
O O13 0.407363 0.952743 0.208771
O O14 0.278535 0.960958 0.895287
#
# Coordination Sequence:
#
# PCOD8032551 Si02
#       7
#     2   2   2   2   2   2   2
#     4   9  21  38  61  86 121 152 188 244 284 351
#     4  12  20  38  64  89 120 153 194 232 302 338
#     4   9  21  37  61  86 119 153 193 240 281 354
#     4   8  20  40  57  90 113 154 191 234 298 329
#     4   8  21  40  60  88 121 149 193 241 286 352
#     4  11  23  43  56  87 119 150 209 232 295 338
#     4  11  24  38  64  83 116 160 190 253 280 350
#
# _framework density 21.986449
#
# number of rings (size 3 to 8) (size 9 to 14) (size 15 to 20)
#    1.714    0.286    0.000    4.286    0.000    4.000 
#    0.000    1.429    0.000    0.000    0.000    0.000 
#    0.000    0.000    0.000    0.000    0.000    0.000 
#
# Total GULP energy -173460.051644 kJ/mol
# GULP energy per Si atom -12390.003689 kJ/mol
# Density = 2.193641 g / cm^3
# Si number density = 21.986449 Si / 1000 Ang^3
#
#
#
# Elastic Constant Matrix: (Units=GPa)
#
#
# Indices 1 2 3 4 5 6 
#
# 1 30.2889 -6.3078 11.5258 -6.5555 -0.1776 -3.0479
# 2 -6.3078 74.9033 4.5102 -0.9369 -0.8484 9.1701
# 3 11.5258 4.5102 77.3450 -0.4277 4.8074 7.3094
# 4 -6.5555 -0.9369 -0.4277 44.7718 2.1695 -4.9878
# 5 -0.1776 -0.8484 4.8074 2.1695 25.2100 -3.9033
# 6 -3.0479 9.1701 7.3094 -4.9878 -3.9033 17.8869
#
#
#
# Elastic Compliance Matrix: (Units=1/GPa)
#
#
# Indices 1 2 3 4 5 6 
#
# 1 0.038773 0.002497 -0.007070 0.006719 0.002784 0.010697
# 2 0.002497 0.014429 -0.000536 -0.000081 -0.000452 -0.006874
# 3 -0.007070 -0.000536 0.015057 -0.001644 -0.004104 -0.008437
# 4 0.006719 -0.000081 -0.001644 0.024273 -0.000409 0.008538
# 5 0.002784 -0.000452 -0.004104 -0.000409 0.042269 0.011493
# 6 0.010697 -0.006874 -0.008437 0.008538 0.011493 0.069590
#
#
# Mechanical properties :
#
#
# Convention : Reuss Voigt Hill
#
# Bulk Modulus (GPa) = 17.22968 22.44373 19.83671
# Shear Modulus (GPa) = 21.37159 29.09433 25.23296
#
# Velocity S-wave (km/s) = 3.12113 3.64164 3.39139
# Velocity P-wave (km/s) = 4.56532 5.28320 4.93732
#
# Compressibility (1/GPa) = 0.05803939
#
# Stress axis : x y z
#
# Youngs Moduli (GPa) = 25.79134 69.30727 66.41312
#
# Poissons Ratio (x) = -0.17305 0.46955
# Poissons Ratio (y) = -0.06440 0.03561
# Poissons Ratio (z) = 0.18235 0.03716
#
# Static dielectric constant tensor:
#      x y z
#    x 3.625520 0.057810 -0.114150 
#    y 0.057810 3.824300 0.162740 
#    z -0.114150 0.162740 3.910840 
# 
# 
# High freq. dielectric constant tensor:
#      x y z
#    x 1.839370 0.009260 -0.005560 
#    y 0.009260 1.865120 0.012450 
#    z -0.005560 0.012450 1.870610 
# 
# From -- ./inp_files/267157.got.cif
#   From: 2010.06.25/outbox.cif.g09.slc.cpg/sg2_134_cif.got.tgz:267157.got - 2010.06.27 13:26:56.
