data_PCOD8032578
_publ_section_title
;
Structure prediction by ZEFSAII (Michael W. Deem and Ramdas Pophale) SiO2 
 PCOD8032578
Probable space group: P -1
;
_chemical_formula_sum "Si O2"
_cell_formula_units_Z 12
_cell_length_a 17.900459
_cell_length_b 5.303172
_cell_length_c 4.953281
_cell_angle_alpha 89.438674
_cell_angle_beta 80.391317
_cell_angle_gamma 92.537461
_cell_volume 463.089271
_symmetry_space_group_name_H-M "P -1"
_symmetry_group_IT_number 2
_symmetry_cell_setting 'triclinic'
loop_
_space_group_symop_operation_xyz
x,y,z
-x,-y,-z
loop_
_atom_site_type_symbol
_atom_site_label
_atom_site_fract_x
_atom_site_fract_y
_atom_site_fract_z
Si Si1 0.581655 0.113579 0.383888
Si Si2 0.416952 0.584478 0.119207
Si Si3 0.739216 0.010585 0.312601
Si Si4 0.740235 0.540863 0.980533
Si Si5 0.152639 0.751524 0.368595
Si Si6 0.951162 0.242039 0.066823
O O1 0.590266 0.367950 0.557877
O O2 0.500000 0.000000 0.500000
O O3 0.410751 0.837886 0.940497
O O4 0.650324 0.938680 0.434443
O O5 0.344605 0.404276 0.076383
O O6 0.500000 0.500000 0.000000
O O7 0.787668 0.028798 0.560855
O O8 0.772304 0.785451 0.120298
O O9 0.742041 0.283099 0.158989
O O10 0.798325 0.499767 0.695177
O O11 0.118812 0.805449 0.093890
O O12 0.082437 0.725800 0.614925
O O13 0.000000 0.500000 0.000000
O O14 0.000000 0.000000 0.000000
#
# Coordination Sequence:
#
# PCOD8032578 Si02
#       6
#     2   2   2   2   2   2
#     4  11  23  43  66 104 147 199 253 311 366 430
#     4  11  23  43  66 104 147 199 253 311 366 430
#     4  11  26  47  75 112 150 200 254 307 370 436
#     4  11  26  47  75 112 150 200 254 307 370 436
#     4  12  26  54  80 114 155 194 249 310 366 460
#     4  12  30  52  82 114 151 194 241 304 386 456
#
# _framework density 25.912932999999999
#
# number of rings (size 3 to 8) (size 9 to 14) (size 15 to 20)
#    0.000    0.667    3.333    3.000    2.333    6.667 
#    0.000    0.000    0.000    0.000    0.000    0.000 
#    0.000    0.000    0.000    0.000    0.000    0.000 
#
# Total GULP energy -148676.199949 kJ/mol
# GULP energy per Si atom -12389.683329 kJ/mol
# Density = 2.585395 g / cm^3
# Si number density = 25.912933 Si / 1000 Ang^3
#
#
#
# Elastic Constant Matrix: (Units=GPa)
#
#
# Indices 1 2 3 4 5 6 
#
# 1 178.0366 38.5378 31.7969 28.6501 -6.5574 -2.7926
# 2 38.5378 104.8793 28.2543 39.4870 6.4318 -6.8383
# 3 31.7969 28.2543 117.1248 38.0703 -5.0301 -14.6169
# 4 28.6501 39.4870 38.0703 52.8787 -2.4813 -1.3303
# 5 -6.5574 6.4318 -5.0301 -2.4813 60.3586 12.0656
# 6 -2.7926 -6.8383 -14.6169 -1.3303 12.0656 25.0236
#
#
#
# Elastic Compliance Matrix: (Units=1/GPa)
#
#
# Indices 1 2 3 4 5 6 
#
# 1 0.006403 -0.001613 -0.000883 -0.001607 0.000878 -0.000751
# 2 -0.001613 0.014379 0.000911 -0.010534 -0.003108 0.005220
# 3 -0.000883 0.000911 0.012344 -0.008951 -0.001005 0.007370
# 4 -0.001607 -0.010534 -0.008951 0.034041 0.003205 -0.008022
# 5 0.000878 -0.003108 -0.001005 0.003205 0.019118 -0.010387
# 6 -0.000751 0.005220 0.007370 -0.008022 -0.010387 0.050192
#
#
# Mechanical properties :
#
#
# Convention : Reuss Voigt Hill
#
# Bulk Modulus (GPa) = 33.38146 66.35765 49.86956
# Shear Modulus (GPa) = 33.41568 47.74897 40.58233
#
# Velocity S-wave (km/s) = 3.59491 4.29729 3.96170
# Velocity P-wave (km/s) = 5.49011 7.09125 6.34141
#
# Compressibility (1/GPa) = 0.02995675
#
# Stress axis : x y z
#
# Youngs Moduli (GPa) = 156.18395 69.54614 81.01328
#
# Poissons Ratio (x) = 0.11215 0.07152
# Poissons Ratio (y) = 0.25186 -0.07382
# Poissons Ratio (z) = 0.13788 -0.06337
#
# Static dielectric constant tensor:
#      x y z
#    x 5.492570 0.072950 0.004970 
#    y 0.072950 4.150210 0.071900 
#    z 0.004970 0.071900 5.067810 
# 
# 
# High freq. dielectric constant tensor:
#      x y z
#    x 2.066690 0.004890 -0.005720 
#    y 0.004890 2.004310 0.012800 
#    z -0.005720 0.012800 2.056030 
# 
# From -- ./inp_files/102621.got.cif
#   From: 2010.06.25/outbox.cif.g09.slc.cpg/sg2_52_cif.got.tgz:102621.got - 2010.06.27 13:26:56.
