data_PCOD8032366
_publ_section_title
;
Structure prediction by ZEFSAII (Michael W. Deem and Ramdas Pophale) SiO2 
 PCOD8032366
Probable space group: P -1
;
_chemical_formula_sum "Si O2"
_cell_formula_units_Z 14
_cell_length_a 9.262121
_cell_length_b 21.147168
_cell_length_c 5.942987
_cell_angle_alpha 98.599095
_cell_angle_beta 82.091684
_cell_angle_gamma 37.443981
_cell_volume 632.977234
_symmetry_space_group_name_H-M "P -1"
_symmetry_group_IT_number 2
_symmetry_cell_setting 'triclinic'
loop_
_space_group_symop_operation_xyz
x,y,z
-x,-y,-z
loop_
_atom_site_type_symbol
_atom_site_label
_atom_site_fract_x
_atom_site_fract_y
_atom_site_fract_z
Si Si1 0.938530 0.490316 0.758799
Si Si2 0.247727 0.258505 0.432207
Si Si3 0.675459 0.293580 0.986672
Si Si4 0.498501 0.929241 0.375873
Si Si5 0.036375 0.853816 0.553538
Si Si6 0.244023 0.863052 0.867312
Si Si7 0.935230 0.778957 0.844087
O O1 0.633111 0.586307 0.871578
O O2 0.000000 0.500000 0.500000
O O3 0.097160 0.366644 0.665822
O O4 0.000000 0.500000 0.000000
O O5 0.398422 0.156617 0.508896
O O6 0.474008 0.206476 0.197473
O O7 0.034736 0.296013 0.353285
O O8 0.777063 0.185192 0.969610
O O9 0.801757 0.305150 0.110849
O O10 0.790424 0.257845 0.693150
O O11 0.500000 0.000000 0.500000
O O12 0.675043 0.860305 0.082528
O O13 0.195764 0.020500 0.444670
O O14 0.238755 0.829361 0.609381
O O15 0.885176 0.862150 0.761966
O O16 0.000000 0.000000 0.000000
#
# Coordination Sequence:
#
# PCOD8032366 Si02
#       7
#     2   2   2   2   2   2   2
#     4  12  29  53  78 108 149 197 250 312 370 436
#     4  12  26  44  72 107 141 194 246 297 371 444
#     4  11  24  46  71 100 142 188 241 306 367 429
#     4  12  23  41  68 106 147 189 232 300 370 440
#     4  11  23  42  68 101 146 187 236 302 367 437
#     4  11  24  39  67 105 139 183 239 300 366 443
#     4  11  24  42  70 106 144 187 243 294 378 439
#
# _framework density 22.117698000000001
#
# number of rings (size 3 to 8) (size 9 to 14) (size 15 to 20)
#    0.000    0.571    4.286    3.000    6.000    5.143 
#    0.000    2.857    0.000    0.000    0.000    0.000 
#    0.000    0.000    0.000    0.000    0.000    0.000 
#
# Total GULP energy -173472.175175 kJ/mol
# GULP energy per Si atom -12390.869655 kJ/mol
# Density = 2.206736 g / cm^3
# Si number density = 22.117698 Si / 1000 Ang^3
#
#
#
# Elastic Constant Matrix: (Units=GPa)
#
#
# Indices 1 2 3 4 5 6 
#
# 1 133.4701 29.8233 37.9040 3.0243 20.8213 -19.5333
# 2 29.8233 43.3451 8.9941 9.6164 13.6975 -17.9443
# 3 37.9040 8.9941 94.1485 -0.5171 9.3637 -16.8031
# 4 3.0243 9.6164 -0.5171 38.6321 -5.1564 -4.0371
# 5 20.8213 13.6975 9.3637 -5.1564 43.8096 5.0568
# 6 -19.5333 -17.9443 -16.8031 -4.0371 5.0568 43.1775
#
#
#
# Elastic Compliance Matrix: (Units=1/GPa)
#
#
# Indices 1 2 3 4 5 6 
#
# 1 0.010108 -0.004710 -0.003013 0.000144 -0.002878 0.001794
# 2 -0.004710 0.038425 0.002222 -0.009312 -0.013120 0.015369
# 3 -0.003013 0.002222 0.012734 0.000017 -0.002539 0.004815
# 4 0.000144 -0.009312 0.000017 0.028859 0.006450 -0.001855
# 5 -0.002878 -0.013120 -0.002539 0.006450 0.030839 -0.010751
# 6 0.001794 0.015369 0.004815 -0.001855 -0.010751 0.033319
#
#
# Mechanical properties :
#
#
# Convention : Reuss Voigt Hill
#
# Bulk Modulus (GPa) = 19.89384 47.15628 33.52506
# Shear Modulus (GPa) = 27.46651 38.07331 32.76991
#
# Velocity S-wave (km/s) = 3.52779 4.15347 3.85335
# Velocity P-wave (km/s) = 5.06041 6.66098 5.91508
#
# Compressibility (1/GPa) = 0.05026682
#
# Stress axis : x y z
#
# Youngs Moduli (GPa) = 98.92730 26.02484 78.52968
#
# Poissons Ratio (x) = 0.12257 0.23657
# Poissons Ratio (y) = 0.46594 -0.17451
# Poissons Ratio (z) = 0.29802 -0.05783
#
# Static dielectric constant tensor:
#      x y z
#    x 4.275920 -0.020860 0.177340 
#    y -0.020860 2.279380 -0.456240 
#    z 0.177340 -0.456240 4.266700 
# 
# 
# High freq. dielectric constant tensor:
#      x y z
#    x 1.882760 -0.009970 0.002270 
#    y -0.009970 1.858470 -0.006230 
#    z 0.002270 -0.006230 1.880560 
# 
# From -- ./inp_files/23059.got.cif
#   From: 2010.06.25/outbox.cif.g09.slc.cpg/sg2_12_cif.got.tgz:23059.got - 2010.06.27 13:26:56.
