data_PCOD8032144
_publ_section_title
;
Structure prediction by ZEFSAII (Michael W. Deem and Ramdas Pophale) SiO2 
 PCOD8032144
Probable space group: P -1
;
_chemical_formula_sum "Si O2"
_cell_formula_units_Z 16
_cell_length_a 13.362655
_cell_length_b 11.405640
_cell_length_c 11.443588
_cell_angle_alpha 79.230774
_cell_angle_beta 61.226209
_cell_angle_gamma 31.336189
_cell_volume 692.154946
_symmetry_space_group_name_H-M "P -1"
_symmetry_group_IT_number 2
_symmetry_cell_setting 'triclinic'
loop_
_space_group_symop_operation_xyz
x,y,z
-x,-y,-z
loop_
_atom_site_type_symbol
_atom_site_label
_atom_site_fract_x
_atom_site_fract_y
_atom_site_fract_z
Si Si1 0.237777 0.668347 0.178437
Si Si2 0.735887 0.513811 0.214010
Si Si3 0.007332 0.358504 0.499575
Si Si4 0.132111 0.268276 0.186675
Si Si5 0.293060 0.905046 0.548702
Si Si6 0.115304 0.981779 0.030684
Si Si7 0.511427 0.692278 0.714990
Si Si8 0.351392 0.322581 0.029628
O O1 0.298073 0.733886 0.059290
O O2 0.392021 0.523453 0.241096
O O3 0.280485 0.504380 0.112834
O O4 0.947385 0.954972 0.324678
O O5 0.477493 0.704352 0.376342
O O6 0.878660 0.482065 0.216309
O O7 0.691301 0.608064 0.094334
O O8 0.902580 0.241095 0.174948
O O9 0.725145 0.586211 0.642373
O O10 0.000000 0.500000 0.500000
O O11 0.093154 0.248750 0.340972
O O12 0.190672 0.131835 0.534619
O O13 0.181779 0.364692 0.148514
O O14 0.361777 0.982082 0.053402
O O15 0.462028 0.737819 0.598498
O O16 0.262740 0.948611 0.882221
O O17 0.000000 0.000000 0.000000
#
# Coordination Sequence:
#
# PCOD8032144 Si02
#       8
#     2   2   2   2   2   2   2   2
#     4  11  24  46  69 100 134 180 228 279 335 401
#     4  12  24  43  67  99 140 174 222 283 333 403
#     4  11  24  43  67  99 139 180 224 276 336 405
#     4  11  23  41  66 102 131 179 224 271 345 396
#     4  11  23  43  65  98 138 175 220 277 339 403
#     4  12  24  45  71  99 133 181 232 279 338 393
#     4  11  23  44  68  96 134 175 228 274 333 408
#     4  11  23  43  69  95 140 173 224 284 327 405
#
# _framework density 23.116211
#
# number of rings (size 3 to 8) (size 9 to 14) (size 15 to 20)
#    0.000    0.750    5.000    3.000    0.000    2.000 
#    4.500    0.625    0.000    0.000    0.000    0.000 
#    0.000    0.000    0.000    0.000    0.000    0.000 
#
# Total GULP energy -198261.275392 kJ/mol
# GULP energy per Si atom -12391.329712 kJ/mol
# Density = 2.306360 g / cm^3
# Si number density = 23.116211 Si / 1000 Ang^3
#
#
#
# Elastic Constant Matrix: (Units=GPa)
#
#
# Indices 1 2 3 4 5 6 
#
# 1 51.8625 27.8438 41.0626 -1.7114 -0.2159 -5.3140
# 2 27.8438 123.7889 37.4194 -24.2692 11.2141 -12.9366
# 3 41.0626 37.4194 139.6482 -3.6366 -16.0293 4.3933
# 4 -1.7114 -24.2692 -3.6366 53.0648 -3.2797 6.1905
# 5 -0.2159 11.2141 -16.0293 -3.2797 22.4287 -4.4158
# 6 -5.3140 -12.9366 4.3933 6.1905 -4.4158 44.8864
#
#
#
# Elastic Compliance Matrix: (Units=1/GPa)
#
#
# Indices 1 2 3 4 5 6 
#
# 1 0.027480 -0.003674 -0.007581 -0.001838 -0.003015 0.002893
# 2 -0.003674 0.011339 -0.002666 0.004259 -0.006622 0.001855
# 3 -0.007581 -0.002666 0.011186 0.000074 0.008892 -0.001896
# 4 -0.001838 0.004259 0.000074 0.020990 0.000614 -0.001832
# 5 -0.003015 -0.006622 0.008892 0.000614 0.054738 0.002165
# 6 0.002893 0.001855 -0.001896 -0.001832 0.002165 0.023807
#
#
# Mechanical properties :
#
#
# Convention : Reuss Voigt Hill
#
# Bulk Modulus (GPa) = 45.11744 58.66125 51.88934
# Shear Modulus (GPa) = 27.06073 38.00758 32.53415
#
# Velocity S-wave (km/s) = 3.42517 4.05927 3.75563
# Velocity P-wave (km/s) = 5.93316 6.88491 6.42668
#
# Compressibility (1/GPa) = 0.02216438
#
# Stress axis : x y z
#
# Youngs Moduli (GPa) = 36.39057 88.18949 89.39476
#
# Poissons Ratio (x) = 0.32403 0.67767
# Poissons Ratio (y) = 0.13371 0.23828
# Poissons Ratio (z) = 0.27586 0.23507
#
# Static dielectric constant tensor:
#      x y z
#    x 3.833580 -0.054940 -0.689980 
#    y -0.054940 4.199220 0.675800 
#    z -0.689980 0.675800 2.718000 
# 
# 
# High freq. dielectric constant tensor:
#      x y z
#    x 1.887140 -0.020180 -0.022540 
#    y -0.020180 1.930150 -0.009860 
#    z -0.022540 -0.009860 1.941390 
# 
# From -- ./inp_files/452266.got.cif
#   From: 2010.06.25/outbox.cif.g09.slc.cpg/sg2_227_cif.got.tgz:452266.got - 2010.06.27 13:26:56.
