data_PCOD8032554
_publ_section_title
;
Structure prediction by ZEFSAII (Michael W. Deem and Ramdas Pophale) SiO2 
 PCOD8032554
Probable space group: P -1
;
_chemical_formula_sum "Si O2"
_cell_formula_units_Z 14
_cell_length_a 23.897094
_cell_length_b 9.793801
_cell_length_c 6.929638
_cell_angle_alpha 47.901585
_cell_angle_beta 45.979870
_cell_angle_gamma 35.378026
_cell_volume 653.898017
_symmetry_space_group_name_H-M "P -1"
_symmetry_group_IT_number 2
_symmetry_cell_setting 'triclinic'
loop_
_space_group_symop_operation_xyz
x,y,z
-x,-y,-z
loop_
_atom_site_type_symbol
_atom_site_label
_atom_site_fract_x
_atom_site_fract_y
_atom_site_fract_z
Si Si1 0.511809 0.390020 0.369698
Si Si2 0.609484 0.907125 0.757961
Si Si3 0.779221 0.392496 0.654773
Si Si4 0.757463 0.878199 0.722641
Si Si5 0.128323 0.947020 0.877276
Si Si6 0.345951 0.682992 0.206547
Si Si7 0.109812 0.643067 0.926661
O O1 0.500000 0.500000 0.500000
O O2 0.399017 0.518646 0.430222
O O3 0.582847 0.100416 0.479112
O O4 0.567906 0.447599 0.042082
O O5 0.679059 0.644991 0.742091
O O6 0.670847 0.904044 0.788295
O O7 0.500000 0.000000 0.000000
O O8 0.745931 0.300724 0.658779
O O9 0.851862 0.416306 0.332843
O O10 0.842157 0.194394 0.858408
O O11 0.802451 0.979710 0.395103
O O12 0.701505 0.043630 0.890286
O O13 0.846401 0.600746 0.834184
O O14 0.142409 0.779185 0.830358
O O15 0.011849 0.194721 0.937616
#
# Coordination Sequence:
#
# PCOD8032554 Si02
#       7
#     2   2   2   2   2   2   2
#     4  11  23  43  63  96 138 185 238 286 343 405
#     4  12  27  41  71 101 146 188 232 289 346 422
#     4  12  25  46  71 106 143 185 237 295 355 419
#     4  12  24  48  72 105 143 191 235 287 363 423
#     4  11  25  48  75 105 145 184 232 305 362 418
#     4  11  25  40  71  97 136 189 235 285 346 423
#     4  11  25  47  75 109 140 182 241 298 360 423
#
# _framework density 21.410066
#
# number of rings (size 3 to 8) (size 9 to 14) (size 15 to 20)
#    0.000    0.571    4.286    3.429    6.000    0.571 
#    0.000    1.429    0.000    0.000    0.000    0.000 
#    0.000    0.000    0.000    0.000    0.000    0.000 
#
# Total GULP energy -173601.381575 kJ/mol
# GULP energy per Si atom -12400.098684 kJ/mol
# Density = 2.136134 g / cm^3
# Si number density = 21.410066 Si / 1000 Ang^3
#
#
#
# Elastic Constant Matrix: (Units=GPa)
#
#
# Indices 1 2 3 4 5 6 
#
# 1 124.4256 55.2898 41.3063 1.6701 11.5782 -8.6030
# 2 55.2898 153.9979 39.6842 -9.5278 11.6973 -7.1476
# 3 41.3063 39.6842 112.5122 0.7835 8.1744 -4.4179
# 4 1.6701 -9.5278 0.7835 42.9518 0.4396 7.1080
# 5 11.5782 11.6973 8.1744 0.4396 25.4059 -1.2960
# 6 -8.6030 -7.1476 -4.4179 7.1080 -1.2960 31.9551
#
#
#
# Elastic Compliance Matrix: (Units=1/GPa)
#
#
# Indices 1 2 3 4 5 6 
#
# 1 0.010590 -0.002933 -0.002581 -0.001326 -0.002518 0.002031
# 2 -0.002933 0.008267 -0.001699 0.001947 -0.001940 0.000313
# 3 -0.002581 -0.001699 0.010558 -0.000528 -0.001407 0.000445
# 4 -0.001326 0.001947 -0.000528 0.024697 -0.000831 -0.005522
# 5 -0.002518 -0.001940 -0.001407 -0.000831 0.041898 0.000578
# 6 0.002031 0.000313 0.000445 -0.005522 0.000578 0.033224
#
#
# Mechanical properties :
#
#
# Convention : Reuss Voigt Hill
#
# Bulk Modulus (GPa) = 66.72258 73.72181 70.22219
# Shear Modulus (GPa) = 33.63419 37.03958 35.33688
#
# Velocity S-wave (km/s) = 3.96782 4.16385 4.06702
# Velocity P-wave (km/s) = 7.22657 7.59110 7.41108
#
# Compressibility (1/GPa) = 0.01498743
#
# Stress axis : x y z
#
# Youngs Moduli (GPa) = 94.42982 120.96271 94.71249
#
# Poissons Ratio (x) = 0.35483 0.24448
# Poissons Ratio (y) = 0.27700 0.16094
# Poissons Ratio (z) = 0.24375 0.20554
#
# Static dielectric constant tensor:
#      x y z
#    x 3.917700 -0.087630 0.129420 
#    y -0.087630 4.113350 -0.210010 
#    z 0.129420 -0.210010 4.206800 
# 
# 
# High freq. dielectric constant tensor:
#      x y z
#    x 1.843460 -0.007500 0.006760 
#    y -0.007500 1.857020 0.003910 
#    z 0.006760 0.003910 1.845020 
# 
# From -- ./inp_files/48382.got.cif
#   From: 2010.06.25/outbox.cif.g09.slc.cpg/sg2_25_cif.got.tgz:48382.got - 2010.06.27 13:26:56.
