data_PCOD8032560
_publ_section_title
;
Structure prediction by ZEFSAII (Michael W. Deem and Ramdas Pophale) SiO2 
 PCOD8032560
Probable space group: P -1
;
_chemical_formula_sum "Si O2"
_cell_formula_units_Z 16
_cell_length_a 18.138993
_cell_length_b 12.289166
_cell_length_c 19.944133
_cell_angle_alpha 153.552899
_cell_angle_beta 21.178873
_cell_angle_gamma 152.540056
_cell_volume 676.258385
_symmetry_space_group_name_H-M "P -1"
_symmetry_group_IT_number 2
_symmetry_cell_setting 'triclinic'
loop_
_space_group_symop_operation_xyz
x,y,z
-x,-y,-z
loop_
_atom_site_type_symbol
_atom_site_label
_atom_site_fract_x
_atom_site_fract_y
_atom_site_fract_z
Si Si1 0.736417 0.644457 0.406441
Si Si2 0.913869 0.630710 0.040069
Si Si3 0.896973 0.173055 0.138956
Si Si4 0.854786 0.709478 0.484221
Si Si5 0.597966 0.723824 0.945030
Si Si6 0.505894 0.261923 0.107314
Si Si7 0.908630 0.026646 0.366397
Si Si8 0.509234 0.164776 0.761558
O O1 0.500000 0.500000 0.500000
O O2 0.693499 0.632430 0.515437
O O3 0.838455 0.940042 0.455080
O O4 0.921540 0.519583 0.162700
O O5 0.705437 0.470480 0.086893
O O6 0.851559 0.749544 0.225187
O O7 0.027947 0.861333 0.019066
O O8 0.966446 0.480853 0.270431
O O9 0.636704 0.048430 0.284572
O O10 0.000000 0.000000 0.000000
O O11 0.720477 0.694326 0.657888
O O12 0.000000 0.000000 0.500000
O O13 0.471454 0.753076 0.000821
O O14 0.491748 0.433640 0.900011
O O15 0.565308 0.897681 0.131096
O O16 0.847602 0.796077 0.752899
O O17 0.500000 0.000000 0.000000
O O18 0.756306 0.179624 0.551692
#
# Coordination Sequence:
#
# PCOD8032560 Si02
#       8
#     2   2   2   2   2   2   2   2
#     4  11  24  42  69 104 144 190 235 300 366 436
#     4  11  23  43  65 104 139 178 241 292 363 433
#     4  11  23  46  73 103 146 191 240 300 366 434
#     4  11  25  46  69 108 144 186 247 298 373 442
#     4  11  26  47  69 104 145 190 245 300 365 435
#     4  12  25  44  70 103 145 187 243 303 366 441
#     4  12  23  43  74 100 139 185 243 298 368 436
#     4  11  25  47  71 105 143 190 246 300 363 437
#
# _framework density 23.659596000000001
#
# number of rings (size 3 to 8) (size 9 to 14) (size 15 to 20)
#    0.000    0.750    1.250    7.500    1.750    1.000 
#   11.250    2.500    0.000    0.000    0.000    0.000 
#    0.000    0.000    0.000    0.000    0.000    0.000 
#
# Total GULP energy -198234.014910 kJ/mol
# GULP energy per Si atom -12389.625932 kJ/mol
# Density = 2.360575 g / cm^3
# Si number density = 23.659596 Si / 1000 Ang^3
#
#
#
# Elastic Constant Matrix: (Units=GPa)
#
#
# Indices 1 2 3 4 5 6 
#
# 1 112.8599 30.2804 29.7341 9.3529 -11.4857 -9.8031
# 2 30.2804 98.9236 23.8074 3.1937 -13.5044 -3.3267
# 3 29.7341 23.8074 96.0481 0.0975 -11.0350 0.5807
# 4 9.3529 3.1937 0.0975 45.1572 -1.0752 -6.2417
# 5 -11.4857 -13.5044 -11.0350 -1.0752 35.1519 -0.8430
# 6 -9.8031 -3.3267 0.5807 -6.2417 -0.8430 41.3074
#
#
#
# Elastic Compliance Matrix: (Units=1/GPa)
#
#
# Indices 1 2 3 4 5 6 
#
# 1 0.010652 -0.002275 -0.002537 -0.001698 0.001810 0.002161
# 2 -0.002275 0.011703 -0.001834 -0.000213 0.003182 0.000461
# 3 -0.002537 -0.001834 0.011909 0.000573 0.002204 -0.000786
# 4 -0.001698 -0.000213 0.000573 0.022939 0.000318 0.003044
# 5 0.001810 0.003182 0.002204 0.000318 0.030995 0.001335
# 6 0.002161 0.000461 -0.000786 0.003044 0.001335 0.025257
#
#
# Mechanical properties :
#
#
# Convention : Reuss Voigt Hill
#
# Bulk Modulus (GPa) = 47.68251 52.83061 50.25656
# Shear Modulus (GPa) = 37.38668 39.25728 38.32198
#
# Velocity S-wave (km/s) = 3.97947 4.07781 4.02894
# Velocity P-wave (km/s) = 6.42746 6.67453 6.55216
#
# Compressibility (1/GPa) = 0.02097205
#
# Stress axis : x y z
#
# Youngs Moduli (GPa) = 93.87880 85.44604 83.97241
#
# Poissons Ratio (x) = 0.19443 0.21304
# Poissons Ratio (y) = 0.21362 0.15396
# Poissons Ratio (z) = 0.23817 0.15667
#
# Static dielectric constant tensor:
#      x y z
#    x 3.747100 -0.304410 -0.316110 
#    y -0.304410 4.175680 -0.243200 
#    z -0.316110 -0.243200 3.934300 
# 
# 
# High freq. dielectric constant tensor:
#      x y z
#    x 1.945300 -0.001730 -0.004180 
#    y -0.001730 1.945100 -0.010150 
#    z -0.004180 -0.010150 1.930230 
# 
# From -- ./inp_files/600124.got.cif
#   From: 2010.06.25/outbox.cif.g09.slc.cpg/sg2_301_cif.got.tgz:600124.got - 2010.06.27 13:26:56.
