data_PCOD8032564
_publ_section_title
;
Structure prediction by ZEFSAII (Michael W. Deem and Ramdas Pophale) SiO2 
 PCOD8032564
Probable space group: P -1
;
_chemical_formula_sum "Si O2"
_cell_formula_units_Z 16
_cell_length_a 21.699851
_cell_length_b 8.822105
_cell_length_c 5.383121
_cell_angle_alpha 51.238605
_cell_angle_beta 99.848645
_cell_angle_gamma 117.733557
_cell_volume 700.368567
_symmetry_space_group_name_H-M "P -1"
_symmetry_group_IT_number 2
_symmetry_cell_setting 'triclinic'
loop_
_space_group_symop_operation_xyz
x,y,z
-x,-y,-z
loop_
_atom_site_type_symbol
_atom_site_label
_atom_site_fract_x
_atom_site_fract_y
_atom_site_fract_z
Si Si1 0.069726 0.727106 0.326334
Si Si2 0.347056 0.415409 0.252236
Si Si3 0.564109 0.079516 0.271036
Si Si4 0.559659 0.741670 0.265442
Si Si5 0.658031 0.926347 0.737030
Si Si6 0.930031 0.024793 0.429238
Si Si7 0.207890 0.434132 0.183323
Si Si8 0.207029 0.672847 0.436802
O O1 0.067179 0.841499 0.461510
O O2 0.136664 0.686412 0.433409
O O3 0.000000 0.500000 0.500000
O O4 0.074832 0.864075 0.943535
O O5 0.369067 0.257186 0.585013
O O6 0.329383 0.280948 0.118452
O O7 0.276080 0.403171 0.326868
O O8 0.411433 0.663842 0.032314
O O9 0.500000 0.000000 0.500000
O O10 0.534934 0.911374 0.190600
O O11 0.638479 0.072906 0.383434
O O12 0.500000 0.500000 0.500000
O O13 0.580526 0.820342 0.920385
O O14 0.726070 0.086228 0.778314
O O15 0.861909 0.793359 0.639704
O O16 0.000000 0.000000 0.500000
O O17 0.199801 0.571814 0.262775
O O18 0.218263 0.541551 0.807848
#
# Coordination Sequence:
#
# PCOD8032564 Si02
#       8
#     2   2   2   2   2   2   2   2
#     4  12  25  45  72 104 145 187 232 293 347 409
#     4  11  25  42  66  96 134 179 231 289 353 414
#     4  11  23  43  65  94 132 174 229 287 354 420
#     4  11  25  41  65  97 131 177 231 291 353 425
#     4  11  25  42  66  95 135 176 232 289 351 420
#     4  12  25  45  72 105 143 186 238 285 349 416
#     4  12  26  45  71 103 139 186 233 290 350 418
#     4  12  26  45  71 102 141 183 235 287 355 413
#
# _framework density 22.845113999999999
#
# number of rings (size 3 to 8) (size 9 to 14) (size 15 to 20)
#    0.000    0.500    1.250    6.750    5.250    6.000 
#    0.000    0.000    0.000    0.000    0.000    0.000 
#    0.000    0.000    0.000    0.000    0.000    0.000 
#
# Total GULP energy -198261.954036 kJ/mol
# GULP energy per Si atom -12391.372127 kJ/mol
# Density = 2.279312 g / cm^3
# Si number density = 22.845114 Si / 1000 Ang^3
#
#
#
# Elastic Constant Matrix: (Units=GPa)
#
#
# Indices 1 2 3 4 5 6 
#
# 1 144.3491 30.0716 12.9177 -12.6165 3.0011 -13.0941
# 2 30.0716 181.2788 40.1558 -24.8366 -19.0609 -21.9816
# 3 12.9177 40.1558 92.7338 -10.1025 -5.3259 -4.2178
# 4 -12.6165 -24.8366 -10.1025 44.8166 2.4005 -11.1000
# 5 3.0011 -19.0609 -5.3259 2.4005 45.4380 -1.9594
# 6 -13.0941 -21.9816 -4.2178 -11.1000 -1.9594 46.9605
#
#
#
# Elastic Compliance Matrix: (Units=1/GPa)
#
#
# Indices 1 2 3 4 5 6 
#
# 1 0.007524 -0.000653 -0.000466 0.002253 -0.000847 0.002248
# 2 -0.000653 0.007575 -0.002347 0.004398 0.002899 0.004314
# 3 -0.000466 -0.002347 0.012038 0.001304 0.000396 0.000177
# 4 0.002253 0.004398 0.001304 0.027978 0.000778 0.009450
# 5 -0.000847 0.002899 0.000396 0.000778 0.023385 0.002316
# 6 0.002248 0.004314 0.000177 0.009450 0.002316 0.026287
#
#
# Mechanical properties :
#
#
# Convention : Reuss Voigt Hill
#
# Bulk Modulus (GPa) = 49.49545 64.96133 57.22839
# Shear Modulus (GPa) = 42.21051 49.79079 46.00065
#
# Velocity S-wave (km/s) = 4.30313 4.67357 4.49217
# Velocity P-wave (km/s) = 6.81190 7.59080 7.21187
#
# Compressibility (1/GPa) = 0.02020388
#
# Stress axis : x y z
#
# Youngs Moduli (GPa) = 132.91137 132.01116 83.07117
#
# Poissons Ratio (x) = 0.08615 0.03875
# Poissons Ratio (y) = 0.08674 0.19500
# Poissons Ratio (z) = 0.06199 0.30989
#
# Static dielectric constant tensor:
#      x y z
#    x 4.125090 -0.051150 0.082950 
#    y -0.051150 4.376990 0.040510 
#    z 0.082950 0.040510 4.279140 
# 
# 
# High freq. dielectric constant tensor:
#      x y z
#    x 1.928240 0.000510 0.004200 
#    y 0.000510 1.918990 -0.005220 
#    z 0.004200 -0.005220 1.909040 
# 
# From -- ./inp_files/10601.got.cif
#   From: 2010.06.25/outbox.cif.g09.slc.cpg/sg2_6_cif.got.tgz:10601.got - 2010.06.27 13:26:56.
