data_PCOD8032894
_publ_section_title
;
Structure prediction by ZEFSAII (Michael W. Deem and Ramdas Pophale) SiO2 
 PCOD8032894
Probable space group: P -1
;
_chemical_formula_sum "Si O2"
_cell_formula_units_Z 16
_cell_length_a 11.675366
_cell_length_b 9.332811
_cell_length_c 14.990406
_cell_angle_alpha 74.518938
_cell_angle_beta 26.612072
_cell_angle_gamma 82.468836
_cell_volume 682.892441
_symmetry_space_group_name_H-M "P -1"
_symmetry_group_IT_number 2
_symmetry_cell_setting 'triclinic'
loop_
_space_group_symop_operation_xyz
x,y,z
-x,-y,-z
loop_
_atom_site_type_symbol
_atom_site_label
_atom_site_fract_x
_atom_site_fract_y
_atom_site_fract_z
Si Si1 0.433805 0.360195 0.277735
Si Si2 0.956032 0.121710 0.581148
Si Si3 0.404317 0.886365 0.503642
Si Si4 0.759559 0.367753 0.572924
Si Si5 0.846833 0.900920 0.843380
Si Si6 0.813510 0.332020 0.166053
Si Si7 0.738844 0.826991 0.125559
Si Si8 0.283139 0.426416 0.090309
O O1 0.253755 0.213932 0.379387
O O2 0.240171 0.474851 0.403463
O O3 0.549392 0.306283 0.295748
O O4 0.686443 0.446352 0.029292
O O5 0.777923 0.230381 0.650049
O O6 0.000000 0.000000 0.500000
O O7 0.796593 0.036170 0.792533
O O8 0.294569 0.714052 0.650535
O O9 0.649885 0.907635 0.260606
O O10 0.161815 0.920034 0.612012
O O11 0.500000 0.000000 0.500000
O O12 0.491384 0.325295 0.709219
O O13 0.996034 0.397837 0.334443
O O14 0.682343 0.733065 0.950639
O O15 0.775367 0.928572 0.991718
O O16 0.000000 0.500000 0.000000
O O17 0.988922 0.215824 0.033219
O O18 0.500000 0.500000 0.000000
#
# Coordination Sequence:
#
# PCOD8032894 Si02
#       8
#     2   2   2   2   2   2   2   2
#     4  12  25  46  70 107 146 180 244 298 355 428
#     4  12  24  44  72 105 145 190 239 296 359 423
#     4  11  24  46  72  99 144 188 236 298 359 430
#     4  12  24  43  74 102 140 193 234 293 363 418
#     4  11  23  44  67 103 144 191 237 296 352 431
#     4  11  24  43  71 105 140 183 238 301 350 427
#     4  11  24  45  75 101 144 191 237 294 370 416
#     4  12  23  43  72 101 145 187 231 289 355 426
#
# _framework density 23.429752000000001
#
# number of rings (size 3 to 8) (size 9 to 14) (size 15 to 20)
#    0.000    0.500    6.250    1.875    0.000    4.000 
#    0.000    3.750    0.000    0.000    0.000    0.000 
#    0.000    0.000    0.000    0.000    0.000    0.000 
#
# Total GULP energy -198376.489939 kJ/mol
# GULP energy per Si atom -12398.530621 kJ/mol
# Density = 2.337642 g / cm^3
# Si number density = 23.429752 Si / 1000 Ang^3
#
#
#
# Elastic Constant Matrix: (Units=GPa)
#
#
# Indices 1 2 3 4 5 6 
#
# 1 113.5049 65.3455 39.8252 6.0968 6.9745 0.2801
# 2 65.3455 99.7453 58.6577 -2.6628 12.3905 10.1400
# 3 39.8252 58.6577 120.8216 2.6007 34.1852 -8.9578
# 4 6.0968 -2.6628 2.6007 44.2148 3.2676 -1.1734
# 5 6.9745 12.3905 34.1852 3.2676 55.7268 -2.0797
# 6 0.2801 10.1400 -8.9578 -1.1734 -2.0797 36.7471
#
#
#
# Elastic Compliance Matrix: (Units=1/GPa)
#
#
# Indices 1 2 3 4 5 6 
#
# 1 0.014682 -0.010133 0.000176 -0.002616 0.000561 0.002676
# 2 -0.010133 0.022430 -0.008497 0.002959 0.001020 -0.008031
# 3 0.000176 -0.008497 0.014726 -0.000745 -0.006917 0.005518
# 4 -0.002616 0.002959 -0.000745 0.023284 -0.001251 -0.000305
# 5 0.000561 0.001020 -0.006917 -0.001251 0.021935 -0.000770
# 6 0.002676 -0.008031 0.005518 -0.000305 -0.000770 0.030700
#
#
# Mechanical properties :
#
#
# Convention : Reuss Voigt Hill
#
# Bulk Modulus (GPa) = 66.98372 73.52539 70.25456
# Shear Modulus (GPa) = 29.47389 38.68730 34.08060
#
# Velocity S-wave (km/s) = 3.55063 4.06791 3.81804
# Velocity P-wave (km/s) = 6.74244 7.31527 7.03469
#
# Compressibility (1/GPa) = 0.01492900
#
# Stress axis : x y z
#
# Youngs Moduli (GPa) = 68.11219 44.58349 67.90748
#
# Poissons Ratio (x) = 0.45179 -0.01198
# Poissons Ratio (y) = 0.69021 0.57702
# Poissons Ratio (z) = -0.01201 0.37883
#
# Static dielectric constant tensor:
#      x y z
#    x 4.462810 -0.078140 0.144810 
#    y -0.078140 4.141450 -0.216160 
#    z 0.144810 -0.216160 4.848800 
# 
# 
# High freq. dielectric constant tensor:
#      x y z
#    x 1.938890 0.001830 -0.001360 
#    y 0.001830 1.904990 -0.014970 
#    z -0.001360 -0.014970 1.946710 
# 
# From -- ./inp_files/515292.got.cif
#   From: 2010.06.25/outbox.cif.g09.slc.cpg/sg2_258_cif.got.tgz:515292.got - 2010.06.27 13:26:56.
