data_PCOD8032546
_publ_section_title
;
Structure prediction by ZEFSAII (Michael W. Deem and Ramdas Pophale) SiO2 
 PCOD8032546
Probable space group: P -1
;
_chemical_formula_sum "Si O2"
_cell_formula_units_Z 16
_cell_length_a 8.944941
_cell_length_b 13.935226
_cell_length_c 8.794528
_cell_angle_alpha 92.492372
_cell_angle_beta 112.266547
_cell_angle_gamma 133.602297
_cell_volume 654.250743
_symmetry_space_group_name_H-M "P -1"
_symmetry_group_IT_number 2
_symmetry_cell_setting 'triclinic'
loop_
_space_group_symop_operation_xyz
x,y,z
-x,-y,-z
loop_
_atom_site_type_symbol
_atom_site_label
_atom_site_fract_x
_atom_site_fract_y
_atom_site_fract_z
Si Si1 0.457700 0.094044 0.508461
Si Si2 0.670634 0.680634 0.237545
Si Si3 0.913143 0.312731 0.115786
Si Si4 0.256813 0.323831 0.399183
Si Si5 0.058443 0.561943 0.356376
Si Si6 0.389721 0.128536 0.821939
Si Si7 0.165738 0.388980 0.918085
Si Si8 0.897984 0.931565 0.791394
O O1 0.690451 0.260945 0.545047
O O2 0.399695 0.083889 0.660458
O O3 0.215533 0.022306 0.317822
O O4 0.500000 0.000000 0.500000
O O5 0.798144 0.733168 0.453791
O O6 0.576092 0.742718 0.168878
O O7 0.863580 0.726956 0.187623
O O8 0.421259 0.501469 0.121895
O O9 0.008188 0.265159 0.243357
O O10 0.075622 0.478306 0.244620
O O11 0.616760 0.193039 0.020730
O O12 0.942385 0.307318 0.945187
O O13 0.500000 0.500000 0.500000
O O14 0.300228 0.247554 0.306541
O O15 0.000000 0.500000 0.500000
O O16 0.835052 0.528853 0.206956
O O17 0.123724 0.988358 0.784762
O O18 0.000000 0.000000 0.000000
#
# Coordination Sequence:
#
# PCOD8032546 Si02
#       8
#     2   2   2   2   2   2   2   2
#     4  12  29  52  83 112 157 214 269 323 406 492
#     4  11  24  44  75 111 150 209 256 322 400 469
#     4  12  25  46  79 116 159 202 263 331 403 471
#     4  12  26  49  81 114 159 201 264 336 402 466
#     4  12  26  46  78 122 158 200 266 343 394 472
#     4  12  27  51  78 108 160 208 264 319 403 485
#     4  11  23  42  75 115 153 203 264 322 398 475
#     4  12  32  52  78 115 161 211 267 332 407 483
#
# _framework density 24.455454
#
# number of rings (size 3 to 8) (size 9 to 14) (size 15 to 20)
#    0.000    0.250    5.000    3.000    7.000    1.500 
#    0.000    0.000    0.000    0.000    0.000    0.000 
#    0.000    0.000    0.000    0.000    0.000    0.000 
#
# Total GULP energy -198398.831910 kJ/mol
# GULP energy per Si atom -12399.926994 kJ/mol
# Density = 2.439979 g / cm^3
# Si number density = 24.455454 Si / 1000 Ang^3
#
#
#
# Elastic Constant Matrix: (Units=GPa)
#
#
# Indices 1 2 3 4 5 6 
#
# 1 175.0589 50.4813 78.7050 -4.9318 -6.1599 -23.9516
# 2 50.4813 89.8391 50.0275 6.3321 -0.2313 -3.0738
# 3 78.7050 50.0275 168.1168 -16.3979 -0.6097 -16.5178
# 4 -4.9318 6.3321 -16.3979 33.1839 -14.5772 -2.0085
# 5 -6.1599 -0.2313 -0.6097 -14.5772 59.4645 -4.4627
# 6 -23.9516 -3.0738 -16.5178 -2.0085 -4.4627 47.3850
#
#
#
# Elastic Compliance Matrix: (Units=1/GPa)
#
#
# Indices 1 2 3 4 5 6 
#
# 1 0.008305 -0.003304 -0.002425 0.001501 0.001441 0.003338
# 2 -0.003304 0.015568 -0.003975 -0.006504 -0.002106 -0.002520
# 3 -0.002425 -0.003975 0.009013 0.005563 0.001341 0.002020
# 4 0.001501 -0.006504 0.005563 0.039098 0.010139 0.004888
# 5 0.001441 -0.002106 0.001341 0.010139 0.019708 0.003345
# 6 0.003338 -0.002520 0.002020 0.004888 0.003345 0.023854
#
#
# Mechanical properties :
#
#
# Convention : Reuss Voigt Hill
#
# Bulk Modulus (GPa) = 74.20506 87.93804 81.07155
# Shear Modulus (GPa) = 35.85576 44.92676 40.39126
#
# Velocity S-wave (km/s) = 3.83321 4.29077 4.06843
# Velocity P-wave (km/s) = 7.07108 7.78358 7.43587
#
# Compressibility (1/GPa) = 0.01347617
#
# Stress axis : x y z
#
# Youngs Moduli (GPa) = 120.40589 64.23363 110.95547
#
# Poissons Ratio (x) = 0.21224 0.26910
# Poissons Ratio (y) = 0.39784 0.44110
# Poissons Ratio (z) = 0.29202 0.25536
#
# Static dielectric constant tensor:
#      x y z
#    x 4.846240 -0.098880 0.025180 
#    y -0.098880 4.235830 0.004200 
#    z 0.025180 0.004200 4.644830 
# 
# 
# High freq. dielectric constant tensor:
#      x y z
#    x 1.987140 -0.016530 0.004050 
#    y -0.016530 1.955030 0.005940 
#    z 0.004050 0.005940 1.992620 
# 
# From -- ./inp_files/207924.got.cif
#   From: 2010.06.25/outbox.cif.g09.slc.cpg/sg2_104_cif.got.tgz:207924.got - 2010.06.27 13:26:56.
