data_PCOD8032686
_publ_section_title
;
Structure prediction by ZEFSAII (Michael W. Deem and Ramdas Pophale) SiO2 
 PCOD8032686
Probable space group: P -1
;
_chemical_formula_sum "Si O2"
_cell_formula_units_Z 16
_cell_length_a 16.726674
_cell_length_b 6.049580
_cell_length_c 13.691534
_cell_angle_alpha 92.765117
_cell_angle_beta 148.391684
_cell_angle_gamma 77.975492
_cell_volume 687.267222
_symmetry_space_group_name_H-M "P -1"
_symmetry_group_IT_number 2
_symmetry_cell_setting 'triclinic'
loop_
_space_group_symop_operation_xyz
x,y,z
-x,-y,-z
loop_
_atom_site_type_symbol
_atom_site_label
_atom_site_fract_x
_atom_site_fract_y
_atom_site_fract_z
Si Si1 0.159249 0.047724 0.129214
Si Si2 0.007072 0.608328 0.181905
Si Si3 0.322252 0.137729 0.937263
Si Si4 0.349524 0.851244 0.138372
Si Si5 0.293709 0.179596 0.456855
Si Si6 0.390759 0.751004 0.850876
Si Si7 0.857827 0.385906 0.182434
Si Si8 0.867311 0.051908 0.559087
O O1 0.283491 0.031609 0.346399
O O2 0.252640 0.869223 0.138673
O O3 0.101439 0.303732 0.025012
O O4 0.000000 0.000000 0.000000
O O5 0.180344 0.441756 0.326594
O O6 0.026938 0.833360 0.262851
O O7 0.927965 0.453949 0.158624
O O8 0.193182 0.397314 0.788294
O O9 0.297169 0.926224 0.843629
O O10 0.500782 0.133692 0.096379
O O11 0.304532 0.092607 0.033540
O O12 0.536731 0.779957 0.353381
O O13 0.307658 0.662087 0.021403
O O14 0.248175 0.053864 0.500558
O O15 0.243411 0.750332 0.625895
O O16 0.500000 0.500000 0.000000
O O17 0.998457 0.157889 0.364515
#
# Coordination Sequence:
#
# PCOD8032686 Si02
#       8
#     2   2   2   2   2   2   2   2
#     4  12  22  46  70 101 148 188 240 287 347 423
#     4  11  23  43  70 100 141 191 232 288 352 414
#     4  11  24  45  70 104 143 184 231 299 354 420
#     4  12  24  45  68 106 144 185 236 294 353 413
#     4  11  25  40  71 104 142 188 238 291 349 420
#     4  11  26  44  75 108 141 182 235 295 365 427
#     4  11  23  44  71  99 142 192 233 286 354 417
#     4  11  23  46  71 104 141 188 235 293 358 419
#
# _framework density 23.280611
#
# number of rings (size 3 to 8) (size 9 to 14) (size 15 to 20)
#    0.000    0.750    5.000    2.250    3.500    1.500 
#    0.000    5.625    0.000    0.000    0.000    0.000 
#    0.000    0.000    0.000    0.000    0.000    0.000 
#
# Total GULP energy -198295.848635 kJ/mol
# GULP energy per Si atom -12393.490540 kJ/mol
# Density = 2.322762 g / cm^3
# Si number density = 23.280611 Si / 1000 Ang^3
#
#
#
# Elastic Constant Matrix: (Units=GPa)
#
#
# Indices 1 2 3 4 5 6 
#
# 1 96.1542 18.3985 28.5388 5.5660 9.6297 -7.1815
# 2 18.3985 100.6350 33.8227 -9.3939 -1.7542 -20.8591
# 3 28.5388 33.8227 127.6321 -3.1576 -0.3746 0.9349
# 4 5.5660 -9.3939 -3.1576 35.0454 7.6410 8.9251
# 5 9.6297 -1.7542 -0.3746 7.6410 31.0762 4.5481
# 6 -7.1815 -20.8591 0.9349 8.9251 4.5481 37.6992
#
#
#
# Elastic Compliance Matrix: (Units=1/GPa)
#
#
# Indices 1 2 3 4 5 6 
#
# 1 0.012054 -0.001074 -0.002500 -0.002333 -0.003656 0.002758
# 2 -0.001074 0.012693 -0.003130 0.001706 -0.000365 0.006536
# 3 -0.002500 -0.003130 0.009269 0.000901 0.000892 -0.002759
# 4 -0.002333 0.001706 0.000901 0.032439 -0.006202 -0.006455
# 5 -0.003656 -0.000365 0.000892 -0.006202 0.035371 -0.003719
# 6 0.002758 0.006536 -0.002759 -0.006455 -0.003719 0.032713
#
#
# Mechanical properties :
#
#
# Convention : Reuss Voigt Hill
#
# Bulk Modulus (GPa) = 48.52265 53.99347 51.25806
# Shear Modulus (GPa) = 32.29640 37.00824 34.65232
#
# Velocity S-wave (km/s) = 3.72864 3.99138 3.86225
# Velocity P-wave (km/s) = 6.27892 6.66965 6.47723
#
# Compressibility (1/GPa) = 0.02060893
#
# Stress axis : x y z
#
# Youngs Moduli (GPa) = 82.95731 78.78386 107.89144
#
# Poissons Ratio (x) = 0.08459 0.26967
# Poissons Ratio (y) = 0.08907 0.33774
# Poissons Ratio (z) = 0.20735 0.24662
#
# Static dielectric constant tensor:
#      x y z
#    x 4.381000 -0.018550 0.042050 
#    y -0.018550 4.172760 -0.130000 
#    z 0.042050 -0.130000 4.139200 
# 
# 
# High freq. dielectric constant tensor:
#      x y z
#    x 1.930660 0.003200 0.012420 
#    y 0.003200 1.915370 -0.006870 
#    z 0.012420 -0.006870 1.913280 
# 
# From -- ./inp_files/90973.got.cif
#   From: 2010.06.25/outbox.cif.g09.slc.cpg/sg2_46_cif.got.tgz:90973.got - 2010.06.27 13:26:56.
