data_PCOD8032285
_publ_section_title
;
Structure prediction by ZEFSAII (Michael W. Deem and Ramdas Pophale) SiO2 
 PCOD8032285
Probable space group: P -1
;
_chemical_formula_sum "Si O2"
_cell_formula_units_Z 16
_cell_length_a 15.566295
_cell_length_b 10.950996
_cell_length_c 19.296927
_cell_angle_alpha 133.839900
_cell_angle_beta 157.378533
_cell_angle_gamma 35.498325
_cell_volume 708.750895
_symmetry_space_group_name_H-M "P -1"
_symmetry_group_IT_number 2
_symmetry_cell_setting 'triclinic'
loop_
_space_group_symop_operation_xyz
x,y,z
-x,-y,-z
loop_
_atom_site_type_symbol
_atom_site_label
_atom_site_fract_x
_atom_site_fract_y
_atom_site_fract_z
Si Si1 0.863861 0.093328 0.360658
Si Si2 0.163944 0.688908 0.328196
Si Si3 0.576083 0.624073 0.057553
Si Si4 0.755801 0.581516 0.021779
Si Si5 0.067861 0.103962 0.033478
Si Si6 0.690688 0.853237 0.449561
Si Si7 0.963998 0.411841 0.526236
Si Si8 0.015967 0.967456 0.209117
O O1 0.830434 0.310405 0.419808
O O2 0.531849 0.196631 0.139201
O O3 0.000000 0.000000 0.500000
O O4 0.080057 0.900530 0.391214
O O5 0.500000 0.500000 0.500000
O O6 0.096253 0.752825 0.221582
O O7 0.999947 0.608793 0.208176
O O8 0.736752 0.522224 0.063799
O O9 0.754184 0.668039 0.253947
O O10 0.500000 0.500000 0.000000
O O11 0.278262 0.844307 0.897771
O O12 0.856176 0.364835 0.972042
O O13 0.389978 0.016829 0.251276
O O14 0.043739 0.017372 0.910002
O O15 0.000000 0.000000 0.000000
O O16 0.952498 0.687929 0.527805
O O17 0.714919 0.676331 0.448322
O O18 0.746059 0.999384 0.590100
#
# Coordination Sequence:
#
# PCOD8032285 Si02
#       8
#     2   2   2   2   2   2   2   2
#     4  12  27  47  73 110 148 197 254 315 377 448
#     4  12  28  51  77 105 150 202 259 314 378 450
#     4  12  23  45  78 111 145 202 243 312 383 456
#     4  12  28  49  73 114 152 193 259 317 374 459
#     4  12  28  47  72 109 155 193 250 314 389 450
#     4  11  23  44  71 109 141 194 246 308 369 453
#     4  11  23  41  76 105 146 189 254 300 375 449
#     4  12  25  47  76 104 150 198 255 305 381 452
#
# _framework density 22.574926000000001
#
# number of rings (size 3 to 8) (size 9 to 14) (size 15 to 20)
#    0.000    0.250    5.000    3.375    5.250    1.000 
#    4.500    0.000    0.000    0.000    0.000    0.000 
#    0.000    0.000    0.000    0.000    0.000    0.000 
#
# Total GULP energy -198304.508387 kJ/mol
# GULP energy per Si atom -12394.031774 kJ/mol
# Density = 2.252354 g / cm^3
# Si number density = 22.574926 Si / 1000 Ang^3
#
#
#
# Elastic Constant Matrix: (Units=GPa)
#
#
# Indices 1 2 3 4 5 6 
#
# 1 114.6838 36.9217 52.8460 0.2099 -1.0438 16.4730
# 2 36.9217 108.6372 48.2365 -9.2477 7.0168 6.6701
# 3 52.8460 48.2365 147.9869 -2.6377 -5.4233 -5.7203
# 4 0.2099 -9.2477 -2.6377 49.8679 1.3010 -1.1528
# 5 -1.0438 7.0168 -5.4233 1.3010 34.1298 -0.9509
# 6 16.4730 6.6701 -5.7203 -1.1528 -0.9509 35.4439
#
#
#
# Elastic Compliance Matrix: (Units=1/GPa)
#
#
# Indices 1 2 3 4 5 6 
#
# 1 0.012001 -0.002083 -0.003844 -0.000776 0.000052 -0.005830
# 2 -0.002083 0.011855 -0.003269 0.002075 -0.003150 -0.001807
# 3 -0.003844 -0.003269 0.009427 -0.000056 0.002165 0.003979
# 4 -0.000776 0.002075 -0.000056 0.020484 -0.001223 0.000595
# 5 0.000052 -0.003150 0.002165 -0.001223 0.030387 0.001694
# 6 -0.005830 -0.001807 0.003979 0.000595 0.001694 0.031970
#
#
# Mechanical properties :
#
#
# Convention : Reuss Voigt Hill
#
# Bulk Modulus (GPa) = 67.14902 71.92405 69.53654
# Shear Modulus (GPa) = 35.84746 39.44190 37.64468
#
# Velocity S-wave (km/s) = 3.98921 4.18443 4.08799
# Velocity P-wave (km/s) = 7.14338 7.43474 7.29051
#
# Compressibility (1/GPa) = 0.01489225
#
# Stress axis : x y z
#
# Youngs Moduli (GPa) = 83.32790 84.35003 106.07285
#
# Poissons Ratio (x) = 0.17574 0.40771
# Poissons Ratio (y) = 0.17361 0.34671
# Poissons Ratio (z) = 0.32028 0.27570
#
# Static dielectric constant tensor:
#      x y z
#    x 4.109470 0.277950 -0.058220 
#    y 0.277950 5.047800 -0.038600 
#    z -0.058220 -0.038600 4.060860 
# 
# 
# High freq. dielectric constant tensor:
#      x y z
#    x 1.885800 0.010720 -0.005920 
#    y 0.010720 1.897900 -0.004110 
#    z -0.005920 -0.004110 1.903600 
# 
# From -- ./inp_files/600101.got.cif
#   From: 2010.06.25/outbox.cif.g09.slc.cpg/sg2_301_cif.got.tgz:600101.got - 2010.06.27 13:26:56.
