data_PCOD8032820
_publ_section_title
;
Structure prediction by ZEFSAII (Michael W. Deem and Ramdas Pophale) SiO2 
 PCOD8032820
Probable space group: P -1
;
_chemical_formula_sum "Si O2"
_cell_formula_units_Z 14
_cell_length_a 12.460473
_cell_length_b 8.731557
_cell_length_c 17.523268
_cell_angle_alpha 44.239614
_cell_angle_beta 28.520338
_cell_angle_gamma 52.283578
_cell_volume 634.184893
_symmetry_space_group_name_H-M "P -1"
_symmetry_group_IT_number 2
_symmetry_cell_setting 'triclinic'
loop_
_space_group_symop_operation_xyz
x,y,z
-x,-y,-z
loop_
_atom_site_type_symbol
_atom_site_label
_atom_site_fract_x
_atom_site_fract_y
_atom_site_fract_z
Si Si1 0.915673 0.365752 0.528215
Si Si2 0.408046 0.453439 0.449817
Si Si3 0.687475 0.691313 0.819801
Si Si4 0.417355 0.914168 0.347670
Si Si5 0.195277 0.045012 0.801288
Si Si6 0.124300 0.725291 0.818602
Si Si7 0.068256 0.112810 0.270151
O O1 0.701026 0.479414 0.586196
O O2 0.000000 0.500000 0.500000
O O3 0.108116 0.354035 0.348373
O O4 0.833626 0.126490 0.696218
O O5 0.493814 0.672894 0.362925
O O6 0.624161 0.309627 0.354976
O O7 0.222647 0.301008 0.666724
O O8 0.769207 0.709171 0.850309
O O9 0.574327 0.918884 0.788110
O O10 0.500000 0.500000 0.000000
O O11 0.165815 0.885339 0.541936
O O12 0.573737 0.017226 0.280254
O O13 0.141002 0.893444 0.817313
O O14 0.000000 0.000000 0.000000
O O15 0.964184 0.826929 0.818949
O O16 0.000000 0.500000 0.000000
#
# Coordination Sequence:
#
# PCOD8032820 Si02
#       7
#     2   2   2   2   2   2   2
#     4  11  24  43  72 102 138 188 237 287 355 420
#     4  12  24  47  72 105 142 186 239 291 358 417
#     4  11  25  44  73 103 142 187 237 289 351 423
#     4  11  23  43  74 103 137 192 229 286 359 418
#     4  12  28  44  73 106 144 183 240 291 359 427
#     4  12  29  46  71 107 144 189 234 296 356 420
#     4  11  23  50  68  99 145 187 235 284 355 429
#
# _framework density 22.075581
#
# number of rings (size 3 to 8) (size 9 to 14) (size 15 to 20)
#    0.000    0.571    4.286    3.429   10.000    0.000 
#    2.571    1.429    0.000    0.000    0.000    0.000 
#    0.000    0.000    0.000    0.000    0.000    0.000 
#
# Total GULP energy -173616.477809 kJ/mol
# GULP energy per Si atom -12401.176986 kJ/mol
# Density = 2.202534 g / cm^3
# Si number density = 22.075581 Si / 1000 Ang^3
#
#
#
# Elastic Constant Matrix: (Units=GPa)
#
#
# Indices 1 2 3 4 5 6 
#
# 1 216.1939 56.9410 53.6645 -21.7452 -15.1611 6.8662
# 2 56.9410 90.7372 39.0146 -16.4222 3.1255 6.3143
# 3 53.6645 39.0146 117.5162 -30.9315 -3.8116 1.6084
# 4 -21.7452 -16.4222 -30.9315 24.0446 2.7370 -2.1739
# 5 -15.1611 3.1255 -3.8116 2.7370 37.9023 -7.2850
# 6 6.8662 6.3143 1.6084 -2.1739 -7.2850 49.9404
#
#
#
# Elastic Compliance Matrix: (Units=1/GPa)
#
#
# Indices 1 2 3 4 5 6 
#
# 1 0.006074 -0.003080 -0.001289 0.001453 0.002452 0.000017
# 2 -0.003080 0.015082 -0.002492 0.004541 -0.003381 -0.001699
# 3 -0.001289 -0.002492 0.013877 0.015033 0.000138 0.000720
# 4 0.001453 0.004541 0.015033 0.065771 -0.002801 0.001196
# 5 0.002452 -0.003381 0.000138 -0.002801 0.028656 0.004144
# 6 0.000017 -0.001699 0.000720 0.001196 0.004144 0.020870
#
#
# Mechanical properties :
#
#
# Convention : Reuss Voigt Hill
#
# Bulk Modulus (GPa) = 46.92501 80.40974 63.66737
# Shear Modulus (GPa) = 29.21319 40.69930 34.95624
#
# Velocity S-wave (km/s) = 3.64170 4.29841 3.98361
# Velocity P-wave (km/s) = 6.24382 7.81914 7.07546
#
# Compressibility (1/GPa) = 0.02131060
#
# Stress axis : x y z
#
# Youngs Moduli (GPa) = 164.62485 66.30628 72.06164
#
# Poissons Ratio (x) = 0.20423 0.09292
# Poissons Ratio (y) = 0.50706 0.17955
# Poissons Ratio (z) = 0.21228 0.16521
#
# Static dielectric constant tensor:
#      x y z
#    x 4.640420 -0.137710 -0.216380 
#    y -0.137710 4.274840 -0.210990 
#    z -0.216380 -0.210990 3.967890 
# 
# 
# High freq. dielectric constant tensor:
#      x y z
#    x 1.895800 -0.005540 -0.007630 
#    y -0.005540 1.866880 -0.018560 
#    z -0.007630 -0.018560 1.862700 
# 
# From -- ./inp_files/156588.got.cif
#   From: 2010.06.25/outbox.cif.g09.slc.cpg/sg2_79_cif.got.tgz:156588.got - 2010.06.27 13:26:56.
