data_PCOD8032555
_publ_section_title
;
Structure prediction by ZEFSAII (Michael W. Deem and Ramdas Pophale) SiO2 
 PCOD8032555
Probable space group: P -1
;
_chemical_formula_sum "Si O2"
_cell_formula_units_Z 14
_cell_length_a 17.450348
_cell_length_b 6.661106
_cell_length_c 8.899985
_cell_angle_alpha 50.067074
_cell_angle_beta 60.314419
_cell_angle_gamma 83.606146
_cell_volume 655.199886
_symmetry_space_group_name_H-M "P -1"
_symmetry_group_IT_number 2
_symmetry_cell_setting 'triclinic'
loop_
_space_group_symop_operation_xyz
x,y,z
-x,-y,-z
loop_
_atom_site_type_symbol
_atom_site_label
_atom_site_fract_x
_atom_site_fract_y
_atom_site_fract_z
Si Si1 0.516767 0.625313 0.085494
Si Si2 0.383322 0.758785 0.346424
Si Si3 0.903933 0.845635 0.092976
Si Si4 0.803292 0.289153 0.614092
Si Si5 0.097483 0.159365 0.254324
Si Si6 0.599512 0.230216 0.328366
Si Si7 0.209962 0.736573 0.010944
O O1 0.424613 0.542882 0.321439
O O2 0.596517 0.523335 0.130719
O O3 0.500000 0.500000 0.000000
O O4 0.544295 0.945482 0.884180
O O5 0.287617 0.758206 0.371517
O O6 0.373785 0.698701 0.559921
O O7 0.875897 0.559615 0.346297
O O8 0.830360 0.012882 0.104676
O O9 0.917891 0.801696 0.925126
O O10 0.000000 0.000000 0.000000
O O11 0.835851 0.022573 0.690041
O O12 0.786334 0.331198 0.784948
O O13 0.144017 0.462013 0.130106
O O14 0.000000 0.000000 0.500000
O O15 0.684518 0.158465 0.202176
O O16 0.500000 0.000000 0.500000
#
# Coordination Sequence:
#
# PCOD8032555 Si02
#       7
#     2   2   2   2   2   2   2
#     4  11  23  43  64  91 128 170 224 272 328 390
#     4  11  25  41  66  94 128 176 220 277 330 391
#     4  11  25  44  70 103 134 176 222 273 342 407
#     4  11  25  43  68  97 136 175 225 275 338 401
#     4  11  24  45  71 100 136 173 220 281 341 405
#     4  12  25  42  66  95 133 178 223 273 332 391
#     4  11  26  44  66  99 139 175 225 280 333 402
#
# _framework density 21.367524
#
# number of rings (size 3 to 8) (size 9 to 14) (size 15 to 20)
#    0.000    0.857    1.429    4.714    4.000   10.286 
#    0.000    0.000    0.000    0.000    0.000    0.000 
#    0.000    0.000    0.000    0.000    0.000    0.000 
#
# Total GULP energy -173575.207421 kJ/mol
# GULP energy per Si atom -12398.229101 kJ/mol
# Density = 2.131889 g / cm^3
# Si number density = 21.367524 Si / 1000 Ang^3
#
#
#
# Elastic Constant Matrix: (Units=GPa)
#
#
# Indices 1 2 3 4 5 6 
#
# 1 117.9122 29.9559 15.6722 29.5038 12.7789 14.4641
# 2 29.9559 93.9372 24.7456 23.6494 4.3418 16.4287
# 3 15.6722 24.7456 85.8918 21.0984 9.6318 8.3171
# 4 29.5038 23.6494 21.0984 39.5672 -0.5103 -0.1321
# 5 12.7789 4.3418 9.6318 -0.5103 50.5943 2.7086
# 6 14.4641 16.4287 8.3171 -0.1321 2.7086 38.7797
#
#
#
# Elastic Compliance Matrix: (Units=1/GPa)
#
#
# Indices 1 2 3 4 5 6 
#
# 1 0.011545 -0.000949 0.000991 -0.008621 -0.002899 -0.003944
# 2 -0.000949 0.014035 -0.001636 -0.006832 -0.000442 -0.005233
# 3 0.000991 -0.001636 0.014322 -0.007443 -0.002773 -0.002580
# 4 -0.008621 -0.006832 -0.007443 0.039833 0.004178 0.007550
# 5 -0.002899 -0.000442 -0.002773 0.004178 0.021084 0.000405
# 6 -0.003944 -0.005233 -0.002580 0.007550 0.000405 0.030025
#
#
# Mechanical properties :
#
#
# Convention : Reuss Voigt Hill
#
# Bulk Modulus (GPa) = 27.23631 48.72096 37.97863
# Shear Modulus (GPa) = 34.18359 40.94606 37.56483
#
# Velocity S-wave (km/s) = 4.00408 4.38228 4.19744
# Velocity P-wave (km/s) = 5.84390 6.96109 6.42681
#
# Compressibility (1/GPa) = 0.03671570
#
# Stress axis : x y z
#
# Youngs Moduli (GPa) = 86.61568 71.25262 69.82246
#
# Poissons Ratio (x) = 0.06760 -0.06922
# Poissons Ratio (y) = 0.08217 0.11421
# Poissons Ratio (z) = -0.08587 0.11655
#
# Static dielectric constant tensor:
#      x y z
#    x 4.044810 -0.079990 0.060290 
#    y -0.079990 3.821660 0.002420 
#    z 0.060290 0.002420 4.001630 
# 
# 
# High freq. dielectric constant tensor:
#      x y z
#    x 1.854580 -0.001890 0.007940 
#    y -0.001890 1.855470 0.005810 
#    z 0.007940 0.005810 1.850920 
# 
# From -- ./inp_files/48771.got.cif
#   From: 2010.06.25/outbox.cif.g09.slc.cpg/sg2_25_cif.got.tgz:48771.got - 2010.06.27 13:26:56.
