data_PCOD8032098
_publ_section_title
;
Structure prediction by ZEFSAII (Michael W. Deem and Ramdas Pophale) SiO2 
 PCOD8032098
Probable space group: P -1
;
_chemical_formula_sum "Si O2"
_cell_formula_units_Z 14
_cell_length_a 9.410454
_cell_length_b 13.039504
_cell_length_c 9.238361
_cell_angle_alpha 34.978437
_cell_angle_beta 106.657041
_cell_angle_gamma 109.636835
_cell_volume 611.937827
_symmetry_space_group_name_H-M "P -1"
_symmetry_group_IT_number 2
_symmetry_cell_setting 'triclinic'
loop_
_space_group_symop_operation_xyz
x,y,z
-x,-y,-z
loop_
_atom_site_type_symbol
_atom_site_label
_atom_site_fract_x
_atom_site_fract_y
_atom_site_fract_z
Si Si1 0.998313 0.702274 0.803395
Si Si2 0.685152 0.783151 0.566231
Si Si3 0.460950 0.491844 0.667813
Si Si4 0.412092 0.149258 0.233695
Si Si5 0.867164 0.108722 0.101574
Si Si6 0.122613 0.905551 0.349344
Si Si7 0.156261 0.621765 0.449240
O O1 0.020624 0.756492 0.914648
O O2 0.123166 0.844373 0.588520
O O3 0.839646 0.714647 0.673589
O O4 0.000000 0.500000 0.000000
O O5 0.558117 0.671247 0.558008
O O6 0.640014 0.753691 0.753809
O O7 0.724277 0.991738 0.279420
O O8 0.500000 0.500000 0.500000
O O9 0.285332 0.499187 0.640476
O O10 0.500621 0.310005 0.968737
O O11 0.500000 0.000000 0.500000
O O12 0.275206 0.052072 0.204309
O O13 0.790070 0.227210 0.831673
O O14 0.972855 0.993085 0.175110
O O15 0.127707 0.724996 0.468038
O O16 0.000000 0.500000 0.500000
#
# Coordination Sequence:
#
# PCOD8032098 Si02
#       7
#     2   2   2   2   2   2   2
#     4  11  23  40  77 107 144 186 249 303 360 427
#     4  11  25  47  72 105 148 188 247 307 363 441
#     4  12  32  48  71 111 151 193 245 306 377 441
#     4  12  26  47  76 100 145 193 248 300 371 441
#     4  11  23  45  75 109 144 191 245 302 369 432
#     4  11  23  44  70 109 138 189 246 301 362 436
#     4  12  28  46  74 104 152 195 244 301 372 442
#
# _framework density 22.878139999999998
#
# number of rings (size 3 to 8) (size 9 to 14) (size 15 to 20)
#    0.000    0.571    2.857    4.286   14.000    0.571 
#    0.000    0.000    0.000    0.000    0.000    0.000 
#    0.000    0.000    0.000    0.000    0.000    0.000 
#
# Total GULP energy -173546.914861 kJ/mol
# GULP energy per Si atom -12396.208204 kJ/mol
# Density = 2.282607 g / cm^3
# Si number density = 22.878140 Si / 1000 Ang^3
#
#
#
# Elastic Constant Matrix: (Units=GPa)
#
#
# Indices 1 2 3 4 5 6 
#
# 1 76.8020 47.3155 29.2359 -2.3159 -7.9132 10.6361
# 2 47.3155 132.8490 13.0696 -5.3609 -0.1955 -1.3758
# 3 29.2359 13.0696 139.9370 1.2753 -0.4945 -9.4901
# 4 -2.3159 -5.3609 1.2753 35.2894 -2.5722 -3.0643
# 5 -7.9132 -0.1955 -0.4945 -2.5722 29.6112 0.6450
# 6 10.6361 -1.3758 -9.4901 -3.0643 0.6450 41.6540
#
#
#
# Elastic Compliance Matrix: (Units=1/GPa)
#
#
# Indices 1 2 3 4 5 6 
#
# 1 0.020216 -0.006854 -0.003998 0.000275 0.005453 -0.006364
# 2 -0.006854 0.009972 0.000643 0.001120 -0.001709 0.002335
# 3 -0.003998 0.000643 0.008116 -0.000282 -0.001016 0.002886
# 4 0.000275 0.001120 -0.000282 0.028894 0.002543 0.001989
# 5 0.005453 -0.001709 -0.001016 0.002543 0.035465 -0.002042
# 6 -0.006364 0.002335 0.002886 0.001989 -0.002042 0.026545
#
#
# Mechanical properties :
#
#
# Convention : Reuss Voigt Hill
#
# Bulk Modulus (GPa) = 55.91073 58.75888 57.33481
# Shear Modulus (GPa) = 32.13599 38.64203 35.38901
#
# Velocity S-wave (km/s) = 3.75194 4.11425 3.93727
# Velocity P-wave (km/s) = 6.57731 6.95044 6.76644
#
# Compressibility (1/GPa) = 0.01788565
#
# Stress axis : x y z
#
# Youngs Moduli (GPa) = 49.46506 100.28092 123.21173
#
# Poissons Ratio (x) = 0.68729 0.49264
# Poissons Ratio (y) = 0.33902 -0.07918
# Poissons Ratio (z) = 0.19778 -0.06444
#
# Static dielectric constant tensor:
#      x y z
#    x 2.544390 -1.051460 -0.679580 
#    y -1.051460 3.441910 -0.319850 
#    z -0.679580 -0.319850 4.430130 
# 
# 
# High freq. dielectric constant tensor:
#      x y z
#    x 1.897160 -0.001460 -0.006510 
#    y -0.001460 1.909900 -0.003710 
#    z -0.006510 -0.003710 1.915430 
# 
# From -- ./inp_files/183828.got.cif
#   From: 2010.06.25/outbox.cif.g09.slc.cpg/sg2_92_cif.got.tgz:183828.got - 2010.06.27 13:26:56.
