data_PCOD8032652
_publ_section_title
;
Structure prediction by ZEFSAII (Michael W. Deem and Ramdas Pophale) SiO2 
 PCOD8032652
Probable space group: P -1
;
_chemical_formula_sum "Si O2"
_cell_formula_units_Z 16
_cell_length_a 14.107209
_cell_length_b 6.474187
_cell_length_c 9.470699
_cell_angle_alpha 84.294338
_cell_angle_beta 113.132554
_cell_angle_gamma 71.360294
_cell_volume 728.158911
_symmetry_space_group_name_H-M "P -1"
_symmetry_group_IT_number 2
_symmetry_cell_setting 'triclinic'
loop_
_space_group_symop_operation_xyz
x,y,z
-x,-y,-z
loop_
_atom_site_type_symbol
_atom_site_label
_atom_site_fract_x
_atom_site_fract_y
_atom_site_fract_z
Si Si1 0.203156 0.008946 0.243566
Si Si2 0.340443 0.604480 0.770641
Si Si3 0.058891 0.434562 0.300373
Si Si4 0.396225 0.155745 0.342153
Si Si5 0.065826 0.071375 0.916058
Si Si6 0.478244 0.205152 0.078891
Si Si7 0.265496 0.536885 0.444916
Si Si8 0.920648 0.189427 0.339879
O O1 0.103395 0.230437 0.229796
O O2 0.323086 0.010848 0.331640
O O3 0.199998 0.795137 0.341032
O O4 0.186773 0.007275 0.064490
O O5 0.404494 0.773675 0.814330
O O6 0.355410 0.501961 0.627055
O O7 0.206564 0.725861 0.689059
O O8 0.389024 0.420621 0.933212
O O9 0.167190 0.452239 0.441103
O O10 0.989986 0.664752 0.165043
O O11 0.971155 0.384281 0.355356
O O12 0.421494 0.178132 0.192217
O O13 0.335841 0.401938 0.360273
O O14 0.500000 0.000000 0.500000
O O15 0.079651 0.913882 0.803914
O O16 0.000000 0.000000 0.000000
O O17 0.500000 0.000000 0.000000
O O18 0.000000 0.000000 0.500000
#
# Coordination Sequence:
#
# PCOD8032652 Si02
#       8
#     2   2   2   2   2   2   2   2
#     4  11  24  40  70 103 135 177 234 288 346 408
#     4  11  27  46  69  99 140 186 230 292 347 418
#     4  11  23  43  69 101 143 182 231 282 347 418
#     4  11  26  44  73 103 132 182 235 292 352 417
#     4  12  24  41  69  99 140 183 230 290 339 419
#     4  11  27  48  70 100 138 180 235 291 356 410
#     4  11  24  46  72 100 140 181 233 287 348 418
#     4  12  28  44  67 105 143 189 235 282 358 420
#
# _framework density 21.973226
#
# number of rings (size 3 to 8) (size 9 to 14) (size 15 to 20)
#    0.000    0.750    2.500    3.375    5.250    8.000 
#    0.000    0.000    0.000    0.000    0.000    0.000 
#    0.000    0.000    0.000    0.000    0.000    0.000 
#
# Total GULP energy -198329.289438 kJ/mol
# GULP energy per Si atom -12395.580590 kJ/mol
# Density = 2.192321 g / cm^3
# Si number density = 21.973226 Si / 1000 Ang^3
#
#
#
# Elastic Constant Matrix: (Units=GPa)
#
#
# Indices 1 2 3 4 5 6 
#
# 1 121.9713 41.4399 24.4620 6.1769 7.6688 9.4495
# 2 41.4399 106.5247 28.7814 4.0785 -0.0455 16.9610
# 3 24.4620 28.7814 116.7195 11.4409 9.8445 7.0952
# 4 6.1769 4.0785 11.4409 48.2693 1.6943 0.9465
# 5 7.6688 -0.0455 9.8445 1.6943 44.0725 2.1987
# 6 9.4495 16.9610 7.0952 0.9465 2.1987 29.8841
#
#
#
# Elastic Compliance Matrix: (Units=1/GPa)
#
#
# Indices 1 2 3 4 5 6 
#
# 1 0.009722 -0.003365 -0.000975 -0.000663 -0.001412 -0.000808
# 2 -0.003365 0.012119 -0.002061 -0.000045 0.001331 -0.005421
# 3 -0.000975 -0.002061 0.009664 -0.001913 -0.001887 -0.000617
# 4 -0.000663 -0.000045 -0.001913 0.021268 -0.000277 0.000036
# 5 -0.001412 0.001331 -0.001887 -0.000277 0.023448 -0.001577
# 6 -0.000808 -0.005421 -0.000617 0.000036 -0.001577 0.037056
#
#
# Mechanical properties :
#
#
# Convention : Reuss Voigt Hill
#
# Bulk Modulus (GPa) = 53.46675 59.39802 56.43239
# Shear Modulus (GPa) = 37.78851 41.14733 39.46792
#
# Velocity S-wave (km/s) = 4.15149 4.33206 4.24274
# Velocity P-wave (km/s) = 6.88225 7.21894 7.05260
#
# Compressibility (1/GPa) = 0.01870321
#
# Stress axis : x y z
#
# Youngs Moduli (GPa) = 102.85451 82.51421 103.47348
#
# Poissons Ratio (x) = 0.27770 0.10084
# Poissons Ratio (y) = 0.34615 0.21329
# Poissons Ratio (z) = 0.10024 0.17009
#
# Static dielectric constant tensor:
#      x y z
#    x 4.175070 0.219910 0.084110 
#    y 0.219910 4.235990 -0.225670 
#    z 0.084110 -0.225670 3.228330 
# 
# 
# High freq. dielectric constant tensor:
#      x y z
#    x 1.870010 0.012000 0.010020 
#    y 0.012000 1.873750 0.007840 
#    z 0.010020 0.007840 1.883210 
# 
# From -- ./inp_files/288678.got.cif
#   From: 2010.06.25/outbox.cif.g09.slc.cpg/sg2_145_cif.got.tgz:288678.got - 2010.06.27 13:26:56.
