data_PCOD8032512
_publ_section_title
;
Structure prediction by ZEFSAII (Michael W. Deem and Ramdas Pophale) SiO2 
 PCOD8032512
Probable space group: P -1
;
_chemical_formula_sum "Si O2"
_cell_formula_units_Z 16
_cell_length_a 11.672141
_cell_length_b 27.310887
_cell_length_c 21.516757
_cell_angle_alpha 11.338521
_cell_angle_beta 148.185885
_cell_angle_gamma 148.944457
_cell_volume 692.396055
_symmetry_space_group_name_H-M "P -1"
_symmetry_group_IT_number 2
_symmetry_cell_setting 'triclinic'
loop_
_space_group_symop_operation_xyz
x,y,z
-x,-y,-z
loop_
_atom_site_type_symbol
_atom_site_label
_atom_site_fract_x
_atom_site_fract_y
_atom_site_fract_z
Si Si1 0.472170 0.239157 0.049391
Si Si2 0.753343 0.030408 0.840676
Si Si3 0.809554 0.611750 0.158883
Si Si4 0.755443 0.917438 0.634125
Si Si5 0.740738 0.068421 0.053980
Si Si6 0.409663 0.735952 0.136072
Si Si7 0.996145 0.742196 0.856594
Si Si8 0.909569 0.634092 0.717517
O O1 0.355846 0.145943 0.047004
O O2 0.525865 0.991026 0.417168
O O3 0.307739 0.361088 0.863808
O O4 0.698061 0.451175 0.879624
O O5 0.746489 0.324396 0.461999
O O6 0.627837 0.936143 0.964264
O O7 0.000000 0.000000 0.000000
O O8 0.729671 0.787420 0.851374
O O9 0.078878 0.702619 0.180710
O O10 0.820017 0.722783 0.855500
O O11 0.947788 0.182068 0.393415
O O12 0.828106 0.811096 0.408431
O O13 0.723081 0.142795 0.024783
O O14 0.500000 0.000000 0.000000
O O15 0.500000 0.500000 0.500000
O O16 0.235310 0.693229 0.051296
O O17 0.000000 0.000000 0.500000
O O18 0.924945 0.515855 0.054997
#
# Coordination Sequence:
#
# PCOD8032512 Si02
#       8
#     2   2   2   2   2   2   2   2
#     4  12  26  45  72 105 146 189 234 297 380 422
#     4  12  29  47  70 106 149 190 238 300 364 439
#     4  11  27  46  71 104 149 187 239 297 372 435
#     4  11  25  47  72 108 141 189 245 298 359 444
#     4  11  25  45  73 104 140 193 250 301 361 430
#     4  12  24  47  75 105 147 189 248 301 358 438
#     4  12  23  42  74 109 143 185 245 299 366 423
#     4  11  23  42  73 104 141 182 247 298 358 430
#
# _framework density 23.108160000000002
#
# number of rings (size 3 to 8) (size 9 to 14) (size 15 to 20)
#    0.000    0.500    5.000    3.000    3.500    4.000 
#    0.000    0.000    0.000    0.000    0.000    0.000 
#    0.000    0.000    0.000    0.000    0.000    0.000 
#
# Total GULP energy -198356.686213 kJ/mol
# GULP energy per Si atom -12397.292888 kJ/mol
# Density = 2.305556 g / cm^3
# Si number density = 23.108160 Si / 1000 Ang^3
#
#
#
# Elastic Constant Matrix: (Units=GPa)
#
#
# Indices 1 2 3 4 5 6 
#
# 1 130.2103 21.6345 41.2674 -20.4678 21.1445 7.0234
# 2 21.6345 64.1086 31.1055 12.3646 -8.9650 0.6407
# 3 41.2674 31.1055 128.2411 -0.4194 4.0190 -4.9442
# 4 -20.4678 12.3646 -0.4194 38.3033 -1.0641 -4.1765
# 5 21.1445 -8.9650 4.0190 -1.0641 43.5598 1.7989
# 6 7.0234 0.6407 -4.9442 -4.1765 1.7989 28.6055
#
#
#
# Elastic Compliance Matrix: (Units=1/GPa)
#
#
# Indices 1 2 3 4 5 6 
#
# 1 0.011502 -0.005021 -0.002330 0.007391 -0.006153 -0.001648
# 2 -0.005021 0.022225 -0.004106 -0.009906 0.007225 -0.001876
# 3 -0.002330 -0.004106 0.009661 0.000433 -0.000696 0.002441
# 4 0.007391 -0.009906 0.000433 0.033523 -0.005000 0.003691
# 5 -0.006153 0.007225 -0.000696 -0.005000 0.027423 -0.001226
# 6 -0.001648 -0.001876 0.002441 0.003691 -0.001226 0.036443
#
#
# Mechanical properties :
#
#
# Convention : Reuss Voigt Hill
#
# Bulk Modulus (GPa) = 48.84204 56.73055 52.78629
# Shear Modulus (GPa) = 29.32269 37.33056 33.32662
#
# Velocity S-wave (km/s) = 3.56607 4.02365 3.80175
# Velocity P-wave (km/s) = 6.17560 6.79630 6.49337
#
# Compressibility (1/GPa) = 0.02047417
#
# Stress axis : x y z
#
# Youngs Moduli (GPa) = 86.93792 44.99458 103.50896
#
# Poissons Ratio (x) = 0.22590 0.24120
# Poissons Ratio (y) = 0.43648 0.42504
# Poissons Ratio (z) = 0.20259 0.18476
#
# Static dielectric constant tensor:
#      x y z
#    x 4.152700 0.010110 0.086540 
#    y 0.010110 4.205590 0.088380 
#    z 0.086540 0.088380 4.408880 
# 
# 
# High freq. dielectric constant tensor:
#      x y z
#    x 1.919570 -0.004480 0.008330 
#    y -0.004480 1.909890 0.009310 
#    z 0.008330 0.009310 1.927000 
# 
# From -- ./inp_files/611048.got.cif
#   From: 2010.06.25/outbox.cif.g09.slc.cpg/sg2_306_cif.got.tgz:611048.got - 2010.06.27 13:26:56.
