data_PCOD8032880
_publ_section_title
;
Structure prediction by ZEFSAII (Michael W. Deem and Ramdas Pophale) SiO2 
 PCOD8032880
Probable space group: P -1
;
_chemical_formula_sum "Si O2"
_cell_formula_units_Z 16
_cell_length_a 5.455668
_cell_length_b 13.270541
_cell_length_c 13.827411
_cell_angle_alpha 139.573616
_cell_angle_beta 94.741538
_cell_angle_gamma 99.079639
_cell_volume 608.054348
_symmetry_space_group_name_H-M "P -1"
_symmetry_group_IT_number 2
_symmetry_cell_setting 'triclinic'
loop_
_space_group_symop_operation_xyz
x,y,z
-x,-y,-z
loop_
_atom_site_type_symbol
_atom_site_label
_atom_site_fract_x
_atom_site_fract_y
_atom_site_fract_z
Si Si1 0.835154 0.004103 0.088886
Si Si2 0.553542 0.083121 0.459918
Si Si3 0.704561 0.230654 0.111975
Si Si4 0.427214 0.367142 0.985049
Si Si5 0.991683 0.145584 0.392589
Si Si6 0.168132 0.824163 0.130329
Si Si7 0.070504 0.544237 0.425745
Si Si8 0.485187 0.584574 0.329061
O O1 0.729478 0.151437 0.159915
O O2 0.000800 0.033887 0.217365
O O3 0.600475 0.832297 0.973794
O O4 0.000000 0.000000 0.000000
O O5 0.803569 0.040087 0.394497
O O6 0.631271 0.280070 0.622562
O O7 0.500000 0.000000 0.500000
O O8 0.287626 0.007040 0.324634
O O9 0.808316 0.430364 0.273608
O O10 0.855349 0.173311 0.986263
O O11 0.503382 0.456804 0.155768
O O12 0.500000 0.500000 0.000000
O O13 0.612674 0.256940 0.895131
O O14 0.114934 0.266808 0.898073
O O15 0.819636 0.257006 0.431710
O O16 0.238095 0.300732 0.540165
O O17 0.303155 0.490101 0.345166
O O18 0.000000 0.500000 0.500000
#
# Coordination Sequence:
#
# PCOD8032880 Si02
#       8
#     2   2   2   2   2   2   2   2
#     4  11  26  40  67  98 143 188 236 300 361 438
#     4  11  27  47  72 103 145 193 244 307 372 437
#     4  11  24  44  66  98 139 186 243 288 365 429
#     4  12  28  50  77 110 149 195 248 311 374 439
#     4  11  25  44  66 102 140 184 241 300 363 436
#     4  12  27  48  79 108 149 196 251 305 369 445
#     4  11  23  44  65  97 138 184 233 291 361 431
#     4  11  27  44  72 102 146 190 245 306 368 443
#
# _framework density 26.313438000000001
#
# number of rings (size 3 to 8) (size 9 to 14) (size 15 to 20)
#    0.000    0.750    3.750    1.875   10.500    2.000 
#    0.000    0.000    0.000    0.000    0.000    0.000 
#    0.000    0.000    0.000    0.000    0.000    0.000 
#
# Total GULP energy -198249.409747 kJ/mol
# GULP energy per Si atom -12390.588109 kJ/mol
# Density = 2.625355 g / cm^3
# Si number density = 26.313438 Si / 1000 Ang^3
#
#
#
# Elastic Constant Matrix: (Units=GPa)
#
#
# Indices 1 2 3 4 5 6 
#
# 1 94.9043 22.5284 37.0644 1.7568 22.3571 41.9512
# 2 22.5284 133.5259 34.6581 -15.9330 4.7811 36.4809
# 3 37.0644 34.6581 164.3627 1.1241 9.3367 21.7274
# 4 1.7568 -15.9330 1.1241 46.4411 -1.5630 2.7333
# 5 22.3571 4.7811 9.3367 -1.5630 53.4266 5.5677
# 6 41.9512 36.4809 21.7274 2.7333 5.5677 48.8229
#
#
#
# Elastic Compliance Matrix: (Units=1/GPa)
#
#
# Indices 1 2 3 4 5 6 
#
# 1 0.019965 0.002250 -0.002361 0.000868 -0.006335 -0.017112
# 2 0.002250 0.010554 -0.001498 0.004103 -0.000533 -0.009321
# 3 -0.002361 -0.001498 0.006928 -0.000603 -0.000118 0.000112
# 4 0.000868 0.004103 -0.000603 0.023230 0.000566 -0.004908
# 5 -0.006335 -0.000533 -0.000118 0.000566 0.021093 0.003457
# 6 -0.017112 -0.009321 0.000112 -0.004908 0.003457 0.041981
#
#
# Mechanical properties :
#
#
# Convention : Reuss Voigt Hill
#
# Bulk Modulus (GPa) = 29.21521 64.58827 46.90174
# Shear Modulus (GPa) = 36.13263 49.64093 42.88678
#
# Velocity S-wave (km/s) = 3.70964 4.34813 4.04151
# Velocity P-wave (km/s) = 5.42913 7.05743 6.29614
#
# Compressibility (1/GPa) = 0.03422874
#
# Stress axis : x y z
#
# Youngs Moduli (GPa) = 50.08746 94.75276 144.33275
#
# Poissons Ratio (x) = -0.21317 0.34072
# Poissons Ratio (y) = -0.11268 0.21626
# Poissons Ratio (z) = 0.11824 0.14197
#
# Static dielectric constant tensor:
#      x y z
#    x 5.885570 -0.127120 -0.552440 
#    y -0.127120 4.892470 0.413140 
#    z -0.552440 0.413140 5.296180 
# 
# 
# High freq. dielectric constant tensor:
#      x y z
#    x 2.077980 -0.000410 -0.010600 
#    y -0.000410 2.063060 0.012230 
#    z -0.010600 0.012230 2.074720 
# 
# From -- ./inp_files/38880.got.cif
#   From: 2010.06.25/outbox.cif.g09.slc.cpg/sg2_20_cif.got.tgz:38880.got - 2010.06.27 13:26:56.
