data_PCOD8032157
_publ_section_title
;
Structure prediction by ZEFSAII (Michael W. Deem and Ramdas Pophale) SiO2 
 PCOD8032157
Probable space group: P -1
;
_chemical_formula_sum "Si O2"
_cell_formula_units_Z 16
_cell_length_a 9.800562
_cell_length_b 14.424840
_cell_length_c 11.300780
_cell_angle_alpha 59.758826
_cell_angle_beta 69.204652
_cell_angle_gamma 118.747037
_cell_volume 744.216429
_symmetry_space_group_name_H-M "P -1"
_symmetry_group_IT_number 2
_symmetry_cell_setting 'triclinic'
loop_
_space_group_symop_operation_xyz
x,y,z
-x,-y,-z
loop_
_atom_site_type_symbol
_atom_site_label
_atom_site_fract_x
_atom_site_fract_y
_atom_site_fract_z
Si Si1 0.128095 0.425308 0.213291
Si Si2 0.407940 0.871552 0.506451
Si Si3 0.698757 0.438853 0.187255
Si Si4 0.886173 0.215049 0.000214
Si Si5 0.355498 0.434634 0.343296
Si Si6 0.577747 0.742089 0.250464
Si Si7 0.970720 0.850923 0.185589
Si Si8 0.028200 0.479122 0.636088
O O1 0.280746 0.427265 0.238943
O O2 0.845134 0.219572 0.399328
O O3 0.093463 0.507216 0.251363
O O4 0.282021 0.547401 0.969344
O O5 0.367278 0.722283 0.650222
O O6 0.500000 0.000000 0.500000
O O7 0.615890 0.005647 0.253620
O O8 0.493214 0.402919 0.312181
O O9 0.968407 0.634875 0.035868
O O10 0.045607 0.212690 0.899084
O O11 0.861851 0.275610 0.851781
O O12 0.519244 0.620999 0.243372
O O13 0.099486 0.266992 0.606601
O O14 0.327792 0.637259 0.461238
O O15 0.746041 0.802596 0.270588
O O16 0.748711 0.935769 0.009803
O O17 0.000000 0.500000 0.500000
#
# Coordination Sequence:
#
# PCOD8032157 Si02
#       8
#     2   2   2   2   2   2   2   2
#     4  12  25  47  69 100 142 180 229 286 347 406
#     4  12  26  46  72 102 135 181 238 281 336 413
#     4  12  26  46  74  98 133 191 231 279 344 409
#     4  12  23  42  73 101 136 181 235 283 334 413
#     4  12  25  46  69 102 143 179 227 287 347 408
#     4  11  23  41  67 103 136 181 227 278 337 409
#     4  11  24  40  69 103 137 180 228 280 342 402
#     4  12  23  42  71 100 138 181 222 278 352 405
#
# _framework density 21.499122
#
# number of rings (size 3 to 8) (size 9 to 14) (size 15 to 20)
#    0.000    0.250    6.250    3.375    3.500    1.000 
#    2.250    3.125    0.000    0.000    0.000    0.000 
#    0.000    0.000    0.000    0.000    0.000    0.000 
#
# Total GULP energy -198274.653042 kJ/mol
# GULP energy per Si atom -12392.165815 kJ/mol
# Density = 2.145019 g / cm^3
# Si number density = 21.499122 Si / 1000 Ang^3
#
#
#
# Elastic Constant Matrix: (Units=GPa)
#
#
# Indices 1 2 3 4 5 6 
#
# 1 79.7345 20.7173 30.5610 -6.9573 8.4115 0.8414
# 2 20.7173 102.8045 48.5048 -1.7538 14.5835 -11.0738
# 3 30.5610 48.5048 156.4894 -3.7425 21.3261 5.7557
# 4 -6.9573 -1.7538 -3.7425 43.4625 -1.9620 2.4748
# 5 8.4115 14.5835 21.3261 -1.9620 32.5802 10.8614
# 6 0.8414 -11.0738 5.7557 2.4748 10.8614 27.3799
#
#
#
# Elastic Compliance Matrix: (Units=1/GPa)
#
#
# Indices 1 2 3 4 5 6 
#
# 1 0.014060 -0.001721 -0.001971 0.001972 -0.001330 -0.000365
# 2 -0.001721 0.013483 -0.003313 -0.000808 -0.006411 0.008819
# 3 -0.001971 -0.003313 0.008254 0.000248 -0.002747 -0.001947
# 4 0.001972 -0.000808 0.000248 0.023613 0.002270 -0.003475
# 5 -0.001330 -0.006411 -0.002747 0.002270 0.042141 -0.018897
# 6 -0.000365 0.008819 -0.001947 -0.003475 -0.018897 0.048321
#
#
# Mechanical properties :
#
#
# Convention : Reuss Voigt Hill
#
# Bulk Modulus (GPa) = 45.89695 59.84384 52.87040
# Shear Modulus (GPa) = 29.21541 36.63422 32.92482
#
# Velocity S-wave (km/s) = 3.69034 4.13242 3.91762
# Velocity P-wave (km/s) = 6.28910 7.11794 6.71632
#
# Compressibility (1/GPa) = 0.02178794
#
# Stress axis : x y z
#
# Youngs Moduli (GPa) = 71.12251 74.16965 121.15537
#
# Poissons Ratio (x) = 0.12762 0.23877
# Poissons Ratio (y) = 0.12237 0.40139
# Poissons Ratio (z) = 0.14017 0.24572
#
# Static dielectric constant tensor:
#      x y z
#    x 4.274530 0.757990 -1.213610 
#    y 0.757990 6.674670 -3.896930 
#    z -1.213610 -3.896930 9.714580 
# 
# 
# High freq. dielectric constant tensor:
#      x y z
#    x 1.839210 -0.014050 0.001370 
#    y -0.014050 1.848160 0.010460 
#    z 0.001370 0.010460 1.857800 
# 
# From -- ./inp_files/398577.got.cif
#   From: 2010.06.25/outbox.cif.g09.slc.cpg/sg2_200_cif.got.tgz:398577.got - 2010.06.27 13:26:56.
