data_PCOD8032469
_publ_section_title
;
Structure prediction by ZEFSAII (Michael W. Deem and Ramdas Pophale) SiO2 
 PCOD8032469
Probable space group: P -1
;
_chemical_formula_sum "Si O2"
_cell_formula_units_Z 14
_cell_length_a 11.550478
_cell_length_b 11.463694
_cell_length_c 6.492162
_cell_angle_alpha 75.844922
_cell_angle_beta 115.007187
_cell_angle_gamma 62.097202
_cell_volume 573.924089
_symmetry_space_group_name_H-M "P -1"
_symmetry_group_IT_number 2
_symmetry_cell_setting 'triclinic'
loop_
_space_group_symop_operation_xyz
x,y,z
-x,-y,-z
loop_
_atom_site_type_symbol
_atom_site_label
_atom_site_fract_x
_atom_site_fract_y
_atom_site_fract_z
Si Si1 0.498136 0.323426 0.181206
Si Si2 0.240286 0.350932 0.726883
Si Si3 0.290735 0.864891 0.216700
Si Si4 0.992178 0.588926 0.143865
Si Si5 0.320624 0.049046 0.820088
Si Si6 0.263961 0.690089 0.930948
Si Si7 0.095917 0.115565 0.268402
O O1 0.545410 0.230199 0.470859
O O2 0.353364 0.506593 0.059159
O O3 0.430007 0.273565 0.972290
O O4 0.665958 0.278339 0.224936
O O5 0.135784 0.416839 0.826587
O O6 0.204537 0.237918 0.667765
O O7 0.169943 0.488967 0.445380
O O8 0.295479 0.734973 0.156651
O O9 0.128783 0.982306 0.196751
O O10 0.295348 0.971964 0.017818
O O11 0.930354 0.757758 0.961244
O O12 0.000000 0.500000 0.000000
O O13 0.267816 0.022347 0.573485
O O14 0.500000 0.000000 0.000000
O O15 0.060084 0.805155 0.723782
#
# Coordination Sequence:
#
# PCOD8032469 Si02
#       7
#     2   2   2   2   2   2   2
#     4  11  27  48  76 104 147 193 241 304 355 426
#     4  11  24  44  70 106 141 179 237 288 355 430
#     4  12  26  47  71 106 146 198 236 299 362 428
#     4  11  23  42  71 105 140 183 231 290 356 424
#     4  12  27  44  70 109 146 185 235 293 368 437
#     4  11  27  49  72 104 142 194 255 294 352 428
#     4  12  26  45  75 109 145 190 239 304 360 429
#
# _framework density 24.393471000000002
#
# number of rings (size 3 to 8) (size 9 to 14) (size 15 to 20)
#    0.000    0.571    2.857    4.286    4.000   10.286 
#    0.000    0.000    0.000    0.000    0.000    0.000 
#    0.000    0.000    0.000    0.000    0.000    0.000 
#
# Total GULP energy -173447.729923 kJ/mol
# GULP energy per Si atom -12389.123566 kJ/mol
# Density = 2.433795 g / cm^3
# Si number density = 24.393471 Si / 1000 Ang^3
#
#
#
# Elastic Constant Matrix: (Units=GPa)
#
#
# Indices 1 2 3 4 5 6 
#
# 1 84.0838 15.9068 44.4828 2.5072 8.4300 -5.1432
# 2 15.9068 83.7773 0.0910 29.2661 -8.0647 -0.9125
# 3 44.4828 0.0910 158.7723 -2.7704 -1.9283 6.7554
# 4 2.5072 29.2661 -2.7704 38.1449 5.0422 -1.7582
# 5 8.4300 -8.0647 -1.9283 5.0422 36.0047 -0.2595
# 6 -5.1432 -0.9125 6.7554 -1.7582 -0.2595 39.4686
#
#
#
# Elastic Compliance Matrix: (Units=1/GPa)
#
#
# Indices 1 2 3 4 5 6 
#
# 1 0.015769 -0.004488 -0.004549 0.002911 -0.005328 0.002824
# 2 -0.004488 0.018738 0.001115 -0.015024 0.007405 -0.000963
# 3 -0.004549 0.001115 0.007668 -0.000319 0.001757 -0.001882
# 4 0.002911 -0.015024 -0.000319 0.038864 -0.009494 0.001755
# 5 -0.005328 0.007405 0.001757 -0.009494 0.032096 -0.001036
# 6 0.002824 -0.000963 -0.001882 0.001755 -0.001036 0.026076
#
#
# Mechanical properties :
#
#
# Convention : Reuss Voigt Hill
#
# Bulk Modulus (GPa) = 37.97868 49.73273 43.85570
# Shear Modulus (GPa) = 30.51898 40.46715 35.49307
#
# Velocity S-wave (km/s) = 3.54094 4.07742 3.81861
# Velocity P-wave (km/s) = 5.68513 6.52680 6.12045
#
# Compressibility (1/GPa) = 0.02633056
#
# Stress axis : x y z
#
# Youngs Moduli (GPa) = 63.41577 53.36775 130.40946
#
# Poissons Ratio (x) = 0.23953 0.59329
# Poissons Ratio (y) = 0.28463 -0.14547
# Poissons Ratio (z) = 0.28851 -0.05953
#
# Static dielectric constant tensor:
#      x y z
#    x 4.101290 -0.535770 0.338610 
#    y -0.535770 3.676970 0.334530 
#    z 0.338610 0.334530 4.311590 
# 
# 
# High freq. dielectric constant tensor:
#      x y z
#    x 1.951050 -0.007280 -0.003740 
#    y -0.007280 2.002550 -0.000580 
#    z -0.003740 -0.000580 1.978360 
# 
# From -- ./inp_files/70011.got.cif
#   From: 2010.06.25/outbox.cif.g09.slc.cpg/sg2_36_cif.got.tgz:70011.got - 2010.06.27 13:26:56.
