data_PCOD8032691
_publ_section_title
;
Structure prediction by ZEFSAII (Michael W. Deem and Ramdas Pophale) SiO2 
 PCOD8032691
Probable space group: P -1
;
_chemical_formula_sum "Si O2"
_cell_formula_units_Z 14
_cell_length_a 12.409544
_cell_length_b 12.293352
_cell_length_c 9.108086
_cell_angle_alpha 129.377550
_cell_angle_beta 36.649164
_cell_angle_gamma 133.880436
_cell_volume 587.837868
_symmetry_space_group_name_H-M "P -1"
_symmetry_group_IT_number 2
_symmetry_cell_setting 'triclinic'
loop_
_space_group_symop_operation_xyz
x,y,z
-x,-y,-z
loop_
_atom_site_type_symbol
_atom_site_label
_atom_site_fract_x
_atom_site_fract_y
_atom_site_fract_z
Si Si1 0.483348 0.836965 0.429954
Si Si2 0.059115 0.309470 0.362553
Si Si3 0.903332 0.229738 0.037030
Si Si4 0.861303 0.959506 0.312155
Si Si5 0.579492 0.717029 0.929285
Si Si6 0.294034 0.998573 0.175552
Si Si7 0.171139 0.510167 0.121267
O O1 0.662524 0.853209 0.355510
O O2 0.482195 0.734275 0.203898
O O3 0.500000 0.000000 0.500000
O O4 0.276925 0.753123 0.665636
O O5 0.110017 0.397676 0.230423
O O6 0.910067 0.356784 0.661710
O O7 0.255165 0.347884 0.277261
O O8 0.954593 0.128602 0.285230
O O9 0.979626 0.114667 0.940953
O O10 0.837019 0.168590 0.892385
O O11 0.077798 0.401175 0.988665
O O12 0.819965 0.967551 0.536700
O O13 0.406880 0.592074 0.914563
O O14 0.675483 0.878507 0.880540
O O15 0.500000 0.000000 0.000000
#
# Coordination Sequence:
#
# PCOD8032691 Si02
#       7
#     2   2   2   2   2   2   2
#     4  12  21  39  68 105 133 171 229 291 329 395
#     4  11  23  43  70 101 145 181 226 281 355 408
#     4  12  25  43  71 102 136 180 236 283 342 405
#     4  12  25  44  75 102 138 183 236 284 342 414
#     4  12  25  44  72 103 142 183 228 284 351 413
#     4  12  24  48  72 101 141 184 232 290 346 411
#     4  11  25  43  67 105 145 178 224 291 348 409
#
# _framework density 23.816089999999999
#
# number of rings (size 3 to 8) (size 9 to 14) (size 15 to 20)
#    0.000    0.286    4.286    6.000    0.000    2.857 
#    0.000    3.571    0.000    0.000    0.000    0.000 
#    0.000    0.000    0.000    0.000    0.000    0.000 
#
# Total GULP energy -173689.835840 kJ/mol
# GULP energy per Si atom -12406.416846 kJ/mol
# Density = 2.376188 g / cm^3
# Si number density = 23.816090 Si / 1000 Ang^3
#
#
#
# Elastic Constant Matrix: (Units=GPa)
#
#
# Indices 1 2 3 4 5 6 
#
# 1 122.2671 17.2703 35.4095 5.0330 -21.3411 31.3404
# 2 17.2703 64.5571 3.6443 6.1022 -12.4491 34.1975
# 3 35.4095 3.6443 77.7131 -11.7585 -13.3915 2.1641
# 4 5.0330 6.1022 -11.7585 27.4913 -2.3688 -9.7448
# 5 -21.3411 -12.4491 -13.3915 -2.3688 52.0732 0.5366
# 6 31.3404 34.1975 2.1641 -9.7448 0.5366 51.4007
#
#
#
# Elastic Compliance Matrix: (Units=1/GPa)
#
#
# Indices 1 2 3 4 5 6 
#
# 1 0.015042 0.007280 -0.007759 -0.012959 0.005487 -0.016202
# 2 0.007280 0.034110 -0.005772 -0.021615 0.008991 -0.031081
# 3 -0.007759 -0.005772 0.018714 0.014506 0.000804 0.010525
# 4 -0.012959 -0.021615 0.014506 0.061189 -0.004308 0.033317
# 5 0.005487 0.008991 0.000804 -0.004308 0.023720 -0.010425
# 6 -0.016202 -0.031081 0.010525 0.033317 -0.010425 0.055995
#
#
# Mechanical properties :
#
#
# Convention : Reuss Voigt Hill
#
# Bulk Modulus (GPa) = 18.06273 41.90951 29.98612
# Shear Modulus (GPa) = 20.85705 40.07391 30.46548
#
# Velocity S-wave (km/s) = 2.96253 4.10645 3.58047
# Velocity P-wave (km/s) = 4.39349 6.33398 5.45078
#
# Compressibility (1/GPa) = 0.05536262
#
# Stress axis : x y z
#
# Youngs Moduli (GPa) = 66.48130 29.31692 53.43506
#
# Poissons Ratio (x) = -0.21342 0.41461
# Poissons Ratio (y) = -0.48396 0.30844
# Poissons Ratio (z) = 0.51584 0.16923
#
# Static dielectric constant tensor:
#      x y z
#    x 5.404170 0.296530 0.170040 
#    y 0.296530 4.292910 0.180890 
#    z 0.170040 0.180890 4.714690 
# 
# 
# High freq. dielectric constant tensor:
#      x y z
#    x 1.959500 0.016980 -0.021650 
#    y 0.016980 1.937450 0.007150 
#    z -0.021650 0.007150 1.937590 
# 
# From -- ./inp_files/262863.got.cif
#   From: 2010.06.25/outbox.cif.g09.slc.cpg/sg2_132_cif.got.tgz:262863.got - 2010.06.27 13:26:56.
