data_PCOD8032558
_publ_section_title
;
Structure prediction by ZEFSAII (Michael W. Deem and Ramdas Pophale) SiO2 
 PCOD8032558
Probable space group: P -1
;
_chemical_formula_sum "Si O2"
_cell_formula_units_Z 14
_cell_length_a 11.441994
_cell_length_b 19.733550
_cell_length_c 21.072189
_cell_angle_alpha 159.963951
_cell_angle_beta 157.881604
_cell_angle_gamma 30.238339
_cell_volume 613.017693
_symmetry_space_group_name_H-M "P -1"
_symmetry_group_IT_number 2
_symmetry_cell_setting 'triclinic'
loop_
_space_group_symop_operation_xyz
x,y,z
-x,-y,-z
loop_
_atom_site_type_symbol
_atom_site_label
_atom_site_fract_x
_atom_site_fract_y
_atom_site_fract_z
Si Si1 0.192379 0.800677 0.716471
Si Si2 0.818850 0.496687 0.194273
Si Si3 0.159047 0.643626 0.130842
Si Si4 0.173704 0.204017 0.349721
Si Si5 0.159884 0.243082 0.048564
Si Si6 0.834046 0.791903 0.213579
Si Si7 0.804835 0.222784 0.061920
O O1 0.945871 0.718852 0.467693
O O2 0.085734 0.739259 0.679752
O O3 0.194989 0.034028 0.915089
O O4 0.521371 0.703752 0.782450
O O5 0.751771 0.403375 0.147676
O O6 0.500000 0.500000 0.000000
O O7 0.091491 0.391669 0.201825
O O8 0.498584 0.691636 0.373362
O O9 0.127697 0.740940 0.131263
O O10 0.906330 0.749997 0.140015
O O11 0.076451 0.405747 0.875787
O O12 0.097203 0.273750 0.300613
O O13 0.172442 0.966230 0.138412
O O14 0.472253 0.819419 0.064920
O O15 0.000000 0.000000 0.500000
#
# Coordination Sequence:
#
# PCOD8032558 Si02
#       7
#     2   2   2   2   2   2   2
#     4  11  25  45  71  95 139 183 224 284 334 410
#     4  12  26  44  71 102 136 181 227 281 339 403
#     4  11  25  42  72  99 134 180 227 282 340 409
#     4  11  23  44  69 100 131 181 227 281 341 397
#     4  11  25  46  67 102 137 177 233 273 344 403
#     4  11  23  43  64  99 135 173 222 281 340 398
#     4  11  24  43  68  98 139 173 227 283 340 403
#
# _framework density 22.83784
#
# number of rings (size 3 to 8) (size 9 to 14) (size 15 to 20)
#    0.000    0.857    2.857    3.857    2.000    6.857 
#    0.000    1.429    0.000    0.000    0.000    0.000 
#    0.000    0.000    0.000    0.000    0.000    0.000 
#
# Total GULP energy -173550.384537 kJ/mol
# GULP energy per Si atom -12396.456038 kJ/mol
# Density = 2.278586 g / cm^3
# Si number density = 22.837840 Si / 1000 Ang^3
#
#
#
# Elastic Constant Matrix: (Units=GPa)
#
#
# Indices 1 2 3 4 5 6 
#
# 1 118.1403 26.7429 36.8507 -1.4305 2.3235 -20.2183
# 2 26.7429 74.7578 32.9819 0.2359 -5.3045 -1.9875
# 3 36.8507 32.9819 110.8426 -1.4970 -11.1059 -9.7373
# 4 -1.4305 0.2359 -1.4970 37.7746 -6.9583 -8.4927
# 5 2.3235 -5.3045 -11.1059 -6.9583 27.1871 -3.9329
# 6 -20.2183 -1.9875 -9.7373 -8.4927 -3.9329 49.2696
#
#
#
# Elastic Compliance Matrix: (Units=1/GPa)
#
#
# Indices 1 2 3 4 5 6 
#
# 1 0.010544 -0.002675 -0.002542 0.000838 -0.001708 0.003725
# 2 -0.002675 0.016115 -0.003855 -0.000326 0.001549 -0.001142
# 3 -0.002542 -0.003855 0.011690 0.001705 0.004937 0.001800
# 4 0.000838 -0.000326 0.001705 0.029718 0.009110 0.006517
# 5 -0.001708 0.001549 0.004937 0.009110 0.042344 0.005288
# 6 0.003725 -0.001142 0.001800 0.006517 0.005288 0.023680
#
#
# Mechanical properties :
#
#
# Convention : Reuss Voigt Hill
#
# Bulk Modulus (GPa) = 49.49532 55.21018 52.35275
# Shear Modulus (GPa) = 31.45242 36.65729 34.05485
#
# Velocity S-wave (km/s) = 3.71510 4.01073 3.86574
# Velocity P-wave (km/s) = 6.33421 6.75835 6.54971
#
# Compressibility (1/GPa) = 0.02020393
#
# Stress axis : x y z
#
# Youngs Moduli (GPa) = 94.83863 62.05403 85.54400
#
# Poissons Ratio (x) = 0.16601 0.21746
# Poissons Ratio (y) = 0.25372 0.32979
# Poissons Ratio (z) = 0.24109 0.23923
#
# Static dielectric constant tensor:
#      x y z
#    x 4.365800 -0.331840 -0.050740 
#    y -0.331840 4.061740 0.100740 
#    z -0.050740 0.100740 4.128570 
# 
# 
# High freq. dielectric constant tensor:
#      x y z
#    x 1.917430 -0.019570 -0.007040 
#    y -0.019570 1.899750 0.008390 
#    z -0.007040 0.008390 1.900650 
# 
# From -- ./inp_files/282268.got.cif
#   From: 2010.06.25/outbox.cif.g09.slc.cpg/sg2_142_cif.got.tgz:282268.got - 2010.06.27 13:26:56.
