data_PCOD8032302
_publ_section_title
;
Structure prediction by ZEFSAII (Michael W. Deem and Ramdas Pophale) SiO2 
 PCOD8032302
Probable space group: P -1
;
_chemical_formula_sum "Si O2"
_cell_formula_units_Z 14
_cell_length_a 4.986733
_cell_length_b 18.679524
_cell_length_c 12.343492
_cell_angle_alpha 138.947901
_cell_angle_beta 81.866655
_cell_angle_gamma 120.128634
_cell_volume 593.516214
_symmetry_space_group_name_H-M "P -1"
_symmetry_group_IT_number 2
_symmetry_cell_setting 'triclinic'
loop_
_space_group_symop_operation_xyz
x,y,z
-x,-y,-z
loop_
_atom_site_type_symbol
_atom_site_label
_atom_site_fract_x
_atom_site_fract_y
_atom_site_fract_z
Si Si1 0.165404 0.150162 0.407405
Si Si2 0.819517 0.587378 0.505252
Si Si3 0.105658 0.904027 0.412333
Si Si4 0.875049 0.120039 0.154259
Si Si5 0.817338 0.862282 0.053836
Si Si6 0.937182 0.264510 0.971110
Si Si7 0.688453 0.441597 0.656033
O O1 0.553245 0.292560 0.543193
O O2 0.016536 0.167002 0.544035
O O3 0.939089 0.113892 0.270360
O O4 0.128991 0.009341 0.258824
O O5 0.500000 0.500000 0.500000
O O6 0.655921 0.586821 0.400256
O O7 0.082481 0.740708 0.710153
O O8 0.023160 0.522923 0.408180
O O9 0.980681 0.784887 0.196592
O O10 0.500000 0.000000 0.500000
O O11 0.000000 0.000000 0.500000
O O12 0.148916 0.123470 0.063982
O O13 0.500000 0.000000 0.000000
O O14 0.459629 0.819252 0.070969
O O15 0.875977 0.751217 0.958015
O O16 0.119176 0.426423 0.125792
#
# Coordination Sequence:
#
# PCOD8032302 Si02
#       7
#     2   2   2   2   2   2   2
#     4  11  25  45  69 103 142 179 233 286 351 401
#     4  11  23  42  64  95 141 187 224 270 339 414
#     4  12  25  47  74 100 135 180 235 290 343 412
#     4  11  24  41  69 105 142 181 230 285 345 404
#     4  12  24  43  70 100 139 183 231 280 336 417
#     4  12  24  45  71 103 134 183 234 279 341 412
#     4  11  25  41  66 100 139 176 227 285 343 403
#
# _framework density 23.588238
#
# number of rings (size 3 to 8) (size 9 to 14) (size 15 to 20)
#    0.000    0.571    2.857    5.143    0.000    8.571 
#    0.000    0.000    0.000    7.714    0.000    0.000 
#    0.000    0.000    0.000    0.000    0.000    0.000 
#
# Total GULP energy -173474.941442 kJ/mol
# GULP energy per Si atom -12391.067246 kJ/mol
# Density = 2.353455 g / cm^3
# Si number density = 23.588238 Si / 1000 Ang^3
#
#
#
# Elastic Constant Matrix: (Units=GPa)
#
#
# Indices 1 2 3 4 5 6 
#
# 1 106.4244 31.0272 43.4928 -2.6747 -7.3419 15.6103
# 2 31.0272 120.6037 80.6444 -6.4655 1.4622 15.9493
# 3 43.4928 80.6444 196.9216 11.7687 -12.6700 17.4823
# 4 -2.6747 -6.4655 11.7687 63.3317 0.5992 -0.1986
# 5 -7.3419 1.4622 -12.6700 0.5992 31.7981 -3.2877
# 6 15.6103 15.9493 17.4823 -0.1986 -3.2877 20.4176
#
#
#
# Elastic Compliance Matrix: (Units=1/GPa)
#
#
# Indices 1 2 3 4 5 6 
#
# 1 0.011350 -0.001107 -0.001433 0.000599 0.001433 -0.006349
# 2 -0.001107 0.012665 -0.004803 0.002153 -0.003356 -0.005454
# 3 -0.001433 -0.004803 0.007791 -0.002030 0.002890 -0.001378
# 4 0.000599 0.002153 -0.002030 0.016422 -0.001123 -0.000423
# 5 0.001433 -0.003356 0.002890 -0.001123 0.033566 0.004446
# 6 -0.006349 -0.005454 -0.001378 -0.000423 0.004446 0.059984
#
#
# Mechanical properties :
#
#
# Convention : Reuss Voigt Hill
#
# Bulk Modulus (GPa) = 58.41058 81.58652 69.99855
# Shear Modulus (GPa) = 30.83170 41.02850 35.93010
#
# Velocity S-wave (km/s) = 3.61928 4.17509 3.90708
# Velocity P-wave (km/s) = 6.50245 7.60952 7.07766
#
# Compressibility (1/GPa) = 0.01712019
#
# Stress axis : x y z
#
# Youngs Moduli (GPa) = 88.10514 78.95605 128.35049
#
# Poissons Ratio (x) = 0.08741 0.18398
# Poissons Ratio (y) = 0.09754 0.61642
# Poissons Ratio (z) = 0.12629 0.37920
#
# Static dielectric constant tensor:
#      x y z
#    x 4.028450 -0.401060 -0.375840 
#    y -0.401060 4.447790 0.186890 
#    z -0.375840 0.186890 4.533540 
# 
# 
# High freq. dielectric constant tensor:
#      x y z
#    x 1.921700 0.010220 -0.014550 
#    y 0.010220 1.932890 0.014080 
#    z -0.014550 0.014080 1.949810 
# 
# From -- ./inp_files/370103.got.cif
#   From: 2010.06.25/outbox.cif.g09.slc.cpg/sg2_186_cif.got.tgz:370103.got - 2010.06.27 13:26:56.
