data_PCOD8032399
_publ_section_title
;
Structure prediction by ZEFSAII (Michael W. Deem and Ramdas Pophale) SiO2 
 PCOD8032399
Probable space group: P -1
;
_chemical_formula_sum "Si O2"
_cell_formula_units_Z 14
_cell_length_a 9.234430
_cell_length_b 12.771553
_cell_length_c 8.713369
_cell_angle_alpha 69.808926
_cell_angle_beta 116.188629
_cell_angle_gamma 63.944401
_cell_volume 616.025418
_symmetry_space_group_name_H-M "P -1"
_symmetry_group_IT_number 2
_symmetry_cell_setting 'triclinic'
loop_
_space_group_symop_operation_xyz
x,y,z
-x,-y,-z
loop_
_atom_site_type_symbol
_atom_site_label
_atom_site_fract_x
_atom_site_fract_y
_atom_site_fract_z
Si Si1 0.135213 0.617461 0.392191
Si Si2 0.017316 0.116125 0.005950
Si Si3 0.260175 0.087878 0.774878
Si Si4 0.900804 0.573657 0.083404
Si Si5 0.856893 0.092402 0.234893
Si Si6 0.564971 0.939358 0.728731
Si Si7 0.413277 0.436220 0.899289
O O1 0.354872 0.495294 0.664621
O O2 0.920282 0.731823 0.350134
O O3 0.097247 0.529351 0.307845
O O4 0.163005 0.715445 0.250574
O O5 0.965305 0.135587 0.154890
O O6 0.265594 0.049378 0.125799
O O7 0.000000 0.000000 0.000000
O O8 0.160580 0.015332 0.814065
O O9 0.319084 0.056304 0.637469
O O10 0.500000 0.000000 0.000000
O O11 0.808872 0.504178 0.149912
O O12 0.691736 0.760121 0.881392
O O13 0.000000 0.500000 0.000000
O O14 0.606523 0.249539 0.087320
O O15 0.000000 0.000000 0.500000
O O16 0.500000 0.000000 0.500000
O O17 0.500000 0.500000 0.000000
#
# Coordination Sequence:
#
# PCOD8032399 Si02
#       7
#     2   2   2   2   2   2   2
#     4  11  25  47  72 102 144 187 237 292 355 423
#     4  11  23  42  69 102 134 174 231 290 348 404
#     4  12  20  44  72  97 132 180 237 282 343 414
#     4  11  26  48  67 101 144 186 233 288 356 425
#     4  12  25  45  69  99 140 182 230 293 350 420
#     4  11  24  41  69 103 133 177 235 287 343 414
#     4  12  28  46  69 104 142 190 235 286 364 421
#
# _framework density 22.726337000000001
#
# number of rings (size 3 to 8) (size 9 to 14) (size 15 to 20)
#    0.000    0.571    5.714    2.143    6.000    0.571 
#    2.571    0.000    0.000    0.000    0.000    0.000 
#    0.000    0.000    0.000    0.000    0.000    0.000 
#
# Total GULP energy -173575.844296 kJ/mol
# GULP energy per Si atom -12398.274593 kJ/mol
# Density = 2.267461 g / cm^3
# Si number density = 22.726337 Si / 1000 Ang^3
#
#
#
# Elastic Constant Matrix: (Units=GPa)
#
#
# Indices 1 2 3 4 5 6 
#
# 1 134.4390 37.4236 34.9499 5.9885 -24.1765 6.8423
# 2 37.4236 121.5902 38.3512 22.3833 3.5571 8.1678
# 3 34.9499 38.3512 168.0265 14.0422 -19.6584 9.9566
# 4 5.9885 22.3833 14.0422 26.3097 -3.7000 6.7794
# 5 -24.1765 3.5571 -19.6584 -3.7000 36.5105 7.1449
# 6 6.8423 8.1678 9.9566 6.7794 7.1449 51.9617
#
#
#
# Elastic Compliance Matrix: (Units=1/GPa)
#
#
# Indices 1 2 3 4 5 6 
#
# 1 0.009793 -0.003377 -0.000514 0.002433 0.007167 -0.001963
# 2 -0.003377 0.011640 -0.001888 -0.009137 -0.005494 0.000924
# 3 -0.000514 -0.001888 0.007117 -0.001184 0.003823 -0.001370
# 4 0.002433 -0.009137 -0.001184 0.048551 0.007975 -0.006088
# 5 0.007167 -0.005494 0.003823 0.007975 0.036893 -0.006926
# 6 -0.001963 0.000924 -0.001370 -0.006088 -0.006926 0.021367
#
#
# Mechanical properties :
#
#
# Convention : Reuss Voigt Hill
#
# Bulk Modulus (GPa) = 58.86000 71.72279 65.29139
# Shear Modulus (GPa) = 32.76871 43.84510 38.30690
#
# Velocity S-wave (km/s) = 3.80133 4.39710 4.11003
# Velocity P-wave (km/s) = 6.72477 7.57675 7.16344
#
# Compressibility (1/GPa) = 0.01698947
#
# Stress axis : x y z
#
# Youngs Moduli (GPa) = 102.11726 85.90960 140.51012
#
# Poissons Ratio (x) = 0.29015 0.07229
# Poissons Ratio (y) = 0.34489 0.26532
# Poissons Ratio (z) = 0.05254 0.16222
#
# Static dielectric constant tensor:
#      x y z
#    x 5.936190 -1.209580 0.092850 
#    y -1.209580 5.077840 -0.061700 
#    z 0.092850 -0.061700 4.335100 
# 
# 
# High freq. dielectric constant tensor:
#      x y z
#    x 1.909820 -0.000100 -0.015750 
#    y -0.000100 1.898930 0.018260 
#    z -0.015750 0.018260 1.896340 
# 
# From -- ./inp_files/186123.got.cif
#   From: 2010.06.25/outbox.cif.g09.slc.cpg/sg2_94_cif.got.tgz:186123.got - 2010.06.27 13:26:56.
