data_PCOD8032197
_publ_section_title
;
Structure prediction by ZEFSAII (Michael W. Deem and Ramdas Pophale) SiO2 
 PCOD8032197
Probable space group: P -1
;
_chemical_formula_sum "Si O2"
_cell_formula_units_Z 14
_cell_length_a 9.312410
_cell_length_b 10.017637
_cell_length_c 14.102776
_cell_angle_alpha 99.683083
_cell_angle_beta 120.825840
_cell_angle_gamma 39.872530
_cell_volume 660.971689
_symmetry_space_group_name_H-M "P -1"
_symmetry_group_IT_number 2
_symmetry_cell_setting 'triclinic'
loop_
_space_group_symop_operation_xyz
x,y,z
-x,-y,-z
loop_
_atom_site_type_symbol
_atom_site_label
_atom_site_fract_x
_atom_site_fract_y
_atom_site_fract_z
Si Si1 0.798307 0.500880 0.703335
Si Si2 0.671665 0.989418 0.118380
Si Si3 0.641518 0.307213 0.144729
Si Si4 0.962478 0.655362 0.442767
Si Si5 0.388880 0.108400 0.225586
Si Si6 0.073222 0.806132 0.957877
Si Si7 0.782021 0.234958 0.399735
O O1 0.798811 0.653061 0.761926
O O2 0.507562 0.610061 0.626675
O O3 0.897636 0.456386 0.624881
O O4 0.008056 0.269614 0.806242
O O5 0.632395 0.162541 0.080432
O O6 0.558766 0.071928 0.196292
O O7 0.500000 0.000000 0.000000
O O8 0.841854 0.254142 0.131821
O O9 0.777863 0.209096 0.282983
O O10 0.332509 0.575742 0.078601
O O11 0.000000 0.500000 0.500000
O O12 0.129063 0.667953 0.550464
O O13 0.625323 0.899033 0.352921
O O14 0.199822 0.111669 0.117999
O O15 0.000000 0.000000 0.000000
O O16 0.000000 0.000000 0.500000
#
# Coordination Sequence:
#
# PCOD8032197 Si02
#       7
#     2   2   2   2   2   2   2
#     4  11  24  44  70  96 135 182 222 285 346 401
#     4  11  23  41  69 101 131 170 231 280 335 409
#     4  11  26  44  68 103 135 181 231 281 341 418
#     4  11  27  43  68 102 135 180 231 285 341 414
#     4  11  24  44  66 100 134 173 232 278 340 409
#     4  11  27  45  68  99 141 184 225 283 353 407
#     4  12  24  48  70 100 143 180 236 281 344 416
#
# _framework density 21.180938999999999
#
# number of rings (size 3 to 8) (size 9 to 14) (size 15 to 20)
#    0.000    0.857    2.857    3.000    8.000    5.143 
#    0.000    0.000    0.000    0.000    0.000    0.000 
#    0.000    0.000    0.000    0.000    0.000    0.000 
#
# Total GULP energy -173620.735165 kJ/mol
# GULP energy per Si atom -12401.481083 kJ/mol
# Density = 2.113273 g / cm^3
# Si number density = 21.180939 Si / 1000 Ang^3
#
#
#
# Elastic Constant Matrix: (Units=GPa)
#
#
# Indices 1 2 3 4 5 6 
#
# 1 95.3957 44.5308 36.5535 -13.1122 11.9320 11.3504
# 2 44.5308 151.1974 57.1147 -12.8455 10.2184 17.6643
# 3 36.5535 57.1147 114.2159 -13.2754 3.8626 4.5434
# 4 -13.1122 -12.8455 -13.2754 42.0359 4.4493 3.9480
# 5 11.9320 10.2184 3.8626 4.4493 45.1146 3.2325
# 6 11.3504 17.6643 4.5434 3.9480 3.2325 45.2917
#
#
#
# Elastic Compliance Matrix: (Units=1/GPa)
#
#
# Indices 1 2 3 4 5 6 
#
# 1 0.013668 -0.002261 -0.002668 0.003271 -0.003029 -0.002345
# 2 -0.002261 0.009115 -0.003536 0.001331 -0.001104 -0.002671
# 3 -0.002668 -0.003536 0.011527 0.001627 0.000307 0.000728
# 4 0.003271 0.001331 0.001627 0.026450 -0.003660 -0.003546
# 5 -0.003029 -0.001104 0.000307 -0.003660 0.023566 -0.000204
# 6 -0.002345 -0.002671 0.000728 -0.003546 -0.000204 0.023959
#
#
# Mechanical properties :
#
#
# Convention : Reuss Voigt Hill
#
# Bulk Modulus (GPa) = 57.53706 70.80080 64.16893
# Shear Modulus (GPa) = 38.16511 41.32909 39.74710
#
# Velocity S-wave (km/s) = 4.24944 4.42208 4.33662
# Velocity P-wave (km/s) = 7.16244 7.71830 7.44556
#
# Compressibility (1/GPa) = 0.01738010
#
# Stress axis : x y z
#
# Youngs Moduli (GPa) = 73.16488 109.70441 86.75141
#
# Poissons Ratio (x) = 0.24807 0.23142
# Poissons Ratio (y) = 0.16545 0.30678
# Poissons Ratio (z) = 0.19517 0.38794
#
# Static dielectric constant tensor:
#      x y z
#    x 4.041570 0.045590 -0.430750 
#    y 0.045590 3.837880 -0.490730 
#    z -0.430750 -0.490730 2.823710 
# 
# 
# High freq. dielectric constant tensor:
#      x y z
#    x 1.840310 0.003430 0.000150 
#    y 0.003430 1.846500 -0.001550 
#    z 0.000150 -0.001550 1.836980 
# 
# From -- ./inp_files/40168.got.cif
#   From: 2010.06.25/outbox.cif.g09.slc.cpg/sg2_21_cif.got.tgz:40168.got - 2010.06.27 13:26:56.
