data_PCOD8032454
_publ_section_title
;
Structure prediction by ZEFSAII (Michael W. Deem and Ramdas Pophale) SiO2 
 PCOD8032454
Probable space group: P -1
;
_chemical_formula_sum "Si O2"
_cell_formula_units_Z 12
_cell_length_a 10.126309
_cell_length_b 14.599225
_cell_length_c 9.325275
_cell_angle_alpha 118.625361
_cell_angle_beta 150.515008
_cell_angle_gamma 59.332736
_cell_volume 581.640466
_symmetry_space_group_name_H-M "P -1"
_symmetry_group_IT_number 2
_symmetry_cell_setting 'triclinic'
loop_
_space_group_symop_operation_xyz
x,y,z
-x,-y,-z
loop_
_atom_site_type_symbol
_atom_site_label
_atom_site_fract_x
_atom_site_fract_y
_atom_site_fract_z
Si Si1 0.242675 0.789080 0.541676
Si Si2 0.206703 0.557453 0.318161
Si Si3 0.325217 0.085520 0.003151
Si Si4 0.713344 0.033127 0.830595
Si Si5 0.412335 0.738980 0.988973
Si Si6 0.982541 0.403624 0.514710
O O1 0.181056 0.679960 0.338102
O O2 0.317902 0.779615 0.772405
O O3 0.962248 0.874948 0.319371
O O4 0.501233 0.822918 0.732726
O O5 0.500000 0.500000 0.500000
O O6 0.164057 0.548261 0.440983
O O7 0.000000 0.500000 0.000000
O O8 0.500000 0.000000 0.000000
O O9 0.267252 0.032037 0.054372
O O10 0.500000 0.000000 0.500000
O O11 0.620930 0.160080 0.862593
O O12 0.000000 0.000000 0.000000
O O13 0.211023 0.664554 0.798625
O O14 0.723841 0.672170 0.230616
O O15 0.000000 0.500000 0.500000
#
# Coordination Sequence:
#
# PCOD8032454 Si02
#       6
#     2   2   2   2   2   2
#     4  11  23  42  71 100 126 176 228 263 326 393
#     4  11  23  43  66  97 134 164 210 285 332 370
#     4  12  24  42  72  97 129 173 230 267 309 416
#     4  12  27  45  64 100 142 171 213 277 342 376
#     4  11  23  44  72  93 133 179 220 268 328 398
#     4  11  24  45  70  96 128 178 227 262 325 409
#
# _framework density 20.631302000000002
#
# number of rings (size 3 to 8) (size 9 to 14) (size 15 to 20)
#    0.000    0.667    1.667    8.000    2.333    0.000 
#   18.000    0.000    0.000    0.000    0.000    0.000 
#    0.000    0.000    0.000    0.000    0.000    0.000 
#
# Total GULP energy -148817.990216 kJ/mol
# GULP energy per Si atom -12401.499185 kJ/mol
# Density = 2.058434 g / cm^3
# Si number density = 20.631302 Si / 1000 Ang^3
#
#
#
# Elastic Constant Matrix: (Units=GPa)
#
#
# Indices 1 2 3 4 5 6 
#
# 1 152.6900 86.7301 65.1948 -4.4337 17.2361 1.5700
# 2 86.7301 134.2733 72.1241 7.9021 -1.4242 -6.1253
# 3 65.1948 72.1241 165.0355 5.0438 17.4196 -15.2662
# 4 -4.4337 7.9021 5.0438 58.7126 -2.2014 9.0656
# 5 17.2361 -1.4242 17.4196 -2.2014 36.1972 4.7662
# 6 1.5700 -6.1253 -15.2662 9.0656 4.7662 37.1446
#
#
#
# Elastic Compliance Matrix: (Units=1/GPa)
#
#
# Indices 1 2 3 4 5 6 
#
# 1 0.011837 -0.007247 -0.001248 0.002115 -0.004916 -0.002094
# 2 -0.007247 0.014448 -0.003905 -0.002078 0.005658 0.000865
# 3 -0.001248 -0.003905 0.009149 -0.001149 -0.004563 0.004035
# 4 0.002115 -0.002078 -0.001149 0.018482 0.001323 -0.005585
# 5 -0.004916 0.005658 -0.004563 0.001323 0.033166 -0.005313
# 6 -0.002094 0.000865 0.004035 -0.005585 -0.005313 0.030856
#
#
# Mechanical properties :
#
#
# Convention : Reuss Voigt Hill
#
# Bulk Modulus (GPa) = 94.04706 100.01075 97.02890
# Shear Modulus (GPa) = 34.18045 41.60755 37.89400
#
# Velocity S-wave (km/s) = 4.07471 4.49566 4.29035
# Velocity P-wave (km/s) = 8.23537 8.69071 8.46610
#
# Compressibility (1/GPa) = 0.01063297
#
# Stress axis : x y z
#
# Youngs Moduli (GPa) = 84.48356 69.21413 109.30382
#
# Poissons Ratio (x) = 0.50162 0.13642
# Poissons Ratio (y) = 0.61228 0.42681
# Poissons Ratio (z) = 0.10544 0.27027
#
# Static dielectric constant tensor:
#      x y z
#    x 3.938610 0.150720 -0.051620 
#    y 0.150720 4.137370 0.147210 
#    z -0.051620 0.147210 4.550630 
# 
# 
# High freq. dielectric constant tensor:
#      x y z
#    x 1.803390 0.002850 0.017950 
#    y 0.002850 1.823610 0.006620 
#    z 0.017950 0.006620 1.831590 
# 
# From -- ./inp_files/49767.got.cif
#   From: 2010.06.25/outbox.cif.g09.slc.cpg/sg2_25_cif.got.tgz:49767.got - 2010.06.27 13:26:56.
