data_PCOD8032461
_publ_section_title
;
Structure prediction by ZEFSAII (Michael W. Deem and Ramdas Pophale) SiO2 
 PCOD8032461
Probable space group: P -1
;
_chemical_formula_sum "Si O2"
_cell_formula_units_Z 12
_cell_length_a 12.707818
_cell_length_b 16.457262
_cell_length_c 17.935289
_cell_angle_alpha 153.627716
_cell_angle_beta 20.212657
_cell_angle_gamma 151.821488
_cell_volume 555.028064
_symmetry_space_group_name_H-M "P -1"
_symmetry_group_IT_number 2
_symmetry_cell_setting 'triclinic'
loop_
_space_group_symop_operation_xyz
x,y,z
-x,-y,-z
loop_
_atom_site_type_symbol
_atom_site_label
_atom_site_fract_x
_atom_site_fract_y
_atom_site_fract_z
Si Si1 0.310510 0.444311 0.768611
Si Si2 0.777934 0.877403 0.985255
Si Si3 0.071941 0.347680 0.557966
Si Si4 0.175203 0.007762 0.468144
Si Si5 0.381283 0.494909 0.933127
Si Si6 0.271025 0.797136 0.481809
O O1 0.576759 0.549493 0.618889
O O2 0.233176 0.216344 0.635937
O O3 0.408806 0.525498 0.851585
O O4 0.000000 0.500000 0.000000
O O5 0.588665 0.684094 0.992153
O O6 0.963818 0.805095 0.737428
O O7 0.526474 0.979541 0.201630
O O8 0.000000 0.000000 0.000000
O O9 0.830870 0.280855 0.595699
O O10 0.047391 0.157759 0.468020
O O11 0.970288 0.513456 0.809295
O O12 0.000000 0.000000 0.500000
O O13 0.514665 0.321531 0.720983
O O14 0.500000 0.000000 0.500000
#
# Coordination Sequence:
#
# PCOD8032461 Si02
#       6
#     2   2   2   2   2   2
#     4  12  26  47  75 102 141 192 238 294 359 423
#     4  11  23  42  71 102 142 185 232 295 355 415
#     4  11  26  46  72 105 141 185 241 292 353 432
#     4  11  27  49  72 103 146 189 240 298 361 425
#     4  11  24  45  69 103 144 182 234 296 356 419
#     4  12  24  41  70 106 142 186 236 291 364 425
#
# _framework density 21.620526999999999
#
# number of rings (size 3 to 8) (size 9 to 14) (size 15 to 20)
#    0.000    0.667    1.667    7.000    4.667    3.333 
#    0.000    0.000    0.000    0.000    0.000    0.000 
#    0.000    0.000    0.000    0.000    0.000    0.000 
#
# Total GULP energy -148731.263808 kJ/mol
# GULP energy per Si atom -12394.271984 kJ/mol
# Density = 2.157132 g / cm^3
# Si number density = 21.620527 Si / 1000 Ang^3
#
#
#
# Elastic Constant Matrix: (Units=GPa)
#
#
# Indices 1 2 3 4 5 6 
#
# 1 126.6720 56.3797 56.4225 -6.2421 -4.3810 -9.4335
# 2 56.3797 115.1652 93.5308 6.2636 -14.0513 -5.8453
# 3 56.4225 93.5308 191.7707 4.0190 -0.7207 -16.1741
# 4 -6.2421 6.2636 4.0190 41.5182 -3.9705 1.9022
# 5 -4.3810 -14.0513 -0.7207 -3.9705 43.6242 0.2900
# 6 -9.4335 -5.8453 -16.1741 1.9022 0.2900 38.2803
#
#
#
# Elastic Compliance Matrix: (Units=1/GPa)
#
#
# Indices 1 2 3 4 5 6 
#
# 1 0.010491 -0.004583 -0.000778 0.002255 -0.000240 0.001447
# 2 -0.004583 0.017407 -0.007201 -0.002088 0.004847 -0.001447
# 3 -0.000778 -0.007201 0.009173 -0.000257 -0.002287 0.002615
# 4 0.002255 -0.002088 -0.000257 0.024992 0.001832 -0.001128
# 5 -0.000240 0.004847 -0.002287 0.001832 0.024593 -0.000563
# 6 0.001447 -0.001447 0.002615 -0.001128 -0.000563 0.027424
#
#
# Mechanical properties :
#
#
# Convention : Reuss Voigt Hill
#
# Bulk Modulus (GPa) = 83.70265 94.03042 88.86654
# Shear Modulus (GPa) = 34.91983 39.83620 37.37801
#
# Velocity S-wave (km/s) = 4.02322 4.29711 4.16242
# Velocity P-wave (km/s) = 7.77047 8.25869 8.01830
#
# Compressibility (1/GPa) = 0.01194705
#
# Stress axis : x y z
#
# Youngs Moduli (GPa) = 95.31878 57.44869 109.01630
#
# Poissons Ratio (x) = 0.26328 0.08478
# Poissons Ratio (y) = 0.43683 0.78507
# Poissons Ratio (z) = 0.07412 0.41371
#
# Static dielectric constant tensor:
#      x y z
#    x 4.185050 -0.072310 0.425860 
#    y -0.072310 4.134650 -0.002230 
#    z 0.425860 -0.002230 4.383550 
# 
# 
# High freq. dielectric constant tensor:
#      x y z
#    x 1.855260 0.005890 0.006730 
#    y 0.005890 1.860740 0.003140 
#    z 0.006730 0.003140 1.870020 
# 
# From -- ./inp_files/166914.got.cif
#   From: 2010.06.25/outbox.cif.g09.slc.cpg/sg2_84_cif.got.tgz:166914.got - 2010.06.27 13:26:56.
