data_PCOD8032307
_publ_section_title
;
Structure prediction by ZEFSAII (Michael W. Deem and Ramdas Pophale) SiO2 
 PCOD8032307
Probable space group: P -1
;
_chemical_formula_sum "Si O2"
_cell_formula_units_Z 14
_cell_length_a 5.235794
_cell_length_b 20.254482
_cell_length_c 20.593347
_cell_angle_alpha 20.562117
_cell_angle_beta 64.664165
_cell_angle_gamma 56.427442
_cell_volume 608.218055
_symmetry_space_group_name_H-M "P -1"
_symmetry_group_IT_number 2
_symmetry_cell_setting 'triclinic'
loop_
_space_group_symop_operation_xyz
x,y,z
-x,-y,-z
loop_
_atom_site_type_symbol
_atom_site_label
_atom_site_fract_x
_atom_site_fract_y
_atom_site_fract_z
Si Si1 0.293089 0.663803 0.426542
Si Si2 0.243594 0.575858 0.877429
Si Si3 0.156692 0.814423 0.793460
Si Si4 0.163475 0.707696 0.620520
Si Si5 0.001021 0.860459 0.975559
Si Si6 0.725064 0.738009 0.996756
Si Si7 0.725197 0.564569 0.597840
O O1 0.500000 0.500000 0.500000
O O2 0.491144 0.601619 0.528820
O O3 0.950477 0.671684 0.465259
O O4 0.213279 0.900310 0.194022
O O5 0.267042 0.735977 0.780047
O O6 0.158313 0.705169 0.701174
O O7 0.574071 0.357157 0.030161
O O8 0.000000 0.500000 0.000000
O O9 0.831624 0.806678 0.855471
O O10 0.109776 0.053242 0.589555
O O11 0.507467 0.664656 0.593608
O O12 0.088485 0.521406 0.774396
O O13 0.347904 0.824594 0.948745
O O14 0.804072 0.842707 0.952601
O O15 0.043477 0.690901 0.183085
#
# Coordination Sequence:
#
# PCOD8032307 Si02
#       7
#     2   2   2   2   2   2   2
#     4  12  26  46  72 105 140 177 222 274 340 410
#     4  11  24  44  60  97 135 174 227 279 339 397
#     4  11  23  42  65  89 136 177 225 282 339 386
#     4  11  23  44  68  96 128 180 228 276 332 401
#     4  11  24  44  70 101 142 175 223 281 335 392
#     4  11  23  43  69 100 136 180 229 284 331 400
#     4  11  25  44  70 105 134 178 232 270 336 410
#
# _framework density 23.018058
#
# number of rings (size 3 to 8) (size 9 to 14) (size 15 to 20)
#    0.000    0.857    1.429    6.857    0.000    1.714 
#   10.286    0.000    0.000    0.000    0.000    0.000 
#    0.000    0.000    0.000    0.000    0.000    0.000 
#
# Total GULP energy -173585.799987 kJ/mol
# GULP energy per Si atom -12398.985713 kJ/mol
# Density = 2.296567 g / cm^3
# Si number density = 23.018058 Si / 1000 Ang^3
#
#
#
# Elastic Constant Matrix: (Units=GPa)
#
#
# Indices 1 2 3 4 5 6 
#
# 1 81.0860 16.0518 -0.6910 -0.6548 -13.9274 7.7726
# 2 16.0518 62.0255 39.2536 -10.3496 -13.4934 2.6218
# 3 -0.6910 39.2536 157.6025 -33.9368 -16.6460 8.4481
# 4 -0.6548 -10.3496 -33.9368 41.5854 6.5779 -7.1023
# 5 -13.9274 -13.4934 -16.6460 6.5779 30.1343 2.6147
# 6 7.7726 2.6218 8.4481 -7.1023 2.6147 17.7684
#
#
#
# Elastic Compliance Matrix: (Units=1/GPa)
#
#
# Indices 1 2 3 4 5 6 
#
# 1 0.015157 -0.003313 0.001776 -0.001864 0.007679 -0.008861
# 2 -0.003313 0.021132 -0.004586 0.000631 0.005262 -0.000011
# 3 0.001776 -0.004586 0.009104 0.005407 0.002850 -0.002687
# 4 -0.001864 0.000631 0.005407 0.031415 -0.005449 0.011511
# 5 0.007679 0.005262 0.002850 -0.005449 0.043069 -0.014006
# 6 -0.008861 -0.000011 -0.002687 0.011511 -0.014006 0.068097
#
#
# Mechanical properties :
#
#
# Convention : Reuss Voigt Hill
#
# Bulk Modulus (GPa) = 30.16699 45.54921 37.85810
# Shear Modulus (GPa) = 23.66667 34.30426 28.98546
#
# Velocity S-wave (km/s) = 3.21000 3.86465 3.55244
# Velocity P-wave (km/s) = 5.18392 6.30440 5.77142
#
# Compressibility (1/GPa) = 0.03314881
#
# Stress axis : x y z
#
# Youngs Moduli (GPa) = 65.97730 47.32124 109.83844
#
# Poissons Ratio (x) = 0.15675 -0.19508
# Poissons Ratio (y) = 0.21855 0.50369
# Poissons Ratio (z) = -0.11718 0.21700
#
# Static dielectric constant tensor:
#      x y z
#    x 4.076890 -0.037960 -0.066090 
#    y -0.037960 4.236720 0.030940 
#    z -0.066090 0.030940 4.560770 
# 
# 
# High freq. dielectric constant tensor:
#      x y z
#    x 1.904300 -0.002130 -0.005530 
#    y -0.002130 1.902210 -0.004840 
#    z -0.005530 -0.004840 1.925620 
# 
# From -- ./inp_files/584251.got.cif
#   From: 2010.06.25/outbox.cif.g09.slc.cpg/sg2_293_cif.got.tgz:584251.got - 2010.06.27 13:26:56.
