data_PCOD8032139
_publ_section_title
;
Structure prediction by ZEFSAII (Michael W. Deem and Ramdas Pophale) SiO2 
 PCOD8032139
Probable space group: P -1
;
_chemical_formula_sum "Si O2"
_cell_formula_units_Z 14
_cell_length_a 5.069518
_cell_length_b 16.378919
_cell_length_c 11.861559
_cell_angle_alpha 42.665735
_cell_angle_beta 83.726370
_cell_angle_gamma 101.885231
_cell_volume 600.588405
_symmetry_space_group_name_H-M "P -1"
_symmetry_group_IT_number 2
_symmetry_cell_setting 'triclinic'
loop_
_space_group_symop_operation_xyz
x,y,z
-x,-y,-z
loop_
_atom_site_type_symbol
_atom_site_label
_atom_site_fract_x
_atom_site_fract_y
_atom_site_fract_z
Si Si1 0.425351 0.361704 0.501870
Si Si2 0.841864 0.787989 0.672949
Si Si3 0.745124 0.229159 0.016791
Si Si4 0.248263 0.582715 0.993133
Si Si5 0.034921 0.663310 0.610746
Si Si6 0.632225 0.668974 0.213070
Si Si7 0.738244 0.019669 0.376498
O O1 0.108103 0.284706 0.535376
O O2 0.468623 0.512751 0.358482
O O3 0.419837 0.298644 0.688643
O O4 0.668341 0.344484 0.430856
O O5 0.568064 0.645792 0.855917
O O6 0.086243 0.755846 0.626631
O O7 0.952838 0.868904 0.701741
O O8 0.754541 0.879572 0.498237
O O9 0.480201 0.246850 0.949379
O O10 0.024557 0.287713 0.863887
O O11 0.811428 0.298629 0.067384
O O12 0.663777 0.073965 0.207128
O O13 0.220999 0.483006 0.198284
O O14 0.000000 0.500000 0.000000
O O15 0.500000 0.000000 0.500000
#
# Coordination Sequence:
#
# PCOD8032139 Si02
#       7
#     2   2   2   2   2   2   2
#     4  11  23  41  65  97 133 170 223 274 344 400
#     4  11  26  43  65  97 142 179 226 269 326 406
#     4  12  23  41  68  95 134 174 224 271 334 391
#     4  12  23  40  63 102 143 172 208 266 342 413
#     4  12  24  40  67 100 136 176 210 277 346 403
#     4  11  23  42  65  96 131 174 222 281 329 404
#     4  11  25  44  67  96 132 184 233 270 313 397
#
# _framework density 23.310473999999999
#
# number of rings (size 3 to 8) (size 9 to 14) (size 15 to 20)
#    0.000    0.571    4.286    3.857    4.000    2.286 
#    0.000    0.000    0.000    5.143    0.000    0.000 
#    0.000    0.000    0.000    0.000    0.000    0.000 
#
# Total GULP energy -173587.207191 kJ/mol
# GULP energy per Si atom -12399.086228 kJ/mol
# Density = 2.325742 g / cm^3
# Si number density = 23.310474 Si / 1000 Ang^3
#
#
#
# Elastic Constant Matrix: (Units=GPa)
#
#
# Indices 1 2 3 4 5 6 
#
# 1 93.7587 16.5503 7.4857 12.7637 9.5495 -2.5242
# 2 16.5503 62.3066 14.9291 19.8372 -0.8327 -9.5489
# 3 7.4857 14.9291 75.6802 18.4603 19.2140 1.8262
# 4 12.7637 19.8372 18.4603 26.2817 -4.8640 -3.1294
# 5 9.5495 -0.8327 19.2140 -4.8640 40.1857 0.7409
# 6 -2.5242 -9.5489 1.8262 -3.1294 0.7409 38.5141
#
#
#
# Elastic Compliance Matrix: (Units=1/GPa)
#
#
# Indices 1 2 3 4 5 6 
#
# 1 0.012226 -0.001569 0.002046 -0.007094 -0.004772 -0.000169
# 2 -0.001569 0.022050 -0.000308 -0.015348 -0.000957 0.004150
# 3 0.002046 -0.000308 0.020638 -0.017820 -0.012478 -0.002129
# 4 -0.007094 -0.015348 -0.017820 0.069189 0.018229 0.001846
# 5 -0.004772 -0.000957 -0.012478 0.018229 0.034155 0.000866
# 6 -0.000169 0.004150 -0.002129 0.001846 0.000866 0.027217
#
#
# Mechanical properties :
#
#
# Convention : Reuss Voigt Hill
#
# Bulk Modulus (GPa) = 18.09868 34.40842 26.25355
# Shear Modulus (GPa) = 24.56343 33.84833 29.20588
#
# Velocity S-wave (km/s) = 3.24967 3.81473 3.54348
# Velocity P-wave (km/s) = 4.67563 5.84772 5.29421
#
# Compressibility (1/GPa) = 0.05525266
#
# Stress axis : x y z
#
# Youngs Moduli (GPa) = 81.78983 45.35172 48.45434
#
# Poissons Ratio (x) = 0.07116 -0.09914
# Poissons Ratio (y) = 0.12834 0.01492
# Poissons Ratio (z) = -0.16735 0.01396
#
# Static dielectric constant tensor:
#      x y z
#    x 4.224310 -0.052040 0.256500 
#    y -0.052040 4.215240 -0.083780 
#    z 0.256500 -0.083780 4.564970 
# 
# 
# High freq. dielectric constant tensor:
#      x y z
#    x 1.931670 -0.010820 0.012600 
#    y -0.010820 1.897270 0.006620 
#    z 0.012600 0.006620 1.918880 
# 
# From -- ./inp_files/368841.got.cif
#   From: 2010.06.25/outbox.cif.g09.slc.cpg/sg2_185_cif.got.tgz:368841.got - 2010.06.27 13:26:56.
