data_PCOD8032787
_publ_section_title
;
Structure prediction by ZEFSAII (Michael W. Deem and Ramdas Pophale) SiO2 
 PCOD8032787
Probable space group: P -1
;
_chemical_formula_sum "Si O2"
_cell_formula_units_Z 16
_cell_length_a 12.126624
_cell_length_b 6.450167
_cell_length_c 11.688602
_cell_angle_alpha 69.337827
_cell_angle_beta 67.693242
_cell_angle_gamma 60.716227
_cell_volume 721.745188
_symmetry_space_group_name_H-M "P -1"
_symmetry_group_IT_number 2
_symmetry_cell_setting 'triclinic'
loop_
_space_group_symop_operation_xyz
x,y,z
-x,-y,-z
loop_
_atom_site_type_symbol
_atom_site_label
_atom_site_fract_x
_atom_site_fract_y
_atom_site_fract_z
Si Si1 0.553080 0.908037 0.260442
Si Si2 0.825013 0.950808 0.872432
Si Si3 0.712249 0.526916 0.438096
Si Si4 0.627005 0.755438 0.024716
Si Si5 0.878291 0.739654 0.468725
Si Si6 0.304895 0.764882 0.904163
Si Si7 0.716614 0.090486 0.652543
Si Si8 0.117528 0.826238 0.754061
O O1 0.586319 0.747936 0.393239
O O2 0.640604 0.732743 0.160775
O O3 0.400316 0.998476 0.273450
O O4 0.591917 0.137716 0.207158
O O5 0.775836 0.119400 0.745923
O O6 0.771082 0.096853 0.981279
O O7 0.980831 0.813820 0.842167
O O8 0.760892 0.755689 0.921770
O O9 0.770839 0.660078 0.475264
O O10 0.662301 0.352833 0.561846
O O11 0.814550 0.375767 0.329889
O O12 0.612909 0.514392 0.034093
O O13 0.500000 0.000000 0.000000
O O14 0.000000 0.500000 0.500000
O O15 0.831279 0.891611 0.573624
O O16 0.912866 0.902925 0.331415
O O17 0.201904 0.777704 0.844932
#
# Coordination Sequence:
#
# PCOD8032787 Si02
#       8
#     2   2   2   2   2   2   2   2
#     4  11  23  45  68 101 134 175 230 275 342 400
#     4  11  25  42  68 104 134 180 228 272 340 399
#     4  11  23  43  72  96 138 180 221 286 335 395
#     4  11  24  47  67  99 137 177 221 280 337 397
#     4  11  24  43  68  99 137 182 224 278 341 395
#     4  11  25  44  73  97 137 181 220 284 336 398
#     4  11  25  44  66 105 136 177 229 278 335 407
#     4  11  23  45  67 100 138 174 230 278 334 402
#
# _framework density 22.168488
#
# number of rings (size 3 to 8) (size 9 to 14) (size 15 to 20)
#    0.000    1.000    3.750    2.250    0.000    9.000 
#    2.250    0.000    0.000    0.000    0.000    0.000 
#    0.000    0.000    0.000    0.000    0.000    0.000 
#
# Total GULP energy -198395.736104 kJ/mol
# GULP energy per Si atom -12399.733507 kJ/mol
# Density = 2.211803 g / cm^3
# Si number density = 22.168488 Si / 1000 Ang^3
#
#
#
# Elastic Constant Matrix: (Units=GPa)
#
#
# Indices 1 2 3 4 5 6 
#
# 1 113.4904 10.0744 28.9562 -7.7162 -9.9338 5.4661
# 2 10.0744 88.7283 27.9533 -22.9584 -4.2442 6.2307
# 3 28.9562 27.9533 101.3015 -4.0272 1.4874 3.7299
# 4 -7.7162 -22.9584 -4.0272 28.3002 5.4807 1.8994
# 5 -9.9338 -4.2442 1.4874 5.4807 45.9042 -1.9757
# 6 5.4661 6.2307 3.7299 1.8994 -1.9757 29.4923
#
#
#
# Elastic Compliance Matrix: (Units=1/GPa)
#
#
# Indices 1 2 3 4 5 6 
#
# 1 0.009909 0.000651 -0.002878 0.002559 0.001922 -0.001646
# 2 0.000651 0.016050 -0.003962 0.012882 0.000050 -0.003837
# 3 -0.002878 -0.003962 0.011722 -0.002111 -0.001119 -0.000051
# 4 0.002559 0.012882 -0.002111 0.047400 -0.004115 -0.006257
# 5 0.001922 0.000050 -0.001119 -0.004115 0.022800 0.001567
# 6 -0.001646 -0.003837 -0.000051 -0.006257 0.001567 0.035537
#
#
# Mechanical properties :
#
#
# Convention : Reuss Voigt Hill
#
# Bulk Modulus (GPa) = 39.52156 48.60979 44.06567
# Shear Modulus (GPa) = 30.44504 36.50843 33.47674
#
# Velocity S-wave (km/s) = 3.70989 4.06256 3.89022
# Velocity P-wave (km/s) = 6.01810 6.63181 6.33239
#
# Compressibility (1/GPa) = 0.02530265
#
# Stress axis : x y z
#
# Youngs Moduli (GPa) = 100.91542 62.30667 85.31010
#
# Poissons Ratio (x) = -0.04058 0.24553
# Poissons Ratio (y) = -0.06572 0.33802
# Poissons Ratio (z) = 0.29044 0.24688
#
# Static dielectric constant tensor:
#      x y z
#    x 4.486110 0.203010 0.354160 
#    y 0.203010 3.939960 -0.143570 
#    z 0.354160 -0.143570 4.433620 
# 
# 
# High freq. dielectric constant tensor:
#      x y z
#    x 1.878790 0.009060 0.008430 
#    y 0.009060 1.865350 -0.007980 
#    z 0.008430 -0.007980 1.888060 
# 
# From -- ./inp_files/69380.got.cif
#   From: 2010.06.25/outbox.cif.g09.slc.cpg/sg2_35_cif.got.tgz:69380.got - 2010.06.27 13:26:56.
