data_PCOD8032287
_publ_section_title
;
Structure prediction by ZEFSAII (Michael W. Deem and Ramdas Pophale) SiO2 
 PCOD8032287
Probable space group: P -1
;
_chemical_formula_sum "Si O2"
_cell_formula_units_Z 16
_cell_length_a 13.655576
_cell_length_b 13.949077
_cell_length_c 14.842401
_cell_angle_alpha 31.333298
_cell_angle_beta 51.165955
_cell_angle_gamma 31.099057
_cell_volume 699.763232
_symmetry_space_group_name_H-M "P -1"
_symmetry_group_IT_number 2
_symmetry_cell_setting 'triclinic'
loop_
_space_group_symop_operation_xyz
x,y,z
-x,-y,-z
loop_
_atom_site_type_symbol
_atom_site_label
_atom_site_fract_x
_atom_site_fract_y
_atom_site_fract_z
Si Si1 0.819769 0.002466 0.845245
Si Si2 0.991650 0.685752 0.492265
Si Si3 0.410094 0.365515 0.516941
Si Si4 0.156667 0.038075 0.451758
Si Si5 0.611580 0.953498 0.889923
Si Si6 0.975686 0.765802 0.135484
Si Si7 0.743478 0.212655 0.071366
Si Si8 0.110890 0.686624 0.784946
O O1 0.643499 0.357081 0.674382
O O2 0.774924 0.905997 0.872037
O O3 0.015544 0.865648 0.792150
O O4 0.866088 0.853338 0.033356
O O5 0.224001 0.463874 0.500970
O O6 0.945324 0.521090 0.639463
O O7 0.976493 0.758601 0.547196
O O8 0.838583 0.984886 0.280813
O O9 0.629699 0.093561 0.557686
O O10 0.440390 0.255485 0.688121
O O11 0.036348 0.231363 0.274173
O O12 0.211903 0.757561 0.633142
O O13 0.719022 0.662667 0.007104
O O14 0.500000 0.000000 0.000000
O O15 0.801595 0.048849 0.075018
O O16 0.164139 0.687537 0.070366
O O17 0.500000 0.500000 0.000000
#
# Coordination Sequence:
#
# PCOD8032287 Si02
#       8
#     2   2   2   2   2   2   2   2
#     4  12  23  44  66  99 148 186 237 290 345 413
#     4  12  26  49  72 108 145 180 241 294 351 431
#     4  12  25  42  66 102 143 193 235 286 351 412
#     4  11  24  40  70  94 143 194 238 286 350 401
#     4  12  25  39  63 101 144 196 246 281 339 414
#     4  11  26  48  79 104 143 184 229 300 361 425
#     4  11  27  52  78 108 138 177 234 302 371 431
#     4  11  23  42  62  97 145 192 247 292 328 410
#
# _framework density 22.864877
#
# number of rings (size 3 to 8) (size 9 to 14) (size 15 to 20)
#    0.000    0.500    3.750    4.125    5.250    1.500 
#    2.250    0.000    0.000    0.000    0.000    0.000 
#    0.000    0.000    0.000    0.000    0.000    0.000 
#
# Total GULP energy -198327.454439 kJ/mol
# GULP energy per Si atom -12395.465902 kJ/mol
# Density = 2.281284 g / cm^3
# Si number density = 22.864877 Si / 1000 Ang^3
#
#
#
# Elastic Constant Matrix: (Units=GPa)
#
#
# Indices 1 2 3 4 5 6 
#
# 1 74.8368 31.0347 53.0892 -6.3750 -5.8494 -10.8263
# 2 31.0347 116.6436 35.6523 1.8274 5.9274 -18.1460
# 3 53.0892 35.6523 116.8244 6.4964 -4.7752 -16.2700
# 4 -6.3750 1.8274 6.4964 28.9515 2.1376 5.6698
# 5 -5.8494 5.9274 -4.7752 2.1376 45.9340 3.5692
# 6 -10.8263 -18.1460 -16.2700 5.6698 3.5692 37.5154
#
#
#
# Elastic Compliance Matrix: (Units=1/GPa)
#
#
# Indices 1 2 3 4 5 6 
#
# 1 0.022106 -0.003300 -0.009437 0.007161 0.001971 -0.000579
# 2 -0.003300 0.010582 -0.001140 -0.001792 -0.002143 0.004146
# 3 -0.009437 -0.001140 0.014053 -0.005908 0.000396 0.003675
# 4 0.007161 -0.001792 -0.005908 0.039018 -0.000728 -0.007190
# 5 0.001971 -0.002143 0.000396 -0.000728 0.022554 -0.002332
# 6 -0.000579 0.004146 0.003675 -0.007190 -0.002332 0.031396
#
#
# Mechanical properties :
#
#
# Convention : Reuss Voigt Hill
#
# Bulk Modulus (GPa) = 52.66924 60.87302 56.77113
# Shear Modulus (GPa) = 28.77014 35.04876 31.90945
#
# Velocity S-wave (km/s) = 3.55106 3.91943 3.73978
# Velocity P-wave (km/s) = 6.31651 6.86755 6.59779
#
# Compressibility (1/GPa) = 0.01898641
#
# Stress axis : x y z
#
# Youngs Moduli (GPa) = 45.23735 94.50398 71.15981
#
# Poissons Ratio (x) = 0.31182 0.67153
# Poissons Ratio (y) = 0.14926 0.08114
# Poissons Ratio (z) = 0.42690 0.10776
#
# Static dielectric constant tensor:
#      x y z
#    x 3.842040 -0.078360 -0.012240 
#    y -0.078360 3.724630 0.411090 
#    z -0.012240 0.411090 3.920910 
# 
# 
# High freq. dielectric constant tensor:
#      x y z
#    x 1.882980 -0.004540 -0.012750 
#    y -0.004540 1.909280 0.014980 
#    z -0.012750 0.014980 1.918560 
# 
# From -- ./inp_files/534126.got.cif
#   From: 2010.06.25/outbox.cif.g09.slc.cpg/sg2_268_cif.got.tgz:534126.got - 2010.06.27 13:26:56.
