data_PCOD8032202
_publ_section_title
;
Structure prediction by ZEFSAII (Michael W. Deem and Ramdas Pophale) SiO2 
 PCOD8032202
Probable space group: P -1
;
_chemical_formula_sum "Si O2"
_cell_formula_units_Z 16
_cell_length_a 14.583567
_cell_length_b 11.566480
_cell_length_c 11.695292
_cell_angle_alpha 84.778932
_cell_angle_beta 66.421426
_cell_angle_gamma 29.426797
_cell_volume 728.880050
_symmetry_space_group_name_H-M "P -1"
_symmetry_group_IT_number 2
_symmetry_cell_setting 'triclinic'
loop_
_space_group_symop_operation_xyz
x,y,z
-x,-y,-z
loop_
_atom_site_type_symbol
_atom_site_label
_atom_site_fract_x
_atom_site_fract_y
_atom_site_fract_z
Si Si1 0.233547 0.768458 0.724419
Si Si2 0.798975 0.085156 0.854434
Si Si3 0.274378 0.236195 0.180441
Si Si4 0.117124 0.174594 0.352302
Si Si5 0.356921 0.321948 0.327752
Si Si6 0.702609 0.879436 0.372563
Si Si7 0.674888 0.142250 0.500334
Si Si8 0.522241 0.561430 0.809830
O O1 0.410779 0.485304 0.602508
O O2 0.163539 0.946884 0.655457
O O3 0.327685 0.719900 0.800631
O O4 0.985087 0.960699 0.851597
O O5 0.695408 0.272288 0.785427
O O6 0.911167 0.854601 0.755556
O O7 0.597981 0.257524 0.031249
O O8 0.299304 0.092326 0.256204
O O9 0.308335 0.314179 0.231958
O O10 0.990501 0.534802 0.246875
O O11 0.500000 0.000000 0.000000
O O12 0.847906 0.504915 0.495181
O O13 0.220410 0.975294 0.412986
O O14 0.326387 0.493293 0.316251
O O15 0.625927 0.004643 0.272466
O O16 0.500000 0.000000 0.500000
O O17 0.670569 0.017021 0.466393
#
# Coordination Sequence:
#
# PCOD8032202 Si02
#       8
#     2   2   2   2   2   2   2   2
#     4  11  23  42  66  99 142 172 233 279 341 409
#     4  11  25  41  66  97 140 182 218 282 350 416
#     4  12  28  48  68 103 144 181 229 293 352 412
#     4  12  23  45  70 101 135 180 235 285 344 409
#     4  12  24  44  75  97 133 181 234 288 342 413
#     4  12  24  45  73 101 135 181 237 287 343 406
#     4  11  23  41  69 105 131 178 231 290 334 406
#     4  11  24  44  64 100 138 179 226 277 352 412
#
# _framework density 21.951485999999999
#
# number of rings (size 3 to 8) (size 9 to 14) (size 15 to 20)
#    0.000    0.500    5.000    3.750    1.750    1.500 
#    2.250    0.000    0.000    0.000    0.000    0.000 
#    0.000    0.000    0.000    0.000    0.000    0.000 
#
# Total GULP energy -198337.224109 kJ/mol
# GULP energy per Si atom -12396.076507 kJ/mol
# Density = 2.190152 g / cm^3
# Si number density = 21.951486 Si / 1000 Ang^3
#
#
#
# Elastic Constant Matrix: (Units=GPa)
#
#
# Indices 1 2 3 4 5 6 
#
# 1 119.4634 17.1861 39.0856 6.0661 3.6936 0.2756
# 2 17.1861 90.3175 28.3797 1.3131 -5.5324 -5.1513
# 3 39.0856 28.3797 100.6965 19.3738 -2.4112 7.3420
# 4 6.0661 1.3131 19.3738 25.4632 4.4340 -2.8661
# 5 3.6936 -5.5324 -2.4112 4.4340 34.7536 1.7522
# 6 0.2756 -5.1513 7.3420 -2.8661 1.7522 31.4493
#
#
#
# Elastic Compliance Matrix: (Units=1/GPa)
#
#
# Indices 1 2 3 4 5 6 
#
# 1 0.009737 -0.000692 -0.003891 0.001055 -0.001595 0.000895
# 2 -0.000692 0.012694 -0.004033 0.002711 0.001307 0.003201
# 3 -0.003891 -0.004033 0.015248 -0.011519 0.002570 -0.005379
# 4 0.001055 0.002711 -0.011519 0.049815 -0.007242 0.008067
# 5 -0.001595 0.001307 0.002570 -0.007242 0.030391 -0.002725
# 6 0.000895 0.003201 -0.005379 0.008067 -0.002725 0.034456
#
#
# Mechanical properties :
#
#
# Convention : Reuss Voigt Hill
#
# Bulk Modulus (GPa) = 48.90556 53.30890 51.10723
# Shear Modulus (GPa) = 28.34656 33.38831 30.86743
#
# Velocity S-wave (km/s) = 3.59740 3.90424 3.75396
# Velocity P-wave (km/s) = 6.29145 6.68294 6.49015
#
# Compressibility (1/GPa) = 0.02044757
#
# Stress axis : x y z
#
# Youngs Moduli (GPa) = 102.70134 78.77641 65.58420
#
# Poissons Ratio (x) = 0.05453 0.25516
# Poissons Ratio (y) = 0.07110 0.26448
# Poissons Ratio (z) = 0.39957 0.31768
#
# Static dielectric constant tensor:
#      x y z
#    x 3.890170 -0.000430 -0.103760 
#    y -0.000430 4.067820 -0.022880 
#    z -0.103760 -0.022880 3.795460 
# 
# 
# High freq. dielectric constant tensor:
#      x y z
#    x 1.875060 0.003120 -0.002240 
#    y 0.003120 1.866500 -0.006620 
#    z -0.002240 -0.006620 1.854560 
# 
# From -- ./inp_files/398705.got.cif
#   From: 2010.06.25/outbox.cif.g09.slc.cpg/sg2_200_cif.got.tgz:398705.got - 2010.06.27 13:26:56.
