data_PCOD8032356
_publ_section_title
;
Structure prediction by ZEFSAII (Michael W. Deem and Ramdas Pophale) SiO2 
 PCOD8032356
Probable space group: P -1
;
_chemical_formula_sum "Si O2"
_cell_formula_units_Z 16
_cell_length_a 20.275079
_cell_length_b 8.707631
_cell_length_c 17.463639
_cell_angle_alpha 134.818889
_cell_angle_beta 20.675620
_cell_angle_gamma 134.736929
_cell_volume 759.961357
_symmetry_space_group_name_H-M "P -1"
_symmetry_group_IT_number 2
_symmetry_cell_setting 'triclinic'
loop_
_space_group_symop_operation_xyz
x,y,z
-x,-y,-z
loop_
_atom_site_type_symbol
_atom_site_label
_atom_site_fract_x
_atom_site_fract_y
_atom_site_fract_z
Si Si1 0.448920 0.560537 0.661026
Si Si2 0.269621 0.290535 0.220075
Si Si3 0.198319 0.106589 0.550158
Si Si4 0.162993 0.832398 0.114142
Si Si5 0.939245 0.388610 0.699145
Si Si6 0.308137 0.684299 0.205575
Si Si7 0.312042 0.089763 0.710800
Si Si8 0.953675 0.110490 0.204084
O O1 0.500000 0.500000 0.500000
O O2 0.629535 0.696624 0.554621
O O3 0.368934 0.348112 0.723515
O O4 0.289440 0.712431 0.878683
O O5 0.243385 0.511288 0.282323
O O6 0.106939 0.254778 0.448553
O O7 0.242227 0.093297 0.118978
O O8 0.470518 0.307008 0.049270
O O9 0.051833 0.217124 0.698770
O O10 0.267904 0.918101 0.358731
O O11 0.096348 0.015511 0.706818
O O12 0.180829 0.742353 0.148658
O O13 0.800051 0.398002 0.782766
O O14 0.031043 0.631049 0.711260
O O15 0.500000 0.000000 0.500000
O O16 0.220544 0.964488 0.690886
O O17 0.153129 0.052459 0.937120
#
# Coordination Sequence:
#
# PCOD8032356 Si02
#       8
#     2   2   2   2   2   2   2   2
#     4  12  27  49  69 104 138 175 235 292 345 411
#     4  11  23  42  67  98 139 184 227 275 341 407
#     4  12  25  44  73 101 141 185 227 283 345 408
#     4  12  27  43  69 101 141 184 229 285 349 401
#     4  12  24  43  66 102 143 181 228 284 338 412
#     4  11  24  42  68 102 139 183 230 276 336 416
#     4  11  27  49  73 101 137 181 233 290 352 405
#     4  11  25  46  71 103 139 180 235 284 340 420
#
# _framework density 21.053699999999999
#
# number of rings (size 3 to 8) (size 9 to 14) (size 15 to 20)
#    0.000    0.500    6.250    1.500    3.500    3.000 
#    0.000    0.000    0.000    0.000    0.000    0.000 
#    0.000    0.000    0.000    0.000    0.000    0.000 
#
# Total GULP energy -198504.447734 kJ/mol
# GULP energy per Si atom -12406.527983 kJ/mol
# Density = 2.100578 g / cm^3
# Si number density = 21.053700 Si / 1000 Ang^3
#
#
#
# Elastic Constant Matrix: (Units=GPa)
#
#
# Indices 1 2 3 4 5 6 
#
# 1 29.5189 3.0298 49.7913 -4.2506 -13.0870 27.1115
# 2 3.0298 99.7997 30.7129 1.1403 -13.5919 36.3727
# 3 49.7913 30.7129 127.4312 10.7215 -17.3898 5.5443
# 4 -4.2506 1.1403 10.7215 36.9830 3.2121 6.5461
# 5 -13.0870 -13.5919 -17.3898 3.2121 37.4997 -5.6897
# 6 27.1115 36.3727 5.5443 6.5461 -5.6897 21.6923
#
#
#
# Elastic Compliance Matrix: (Units=1/GPa)
#
#
# Indices 1 2 3 4 5 6 
#
# 1 -0.008192 -0.014324 0.005943 -0.008587 0.000834 0.035547
# 2 -0.014324 0.006808 0.004131 -0.004356 0.000813 0.006958
# 3 0.005943 0.004131 0.005593 0.001297 0.003749 -0.015191
# 4 -0.008587 -0.004356 0.001297 0.024620 -0.004711 0.009039
# 5 0.000834 0.000813 0.003749 -0.004711 0.030306 0.006006
# 6 0.035547 0.006958 -0.015191 0.009039 0.006006 -0.007265
#
#
# Mechanical properties :
#
#
# Convention : Reuss Voigt Hill
#
# Bulk Modulus (GPa) = -233.03329 47.09087 -92.97121
# Shear Modulus (GPa) = 84.83103 30.78273 57.80688
#
# Velocity S-wave (km/s) = 6.35454 3.82790 5.24562
# Velocity P-wave (km/s) = 7.55548 6.47709 2.75069
#
# Compressibility (1/GPa) = -0.00429123
#
# Stress axis : x y z
#
# Youngs Moduli (GPa) = -122.07407 146.88173 178.78945
#
# Poissons Ratio (x) = 2.10390 -1.06250
# Poissons Ratio (y) = -1.74856 -0.73850
# Poissons Ratio (z) = 0.72546 -0.60670
#
# Static dielectric constant tensor:
#      x y z
#    x 3.837660 0.125220 -0.001960 
#    y 0.125220 3.990140 -0.021070 
#    z -0.001960 -0.021070 4.000270 
# 
# 
# High freq. dielectric constant tensor:
#      x y z
#    x 1.821940 0.009040 -0.001300 
#    y 0.009040 1.839620 -0.001060 
#    z -0.001300 -0.001060 1.841620 
# 
# From -- ./inp_files/338185.got.cif
#   From: 2010.06.25/outbox.cif.g09.slc.cpg/sg2_170_cif.got.tgz:338185.got - 2010.06.27 13:26:56.
