data_PCOD8032694
_publ_section_title
;
Structure prediction by ZEFSAII (Michael W. Deem and Ramdas Pophale) SiO2 
 PCOD8032694
Probable space group: P -1
;
_chemical_formula_sum "Si O2"
_cell_formula_units_Z 16
_cell_length_a 11.629498
_cell_length_b 9.969567
_cell_length_c 14.977212
_cell_angle_alpha 133.661174
_cell_angle_beta 137.106457
_cell_angle_gamma 75.572522
_cell_volume 729.713907
_symmetry_space_group_name_H-M "P -1"
_symmetry_group_IT_number 2
_symmetry_cell_setting 'triclinic'
loop_
_space_group_symop_operation_xyz
x,y,z
-x,-y,-z
loop_
_atom_site_type_symbol
_atom_site_label
_atom_site_fract_x
_atom_site_fract_y
_atom_site_fract_z
Si Si1 0.406125 0.350529 0.092581
Si Si2 0.855799 0.278668 0.100344
Si Si3 0.155328 0.475923 0.636058
Si Si4 0.957335 0.990997 0.366663
Si Si5 0.662803 0.263547 0.801091
Si Si6 0.341831 0.204507 0.186625
Si Si7 0.741139 0.450502 0.616530
Si Si8 0.761170 0.140734 0.620707
O O1 0.643322 0.468999 0.273502
O O2 0.351554 0.535535 0.149365
O O3 0.341054 0.216683 0.085558
O O4 0.278566 0.172964 0.860999
O O5 0.761460 0.350045 0.156455
O O6 0.091341 0.439646 0.313051
O O7 0.793941 0.322805 0.990165
O O8 0.811284 0.038019 0.979804
O O9 0.000000 0.500000 0.500000
O O10 0.033237 0.232750 0.490731
O O11 0.000000 0.000000 0.500000
O O12 0.065535 0.900471 0.325467
O O13 0.766018 0.193883 0.752811
O O14 0.448136 0.069047 0.617866
O O15 0.554171 0.264507 0.371920
O O16 0.284539 0.363892 0.270861
O O17 0.796460 0.345986 0.679700
#
# Coordination Sequence:
#
# PCOD8032694 Si02
#       8
#     2   2   2   2   2   2   2   2
#     4  12  26  46  75 101 142 187 238 289 352 421
#     4  12  26  44  72 100 139 186 236 285 349 421
#     4  12  28  50  69 102 145 189 239 290 347 418
#     4  12  28  46  75 106 141 188 236 291 349 417
#     4  11  24  44  74 106 138 187 229 296 353 413
#     4  11  25  44  68 105 138 184 231 284 354 417
#     4  11  23  43  70 102 145 175 226 295 347 419
#     4  11  23  45  74 104 147 177 233 293 353 412
#
# _framework density 21.926404000000002
#
# number of rings (size 3 to 8) (size 9 to 14) (size 15 to 20)
#    0.000    0.500    3.750    4.125    3.500    5.000 
#    2.250    0.000    0.000    0.000    0.000    0.000 
#    0.000    0.000    0.000    0.000    0.000    0.000 
#
# Total GULP energy -198451.145827 kJ/mol
# GULP energy per Si atom -12403.196614 kJ/mol
# Density = 2.187650 g / cm^3
# Si number density = 21.926404 Si / 1000 Ang^3
#
#
#
# Elastic Constant Matrix: (Units=GPa)
#
#
# Indices 1 2 3 4 5 6 
#
# 1 86.4722 35.5415 33.3098 -13.1062 1.7731 4.1689
# 2 35.5415 140.0392 43.5914 0.8148 3.1660 8.5945
# 3 33.3098 43.5914 102.9188 12.6051 -8.2075 10.3772
# 4 -13.1062 0.8148 12.6051 38.8344 6.6756 7.2248
# 5 1.7731 3.1660 -8.2075 6.6756 43.4170 -1.5417
# 6 4.1689 8.5945 10.3772 7.2248 -1.5417 39.6378
#
#
#
# Elastic Compliance Matrix: (Units=1/GPa)
#
#
# Indices 1 2 3 4 5 6 
#
# 1 0.015800 -0.002303 -0.005171 0.007770 -0.002697 -0.001330
# 2 -0.002303 0.008747 -0.003006 0.000407 -0.001210 -0.000989
# 3 -0.005171 -0.003006 0.013914 -0.006696 0.004052 -0.001069
# 4 0.007770 0.000407 -0.006696 0.032713 -0.006834 -0.005381
# 5 -0.002697 -0.001210 0.004052 -0.006834 0.025108 0.001707
# 6 -0.001330 -0.000989 -0.001069 -0.005381 0.001707 0.026910
#
#
# Mechanical properties :
#
#
# Convention : Reuss Voigt Hill
#
# Bulk Modulus (GPa) = 57.13876 61.59060 59.36468
# Shear Modulus (GPa) = 33.33666 38.84368 36.09017
#
# Velocity S-wave (km/s) = 3.90345 4.21354 4.06145
# Velocity P-wave (km/s) = 6.81409 7.19879 7.00908
#
# Compressibility (1/GPa) = 0.01750125
#
# Stress axis : x y z
#
# Youngs Moduli (GPa) = 63.29159 114.32907 71.86930
#
# Poissons Ratio (x) = 0.26330 0.37162
# Poissons Ratio (y) = 0.14576 0.21603
# Poissons Ratio (z) = 0.32727 0.34366
#
# Static dielectric constant tensor:
#      x y z
#    x 4.012400 -0.002850 0.115040 
#    y -0.002850 4.075240 0.074060 
#    z 0.115040 0.074060 4.119250 
# 
# 
# High freq. dielectric constant tensor:
#      x y z
#    x 1.866560 0.005550 0.003660 
#    y 0.005550 1.876400 0.007480 
#    z 0.003660 0.007480 1.877530 
# 
# From -- ./inp_files/246009.got.cif
#   From: 2010.06.25/outbox.cif.g09.slc.cpg/sg2_124_cif.got.tgz:246009.got - 2010.06.27 13:26:56.
