data_PCOD8032808
_publ_section_title
;
Structure prediction by ZEFSAII (Michael W. Deem and Ramdas Pophale) SiO2 
 PCOD8032808
Probable space group: P -1
;
_chemical_formula_sum "Si O2"
_cell_formula_units_Z 16
_cell_length_a 14.560588
_cell_length_b 11.322077
_cell_length_c 8.868518
_cell_angle_alpha 50.332660
_cell_angle_beta 40.919512
_cell_angle_gamma 51.802004
_cell_volume 709.806456
_symmetry_space_group_name_H-M "P -1"
_symmetry_group_IT_number 2
_symmetry_cell_setting 'triclinic'
loop_
_space_group_symop_operation_xyz
x,y,z
-x,-y,-z
loop_
_atom_site_type_symbol
_atom_site_label
_atom_site_fract_x
_atom_site_fract_y
_atom_site_fract_z
Si Si1 0.367379 0.922937 0.715908
Si Si2 0.071538 0.563127 0.006929
Si Si3 0.936989 0.733909 0.563011
Si Si4 0.259182 0.737617 0.240818
Si Si5 0.632621 0.493776 0.450665
Si Si6 0.071538 0.141594 0.849995
Si Si7 0.291514 0.983863 0.208486
Si Si8 0.500000 0.839858 0.320284
O O1 0.376786 0.864191 0.580824
O O2 0.500000 0.000000 0.500000
O O3 0.221150 0.059572 0.812760
O O4 0.363276 0.774600 0.949850
O O5 0.095991 0.429868 0.214722
O O6 0.000000 0.735569 0.028862
O O7 0.221150 0.593482 0.744940
O O8 0.000000 0.500000 0.000000
O O9 0.109036 0.710413 0.390964
O O10 0.904009 0.759420 0.406703
O O11 0.824841 0.876591 0.675159
O O12 0.363276 0.587725 0.323599
O O13 0.202975 0.889140 0.297025
O O14 0.500000 0.500000 0.500000
O O15 0.623214 0.678199 0.334396
O O16 0.000000 0.000000 0.000000
O O17 0.401335 0.851910 0.284015
O O18 0.401335 0.037260 0.913315
#
# Coordination Sequence:
#
# PCOD8032808 Si02
#       8
#     2   2   2   2   2   2   2   2
#     4  12  27  46  75 109 153 199 256 322 382 456
#     4  12  29  50  76 113 157 206 252 317 386 455
#     4  12  25  47  74 107 152 196 254 311 385 459
#     4  12  26  43  73 113 144 202 259 314 377 460
#     4  12  27  46  75 109 153 199 256 322 382 456
#     4  12  29  50  76 113 157 206 252 317 386 455
#     4  11  23  43  73 110 143 199 260 305 378 459
#     4  11  24  45  72 104 150 199 250 307 392 452
#
# _framework density 22.541353000000001
#
# number of rings (size 3 to 8) (size 9 to 14) (size 15 to 20)
#    0.000    0.250    7.500    0.750    7.000    1.500 
#    0.000    0.000    0.000    0.000    0.000    0.000 
#    0.000    0.000    0.000    0.000    0.000    0.000 
#
# Total GULP energy -198243.578972 kJ/mol
# GULP energy per Si atom -12390.223686 kJ/mol
# Density = 2.249005 g / cm^3
# Si number density = 22.541353 Si / 1000 Ang^3
#
#
#
# Elastic Constant Matrix: (Units=GPa)
#
#
# Indices 1 2 3 4 5 6 
#
# 1 90.2068 37.7889 45.4473 -13.7525 -1.3058 -12.8078
# 2 37.7889 126.0792 46.5818 9.6073 21.3809 -3.8408
# 3 45.4473 46.5818 155.2299 -10.3736 21.9943 -17.4092
# 4 -13.7525 9.6073 -10.3736 36.8280 -13.1956 7.0412
# 5 -1.3058 21.3809 21.9943 -13.1956 39.8994 -3.7030
# 6 -12.8078 -3.8408 -17.4092 7.0412 -3.7030 44.1261
#
#
#
# Elastic Compliance Matrix: (Units=1/GPa)
#
#
# Indices 1 2 3 4 5 6 
#
# 1 0.017541 -0.006202 -0.003687 0.010089 0.009478 0.002282
# 2 -0.006202 0.012528 -0.001302 -0.009174 -0.009283 -0.000538
# 3 -0.003687 -0.001302 0.008695 -0.000465 -0.004187 0.001970
# 4 0.010089 -0.009174 -0.000465 0.040407 0.018593 -0.002941
# 5 0.009478 -0.009283 -0.004187 0.018593 0.038859 0.000585
# 6 0.002282 -0.000538 0.001970 -0.002941 0.000585 0.024573
#
#
# Mechanical properties :
#
#
# Convention : Reuss Voigt Hill
#
# Bulk Modulus (GPa) = 61.04097 70.12800 65.58448
# Shear Modulus (GPa) = 29.33463 40.28389 34.80926
#
# Velocity S-wave (km/s) = 3.61136 4.23201 3.93395
# Velocity P-wave (km/s) = 6.67290 7.42012 7.05641
#
# Compressibility (1/GPa) = 0.01638244
#
# Stress axis : x y z
#
# Youngs Moduli (GPa) = 57.01025 79.81988 115.00295
#
# Poissons Ratio (x) = 0.49502 0.42404
# Poissons Ratio (y) = 0.35356 0.14973
# Poissons Ratio (z) = 0.21021 0.10392
#
# Static dielectric constant tensor:
#      x y z
#    x 16.717700 -11.200650 22.741440 
#    y -11.200650 13.975320 -20.060470 
#    z 22.741440 -20.060470 44.176560 
# 
# 
# High freq. dielectric constant tensor:
#      x y z
#    x 1.892760 -0.008720 0.009580 
#    y -0.008720 1.889400 -0.009050 
#    z 0.009580 -0.009050 1.907560 
# 
# From -- ./inp_files/207819.got.cif
#   From: 2010.06.25/outbox.cif.g09.slc.cpg/sg2_104_cif.got.tgz:207819.got - 2010.06.27 13:26:56.
