data_PCOD8032638
_publ_section_title
;
Structure prediction by ZEFSAII (Michael W. Deem and Ramdas Pophale) SiO2 
 PCOD8032638
Probable space group: P -1
;
_chemical_formula_sum "Si O2"
_cell_formula_units_Z 16
_cell_length_a 9.187236
_cell_length_b 8.263269
_cell_length_c 15.364102
_cell_angle_alpha 80.440188
_cell_angle_beta 59.273882
_cell_angle_gamma 116.621267
_cell_volume 768.874587
_symmetry_space_group_name_H-M "P -1"
_symmetry_group_IT_number 2
_symmetry_cell_setting 'triclinic'
loop_
_space_group_symop_operation_xyz
x,y,z
-x,-y,-z
loop_
_atom_site_type_symbol
_atom_site_label
_atom_site_fract_x
_atom_site_fract_y
_atom_site_fract_z
Si Si1 0.081353 0.127809 0.375348
Si Si2 0.031474 0.577657 0.192990
Si Si3 0.844704 0.038740 0.795307
Si Si4 0.949616 0.650895 0.032195
Si Si5 0.812659 0.958114 0.202415
Si Si6 0.268526 0.882282 0.624274
Si Si7 0.465614 0.419729 0.804665
Si Si8 0.457012 0.655065 0.034032
O O1 0.300232 0.361412 0.308346
O O2 0.900105 0.137445 0.389369
O O3 0.129818 0.007331 0.306467
O O4 0.000000 0.000000 0.500000
O O5 0.102234 0.734433 0.238956
O O6 0.202813 0.543716 0.112218
O O7 0.000988 0.691297 0.115334
O O8 0.812495 0.348848 0.304786
O O9 0.990584 0.020776 0.817280
O O10 0.595681 0.869257 0.917675
O O11 0.693664 0.536135 0.111936
O O12 0.000000 0.500000 0.000000
O O13 0.094388 0.871081 0.917717
O O14 0.632878 0.726313 0.237842
O O15 0.696612 0.992536 0.309811
O O16 0.500000 0.000000 0.500000
O O17 0.489401 0.299375 0.884047
O O18 0.500000 0.500000 0.000000
#
# Coordination Sequence:
#
# PCOD8032638 Si02
#       8
#     2   2   2   2   2   2   2   2
#     4  11  27  47  69  93 125 179 228 270 327 383
#     4  12  24  42  65 105 132 171 219 265 332 395
#     4  11  23  43  69  96 137 175 211 267 333 394
#     4  12  23  38  69 105 137 169 216 262 328 405
#     4  11  23  43  68  99 135 175 210 267 336 389
#     4  11  26  49  67  91 132 174 223 277 325 384
#     4  12  23  43  69  98 136 172 215 270 326 397
#     4  12  21  42  68  98 140 174 205 268 341 388
#
# _framework density 20.809636000000001
#
# number of rings (size 3 to 8) (size 9 to 14) (size 15 to 20)
#    0.000    0.500    6.250    3.000    1.750    1.000 
#    2.250    3.750    0.000    0.000    0.000    0.000 
#    0.000    0.000    0.000    0.000    0.000    0.000 
#
# Total GULP energy -198429.298425 kJ/mol
# GULP energy per Si atom -12401.831152 kJ/mol
# Density = 2.076227 g / cm^3
# Si number density = 20.809636 Si / 1000 Ang^3
#
#
#
# Elastic Constant Matrix: (Units=GPa)
#
#
# Indices 1 2 3 4 5 6 
#
# 1 81.5719 23.0391 58.3131 -6.5696 -0.9503 6.5888
# 2 23.0391 143.2959 74.8762 -10.9915 -3.3676 -1.8698
# 3 58.3131 74.8762 173.3725 -7.5144 -5.7926 3.8747
# 4 -6.5696 -10.9915 -7.5144 19.4438 9.2980 -1.9307
# 5 -0.9503 -3.3676 -5.7926 9.2980 41.0429 2.7707
# 6 6.5888 -1.8698 3.8747 -1.9307 2.7707 33.2406
#
#
#
# Elastic Compliance Matrix: (Units=1/GPa)
#
#
# Indices 1 2 3 4 5 6 
#
# 1 0.016635 0.000523 -0.005632 0.004054 -0.001131 -0.002282
# 2 0.000523 0.009365 -0.004085 0.004437 -0.000884 0.001231
# 3 -0.005632 -0.004085 0.009423 -0.001159 0.001152 -0.000375
# 4 0.004054 0.004437 -0.001159 0.062010 -0.014047 0.004354
# 5 -0.001131 -0.000884 0.001152 -0.014047 0.027820 -0.003095
# 6 -0.002282 0.001231 -0.000375 0.004354 -0.003095 0.031160
#
#
# Mechanical properties :
#
#
# Convention : Reuss Voigt Hill
#
# Bulk Modulus (GPa) = 58.70395 78.96633 68.83514
# Shear Modulus (GPa) = 27.70396 34.87959 31.29178
#
# Velocity S-wave (km/s) = 3.65266 4.09849 3.88198
# Velocity P-wave (km/s) = 6.78679 7.77343 7.29681
#
# Compressibility (1/GPa) = 0.01703463
#
# Stress axis : x y z
#
# Youngs Moduli (GPa) = 60.11315 106.78467 106.12115
#
# Poissons Ratio (x) = -0.05584 0.59769
# Poissons Ratio (y) = -0.03144 0.43351
# Poissons Ratio (z) = 0.33857 0.43622
#
# Static dielectric constant tensor:
#      x y z
#    x 4.070110 0.060150 0.099790 
#    y 0.060150 3.950750 0.074100 
#    z 0.099790 0.074100 3.746510 
# 
# 
# High freq. dielectric constant tensor:
#      x y z
#    x 1.820160 0.003170 -0.001480 
#    y 0.003170 1.825040 0.004600 
#    z -0.001480 0.004600 1.806470 
# 
# From -- ./inp_files/199747.got.cif
#   From: 2010.06.25/outbox.cif.g09.slc.cpg/sg2_100_cif.got.tgz:199747.got - 2010.06.27 13:26:56.
