data_PCOD8032799
_publ_section_title
;
Structure prediction by ZEFSAII (Michael W. Deem and Ramdas Pophale) SiO2 
 PCOD8032799
Probable space group: P -1
;
_chemical_formula_sum "Si O2"
_cell_formula_units_Z 16
_cell_length_a 18.092570
_cell_length_b 11.207265
_cell_length_c 11.215916
_cell_angle_alpha 129.685115
_cell_angle_beta 146.969636
_cell_angle_gamma 33.956620
_cell_volume 680.250827
_symmetry_space_group_name_H-M "P -1"
_symmetry_group_IT_number 2
_symmetry_cell_setting 'triclinic'
loop_
_space_group_symop_operation_xyz
x,y,z
-x,-y,-z
loop_
_atom_site_type_symbol
_atom_site_label
_atom_site_fract_x
_atom_site_fract_y
_atom_site_fract_z
Si Si1 0.991623 0.798155 0.614759
Si Si2 0.621539 0.679705 0.227641
Si Si3 0.767417 0.035828 0.221018
Si Si4 0.255928 0.083346 0.429131
Si Si5 0.972560 0.140942 0.916471
Si Si6 0.403922 0.653592 0.355768
Si Si7 0.642321 0.467529 0.333966
Si Si8 0.044852 0.638859 0.179170
O O1 0.870872 0.800898 0.550471
O O2 0.182472 0.547447 0.699213
O O3 0.863612 0.905223 0.390589
O O4 0.044360 0.928353 0.812193
O O5 0.656268 0.820864 0.421439
O O6 0.538556 0.623333 0.177526
O O7 0.460146 0.820374 0.996687
O O8 0.783859 0.209036 0.333631
O O9 0.858784 0.871564 0.129076
O O10 0.424057 0.822821 0.509967
O O11 0.141727 0.107475 0.177170
O O12 0.820325 0.215436 0.861242
O O13 0.876795 0.329176 0.808767
O O14 0.500000 0.500000 0.500000
O O15 0.491332 0.532023 0.270238
O O16 0.780036 0.497143 0.579173
O O17 0.000000 0.500000 0.000000
#
# Coordination Sequence:
#
# PCOD8032799 Si02
#       8
#     2   2   2   2   2   2   2   2
#     4  11  23  51  73 103 148 197 243 296 362 434
#     4  12  28  45  73 110 149 190 242 303 371 425
#     4  12  27  46  75 107 144 197 247 295 355 444
#     4  11  27  47  71 109 150 186 242 308 363 432
#     4  11  24  46  75 102 146 191 245 299 359 433
#     4  11  23  43  73 105 135 191 245 293 353 433
#     4  12  24  47  72 104 147 189 250 298 357 439
#     4  12  25  45  73 107 149 190 233 306 373 422
#
# _framework density 23.520737
#
# number of rings (size 3 to 8) (size 9 to 14) (size 15 to 20)
#    0.000    0.500    3.750    4.875    7.000    1.000 
#    0.000    0.000    0.000    0.000    0.000    0.000 
#    0.000    0.000    0.000    0.000    0.000    0.000 
#
# Total GULP energy -198401.691321 kJ/mol
# GULP energy per Si atom -12400.105708 kJ/mol
# Density = 2.346720 g / cm^3
# Si number density = 23.520737 Si / 1000 Ang^3
#
#
#
# Elastic Constant Matrix: (Units=GPa)
#
#
# Indices 1 2 3 4 5 6 
#
# 1 93.2969 38.7614 4.3518 11.3742 -13.4394 -4.5813
# 2 38.7614 132.2255 47.0843 12.0143 1.0158 -8.3509
# 3 4.3518 47.0843 120.9625 9.3179 6.9462 -2.3241
# 4 11.3742 12.0143 9.3179 48.8291 7.9656 4.6009
# 5 -13.4394 1.0158 6.9462 7.9656 29.2123 5.9134
# 6 -4.5813 -8.3509 -2.3241 4.6009 5.9134 33.7015
#
#
#
# Elastic Compliance Matrix: (Units=1/GPa)
#
#
# Indices 1 2 3 4 5 6 
#
# 1 0.013881 -0.004135 0.000974 -0.003599 0.007250 0.000149
# 2 -0.004135 0.010301 -0.003666 -0.000811 -0.001599 0.002129
# 3 0.000974 -0.003666 0.009829 -0.000976 -0.001558 0.000309
# 4 -0.003599 -0.000811 -0.000976 0.023122 -0.007162 -0.002657
# 5 0.007250 -0.001599 -0.001558 -0.007162 0.041111 -0.005754
# 6 0.000149 0.002129 0.000309 -0.002657 -0.005754 0.031614
#
#
# Mechanical properties :
#
#
# Convention : Reuss Voigt Hill
#
# Bulk Modulus (GPa) = 49.12142 58.54221 53.83182
# Shear Modulus (GPa) = 33.26702 39.43442 36.35072
#
# Velocity S-wave (km/s) = 3.76489 4.09905 3.93552
# Velocity P-wave (km/s) = 6.31101 6.88089 6.60210
#
# Compressibility (1/GPa) = 0.02035772
#
# Stress axis : x y z
#
# Youngs Moduli (GPa) = 72.03837 97.07906 101.73616
#
# Poissons Ratio (x) = 0.40147 -0.09910
# Poissons Ratio (y) = 0.29791 0.37292
# Poissons Ratio (z) = -0.07017 0.35585
#
# Static dielectric constant tensor:
#      x y z
#    x 4.283710 0.056350 -0.093390 
#    y 0.056350 4.445900 -0.043970 
#    z -0.093390 -0.043970 4.181280 
# 
# 
# High freq. dielectric constant tensor:
#      x y z
#    x 1.927870 0.003390 -0.009050 
#    y 0.003390 1.942920 -0.004370 
#    z -0.009050 -0.004370 1.934650 
# 
# From -- ./inp_files/471243.got.cif
#   From: 2010.06.25/outbox.cif.g09.slc.cpg/sg2_236_cif.got.tgz:471243.got - 2010.06.27 13:26:56.
