data_PCOD8032571
_publ_section_title
;
Structure prediction by ZEFSAII (Michael W. Deem and Ramdas Pophale) SiO2 
 PCOD8032571
Probable space group: P -1
;
_chemical_formula_sum "Si O2"
_cell_formula_units_Z 16
_cell_length_a 12.246485
_cell_length_b 9.820761
_cell_length_c 8.101038
_cell_angle_alpha 87.769254
_cell_angle_beta 102.979900
_cell_angle_gamma 133.206589
_cell_volume 682.912349
_symmetry_space_group_name_H-M "P -1"
_symmetry_group_IT_number 2
_symmetry_cell_setting 'triclinic'
loop_
_space_group_symop_operation_xyz
x,y,z
-x,-y,-z
loop_
_atom_site_type_symbol
_atom_site_label
_atom_site_fract_x
_atom_site_fract_y
_atom_site_fract_z
Si Si1 0.224973 0.618586 0.044527
Si Si2 0.835631 0.920945 0.999531
Si Si3 0.060994 0.718562 0.819842
Si Si4 0.333079 0.808883 0.393531
Si Si5 0.077651 0.798757 0.444963
Si Si6 0.285455 0.200735 0.388760
Si Si7 0.754308 0.592424 0.173991
Si Si8 0.365498 0.544060 0.519459
O O1 0.342291 0.797176 0.198634
O O2 0.094931 0.438835 0.123773
O O3 0.166827 0.674883 0.884123
O O4 0.307690 0.564404 0.979216
O O5 0.751663 0.742964 0.098210
O O6 0.850527 0.074902 0.092370
O O7 0.735588 0.861624 0.804303
O O8 0.000000 0.000000 0.000000
O O9 0.030437 0.708790 0.614751
O O10 0.193729 0.792095 0.394098
O O11 0.289949 0.627610 0.467522
O O12 0.500000 0.000000 0.500000
O O13 0.925109 0.686683 0.286374
O O14 0.164651 0.018367 0.473333
O O15 0.259380 0.341307 0.398238
O O16 0.459894 0.310072 0.499738
O O17 0.631279 0.489340 0.284872
#
# Coordination Sequence:
#
# PCOD8032571 Si02
#       8
#     2   2   2   2   2   2   2   2
#     4  11  23  43  65  98 137 170 218 281 335 383
#     4  12  23  41  68  99 135 177 217 273 338 386
#     4  11  24  40  68 101 134 172 220 281 329 390
#     4  12  25  45  70  94 135 184 217 271 339 401
#     4  12  24  44  71 102 134 174 228 272 335 398
#     4  11  24  47  68  96 141 179 219 279 330 400
#     4  12  25  43  72 104 131 175 225 281 330 399
#     4  11  26  44  70  98 133 180 227 270 335 398
#
# _framework density 23.429071
#
# number of rings (size 3 to 8) (size 9 to 14) (size 15 to 20)
#    0.000    0.500    3.750    5.250    1.750    3.000 
#    2.250    1.250    0.000    0.000    0.000    0.000 
#    0.000    0.000    0.000    0.000    0.000    0.000 
#
# Total GULP energy -198453.122288 kJ/mol
# GULP energy per Si atom -12403.320143 kJ/mol
# Density = 2.337574 g / cm^3
# Si number density = 23.429071 Si / 1000 Ang^3
#
#
#
# Elastic Constant Matrix: (Units=GPa)
#
#
# Indices 1 2 3 4 5 6 
#
# 1 48.7505 29.8189 1.7170 5.9884 -9.1494 -12.7601
# 2 29.8189 100.5833 29.2054 1.2311 -3.4792 -27.1484
# 3 1.7170 29.2054 112.4514 2.0647 -9.1234 -10.2611
# 4 5.9884 1.2311 2.0647 50.3855 -8.4587 -1.8753
# 5 -9.1494 -3.4792 -9.1234 -8.4587 34.0290 1.9417
# 6 -12.7601 -27.1484 -10.2611 -1.8753 1.9417 38.7454
#
#
#
# Elastic Compliance Matrix: (Units=1/GPa)
#
#
# Indices 1 2 3 4 5 6 
#
# 1 0.027576 -0.007559 0.002479 -0.001938 0.006595 0.004018
# 2 -0.007559 0.015036 -0.003268 0.000664 -0.001622 0.007294
# 3 0.002479 -0.003268 0.010038 -0.000094 0.002942 0.001033
# 4 -0.001938 0.000664 -0.000094 0.020872 0.004677 0.000578
# 5 0.006595 -0.001622 0.002942 0.004677 0.032923 0.000391
# 6 0.004018 0.007294 0.001033 0.000578 0.000391 0.032526
#
#
# Mechanical properties :
#
#
# Convention : Reuss Voigt Hill
#
# Bulk Modulus (GPa) = 27.81185 42.58530 35.19857
# Shear Modulus (GPa) = 29.82374 38.03490 33.92932
#
# Velocity S-wave (km/s) = 3.57170 4.03352 3.80961
# Velocity P-wave (km/s) = 5.37641 6.31729 5.86574
#
# Compressibility (1/GPa) = 0.03595590
#
# Stress axis : x y z
#
# Youngs Moduli (GPa) = 36.26309 66.50522 99.61859
#
# Poissons Ratio (x) = 0.50271 -0.24700
# Poissons Ratio (y) = 0.27411 0.32555
# Poissons Ratio (z) = -0.08991 0.21734
#
# Static dielectric constant tensor:
#      x y z
#    x 4.011970 -0.335370 -0.035310 
#    y -0.335370 4.593490 0.049480 
#    z -0.035310 0.049480 4.455440 
# 
# 
# High freq. dielectric constant tensor:
#      x y z
#    x 1.913940 -0.023090 -0.000460 
#    y -0.023090 1.940320 0.001260 
#    z -0.000460 0.001260 1.935180 
# 
# From -- ./inp_files/244134.got.cif
#   From: 2010.06.25/outbox.cif.g09.slc.cpg/sg2_123_cif.got.tgz:244134.got - 2010.06.27 13:26:56.
