data_PCOD8032731
_publ_section_title
;
Structure prediction by ZEFSAII (Michael W. Deem and Ramdas Pophale) SiO2 
 PCOD8032731
Probable space group: P -1
;
_chemical_formula_sum "Si O2"
_cell_formula_units_Z 16
_cell_length_a 12.128970
_cell_length_b 27.608305
_cell_length_c 8.856456
_cell_angle_alpha 39.713408
_cell_angle_beta 147.196736
_cell_angle_gamma 152.725835
_cell_volume 733.316482
_symmetry_space_group_name_H-M "P -1"
_symmetry_group_IT_number 2
_symmetry_cell_setting 'triclinic'
loop_
_space_group_symop_operation_xyz
x,y,z
-x,-y,-z
loop_
_atom_site_type_symbol
_atom_site_label
_atom_site_fract_x
_atom_site_fract_y
_atom_site_fract_z
Si Si1 0.499900 0.081511 0.732265
Si Si2 0.119338 0.243915 0.963163
Si Si3 0.515969 0.513902 0.161119
Si Si4 0.366441 0.166977 0.608520
Si Si5 0.103532 0.673488 0.982160
Si Si6 0.109550 0.235729 0.632175
Si Si7 0.972226 0.056117 0.708227
Si Si8 0.716088 0.419146 0.773664
O O1 0.322313 0.090845 0.614638
O O2 0.821543 0.194136 0.810133
O O3 0.344806 0.034791 0.504672
O O4 0.500000 0.000000 0.000000
O O5 0.327324 0.369212 0.888980
O O6 0.056155 0.194908 0.840248
O O7 0.260751 0.218611 0.294483
O O8 0.693404 0.488967 0.483129
O O9 0.201191 0.435535 0.054328
O O10 0.500000 0.500000 0.000000
O O11 0.197247 0.103339 0.719002
O O12 0.703556 0.255383 0.821836
O O13 0.069322 0.735347 0.681156
O O14 0.276166 0.652245 0.150549
O O15 0.011252 0.147699 0.610309
O O16 0.444990 0.340268 0.758461
O O17 0.000000 0.000000 0.000000
O O18 0.000000 0.500000 0.000000
#
# Coordination Sequence:
#
# PCOD8032731 Si02
#       8
#     2   2   2   2   2   2   2   2
#     4  12  27  47  71  99 138 183 228 287 348 398
#     4  12  27  45  71 104 141 181 231 285 341 412
#     4  11  25  42  68 105 140 180 232 277 340 413
#     4  12  26  47  72 101 139 180 230 286 344 410
#     4  11  24  43  72  99 140 185 221 283 344 404
#     4  11  26  46  68 105 141 178 233 282 343 411
#     4  12  27  46  73 102 136 181 236 287 341 409
#     4  11  23  43  70  99 142 180 225 279 340 408
#
# _framework density 21.818684000000001
#
# number of rings (size 3 to 8) (size 9 to 14) (size 15 to 20)
#    0.000    0.500    2.500    4.875    5.250    9.500 
#    0.000    0.000    0.000    0.000    0.000    0.000 
#    0.000    0.000    0.000    0.000    0.000    0.000 
#
# Total GULP energy -198493.609597 kJ/mol
# GULP energy per Si atom -12405.850600 kJ/mol
# Density = 2.176902 g / cm^3
# Si number density = 21.818684 Si / 1000 Ang^3
#
#
#
# Elastic Constant Matrix: (Units=GPa)
#
#
# Indices 1 2 3 4 5 6 
#
# 1 117.1511 33.8435 55.0412 -8.1946 -8.4210 -2.6597
# 2 33.8435 109.4970 60.0891 2.0619 -2.0704 -0.0597
# 3 55.0412 60.0891 171.6941 0.4173 -8.2516 10.9010
# 4 -8.1946 2.0619 0.4173 44.3474 -3.7472 -2.8197
# 5 -8.4210 -2.0704 -8.2516 -3.7472 39.1181 -1.4740
# 6 -2.6597 -0.0597 10.9010 -2.8197 -1.4740 36.4122
#
#
#
# Elastic Compliance Matrix: (Units=1/GPa)
#
#
# Indices 1 2 3 4 5 6 
#
# 1 0.010734 -0.001755 -0.002861 0.002374 0.001913 0.001899
# 2 -0.001755 0.011655 -0.003597 -0.000824 -0.000566 0.000881
# 3 -0.002861 -0.003597 0.008209 -0.000544 0.000772 -0.002683
# 4 0.002374 -0.000824 -0.000544 0.023401 0.002679 0.002256
# 5 0.001913 -0.000566 0.000772 0.002679 0.026410 0.001184
# 6 0.001899 0.000881 -0.002683 0.002256 0.001184 0.028630
#
#
# Mechanical properties :
#
#
# Convention : Reuss Voigt Hill
#
# Bulk Modulus (GPa) = 70.56803 77.36553 73.96678
# Shear Modulus (GPa) = 38.40567 40.60011 39.50289
#
# Velocity S-wave (km/s) = 4.20005 4.31837 4.25962
# Velocity P-wave (km/s) = 7.47888 7.77173 7.62671
#
# Compressibility (1/GPa) = 0.01417072
#
# Stress axis : x y z
#
# Youngs Moduli (GPa) = 93.16174 85.80349 121.81214
#
# Poissons Ratio (x) = 0.15058 0.34854
# Poissons Ratio (y) = 0.16350 0.43820
# Poissons Ratio (z) = 0.26656 0.30866
#
# Static dielectric constant tensor:
#      x y z
#    x 4.014250 -0.164470 -0.058460 
#    y -0.164470 4.023370 0.044000 
#    z -0.058460 0.044000 4.060930 
# 
# 
# High freq. dielectric constant tensor:
#      x y z
#    x 1.866230 -0.004730 -0.001620 
#    y -0.004730 1.871450 0.007330 
#    z -0.001620 0.007330 1.874690 
# 
# From -- ./inp_files/107229.got.cif
#   From: 2010.06.25/outbox.cif.g09.slc.cpg/sg2_54_cif.got.tgz:107229.got - 2010.06.27 13:26:56.
