data_PCOD8032364
_publ_section_title
;
Structure prediction by ZEFSAII (Michael W. Deem and Ramdas Pophale) SiO2 
 PCOD8032364
Probable space group: P -1
;
_chemical_formula_sum "Si O2"
_cell_formula_units_Z 16
_cell_length_a 21.510500
_cell_length_b 6.293666
_cell_length_c 13.031417
_cell_angle_alpha 87.525861
_cell_angle_beta 22.339270
_cell_angle_gamma 84.332742
_cell_volume 661.840697
_symmetry_space_group_name_H-M "P -1"
_symmetry_group_IT_number 2
_symmetry_cell_setting 'triclinic'
loop_
_space_group_symop_operation_xyz
x,y,z
-x,-y,-z
loop_
_atom_site_type_symbol
_atom_site_label
_atom_site_fract_x
_atom_site_fract_y
_atom_site_fract_z
Si Si1 0.649139 0.956898 0.194785
Si Si2 0.636863 0.914996 0.667998
Si Si3 0.107284 0.473664 0.989011
Si Si4 0.302350 0.445577 0.006079
Si Si5 0.114809 0.791921 0.785450
Si Si6 0.578039 0.703540 0.569390
Si Si7 0.078045 0.776384 0.218254
Si Si8 0.283812 0.160110 0.227724
O O1 0.500000 0.000000 0.500000
O O2 0.567342 0.092940 0.219587
O O3 0.713219 0.722297 0.058077
O O4 0.806063 0.053438 0.998623
O O5 0.681190 0.737020 0.514912
O O6 0.705250 0.788991 0.668854
O O7 0.721343 0.128149 0.513468
O O8 0.437291 0.975032 0.973903
O O9 0.154628 0.625407 0.821134
O O10 0.287595 0.318547 0.730169
O O11 0.054014 0.610350 0.167649
O O12 0.970204 0.325789 0.173633
O O13 0.158573 0.646717 0.197766
O O14 0.283046 0.369426 0.153437
O O15 0.489059 0.494352 0.712036
O O16 0.000000 0.000000 0.000000
O O17 0.896502 0.909193 0.518365
#
# Coordination Sequence:
#
# PCOD8032364 Si02
#       8
#     2   2   2   2   2   2   2   2
#     4  11  24  43  72 100 137 177 220 288 347 398
#     4  11  24  45  71 100 134 186 226 278 341 400
#     4  11  24  40  70 105 138 173 221 281 351 404
#     4  11  24  46  68  98 135 183 229 279 335 400
#     4  11  23  42  68 101 142 176 220 283 343 403
#     4  11  23  42  69 103 134 172 230 281 344 403
#     4  11  26  44  67 105 135 177 232 275 337 412
#     4  11  25  47  67  96 138 186 231 274 335 402
#
# _framework density 24.175003
#
# number of rings (size 3 to 8) (size 9 to 14) (size 15 to 20)
#    0.000    1.000    2.500    3.375    3.500    6.000 
#    6.750    0.000    0.000    0.000    0.000    0.000 
#    0.000    0.000    0.000    0.000    0.000    0.000 
#
# Total GULP energy -198323.384789 kJ/mol
# GULP energy per Si atom -12395.211549 kJ/mol
# Density = 2.411998 g / cm^3
# Si number density = 24.175003 Si / 1000 Ang^3
#
#
#
# Elastic Constant Matrix: (Units=GPa)
#
#
# Indices 1 2 3 4 5 6 
#
# 1 100.5484 29.0050 30.9832 -21.1236 -5.1171 4.9669
# 2 29.0050 76.0215 42.7833 -14.4582 -14.4282 17.0429
# 3 30.9832 42.7833 157.6446 -12.9852 -25.7690 -4.8890
# 4 -21.1236 -14.4582 -12.9852 32.9046 -2.6749 -11.7122
# 5 -5.1171 -14.4282 -25.7690 -2.6749 36.5200 -2.9498
# 6 4.9669 17.0429 -4.8890 -11.7122 -2.9498 37.4103
#
#
#
# Elastic Compliance Matrix: (Units=1/GPa)
#
#
# Indices 1 2 3 4 5 6 
#
# 1 0.012569 -0.003331 -0.000841 0.007021 0.000526 0.001978
# 2 -0.003331 0.019742 -0.004109 0.002377 0.003959 -0.008032
# 3 -0.000841 -0.004109 0.008863 0.003184 0.005112 0.004542
# 4 0.007021 0.002377 0.003184 0.042240 0.008255 0.012276
# 5 0.000526 0.003959 0.005112 0.008255 0.033557 0.004025
# 6 0.001978 -0.008032 0.004542 0.012276 0.004025 0.034881
#
#
# Mechanical properties :
#
#
# Convention : Reuss Voigt Hill
#
# Bulk Modulus (GPa) = 40.63082 59.97306 50.30194
# Shear Modulus (GPa) = 28.30962 36.79650 32.55306
#
# Velocity S-wave (km/s) = 3.42574 3.90563 3.67353
# Velocity P-wave (km/s) = 5.70009 6.72312 6.23263
#
# Compressibility (1/GPa) = 0.02461186
#
# Stress axis : x y z
#
# Youngs Moduli (GPa) = 79.55855 50.65394 112.83232
#
# Poissons Ratio (x) = 0.16873 0.09486
# Poissons Ratio (y) = 0.26501 0.46366
# Poissons Ratio (z) = 0.06689 0.20815
#
# Static dielectric constant tensor:
#      x y z
#    x 4.534680 -0.413840 -0.272080 
#    y -0.413840 4.608120 0.030980 
#    z -0.272080 0.030980 4.492300 
# 
# 
# High freq. dielectric constant tensor:
#      x y z
#    x 1.967940 -0.012280 -0.013110 
#    y -0.012280 1.948530 0.003220 
#    z -0.013110 0.003220 1.972370 
# 
# From -- ./inp_files/123782.got.cif
#   From: 2010.06.25/outbox.cif.g09.slc.cpg/sg2_62_cif.got.tgz:123782.got - 2010.06.27 13:26:56.
