data_PCOD8032632
_publ_section_title
;
Structure prediction by ZEFSAII (Michael W. Deem and Ramdas Pophale) SiO2 
 PCOD8032632
Probable space group: P -1
;
_chemical_formula_sum "Si O2"
_cell_formula_units_Z 16
_cell_length_a 15.788774
_cell_length_b 15.563011
_cell_length_c 6.378206
_cell_angle_alpha 56.164039
_cell_angle_beta 115.080918
_cell_angle_gamma 146.205389
_cell_volume 721.532013
_symmetry_space_group_name_H-M "P -1"
_symmetry_group_IT_number 2
_symmetry_cell_setting 'triclinic'
loop_
_space_group_symop_operation_xyz
x,y,z
-x,-y,-z
loop_
_atom_site_type_symbol
_atom_site_label
_atom_site_fract_x
_atom_site_fract_y
_atom_site_fract_z
Si Si1 0.878593 0.328086 0.735820
Si Si2 0.597632 0.185486 0.825837
Si Si3 0.001505 0.284150 0.243696
Si Si4 0.898603 0.002510 0.293209
Si Si5 0.858461 0.111412 0.743491
Si Si6 0.560455 0.655340 0.459430
Si Si7 0.659345 0.391512 0.942233
Si Si8 0.455994 0.229058 0.338635
O O1 0.742903 0.288961 0.691804
O O2 0.816237 0.172385 0.761087
O O3 0.000000 0.500000 0.500000
O O4 0.949392 0.347449 0.002585
O O5 0.658755 0.275774 0.997393
O O6 0.481952 0.163547 0.625452
O O7 0.500000 0.000000 0.000000
O O8 0.174184 0.411785 0.177149
O O9 0.981064 0.265729 0.497828
O O10 0.895758 0.094945 0.325640
O O11 0.732362 0.811050 0.350892
O O12 0.000000 0.000000 0.500000
O O13 0.942760 0.092567 0.990254
O O14 0.701556 0.929725 0.731598
O O15 0.500000 0.500000 0.500000
O O16 0.462301 0.660213 0.258493
O O17 0.551573 0.665301 0.691267
O O18 0.604128 0.353709 0.174025
#
# Coordination Sequence:
#
# PCOD8032632 Si02
#       8
#     2   2   2   2   2   2   2   2
#     4  11  24  40  63 101 143 184 237 282 341 403
#     4  11  24  38  63  97 137 182 229 279 334 402
#     4  11  24  43  68  98 143 182 229 289 342 408
#     4  11  24  45  70 101 135 174 230 288 353 419
#     4  11  23  43  70  97 140 188 228 288 347 409
#     4  11  24  45  70 100 135 171 227 291 346 415
#     4  11  24  43  66  98 137 177 228 280 337 406
#     4  11  23  43  68  97 136 181 227 279 346 407
#
# _framework density 22.175038000000001
#
# number of rings (size 3 to 8) (size 9 to 14) (size 15 to 20)
#    0.000    1.000    2.500    3.750    3.500   10.000 
#    0.000    0.000    0.000    0.000    0.000    0.000 
#    0.000    0.000    0.000    0.000    0.000    0.000 
#
# Total GULP energy -198263.157431 kJ/mol
# GULP energy per Si atom -12391.447339 kJ/mol
# Density = 2.212457 g / cm^3
# Si number density = 22.175038 Si / 1000 Ang^3
#
#
#
# Elastic Constant Matrix: (Units=GPa)
#
#
# Indices 1 2 3 4 5 6 
#
# 1 68.2858 40.6615 33.3412 2.4664 -7.0005 -16.9251
# 2 40.6615 124.8539 31.3081 -5.0456 -3.9524 -13.2584
# 3 33.3412 31.3081 125.9437 6.8509 -6.5345 -6.9484
# 4 2.4664 -5.0456 6.8509 33.2799 7.7615 -1.0673
# 5 -7.0005 -3.9524 -6.5345 7.7615 46.7435 6.5218
# 6 -16.9251 -13.2584 -6.9484 -1.0673 6.5218 47.9460
#
#
#
# Elastic Compliance Matrix: (Units=1/GPa)
#
#
# Indices 1 2 3 4 5 6 
#
# 1 0.021273 -0.005446 -0.003798 -0.001871 0.001784 0.005169
# 2 -0.005446 0.010259 -0.001223 0.002388 -0.000638 0.000877
# 3 -0.003798 -0.001223 0.009391 -0.002101 0.001060 -0.000509
# 4 -0.001871 0.002388 -0.002101 0.032402 -0.005923 0.001222
# 5 0.001784 -0.000638 0.001060 -0.005923 0.023111 -0.002668
# 6 0.005169 0.000877 -0.000509 0.001222 -0.002668 0.023240
#
#
# Mechanical properties :
#
#
# Convention : Reuss Voigt Hill
#
# Bulk Modulus (GPa) = 50.02929 58.85612 54.44271
# Shear Modulus (GPa) = 33.95037 39.84539 36.89788
#
# Velocity S-wave (km/s) = 3.91707 4.24353 4.08356
# Velocity P-wave (km/s) = 6.56262 7.11402 6.84388
#
# Compressibility (1/GPa) = 0.01998829
#
# Stress axis : x y z
#
# Youngs Moduli (GPa) = 47.00713 97.47438 106.48617
#
# Poissons Ratio (x) = 0.53084 0.40448
# Poissons Ratio (y) = 0.25600 0.13025
# Poissons Ratio (z) = 0.17855 0.11923
#
# Static dielectric constant tensor:
#      x y z
#    x 4.081300 -0.738120 -0.256690 
#    y -0.738120 4.044850 0.341880 
#    z -0.256690 0.341880 4.273670 
# 
# 
# High freq. dielectric constant tensor:
#      x y z
#    x 1.872810 -0.004450 -0.006630 
#    y -0.004450 1.886300 0.006240 
#    z -0.006630 0.006240 1.873020 
# 
# From -- ./inp_files/97592.got.cif
#   From: 2010.06.25/outbox.cif.g09.slc.cpg/sg2_49_cif.got.tgz:97592.got - 2010.06.27 13:26:56.
