data_PCOD8032303
_publ_section_title
;
Structure prediction by ZEFSAII (Michael W. Deem and Ramdas Pophale) SiO2 
 PCOD8032303
Probable space group: P -1
;
_chemical_formula_sum "Si O2"
_cell_formula_units_Z 16
_cell_length_a 24.766724
_cell_length_b 12.056532
_cell_length_c 7.168687
_cell_angle_alpha 130.672673
_cell_angle_beta 118.503679
_cell_angle_gamma 28.467403
_cell_volume 746.242381
_symmetry_space_group_name_H-M "P -1"
_symmetry_group_IT_number 2
_symmetry_cell_setting 'triclinic'
loop_
_space_group_symop_operation_xyz
x,y,z
-x,-y,-z
loop_
_atom_site_type_symbol
_atom_site_label
_atom_site_fract_x
_atom_site_fract_y
_atom_site_fract_z
Si Si1 0.033465 0.373476 0.121253
Si Si2 0.863473 0.289640 0.124362
Si Si3 0.137358 0.375605 0.581856
Si Si4 0.457952 0.878202 0.890340
Si Si5 0.603427 0.209195 0.603749
Si Si6 0.774721 0.265890 0.258772
Si Si7 0.693314 0.542003 0.812971
Si Si8 0.474573 0.335581 0.855845
O O1 0.057916 0.466570 0.388990
O O2 0.927137 0.501349 0.187528
O O3 0.000000 0.500000 0.000000
O O4 0.146337 0.039674 0.934282
O O5 0.829120 0.528580 0.316578
O O6 0.836283 0.273460 0.260430
O O7 0.791103 0.341080 0.913400
O O8 0.000000 0.000000 0.000000
O O9 0.258519 0.041187 0.425056
O O10 0.423696 0.789729 0.650378
O O11 0.592645 0.628646 0.780485
O O12 0.452763 0.906458 0.137962
O O13 0.365327 0.179843 0.986213
O O14 0.554977 0.183774 0.639117
O O15 0.537489 0.490228 0.856604
O O16 0.761616 0.357029 0.540482
O O17 0.649548 0.482608 0.199399
#
# Coordination Sequence:
#
# PCOD8032303 Si02
#       8
#     2   2   2   2   2   2   2   2
#     4  11  27  47  73  99 136 179 230 286 338 401
#     4  12  26  46  70  98 142 180 227 285 336 407
#     4  11  25  47  70 103 135 180 227 282 345 399
#     4  11  23  42  64  98 135 176 223 273 341 399
#     4  11  23  43  66 100 137 171 233 278 336 406
#     4  12  25  45  69 102 138 178 227 282 345 403
#     4  11  26  40  67  99 133 177 224 275 339 406
#     4  11  24  41  68 100 134 179 222 282 341 397
#
# _framework density 21.440754999999999
#
# number of rings (size 3 to 8) (size 9 to 14) (size 15 to 20)
#    0.000    0.750    6.250    0.375    3.500    4.000 
#    0.000    0.000    0.000    0.000    0.000    0.000 
#    0.000    0.000    0.000    0.000    0.000    0.000 
#
# Total GULP energy -198419.736138 kJ/mol
# GULP energy per Si atom -12401.233509 kJ/mol
# Density = 2.139196 g / cm^3
# Si number density = 21.440755 Si / 1000 Ang^3
#
#
#
# Elastic Constant Matrix: (Units=GPa)
#
#
# Indices 1 2 3 4 5 6 
#
# 1 81.0261 8.9594 16.5431 -2.7943 -10.9844 -0.5281
# 2 8.9594 91.5737 16.8935 -5.0023 -10.1365 -9.6011
# 3 16.5431 16.8935 91.9434 -4.1298 -9.3625 1.1141
# 4 -2.7943 -5.0023 -4.1298 25.3601 -1.2986 -12.4298
# 5 -10.9844 -10.1365 -9.3625 -1.2986 39.5061 -1.4082
# 6 -0.5281 -9.6011 1.1141 -12.4298 -1.4082 29.1537
#
#
#
# Elastic Compliance Matrix: (Units=1/GPa)
#
#
# Indices 1 2 3 4 5 6 
#
# 1 0.013284 -0.000372 -0.001925 0.001787 0.003240 0.001110
# 2 -0.000372 0.012652 -0.001765 0.005658 0.003153 0.006792
# 3 -0.001925 -0.001765 0.011794 0.001232 0.001831 -0.000453
# 4 0.001787 0.005658 0.001232 0.053370 0.004880 0.024839
# 5 0.003240 0.003153 0.001831 0.004880 0.027775 0.004449
# 6 0.001110 0.006792 -0.000453 0.024839 0.004449 0.047380
#
#
# Mechanical properties :
#
#
# Convention : Reuss Voigt Hill
#
# Bulk Modulus (GPa) = 33.77607 38.81500 36.29554
# Shear Modulus (GPa) = 27.13728 33.61378 30.37553
#
# Velocity S-wave (km/s) = 3.56151 3.96378 3.76802
# Velocity P-wave (km/s) = 5.71838 6.25231 5.99130
#
# Compressibility (1/GPa) = 0.02960676
#
# Stress axis : x y z
#
# Youngs Moduli (GPa) = 75.27861 79.03709 84.78721
#
# Poissons Ratio (x) = 0.02939 0.16322
# Poissons Ratio (y) = 0.02799 0.14964
# Poissons Ratio (z) = 0.14492 0.13950
#
# Static dielectric constant tensor:
#      x y z
#    x 15.924610 5.095330 0.599820 
#    y 5.095330 6.028600 0.267140 
#    z 0.599820 0.267140 3.907280 
# 
# 
# High freq. dielectric constant tensor:
#      x y z
#    x 1.845220 -0.004840 -0.002690 
#    y -0.004840 1.847810 -0.004400 
#    z -0.002690 -0.004400 1.848690 
# 
# From -- ./inp_files/68677.got.cif
#   From: 2010.06.25/outbox.cif.g09.slc.cpg/sg2_35_cif.got.tgz:68677.got - 2010.06.27 13:26:56.
