data_PCOD8032768
_publ_section_title
;
Structure prediction by ZEFSAII (Michael W. Deem and Ramdas Pophale) SiO2 
 PCOD8032768
Probable space group: P -1
;
_chemical_formula_sum "Si O2"
_cell_formula_units_Z 16
_cell_length_a 11.431666
_cell_length_b 13.597055
_cell_length_c 5.402599
_cell_angle_alpha 98.793824
_cell_angle_beta 59.491666
_cell_angle_gamma 86.965636
_cell_volume 706.543643
_symmetry_space_group_name_H-M "P -1"
_symmetry_group_IT_number 2
_symmetry_cell_setting 'triclinic'
loop_
_space_group_symop_operation_xyz
x,y,z
-x,-y,-z
loop_
_atom_site_type_symbol
_atom_site_label
_atom_site_fract_x
_atom_site_fract_y
_atom_site_fract_z
Si Si1 0.992066 0.118857 0.053170
Si Si2 0.350038 0.261456 0.383188
Si Si3 0.547093 0.324377 0.822104
Si Si4 0.069613 0.220224 0.494562
Si Si5 0.292643 0.807528 0.773092
Si Si6 0.491890 0.938483 0.733660
Si Si7 0.629796 0.544070 0.265772
Si Si8 0.202997 0.646699 0.155620
O O1 0.830901 0.162441 0.277077
O O2 0.070414 0.150426 0.223731
O O3 0.047051 0.160776 0.751687
O O4 0.000000 0.000000 0.000000
O O5 0.216255 0.258111 0.357401
O O6 0.383283 0.155836 0.453366
O O7 0.319822 0.363303 0.612747
O O8 0.491595 0.262784 0.079752
O O9 0.572702 0.252715 0.528273
O O10 0.425156 0.416153 0.929695
O O11 0.691335 0.365895 0.731247
O O12 0.958779 0.322613 0.604371
O O13 0.340970 0.904962 0.882592
O O14 0.239935 0.742841 0.015774
O O15 0.500000 0.000000 0.500000
O O16 0.500000 0.000000 0.000000
O O17 0.500000 0.500000 0.500000
O O18 0.763473 0.457718 0.072971
#
# Coordination Sequence:
#
# PCOD8032768 Si02
#       8
#     2   2   2   2   2   2   2   2
#     4  11  26  47  75 100 137 196 247 287 350 429
#     4  12  28  44  68 108 147 184 238 298 362 425
#     4  12  20  43  72 100 143 178 240 296 356 414
#     4  11  28  47  70 103 151 185 231 303 354 424
#     4  11  23  43  72 101 140 178 248 294 348 425
#     4  12  27  42  69 101 142 186 229 294 358 413
#     4  12  23  41  73 107 135 185 243 296 357 428
#     4  11  23  45  70 101 137 187 234 293 356 422
#
# _framework density 22.645454000000001
#
# number of rings (size 3 to 8) (size 9 to 14) (size 15 to 20)
#    0.000    0.500    6.250    1.500    5.250    0.500 
#    0.000    0.625    0.000    0.000    0.000    0.000 
#    0.000    0.000    0.000    0.000    0.000    0.000 
#
# Total GULP energy -198299.538118 kJ/mol
# GULP energy per Si atom -12393.721132 kJ/mol
# Density = 2.259391 g / cm^3
# Si number density = 22.645454 Si / 1000 Ang^3
#
#
#
# Elastic Constant Matrix: (Units=GPa)
#
#
# Indices 1 2 3 4 5 6 
#
# 1 147.4042 43.5858 20.8290 11.1962 8.4585 18.4036
# 2 43.5858 109.6547 22.5179 18.2079 13.8254 10.4855
# 3 20.8290 22.5179 70.9198 8.8451 21.1053 7.1783
# 4 11.1962 18.2079 8.8451 30.1038 -2.0679 12.6544
# 5 8.4585 13.8254 21.1053 -2.0679 43.6335 7.5614
# 6 18.4036 10.4855 7.1783 12.6544 7.5614 31.6462
#
#
#
# Elastic Compliance Matrix: (Units=1/GPa)
#
#
# Indices 1 2 3 4 5 6 
#
# 1 0.008217 -0.002813 -0.001429 0.000803 0.000724 -0.004016
# 2 -0.002813 0.011857 -0.001338 -0.006517 -0.003109 0.001360
# 3 -0.001429 -0.001338 0.017959 -0.005032 -0.008437 0.001229
# 4 0.000803 -0.006517 -0.005032 0.046625 0.009694 -0.018127
# 5 0.000724 -0.003109 -0.008437 0.009694 0.029771 -0.008467
# 6 -0.004016 0.001360 0.001229 -0.018127 -0.008467 0.042477
#
#
# Mechanical properties :
#
#
# Convention : Reuss Voigt Hill
#
# Bulk Modulus (GPa) = 37.21401 55.76046 46.48723
# Shear Modulus (GPa) = 28.24486 37.14643 32.69564
#
# Velocity S-wave (km/s) = 3.53549 4.05451 3.80387
# Velocity P-wave (km/s) = 5.75633 6.82609 6.31390
#
# Compressibility (1/GPa) = 0.02687160
#
# Stress axis : x y z
#
# Youngs Moduli (GPa) = 121.70325 84.34160 55.68217
#
# Poissons Ratio (x) = 0.23727 0.07958
# Poissons Ratio (y) = 0.34237 0.07451
# Poissons Ratio (z) = 0.17393 0.11286
#
# Static dielectric constant tensor:
#      x y z
#    x 4.814050 -0.320460 -0.140520 
#    y -0.320460 4.330280 0.161400 
#    z -0.140520 0.161400 3.901550 
# 
# 
# High freq. dielectric constant tensor:
#      x y z
#    x 1.909570 -0.009550 0.011560 
#    y -0.009550 1.898880 0.010930 
#    z 0.011560 0.010930 1.874140 
# 
# From -- ./inp_files/71006.got.cif
#   From: 2010.06.25/outbox.cif.g09.slc.cpg/sg2_36_cif.got.tgz:71006.got - 2010.06.27 13:26:56.
