data_PCOD8032465
_publ_section_title
;
Structure prediction by ZEFSAII (Michael W. Deem and Ramdas Pophale) SiO2 
 PCOD8032465
Probable space group: P -1
;
_chemical_formula_sum "Si O2"
_cell_formula_units_Z 14
_cell_length_a 9.449112
_cell_length_b 8.820854
_cell_length_c 17.218771
_cell_angle_alpha 109.476724
_cell_angle_beta 119.780963
_cell_angle_gamma 30.457797
_cell_volume 616.606607
_symmetry_space_group_name_H-M "P -1"
_symmetry_group_IT_number 2
_symmetry_cell_setting 'triclinic'
loop_
_space_group_symop_operation_xyz
x,y,z
-x,-y,-z
loop_
_atom_site_type_symbol
_atom_site_label
_atom_site_fract_x
_atom_site_fract_y
_atom_site_fract_z
Si Si1 0.417288 0.153673 0.184026
Si Si2 0.723741 0.348461 0.966406
Si Si3 0.179409 0.831940 0.346378
Si Si4 0.466753 0.598842 0.776136
Si Si5 0.505812 0.158359 0.481110
Si Si6 0.290379 0.278053 0.931671
Si Si7 0.897697 0.809120 0.380344
O O1 0.565704 0.180851 0.182887
O O2 0.051001 0.501111 0.146037
O O3 0.505212 0.910911 0.123487
O O4 0.586677 0.001355 0.287418
O O5 0.607361 0.400329 0.857607
O O6 0.500000 0.500000 0.000000
O O7 0.786066 0.485585 0.012490
O O8 0.000000 0.000000 0.000000
O O9 0.326381 0.602398 0.278416
O O10 0.444077 0.733546 0.428655
O O11 0.050270 0.833686 0.382966
O O12 0.881397 0.178776 0.290697
O O13 0.171067 0.448645 0.397932
O O14 0.500000 0.000000 0.500000
O O15 0.787982 0.938842 0.459839
O O16 0.500000 0.000000 0.000000
#
# Coordination Sequence:
#
# PCOD8032465 Si02
#       7
#     2   2   2   2   2   2   2
#     4  11  23  42  71 104 128 172 240 291 334 384
#     4  12  27  46  64 101 144 187 228 278 351 419
#     4  11  23  43  73 100 126 184 232 282 341 402
#     4  11  23  43  70  99 138 174 233 289 334 407
#     4  12  25  45  67 101 142 178 220 280 356 421
#     4  12  24  43  72  98 135 182 232 283 341 401
#     4  11  23  45  70  99 135 175 232 287 332 421
#
# _framework density 22.704913999999999
#
# number of rings (size 3 to 8) (size 9 to 14) (size 15 to 20)
#    0.000    0.571    1.429    8.571    2.000    0.000 
#   15.429    0.000    0.000    0.000    0.000    0.000 
#    0.000    0.000    0.000    0.000    0.000    0.000 
#
# Total GULP energy -173479.630507 kJ/mol
# GULP energy per Si atom -12391.402179 kJ/mol
# Density = 2.265324 g / cm^3
# Si number density = 22.704914 Si / 1000 Ang^3
#
#
#
# Elastic Constant Matrix: (Units=GPa)
#
#
# Indices 1 2 3 4 5 6 
#
# 1 86.6006 50.6092 60.8124 -4.8737 -12.9247 6.3224
# 2 50.6092 167.1444 59.7621 -20.4047 -6.0121 0.6921
# 3 60.8124 59.7621 121.7558 -18.9149 -9.8646 8.4573
# 4 -4.8737 -20.4047 -18.9149 59.3412 -5.0462 -7.1536
# 5 -12.9247 -6.0121 -9.8646 -5.0462 31.5586 -0.9763
# 6 6.3224 0.6921 8.4573 -7.1536 -0.9763 42.0945
#
#
#
# Elastic Compliance Matrix: (Units=1/GPa)
#
#
# Indices 1 2 3 4 5 6 
#
# 1 0.019803 -0.003130 -0.008162 -0.001838 0.004623 -0.001488
# 2 -0.003130 0.007909 -0.002104 0.001915 -0.000093 0.001086
# 3 -0.008162 -0.002104 0.013949 0.003022 0.001068 -0.001004
# 4 -0.001838 0.001915 0.003022 0.018991 0.003685 0.002950
# 5 0.004623 -0.000093 0.001068 0.003685 0.034502 0.000519
# 6 -0.001488 0.001086 -0.001004 0.002950 0.000519 0.024677
#
#
# Mechanical properties :
#
#
# Convention : Reuss Voigt Hill
#
# Bulk Modulus (GPa) = 67.25918 79.76314 73.51116
# Shear Modulus (GPa) = 32.98612 40.22000 36.60306
#
# Velocity S-wave (km/s) = 3.81572 4.21339 4.01948
# Velocity P-wave (km/s) = 7.00717 7.67313 7.34770
#
# Compressibility (1/GPa) = 0.01486786
#
# Stress axis : x y z
#
# Youngs Moduli (GPa) = 50.49713 126.44244 71.69185
#
# Poissons Ratio (x) = 0.39571 0.58518
# Poissons Ratio (y) = 0.15804 0.15086
# Poissons Ratio (z) = 0.41218 0.26607
#
# Static dielectric constant tensor:
#      x y z
#    x 3.701390 -0.023380 -0.115460 
#    y -0.023380 4.333270 -0.168640 
#    z -0.115460 -0.168640 4.494740 
# 
# 
# High freq. dielectric constant tensor:
#      x y z
#    x 1.863270 -0.009470 -0.008080 
#    y -0.009470 1.918590 -0.009430 
#    z -0.008080 -0.009430 1.914250 
# 
# From -- ./inp_files/218135.got.cif
#   From: 2010.06.25/outbox.cif.g09.slc.cpg/sg2_110_cif.got.tgz:218135.got - 2010.06.27 13:26:56.
