data_PCOD8032206
_publ_section_title
;
Structure prediction by ZEFSAII (Michael W. Deem and Ramdas Pophale) SiO2 
 PCOD8032206
Probable space group: P -1
;
_chemical_formula_sum "Si O2"
_cell_formula_units_Z 14
_cell_length_a 6.747700
_cell_length_b 11.491333
_cell_length_c 11.132381
_cell_angle_alpha 121.052259
_cell_angle_beta 97.019888
_cell_angle_gamma 49.268338
_cell_volume 528.944917
_symmetry_space_group_name_H-M "P -1"
_symmetry_group_IT_number 2
_symmetry_cell_setting 'triclinic'
loop_
_space_group_symop_operation_xyz
x,y,z
-x,-y,-z
loop_
_atom_site_type_symbol
_atom_site_label
_atom_site_fract_x
_atom_site_fract_y
_atom_site_fract_z
Si Si1 0.200037 0.301573 0.172732
Si Si2 0.199743 0.795973 0.635443
Si Si3 0.789810 0.503467 0.921386
Si Si4 0.363900 0.506792 0.675365
Si Si5 0.658293 0.291635 0.810603
Si Si6 0.371528 0.994461 0.371135
Si Si7 0.714383 0.949784 0.161943
O O1 0.234388 0.433897 0.183595
O O2 0.456062 0.158001 0.202145
O O3 0.923978 0.438315 0.304613
O O4 0.164389 0.198718 0.015582
O O5 0.317717 0.676707 0.703606
O O6 0.435255 0.682276 0.491042
O O7 0.094745 0.005256 0.759051
O O8 0.942577 0.818017 0.589183
O O9 0.912079 0.286895 0.835802
O O10 0.493482 0.651087 0.043470
O O11 0.000000 0.500000 0.000000
O O12 0.488527 0.468430 0.797315
O O13 0.682215 0.137231 0.666040
O O14 0.500000 0.000000 0.500000
O O15 0.588259 0.912361 0.236308
#
# Coordination Sequence:
#
# PCOD8032206 Si02
#       7
#     2   2   2   2   2   2   2
#     4  11  23  46  76 110 151 189 253 313 375 436
#     4  11  27  49  74 106 152 199 257 299 379 448
#     4  11  23  41  69 105 147 186 238 312 370 446
#     4  11  24  48  73 108 144 204 247 315 360 453
#     4  11  25  42  70 108 144 192 247 303 384 429
#     4  12  27  49  75 108 152 203 250 309 374 457
#     4  11  25  46  75 111 148 197 246 318 373 443
#
# _framework density 26.467783000000001
#
# number of rings (size 3 to 8) (size 9 to 14) (size 15 to 20)
#    0.000    0.857    4.286    1.714    2.000    4.571 
#    7.714    0.000    0.000    0.000    0.000    0.000 
#    0.000    0.000    0.000    0.000    0.000    0.000 
#
# Total GULP energy -173532.299677 kJ/mol
# GULP energy per Si atom -12395.164263 kJ/mol
# Density = 2.640754 g / cm^3
# Si number density = 26.467783 Si / 1000 Ang^3
#
#
#
# Elastic Constant Matrix: (Units=GPa)
#
#
# Indices 1 2 3 4 5 6 
#
# 1 177.8952 30.5612 51.9134 0.6920 3.4898 9.3082
# 2 30.5612 56.7893 18.9943 -4.6247 6.1276 32.8846
# 3 51.9134 18.9943 97.1235 -1.6373 1.8787 5.9911
# 4 0.6920 -4.6247 -1.6373 46.3313 1.3646 4.8855
# 5 3.4898 6.1276 1.8787 1.3646 64.5357 4.4563
# 6 9.3082 32.8846 5.9911 4.8855 4.4563 52.3204
#
#
#
# Elastic Compliance Matrix: (Units=1/GPa)
#
#
# Indices 1 2 3 4 5 6 
#
# 1 0.007108 -0.003675 -0.003184 -0.000741 -0.000029 0.001482
# 2 -0.003675 0.032792 -0.003096 0.005371 -0.001559 -0.019971
# 3 -0.003184 -0.003096 0.012538 0.000068 0.000026 0.001068
# 4 -0.000741 0.005371 0.000068 0.022712 -0.000585 -0.005322
# 5 -0.000029 -0.001559 0.000026 -0.000585 0.015677 -0.000298
# 6 0.001482 -0.019971 0.001068 -0.005322 -0.000298 0.031802
#
#
# Mechanical properties :
#
#
# Convention : Reuss Voigt Hill
#
# Bulk Modulus (GPa) = 30.74263 59.41621 45.07942
# Shear Modulus (GPa) = 32.59841 47.99343 40.29592
#
# Velocity S-wave (km/s) = 3.51326 4.26288 3.90609
# Velocity P-wave (km/s) = 5.30072 6.83570 6.11655
#
# Compressibility (1/GPa) = 0.03252812
#
# Stress axis : x y z
#
# Youngs Moduli (GPa) = 140.69317 30.49480 79.75673
#
# Poissons Ratio (x) = 0.11208 0.25392
# Poissons Ratio (y) = 0.51710 0.24693
# Poissons Ratio (z) = 0.44792 0.09441
#
# Static dielectric constant tensor:
#      x y z
#    x 9.838330 5.720770 -0.918590 
#    y 5.720770 12.941290 -1.625410 
#    z -0.918590 -1.625410 4.792390 
# 
# 
# High freq. dielectric constant tensor:
#      x y z
#    x 2.091390 -0.002190 0.012130 
#    y -0.002190 2.105650 -0.008680 
#    z 0.012130 -0.008680 2.043300 
# 
# From -- ./inp_files/365272.got.cif
#   From: 2010.06.25/outbox.cif.g09.slc.cpg/sg2_183_cif.got.tgz:365272.got - 2010.06.27 13:26:56.
