data_PCOD8032737
_publ_section_title
;
Structure prediction by ZEFSAII (Michael W. Deem and Ramdas Pophale) SiO2 
 PCOD8032737
Probable space group: P -1
;
_chemical_formula_sum "Si O2"
_cell_formula_units_Z 16
_cell_length_a 9.478755
_cell_length_b 5.230009
_cell_length_c 15.379375
_cell_angle_alpha 69.675515
_cell_angle_beta 89.570997
_cell_angle_gamma 90.020411
_cell_volume 714.925523
_symmetry_space_group_name_H-M "P -1"
_symmetry_group_IT_number 2
_symmetry_cell_setting 'triclinic'
loop_
_space_group_symop_operation_xyz
x,y,z
-x,-y,-z
loop_
_atom_site_type_symbol
_atom_site_label
_atom_site_fract_x
_atom_site_fract_y
_atom_site_fract_z
Si Si1 0.462889 0.533249 0.364267
Si Si2 0.073183 0.028483 0.235369
Si Si3 0.739326 0.462571 0.285529
Si Si4 0.748148 0.436077 0.795839
Si Si5 0.595025 0.257373 0.991369
Si Si6 0.393010 0.143442 0.547493
Si Si7 0.224384 0.906713 0.829617
Si Si8 0.921944 0.054915 0.404463
O O1 0.605554 0.361327 0.357876
O O2 0.371733 0.564700 0.275821
O O3 0.371405 0.422930 0.458825
O O4 0.526835 0.819979 0.364862
O O5 0.185827 0.265872 0.225611
O O6 0.136883 0.779052 0.211025
O O7 0.944958 0.134913 0.163521
O O8 0.013716 0.924594 0.341696
O O9 0.736839 0.784180 0.232959
O O10 0.713632 0.307753 0.213606
O O11 0.888297 0.373395 0.342044
O O12 0.677825 0.349881 0.895500
O O13 0.500000 0.500000 0.000000
O O14 0.500000 0.000000 0.000000
O O15 0.714126 0.166307 0.069025
O O16 0.234690 0.061396 0.578869
O O17 0.500000 0.000000 0.500000
O O18 0.000000 0.000000 0.500000
#
# Coordination Sequence:
#
# PCOD8032737 Si02
#       8
#     2   2   2   2   2   2   2   2
#     4  11  24  40  67  95 142 179 239 294 352 411
#     4  11  26  45  66 104 140 191 235 278 370 419
#     4  11  23  43  71 102 135 194 229 290 359 418
#     4  12  27  44  72 105 142 184 234 298 351 425
#     4  12  26  47  75 111 138 181 237 294 364 424
#     4  11  24  42  65 100 135 186 241 287 358 410
#     4  11  24  45  72  98 145 180 234 287 351 437
#     4  11  24  43  72  99 146 185 243 297 349 425
#
# _framework density 22.379953
#
# number of rings (size 3 to 8) (size 9 to 14) (size 15 to 20)
#    0.000    0.750    1.250    6.750    3.500    1.000 
#    0.000    8.125    0.000    0.000    0.000    0.000 
#    0.000    0.000    0.000    0.000    0.000    0.000 
#
# Total GULP energy -198261.140180 kJ/mol
# GULP energy per Si atom -12391.321261 kJ/mol
# Density = 2.232902 g / cm^3
# Si number density = 22.379953 Si / 1000 Ang^3
#
#
#
# Elastic Constant Matrix: (Units=GPa)
#
#
# Indices 1 2 3 4 5 6 
#
# 1 115.8707 34.4644 70.7479 11.3192 -0.3922 7.6778
# 2 34.4644 107.6587 34.5671 14.3525 -8.1611 6.3599
# 3 70.7479 34.5671 158.1223 14.4051 13.6050 7.4607
# 4 11.3192 14.3525 14.4051 31.9184 1.6495 -3.3102
# 5 -0.3922 -8.1611 13.6050 1.6495 62.2476 8.1351
# 6 7.6778 6.3599 7.4607 -3.3102 8.1351 41.4457
#
#
#
# Elastic Compliance Matrix: (Units=1/GPa)
#
#
# Indices 1 2 3 4 5 6 
#
# 1 0.012579 -0.002027 -0.005083 -0.001466 0.001152 -0.001448
# 2 -0.002027 0.011142 -0.001254 -0.004023 0.002068 -0.001836
# 3 -0.005083 -0.001254 0.009224 -0.001711 -0.002135 -0.000244
# 4 -0.001466 -0.004023 -0.001711 0.034964 -0.001653 0.004314
# 5 0.001152 0.002068 -0.002135 -0.001653 0.017335 -0.003681
# 6 -0.001448 -0.001836 -0.000244 0.004314 -0.003681 0.025789
#
#
# Mechanical properties :
#
#
# Convention : Reuss Voigt Hill
#
# Bulk Modulus (GPa) = 61.65901 73.46783 67.56342
# Shear Modulus (GPa) = 37.54761 43.24716 40.39738
#
# Velocity S-wave (km/s) = 4.10046 4.40068 4.25322
# Velocity P-wave (km/s) = 7.07313 7.66291 7.37392
#
# Compressibility (1/GPa) = 0.01621823
#
# Stress axis : x y z
#
# Youngs Moduli (GPa) = 79.49445 89.75435 108.41855
#
# Poissons Ratio (x) = 0.18192 0.55105
# Poissons Ratio (y) = 0.16112 0.13592
# Poissons Ratio (z) = 0.40404 0.11252
#
# Static dielectric constant tensor:
#      x y z
#    x 2.197470 -1.532200 2.635300 
#    y -1.532200 3.291060 1.992010 
#    z 2.635300 1.992010 0.609430 
# 
# 
# High freq. dielectric constant tensor:
#      x y z
#    x 1.894750 0.001100 -0.007870 
#    y 0.001100 1.897150 0.008130 
#    z -0.007870 0.008130 1.887370 
# 
# From -- ./inp_files/488178.got.cif
#   From: 2010.06.25/outbox.cif.g09.slc.cpg/sg2_245_cif.got.tgz:488178.got - 2010.06.27 13:26:56.
