data_PCOD8032749
_publ_section_title
;
Structure prediction by ZEFSAII (Michael W. Deem and Ramdas Pophale) SiO2 
 PCOD8032749
Probable space group: P -1
;
_chemical_formula_sum "Si O2"
_cell_formula_units_Z 14
_cell_length_a 11.308675
_cell_length_b 27.584032
_cell_length_c 14.139909
_cell_angle_alpha 22.627729
_cell_angle_beta 147.277669
_cell_angle_gamma 158.272479
_cell_volume 624.172740
_symmetry_space_group_name_H-M "P -1"
_symmetry_group_IT_number 2
_symmetry_cell_setting 'triclinic'
loop_
_space_group_symop_operation_xyz
x,y,z
-x,-y,-z
loop_
_atom_site_type_symbol
_atom_site_label
_atom_site_fract_x
_atom_site_fract_y
_atom_site_fract_z
Si Si1 0.252054 0.295774 0.965190
Si Si2 0.824257 0.180612 0.625691
Si Si3 0.721967 0.448965 0.847812
Si Si4 0.861477 0.984469 0.143525
Si Si5 0.755290 0.304554 0.639523
Si Si6 0.374499 0.188021 0.402927
Si Si7 0.341308 0.044970 0.255139
O O1 0.517627 0.440545 0.803898
O O2 0.953330 0.264889 0.818960
O O3 0.405224 0.335233 0.101559
O O4 0.088291 0.090849 0.197600
O O5 0.535378 0.150007 0.514301
O O6 0.129401 0.387005 0.419883
O O7 0.686933 0.013925 0.764474
O O8 0.945962 0.153496 0.845535
O O9 0.530201 0.258105 0.005867
O O10 0.000000 0.500000 0.000000
O O11 0.490586 0.822719 0.211280
O O12 0.979506 0.914770 0.287080
O O13 0.566858 0.280701 0.464696
O O14 0.000000 0.500000 0.500000
O O15 0.000000 0.000000 0.500000
O O16 0.500000 0.000000 0.500000
#
# Coordination Sequence:
#
# PCOD8032749 Si02
#       7
#     2   2   2   2   2   2   2
#     4  11  23  46  72 102 143 192 244 295 364 445
#     4  12  24  45  73 105 144 192 243 306 366 436
#     4  11  23  43  71 106 146 191 240 303 372 432
#     4  11  24  47  70 101 147 192 239 299 368 437
#     4  12  28  46  72 112 147 188 248 312 363 440
#     4  12  24  46  79  99 141 203 242 290 377 438
#     4  11  24  41  70 106 140 189 246 299 365 442
#
# _framework density 22.429690000000001
#
# number of rings (size 3 to 8) (size 9 to 14) (size 15 to 20)
#    0.000    0.571    5.714    2.571    2.000    4.000 
#    0.000    0.000    0.000    0.000    0.000    0.000 
#    0.000    0.000    0.000    0.000    0.000    0.000 
#
# Total GULP energy -173484.413832 kJ/mol
# GULP energy per Si atom -12391.743845 kJ/mol
# Density = 2.237864 g / cm^3
# Si number density = 22.429690 Si / 1000 Ang^3
#
#
#
# Elastic Constant Matrix: (Units=GPa)
#
#
# Indices 1 2 3 4 5 6 
#
# 1 145.6164 77.2169 52.6081 -10.3402 -6.8652 24.3894
# 2 77.2169 132.3129 53.5655 1.1481 -6.7100 12.2361
# 3 52.6081 53.5655 119.7351 -3.8470 -22.8673 7.1150
# 4 -10.3402 1.1481 -3.8470 42.9020 1.4045 2.7399
# 5 -6.8652 -6.7100 -22.8673 1.4045 32.1982 -1.8338
# 6 24.3894 12.2361 7.1150 2.7399 -1.8338 60.5100
#
#
#
# Elastic Compliance Matrix: (Units=1/GPa)
#
#
# Indices 1 2 3 4 5 6 
#
# 1 0.011327 -0.005385 -0.002417 0.002895 -0.000741 -0.003346
# 2 -0.005385 0.011959 -0.003218 -0.001891 -0.000848 0.000191
# 3 -0.002417 -0.003218 0.012282 0.000333 0.007544 0.000395
# 4 0.002895 -0.001891 0.000333 0.024234 -0.000708 -0.001943
# 5 -0.000741 -0.000848 0.007544 -0.000708 0.036152 0.000711
# 6 -0.003346 0.000191 0.000395 -0.001943 0.000711 0.017899
#
#
# Mechanical properties :
#
#
# Convention : Reuss Voigt Hill
#
# Bulk Modulus (GPa) = 73.92687 84.93837 79.43262
# Shear Modulus (GPa) = 35.61123 41.40695 38.50909
#
# Velocity S-wave (km/s) = 3.98890 4.30126 4.14802
# Velocity P-wave (km/s) = 7.36519 7.91320 7.64411
#
# Compressibility (1/GPa) = 0.01352688
#
# Stress axis : x y z
#
# Youngs Moduli (GPa) = 88.28077 83.61752 81.42214
#
# Poissons Ratio (x) = 0.45030 0.19683
# Poissons Ratio (y) = 0.47541 0.26202
# Poissons Ratio (z) = 0.21341 0.26909
#
# Static dielectric constant tensor:
#      x y z
#    x 4.287970 -0.199460 -0.307700 
#    y -0.199460 4.447240 0.066800 
#    z -0.307700 0.066800 4.200960 
# 
# 
# High freq. dielectric constant tensor:
#      x y z
#    x 1.902180 0.010930 -0.007630 
#    y 0.010930 1.898970 0.020100 
#    z -0.007630 0.020100 1.870030 
# 
# From -- ./inp_files/458361.got.cif
#   From: 2010.06.25/outbox.cif.g09.slc.cpg/sg2_230_cif.got.tgz:458361.got - 2010.06.27 13:26:56.
