data_PCOD8032153
_publ_section_title
;
Structure prediction by ZEFSAII (Michael W. Deem and Ramdas Pophale) SiO2 
 PCOD8032153
Probable space group: P -1
;
_chemical_formula_sum "Si O2"
_cell_formula_units_Z 16
_cell_length_a 19.224870
_cell_length_b 12.297372
_cell_length_c 21.705649
_cell_angle_alpha 145.688505
_cell_angle_beta 160.826392
_cell_angle_gamma 24.798873
_cell_volume 688.237483
_symmetry_space_group_name_H-M "P -1"
_symmetry_group_IT_number 2
_symmetry_cell_setting 'triclinic'
loop_
_space_group_symop_operation_xyz
x,y,z
-x,-y,-z
loop_
_atom_site_type_symbol
_atom_site_label
_atom_site_fract_x
_atom_site_fract_y
_atom_site_fract_z
Si Si1 0.874838 0.004271 0.152765
Si Si2 0.600544 0.974818 0.224582
Si Si3 0.195808 0.367320 0.288473
Si Si4 0.421218 0.294366 0.106722
Si Si5 0.305623 0.759787 0.290544
Si Si6 0.806814 0.301430 0.349996
Si Si7 0.683317 0.567160 0.705687
Si Si8 0.700463 0.091577 0.774455
O O1 0.032902 0.974926 0.208624
O O2 0.003026 0.716289 0.146348
O O3 0.918913 0.148043 0.306493
O O4 0.535474 0.150960 0.929916
O O5 0.554661 0.047408 0.147421
O O6 0.461031 0.243103 0.268313
O O7 0.939715 0.754932 0.424611
O O8 0.380844 0.428854 0.500588
O O9 0.280035 0.299134 0.254972
O O10 0.316438 0.106347 0.302530
O O11 0.846050 0.622254 0.120012
O O12 0.274807 0.565965 0.146813
O O13 0.680360 0.200190 0.234952
O O14 0.307216 0.915530 0.309687
O O15 0.562564 0.616011 0.281200
O O16 0.500000 0.500000 0.500000
O O17 0.000000 0.000000 0.000000
#
# Coordination Sequence:
#
# PCOD8032153 Si02
#       8
#     2   2   2   2   2   2   2   2
#     4  12  24  42  68 105 139 173 227 284 342 403
#     4  12  23  40  68 103 142 180 224 270 361 398
#     4  12  22  42  75  99 130 184 233 271 337 402
#     4  11  23  41  67 100 141 176 223 284 337 410
#     4  11  23  42  72  99 128 180 230 275 331 404
#     4  11  26  44  63 101 143 176 222 292 334 396
#     4  12  21  41  73 103 140 179 221 283 336 413
#     4  11  25  50  72  91 137 184 236 278 328 408
#
# _framework density 23.247788
#
# number of rings (size 3 to 8) (size 9 to 14) (size 15 to 20)
#    0.000    0.500    7.500    1.875    0.000    2.500 
#    2.250    3.125    0.000    0.000    0.000    0.000 
#    0.000    0.000    0.000    0.000    0.000    0.000 
#
# Total GULP energy -198388.363400 kJ/mol
# GULP energy per Si atom -12399.272713 kJ/mol
# Density = 2.319487 g / cm^3
# Si number density = 23.247788 Si / 1000 Ang^3
#
#
#
# Elastic Constant Matrix: (Units=GPa)
#
#
# Indices 1 2 3 4 5 6 
#
# 1 133.4237 37.3295 1.9509 -5.6158 11.3135 8.6709
# 2 37.3295 73.8596 11.8263 -12.0616 -4.2943 3.6410
# 3 1.9509 11.8263 133.4787 -19.6151 5.2385 6.0272
# 4 -5.6158 -12.0616 -19.6151 31.1477 4.5504 3.9299
# 5 11.3135 -4.2943 5.2385 4.5504 32.1935 -3.2441
# 6 8.6709 3.6410 6.0272 3.9299 -3.2441 29.6885
#
#
#
# Elastic Compliance Matrix: (Units=1/GPa)
#
#
# Indices 1 2 3 4 5 6 
#
# 1 0.009475 -0.004806 0.000813 0.001415 -0.004609 -0.003034
# 2 -0.004806 0.017128 -0.000828 0.004859 0.003341 -0.000807
# 3 0.000813 -0.000828 0.008709 0.006130 -0.002986 -0.003042
# 4 0.001415 0.004859 0.006130 0.040238 -0.007379 -0.008387
# 5 -0.004609 0.003341 -0.002986 -0.007379 0.035299 0.006377
# 6 -0.003034 -0.000807 -0.003042 -0.008387 0.006377 0.037093
#
#
# Mechanical properties :
#
#
# Convention : Reuss Voigt Hill
#
# Bulk Modulus (GPa) = 38.95589 49.21950 44.08769
# Shear Modulus (GPa) = 30.09476 37.91627 34.00551
#
# Velocity S-wave (km/s) = 3.60185 4.04290 3.82873
# Velocity P-wave (km/s) = 5.83875 6.55828 6.20894
#
# Compressibility (1/GPa) = 0.02567006
#
# Stress axis : x y z
#
# Youngs Moduli (GPa) = 105.53683 58.38239 114.82730
#
# Poissons Ratio (x) = 0.28061 -0.09338
# Poissons Ratio (y) = 0.50726 0.09508
# Poissons Ratio (z) = -0.08583 0.04834
#
# Static dielectric constant tensor:
#      x y z
#    x 4.767010 0.355210 -0.180490 
#    y 0.355210 4.029720 -0.172570 
#    z -0.180490 -0.172570 4.678040 
# 
# 
# High freq. dielectric constant tensor:
#      x y z
#    x 1.926030 -0.006760 0.000670 
#    y -0.006760 1.883410 0.001960 
#    z 0.000670 0.001960 1.947210 
# 
# From -- ./inp_files/455831.got.cif
#   From: 2010.06.25/outbox.cif.g09.slc.cpg/sg2_228_cif.got.tgz:455831.got - 2010.06.27 13:26:56.
