data_PCOD8032491
_publ_section_title
;
Structure prediction by ZEFSAII (Michael W. Deem and Ramdas Pophale) SiO2 
 PCOD8032491
Probable space group: P -1
;
_chemical_formula_sum "Si O2"
_cell_formula_units_Z 16
_cell_length_a 8.913519
_cell_length_b 13.957822
_cell_length_c 15.429702
_cell_angle_alpha 37.530097
_cell_angle_beta 41.291227
_cell_angle_gamma 40.629481
_cell_volume 705.328484
_symmetry_space_group_name_H-M "P -1"
_symmetry_group_IT_number 2
_symmetry_cell_setting 'triclinic'
loop_
_space_group_symop_operation_xyz
x,y,z
-x,-y,-z
loop_
_atom_site_type_symbol
_atom_site_label
_atom_site_fract_x
_atom_site_fract_y
_atom_site_fract_z
Si Si1 0.676507 0.920111 0.858479
Si Si2 0.878309 0.458707 0.278269
Si Si3 0.459972 0.764460 0.194527
Si Si4 0.763994 0.305045 0.271552
Si Si5 0.317524 0.241710 0.554220
Si Si6 0.601637 0.561848 0.993986
Si Si7 0.722144 0.043414 0.122061
Si Si8 0.874854 0.423430 0.499916
O O1 0.460404 0.016292 0.813734
O O2 0.949639 0.822759 0.771298
O O3 0.696324 0.050717 0.827651
O O4 0.584508 0.781297 0.038178
O O5 0.693366 0.657630 0.231919
O O6 0.738814 0.398571 0.307734
O O7 0.889066 0.372865 0.428403
O O8 0.144677 0.428437 0.149690
O O9 0.281673 0.668958 0.318722
O O10 0.600665 0.192990 0.434780
O O11 0.654679 0.438331 0.143493
O O12 0.243552 0.372152 0.575391
O O13 0.153523 0.343212 0.471464
O O14 0.266755 0.070032 0.715959
O O15 0.399386 0.752586 0.961281
O O16 0.500000 0.500000 0.000000
O O17 0.000000 0.000000 0.000000
#
# Coordination Sequence:
#
# PCOD8032491 Si02
#       8
#     2   2   2   2   2   2   2   2
#     4  11  25  44  73 108 146 189 245 302 359 425
#     4  12  23  44  74 104 142 191 249 293 355 434
#     4  11  23  42  72 106 144 186 244 302 353 431
#     4  12  25  48  76 107 145 192 244 300 360 431
#     4  11  27  46  73 104 151 189 241 302 367 432
#     4  12  28  47  75 108 147 195 239 294 365 442
#     4  12  28  46  72 106 146 189 239 299 369 428
#     4  11  25  44  71 107 144 195 241 297 367 431
#
# _framework density 22.684466
#
# number of rings (size 3 to 8) (size 9 to 14) (size 15 to 20)
#    0.000    0.500    3.750    3.750    8.750    2.500 
#    0.000    1.875    0.000    0.000    0.000    0.000 
#    0.000    0.000    0.000    0.000    0.000    0.000 
#
# Total GULP energy -198307.263842 kJ/mol
# GULP energy per Si atom -12394.203990 kJ/mol
# Density = 2.263283 g / cm^3
# Si number density = 22.684466 Si / 1000 Ang^3
#
#
#
# Elastic Constant Matrix: (Units=GPa)
#
#
# Indices 1 2 3 4 5 6 
#
# 1 101.0925 51.6861 26.3709 14.8991 10.0813 -11.2172
# 2 51.6861 105.1539 56.2385 8.0750 -15.5675 -17.3656
# 3 26.3709 56.2385 128.4871 16.3292 -4.9153 -18.0953
# 4 14.8991 8.0750 16.3292 32.2432 -3.7154 -4.4683
# 5 10.0813 -15.5675 -4.9153 -3.7154 38.2779 8.8763
# 6 -11.2172 -17.3656 -18.0953 -4.4683 8.8763 30.7867
#
#
#
# Elastic Compliance Matrix: (Units=1/GPa)
#
#
# Indices 1 2 3 4 5 6 
#
# 1 0.016541 -0.009324 0.001676 -0.006757 -0.009396 0.003481
# 2 -0.009324 0.018737 -0.006249 0.004050 0.009344 0.001393
# 3 0.001676 -0.006249 0.011197 -0.004683 -0.002885 0.003819
# 4 -0.006757 0.004050 -0.004683 0.036286 0.006222 0.000543
# 5 -0.009396 0.009344 -0.002885 0.006222 0.034709 -0.008953
# 6 0.003481 0.001393 0.003819 0.000543 -0.008953 0.039440
#
#
# Mechanical properties :
#
#
# Convention : Reuss Voigt Hill
#
# Bulk Modulus (GPa) = 53.53055 67.03606 60.28330
# Shear Modulus (GPa) = 26.18750 33.62410 29.90580
#
# Velocity S-wave (km/s) = 3.40137 3.85418 3.63483
# Velocity P-wave (km/s) = 6.25099 7.03007 6.65195
#
# Compressibility (1/GPa) = 0.01868092
#
# Stress axis : x y z
#
# Youngs Moduli (GPa) = 60.45559 53.37025 89.31282
#
# Poissons Ratio (x) = 0.49762 -0.14966
# Poissons Ratio (y) = 0.56368 0.55808
# Poissons Ratio (z) = -0.10130 0.33349
#
# Static dielectric constant tensor:
#      x y z
#    x 4.176610 -0.158570 0.127710 
#    y -0.158570 4.065140 0.018070 
#    z 0.127710 0.018070 4.126440 
# 
# 
# High freq. dielectric constant tensor:
#      x y z
#    x 1.903680 -0.014930 -0.003640 
#    y -0.014930 1.896950 0.006150 
#    z -0.003640 0.006150 1.901950 
# 
# From -- ./inp_files/335636.got.cif
#   From: 2010.06.25/outbox.cif.g09.slc.cpg/sg2_168_cif.got.tgz:335636.got - 2010.06.27 13:26:56.
