data_PCOD8032803
_publ_section_title
;
Structure prediction by ZEFSAII (Michael W. Deem and Ramdas Pophale) SiO2 
 PCOD8032803
Probable space group: P -1
;
_chemical_formula_sum "Si O2"
_cell_formula_units_Z 14
_cell_length_a 11.259037
_cell_length_b 7.716677
_cell_length_c 9.582728
_cell_angle_alpha 66.372694
_cell_angle_beta 55.746185
_cell_angle_gamma 64.601639
_cell_volume 607.324455
_symmetry_space_group_name_H-M "P -1"
_symmetry_group_IT_number 2
_symmetry_cell_setting 'triclinic'
loop_
_space_group_symop_operation_xyz
x,y,z
-x,-y,-z
loop_
_atom_site_type_symbol
_atom_site_label
_atom_site_fract_x
_atom_site_fract_y
_atom_site_fract_z
Si Si1 0.070779 0.420903 0.128492
Si Si2 0.546801 0.204303 0.429462
Si Si3 0.606444 0.361404 0.624964
Si Si4 0.070389 0.778665 0.487117
Si Si5 0.384173 0.161749 0.935031
Si Si6 0.238842 0.979475 0.866036
Si Si7 0.976457 0.216160 0.791207
O O1 0.220553 0.243198 0.082968
O O2 0.951064 0.354591 0.325443
O O3 0.113436 0.594769 0.125272
O O4 0.000000 0.500000 0.000000
O O5 0.628042 0.227850 0.513337
O O6 0.410334 0.404513 0.452181
O O7 0.667177 0.205778 0.226736
O O8 0.500000 0.000000 0.500000
O O9 0.753828 0.266505 0.646354
O O10 0.458748 0.339963 0.807988
O O11 0.999833 0.735477 0.401374
O O12 0.000000 0.000000 0.500000
O O13 0.500000 0.000000 0.000000
O O14 0.359708 0.072783 0.829743
O O15 0.141008 0.135286 0.771873
O O16 0.126984 0.932982 0.071628
#
# Coordination Sequence:
#
# PCOD8032803 Si02
#       7
#     2   2   2   2   2   2   2
#     4  12  27  46  76 108 149 197 255 306 378 457
#     4  11  24  42  70 104 143 193 244 301 372 453
#     4  11  26  44  73 106 151 188 246 309 379 441
#     4  12  27  49  73 109 151 196 252 315 379 449
#     4  12  25  46  73 108 148 195 244 315 380 447
#     4  11  23  43  73 105 142 192 251 302 375 447
#     4  11  25  44  74 104 146 192 249 312 369 446
#
# _framework density 23.051929000000001
#
# number of rings (size 3 to 8) (size 9 to 14) (size 15 to 20)
#    0.000    0.571    2.857    4.714   10.000    1.143 
#    2.571    2.857    0.000    0.000    0.000    0.000 
#    0.000    0.000    0.000    0.000    0.000    0.000 
#
# Total GULP energy -173521.306440 kJ/mol
# GULP energy per Si atom -12394.379031 kJ/mol
# Density = 2.299946 g / cm^3
# Si number density = 23.051929 Si / 1000 Ang^3
#
#
#
# Elastic Constant Matrix: (Units=GPa)
#
#
# Indices 1 2 3 4 5 6 
#
# 1 138.2582 66.9285 50.5846 -4.2362 16.4658 -13.9909
# 2 66.9285 142.1166 38.0339 10.1566 15.9332 1.9103
# 3 50.5846 38.0339 121.2809 1.0583 19.5147 -0.8425
# 4 -4.2362 10.1566 1.0583 43.3109 0.9819 -0.3984
# 5 16.4658 15.9332 19.5147 0.9819 44.1736 -0.8045
# 6 -13.9909 1.9103 -0.8425 -0.3984 -0.8045 42.0380
#
#
#
# Elastic Compliance Matrix: (Units=1/GPa)
#
#
# Indices 1 2 3 4 5 6 
#
# 1 0.011123 -0.004512 -0.003031 0.002282 -0.001160 0.003846
# 2 -0.004512 0.009794 -0.000954 -0.002702 -0.001406 -0.002018
# 3 -0.003031 -0.000954 0.010302 -0.000262 -0.003086 -0.000820
# 4 0.002282 -0.002702 -0.000262 0.023968 -0.000273 0.001099
# 5 -0.001160 -0.001406 -0.003086 -0.000273 0.024949 0.000091
# 6 0.003846 -0.002018 -0.000820 0.001099 0.000091 0.025155
#
#
# Mechanical properties :
#
#
# Convention : Reuss Voigt Hill
#
# Bulk Modulus (GPa) = 70.29293 79.19440 74.74367
# Shear Modulus (GPa) = 39.36167 42.31177 40.83672
#
# Velocity S-wave (km/s) = 4.13670 4.28892 4.21350
# Velocity P-wave (km/s) = 7.30588 7.67827 7.49439
#
# Compressibility (1/GPa) = 0.01422618
#
# Stress axis : x y z
#
# Youngs Moduli (GPa) = 89.90266 102.09867 97.07059
#
# Poissons Ratio (x) = 0.46066 0.29421
# Poissons Ratio (y) = 0.40563 0.09259
# Poissons Ratio (z) = 0.27248 0.09739
#
# Static dielectric constant tensor:
#      x y z
#    x 4.102780 0.112710 -0.062820 
#    y 0.112710 4.187030 0.138800 
#    z -0.062820 0.138800 4.027590 
# 
# 
# High freq. dielectric constant tensor:
#      x y z
#    x 1.911360 0.002170 -0.000130 
#    y 0.002170 1.918270 0.008330 
#    z -0.000130 0.008330 1.915300 
# 
# From -- ./inp_files/242863.got.cif
#   From: 2010.06.25/outbox.cif.g09.slc.cpg/sg2_122_cif.got.tgz:242863.got - 2010.06.27 13:26:56.
