data_PCOD8032830
_publ_section_title
;
Structure prediction by ZEFSAII (Michael W. Deem and Ramdas Pophale) SiO2 
 PCOD8032830
Probable space group: P -1
;
_chemical_formula_sum "Si O2"
_cell_formula_units_Z 12
_cell_length_a 9.110473
_cell_length_b 11.423701
_cell_length_c 9.470485
_cell_angle_alpha 43.255389
_cell_angle_beta 114.316502
_cell_angle_gamma 92.812772
_cell_volume 563.659798
_symmetry_space_group_name_H-M "P -1"
_symmetry_group_IT_number 2
_symmetry_cell_setting 'triclinic'
loop_
_space_group_symop_operation_xyz
x,y,z
-x,-y,-z
loop_
_atom_site_type_symbol
_atom_site_label
_atom_site_fract_x
_atom_site_fract_y
_atom_site_fract_z
Si Si1 0.024724 0.295136 0.230927
Si Si2 0.626154 0.037969 0.406662
Si Si3 0.137725 0.811356 0.994233
Si Si4 0.861936 0.204735 0.508636
Si Si5 0.834631 0.462086 0.515472
Si Si6 0.496648 0.827426 0.065525
O O1 0.967213 0.288287 0.374462
O O2 0.227529 0.159196 0.411321
O O3 0.000000 0.500000 0.000000
O O4 0.903705 0.223291 0.152176
O O5 0.708615 0.169090 0.398464
O O6 0.500000 0.000000 0.500000
O O7 0.516505 0.140136 0.136306
O O8 0.106921 0.663532 0.211719
O O9 0.337419 0.786562 0.102331
O O10 0.002654 0.018659 0.801411
O O11 0.774213 0.354669 0.465009
O O12 0.674768 0.652563 0.323623
O O13 0.000000 0.500000 0.500000
O O14 0.500000 0.000000 0.000000
#
# Coordination Sequence:
#
# PCOD8032830 Si02
#       6
#     2   2   2   2   2   2
#     4  11  23  43  74  96 136 178 220 278 334 403
#     4  11  26  44  69 103 132 177 227 277 337 388
#     4  11  23  47  67  97 134 182 224 270 342 398
#     4  11  23  47  70  98 136 175 224 282 332 401
#     4  12  28  42  69 104 135 177 228 276 335 401
#     4  12  27  46  68  96 142 178 222 279 338 401
#
# _framework density 21.289437
#
# number of rings (size 3 to 8) (size 9 to 14) (size 15 to 20)
#    0.000    0.667    3.333    4.000   11.667    2.000 
#    0.000    0.000    0.000    0.000    0.000    0.000 
#    0.000    0.000    0.000    0.000    0.000    0.000 
#
# Total GULP energy -148893.092910 kJ/mol
# GULP energy per Si atom -12407.757742 kJ/mol
# Density = 2.124098 g / cm^3
# Si number density = 21.289437 Si / 1000 Ang^3
#
#
#
# Elastic Constant Matrix: (Units=GPa)
#
#
# Indices 1 2 3 4 5 6 
#
# 1 120.3524 11.7753 38.6437 -2.3029 -8.2911 6.2452
# 2 11.7753 89.6516 28.2157 -12.3415 10.3098 -8.2582
# 3 38.6437 28.2157 135.7542 -9.5442 -12.3239 -1.7387
# 4 -2.3029 -12.3415 -9.5442 39.7598 -4.3572 -1.8941
# 5 -8.2911 10.3098 -12.3239 -4.3572 38.1904 1.7998
# 6 6.2452 -8.2582 -1.7387 -1.8941 1.7998 29.3272
#
#
#
# Elastic Compliance Matrix: (Units=1/GPa)
#
#
# Indices 1 2 3 4 5 6 
#
# 1 0.009404 -0.000938 -0.002386 -0.000263 0.001614 -0.002524
# 2 -0.000938 0.013477 -0.002666 0.003197 -0.004541 0.004322
# 3 -0.002386 -0.002666 0.009010 0.001565 0.003279 0.000191
# 4 -0.000263 0.003197 0.001565 0.026907 0.002531 0.002632
# 5 0.001614 -0.004541 0.003279 0.002531 0.029252 -0.003060
# 6 -0.002524 0.004322 0.000191 0.002632 -0.003060 0.036222
#
#
# Mechanical properties :
#
#
# Convention : Reuss Voigt Hill
#
# Bulk Modulus (GPa) = 50.22751 55.89196 53.05973
# Shear Modulus (GPa) = 34.99209 39.26371 37.12790
#
# Velocity S-wave (km/s) = 4.05858 4.29917 4.18060
# Velocity P-wave (km/s) = 6.75327 7.13822 6.94841
#
# Compressibility (1/GPa) = 0.01990941
#
# Stress axis : x y z
#
# Youngs Moduli (GPa) = 106.33678 74.19972 110.99024
#
# Poissons Ratio (x) = 0.06964 0.26484
# Poissons Ratio (y) = 0.09980 0.29591
# Poissons Ratio (z) = 0.25374 0.19783
#
# Static dielectric constant tensor:
#      x y z
#    x 3.813780 -0.002840 -0.068150 
#    y -0.002840 4.008100 -0.041700 
#    z -0.068150 -0.041700 3.925580 
# 
# 
# High freq. dielectric constant tensor:
#      x y z
#    x 1.840400 0.002240 -0.007250 
#    y 0.002240 1.845550 0.000480 
#    z -0.007250 0.000480 1.846480 
# 
# From -- ./inp_files/145460.got.cif
#   From: 2010.06.25/outbox.cif.g09.slc.cpg/sg2_73_cif.got.tgz:145460.got - 2010.06.27 13:26:56.
