data_PCOD8032044
_publ_section_title
;
Structure prediction by ZEFSAII (Michael W. Deem and Ramdas Pophale) SiO2 
 PCOD8032044
Probable space group: P -1
;
_chemical_formula_sum "Si O2"
_cell_formula_units_Z 14
_cell_length_a 14.346664
_cell_length_b 11.450022
_cell_length_c 11.096459
_cell_angle_alpha 154.936624
_cell_angle_beta 56.067507
_cell_angle_gamma 113.515262
_cell_volume 610.462107
_symmetry_space_group_name_H-M "P -1"
_symmetry_group_IT_number 2
_symmetry_cell_setting 'triclinic'
loop_
_space_group_symop_operation_xyz
x,y,z
-x,-y,-z
loop_
_atom_site_type_symbol
_atom_site_label
_atom_site_fract_x
_atom_site_fract_y
_atom_site_fract_z
Si Si1 0.332325 0.353914 0.264369
Si Si2 0.013736 0.929684 0.217004
Si Si3 0.940995 0.541098 0.448965
Si Si4 0.680428 0.878810 0.529924
Si Si5 0.823863 0.246164 0.840850
Si Si6 0.546389 0.250479 0.329113
Si Si7 0.506727 0.214031 0.795127
O O1 0.192939 0.463470 0.448676
O O2 0.371914 0.631216 0.530861
O O3 0.397051 0.238455 0.985180
O O4 0.375198 0.079946 0.073062
O O5 0.111124 0.760729 0.085538
O O6 0.058803 0.155285 0.320809
O O7 0.990346 0.706842 0.927490
O O8 0.897658 0.080072 0.518569
O O9 0.000000 0.500000 0.500000
O O10 0.571615 0.778458 0.556261
O O11 0.725514 0.080542 0.779806
O O12 0.635421 0.093304 0.650641
O O13 0.780658 0.581894 0.148345
O O14 0.500000 0.500000 0.500000
O O15 0.500000 0.000000 0.500000
O O16 0.500000 0.500000 0.000000
#
# Coordination Sequence:
#
# PCOD8032044 Si02
#       7
#     2   2   2   2   2   2   2
#     4  11  25  44  64 102 137 175 230 280 332 412
#     4  11  26  46  70 100 139 183 236 300 352 403
#     4  12  27  47  71 100 139 190 244 283 352 421
#     4  11  23  40  68 104 135 174 234 275 345 432
#     4  11  24  44  71 103 139 179 236 297 355 413
#     4  11  24  41  66 100 138 174 215 271 353 419
#     4  11  23  42  65  94 137 179 219 277 336 404
#
# _framework density 22.933446
#
# number of rings (size 3 to 8) (size 9 to 14) (size 15 to 20)
#    0.000    0.857    0.000    7.714    6.000    5.714 
#    0.000    0.000    0.000    0.000    0.000    0.000 
#    0.000    0.000    0.000    0.000    0.000    0.000 
#
# Total GULP energy -173497.013563 kJ/mol
# GULP energy per Si atom -12392.643826 kJ/mol
# Density = 2.288125 g / cm^3
# Si number density = 22.933446 Si / 1000 Ang^3
#
#
#
# Elastic Constant Matrix: (Units=GPa)
#
#
# Indices 1 2 3 4 5 6 
#
# 1 118.5768 38.8298 38.1974 5.0360 -1.1725 -8.4768
# 2 38.8298 96.0254 30.9928 21.4691 -9.4974 -14.3176
# 3 38.1974 30.9928 128.5070 26.0873 4.6209 -17.5560
# 4 5.0360 21.4691 26.0873 41.0120 -6.0316 6.1131
# 5 -1.1725 -9.4974 4.6209 -6.0316 46.7035 6.0021
# 6 -8.4768 -14.3176 -17.5560 6.1131 6.0021 33.4814
#
#
#
# Elastic Compliance Matrix: (Units=1/GPa)
#
#
# Indices 1 2 3 4 5 6 
#
# 1 0.010509 -0.004123 -0.002895 0.002924 0.000243 -0.001198
# 2 -0.004123 0.014996 0.000200 -0.008345 0.000971 0.006823
# 3 -0.002895 0.000200 0.011503 -0.008672 -0.003261 0.007552
# 4 0.002924 -0.008345 -0.008672 0.037055 0.005975 -0.015212
# 5 0.000243 0.000971 -0.003261 0.005975 0.023551 -0.006545
# 6 -0.001198 0.006823 0.007552 -0.015212 -0.006545 0.040393
#
#
# Mechanical properties :
#
#
# Convention : Reuss Voigt Hill
#
# Bulk Modulus (GPa) = 42.78707 62.12770 52.45738
# Shear Modulus (GPa) = 31.36106 39.91201 35.63653
#
# Velocity S-wave (km/s) = 3.70196 4.17626 3.94624
# Velocity P-wave (km/s) = 6.08032 7.09959 6.60963
#
# Compressibility (1/GPa) = 0.02337155
#
# Stress axis : x y z
#
# Youngs Moduli (GPa) = 95.15818 66.68484 86.93139
#
# Poissons Ratio (x) = 0.27497 0.25169
# Poissons Ratio (y) = 0.39237 -0.01742
# Poissons Ratio (z) = 0.27551 -0.01336
#
# Static dielectric constant tensor:
#      x y z
#    x 4.275090 0.154310 0.242990 
#    y 0.154310 4.104770 0.029100 
#    z 0.242990 0.029100 4.232880 
# 
# 
# High freq. dielectric constant tensor:
#      x y z
#    x 1.912890 0.006320 0.004400 
#    y 0.006320 1.906120 0.017080 
#    z 0.004400 0.017080 1.927250 
# 
# From -- ./inp_files/452029.got.cif
#   From: 2010.06.25/outbox.cif.g09.slc.cpg/sg2_227_cif.got.tgz:452029.got - 2010.06.27 13:26:56.
