data_PCOD8032910
_publ_section_title
;
Structure prediction by ZEFSAII (Michael W. Deem and Ramdas Pophale) SiO2 
 PCOD8032910
Probable space group: P -1
;
_chemical_formula_sum "Si O2"
_cell_formula_units_Z 16
_cell_length_a 11.453022
_cell_length_b 9.280663
_cell_length_c 14.933236
_cell_angle_alpha 108.846537
_cell_angle_beta 29.611947
_cell_angle_gamma 101.332687
_cell_volume 730.090350
_symmetry_space_group_name_H-M "P -1"
_symmetry_group_IT_number 2
_symmetry_cell_setting 'triclinic'
loop_
_space_group_symop_operation_xyz
x,y,z
-x,-y,-z
loop_
_atom_site_type_symbol
_atom_site_label
_atom_site_fract_x
_atom_site_fract_y
_atom_site_fract_z
Si Si1 0.208968 0.384710 0.787752
Si Si2 0.206525 0.225654 0.463864
Si Si3 0.401114 0.543931 0.977513
Si Si4 0.575525 0.120806 0.042233
Si Si5 0.110263 0.091978 0.692541
Si Si6 0.859534 0.359191 0.576649
Si Si7 0.141959 0.507103 0.675035
Si Si8 0.285057 0.757613 0.523239
O O1 0.125796 0.230058 0.777584
O O2 0.442123 0.337184 0.685032
O O3 0.278983 0.474592 0.671435
O O4 0.000000 0.500000 0.000000
O O5 0.415445 0.137468 0.242911
O O6 0.166510 0.126104 0.558031
O O7 0.957499 0.260807 0.579763
O O8 0.269596 0.389583 0.489010
O O9 0.439501 0.715557 0.963636
O O10 0.575234 0.422207 0.776485
O O11 0.500000 0.500000 0.000000
O O12 0.129114 0.524600 0.139398
O O13 0.846855 0.053911 0.874518
O O14 0.500000 0.000000 0.000000
O O15 0.290823 0.937652 0.573713
O O16 0.884768 0.248251 0.451508
O O17 0.000000 0.500000 0.500000
O O18 0.151546 0.682631 0.677396
#
# Coordination Sequence:
#
# PCOD8032910 Si02
#       8
#     2   2   2   2   2   2   2   2
#     4  11  25  49  75  98 134 185 242 294 353 417
#     4  11  23  44  68 100 143 190 222 284 360 412
#     4  12  21  38  64 100 141 177 236 282 334 419
#     4  12  25  40  67 101 147 186 224 282 355 423
#     4  11  27  49  68 105 147 181 233 298 354 418
#     4  12  21  37  69 101 138 179 234 284 346 419
#     4  11  23  44  71 101 136 187 234 293 345 418
#     4  12  25  44  72 101 139 182 239 290 351 419
#
# _framework density 21.915095999999998
#
# number of rings (size 3 to 8) (size 9 to 14) (size 15 to 20)
#    0.000    0.500    6.250    2.250    3.500    3.000 
#    2.250    0.625    0.000    0.000    0.000    0.000 
#    0.000    0.000    0.000    0.000    0.000    0.000 
#
# Total GULP energy -198324.468121 kJ/mol
# GULP energy per Si atom -12395.279258 kJ/mol
# Density = 2.186522 g / cm^3
# Si number density = 21.915096 Si / 1000 Ang^3
#
#
#
# Elastic Constant Matrix: (Units=GPa)
#
#
# Indices 1 2 3 4 5 6 
#
# 1 112.6726 47.6563 34.2737 8.8619 9.7721 -3.4103
# 2 47.6563 140.2646 53.7441 9.5543 4.9347 -8.3291
# 3 34.2737 53.7441 137.9416 7.1159 6.7981 2.3284
# 4 8.8619 9.5543 7.1159 26.6481 2.6196 -8.7699
# 5 9.7721 4.9347 6.7981 2.6196 33.5685 5.7552
# 6 -3.4103 -8.3291 2.3284 -8.7699 5.7552 28.8501
#
#
#
# Elastic Compliance Matrix: (Units=1/GPa)
#
#
# Indices 1 2 3 4 5 6 
#
# 1 0.010900 -0.002948 -0.001356 -0.001813 -0.002405 0.000476
# 2 -0.002948 0.009467 -0.002942 -0.000797 -0.000294 0.002439
# 3 -0.001356 -0.002942 0.008869 -0.001499 -0.000495 -0.002083
# 4 -0.001813 -0.000797 -0.001499 0.043900 -0.004876 0.013994
# 5 -0.002405 -0.000294 -0.000495 -0.004876 0.032434 -0.008282
# 6 0.000476 0.002439 -0.002083 0.013994 -0.008282 0.041496
#
#
# Mechanical properties :
#
#
# Convention : Reuss Voigt Hill
#
# Bulk Modulus (GPa) = 67.81296 73.58076 70.69686
# Shear Modulus (GPa) = 30.03488 34.82699 32.43093
#
# Velocity S-wave (km/s) = 3.70606 3.99077 3.85105
# Velocity P-wave (km/s) = 7.02309 7.40833 7.21828
#
# Compressibility (1/GPa) = 0.01474644
#
# Stress axis : x y z
#
# Youngs Moduli (GPa) = 91.74320 105.62460 112.74697
#
# Poissons Ratio (x) = 0.31133 0.15287
# Poissons Ratio (y) = 0.27041 0.33169
# Poissons Ratio (z) = 0.12439 0.31073
#
# Static dielectric constant tensor:
#      x y z
#    x 4.252270 -0.082440 -0.408750 
#    y -0.082440 3.898770 -0.082600 
#    z -0.408750 -0.082600 4.200570 
# 
# 
# High freq. dielectric constant tensor:
#      x y z
#    x 1.870510 -0.003580 -0.002810 
#    y -0.003580 1.858520 0.004140 
#    z -0.002810 0.004140 1.864650 
# 
# From -- ./inp_files/278810.got.cif
#   From: 2010.06.25/outbox.cif.g09.slc.cpg/sg2_140_cif.got.tgz:278810.got - 2010.06.27 13:26:56.
