data_PCOD8032314
_publ_section_title
;
Structure prediction by ZEFSAII (Michael W. Deem and Ramdas Pophale) SiO2 
 PCOD8032314
Probable space group: P -1
;
_chemical_formula_sum "Si O2"
_cell_formula_units_Z 16
_cell_length_a 14.483303
_cell_length_b 11.076257
_cell_length_c 13.768861
_cell_angle_alpha 124.589841
_cell_angle_beta 149.818827
_cell_angle_gamma 74.424359
_cell_volume 771.197047
_symmetry_space_group_name_H-M "P -1"
_symmetry_group_IT_number 2
_symmetry_cell_setting 'triclinic'
loop_
_space_group_symop_operation_xyz
x,y,z
-x,-y,-z
loop_
_atom_site_type_symbol
_atom_site_label
_atom_site_fract_x
_atom_site_fract_y
_atom_site_fract_z
Si Si1 0.213305 0.361264 0.492832
Si Si2 0.931678 0.482495 0.249092
Si Si3 0.538528 0.254162 0.677637
Si Si4 0.909228 0.056841 0.199718
Si Si5 0.225091 0.983064 0.531998
Si Si6 0.241383 0.885871 0.710512
Si Si7 0.479750 0.044060 0.343004
Si Si8 0.406869 0.614315 0.936830
O O1 0.340827 0.285737 0.520319
O O2 0.348752 0.561091 0.746363
O O3 0.028198 0.359602 0.257862
O O4 0.105404 0.249696 0.441066
O O5 0.803354 0.429000 0.210738
O O6 0.130669 0.680141 0.520874
O O7 0.759643 0.439209 0.985772
O O8 0.538119 0.194769 0.541457
O O9 0.531454 0.119206 0.688379
O O10 0.820184 0.051623 0.221976
O O11 0.019178 0.943336 0.260519
O O12 0.736580 0.993852 0.926464
O O13 0.150263 0.920065 0.544984
O O14 0.328039 0.883139 0.528796
O O15 0.415925 0.184581 0.801808
O O16 0.500000 0.000000 0.000000
O O17 0.500000 0.500000 0.000000
#
# Coordination Sequence:
#
# PCOD8032314 Si02
#       8
#     2   2   2   2   2   2   2   2
#     4  12  22  36  65 101 130 163 216 269 328 387
#     4  12  23  41  64  96 131 170 215 269 328 382
#     4  11  24  41  66  98 130 172 216 272 319 385
#     4  12  22  39  66  96 131 168 208 268 330 383
#     4  12  23  43  64 100 132 173 212 266 331 389
#     4  12  26  42  65  97 137 175 210 264 333 394
#     4  11  23  42  65  95 136 165 221 268 322 379
#     4  12  19  37  66  96 132 160 209 274 332 383
#
# _framework density 20.746966
#
# number of rings (size 3 to 8) (size 9 to 14) (size 15 to 20)
#    0.000    0.250    8.750    1.500    0.000    1.500 
#    2.250    0.625    0.000    1.500    0.000    0.000 
#    0.000    0.000    0.000    0.000    0.000    0.000 
#
# Total GULP energy -198211.624640 kJ/mol
# GULP energy per Si atom -12388.226540 kJ/mol
# Density = 2.069975 g / cm^3
# Si number density = 20.746966 Si / 1000 Ang^3
#
#
#
# Elastic Constant Matrix: (Units=GPa)
#
#
# Indices 1 2 3 4 5 6 
#
# 1 113.7773 33.0761 35.7583 0.2098 -12.6992 -18.4219
# 2 33.0761 87.4921 24.4350 -22.5699 7.3497 -13.4526
# 3 35.7583 24.4350 46.0605 -13.2598 -2.9790 -16.0103
# 4 0.2098 -22.5699 -13.2598 34.5608 0.0030 1.6081
# 5 -12.6992 7.3497 -2.9790 0.0030 37.0333 -2.0731
# 6 -18.4219 -13.4526 -16.0103 1.6081 -2.0731 36.9088
#
#
#
# Elastic Compliance Matrix: (Units=1/GPa)
#
#
# Indices 1 2 3 4 5 6 
#
# 1 0.013918 -0.004517 -0.009394 -0.006723 0.005015 0.001800
# 2 -0.004517 0.017177 -0.002145 0.010313 -0.005000 0.002346
# 3 -0.009394 -0.002145 0.037349 0.012510 0.000780 0.010229
# 4 -0.006723 0.010313 0.012510 0.040329 -0.003131 0.003897
# 5 0.005015 -0.005000 0.000780 -0.003131 0.029937 0.002837
# 6 0.001800 0.002346 0.010229 0.003897 0.002837 0.033274
#
#
# Mechanical properties :
#
#
# Convention : Reuss Voigt Hill
#
# Bulk Modulus (GPa) = 27.52366 48.20766 37.86566
# Shear Modulus (GPa) = 23.12594 31.97126 27.54860
#
# Velocity S-wave (km/s) = 3.34228 3.92983 3.64790
# Velocity P-wave (km/s) = 5.30939 6.62404 6.00281
#
# Compressibility (1/GPa) = 0.03633238
#
# Stress axis : x y z
#
# Youngs Moduli (GPa) = 71.84835 58.21588 26.77446
#
# Poissons Ratio (x) = 0.26295 0.25153
# Poissons Ratio (y) = 0.32452 0.05743
# Poissons Ratio (z) = 0.67497 0.12488
#
# Static dielectric constant tensor:
#      x y z
#    x 4.084910 0.263760 -0.303250 
#    y 0.263760 4.028790 -0.770260 
#    z -0.303250 -0.770260 4.635350 
# 
# 
# High freq. dielectric constant tensor:
#      x y z
#    x 1.798880 -0.014390 0.002670 
#    y -0.014390 1.807740 -0.028280 
#    z 0.002670 -0.028280 1.812380 
# 
# From -- ./inp_files/521725.got.cif
#   From: 2010.06.25/outbox.cif.g09.slc.cpg/sg2_261_cif.got.tgz:521725.got - 2010.06.27 13:26:56.
