data_PCOD8032727
_publ_section_title
;
Structure prediction by ZEFSAII (Michael W. Deem and Ramdas Pophale) SiO2 
 PCOD8032727
Probable space group: P -1
;
_chemical_formula_sum "Si O2"
_cell_formula_units_Z 14
_cell_length_a 9.072641
_cell_length_b 22.130206
_cell_length_c 8.530021
_cell_angle_alpha 145.487254
_cell_angle_beta 131.176763
_cell_angle_gamma 42.411488
_cell_volume 648.838907
_symmetry_space_group_name_H-M "P -1"
_symmetry_group_IT_number 2
_symmetry_cell_setting 'triclinic'
loop_
_space_group_symop_operation_xyz
x,y,z
-x,-y,-z
loop_
_atom_site_type_symbol
_atom_site_label
_atom_site_fract_x
_atom_site_fract_y
_atom_site_fract_z
Si Si1 0.383147 0.104868 0.764023
Si Si2 0.094307 0.828277 0.326001
Si Si3 0.541716 0.689719 0.819705
Si Si4 0.314559 0.985336 0.934371
Si Si5 0.378734 0.607157 0.262454
Si Si6 0.179400 0.535144 0.259267
Si Si7 0.901721 0.227278 0.148978
O O1 0.168856 0.100923 0.677871
O O2 0.500000 0.000000 0.500000
O O3 0.321453 0.233808 0.915292
O O4 0.567060 0.088846 0.987359
O O5 0.202977 0.916996 0.613852
O O6 0.190931 0.718369 0.278107
O O7 0.143407 0.780525 0.082111
O O8 0.545330 0.647605 0.551486
O O9 0.636335 0.575532 0.754550
O O10 0.293366 0.773696 0.885084
O O11 0.500000 0.000000 0.000000
O O12 0.125533 0.116522 0.128350
O O13 0.278646 0.561227 0.230327
O O14 0.500000 0.500000 0.000000
O O15 0.075971 0.651333 0.547689
O O16 0.000000 0.500000 0.000000
#
# Coordination Sequence:
#
# PCOD8032727 Si02
#       7
#     2   2   2   2   2   2   2
#     4  12  28  44  72 104 141 182 229 289 343 410
#     4  12  25  47  70 105 138 181 235 284 346 411
#     4  11  24  46  68 103 139 180 232 281 348 413
#     4  12  27  47  70 105 139 184 236 280 349 411
#     4  11  23  43  70  99 136 180 227 286 339 407
#     4  11  25  44  68 104 138 183 231 282 348 413
#     4  11  25  44  73  96 141 187 229 286 345 412
#
# _framework density 21.577003999999999
#
# number of rings (size 3 to 8) (size 9 to 14) (size 15 to 20)
#    0.000    0.571    2.857    5.571    8.000    3.429 
#    0.000    2.857    0.000    0.000    0.000    0.000 
#    0.000    0.000    0.000    0.000    0.000    0.000 
#
# Total GULP energy -173634.836608 kJ/mol
# GULP energy per Si atom -12402.488329 kJ/mol
# Density = 2.152789 g / cm^3
# Si number density = 21.577004 Si / 1000 Ang^3
#
#
#
# Elastic Constant Matrix: (Units=GPa)
#
#
# Indices 1 2 3 4 5 6 
#
# 1 102.9381 39.7285 83.6671 1.3406 1.9226 -4.7671
# 2 39.7285 120.8927 45.2514 9.4407 -0.1372 1.3914
# 3 83.6671 45.2514 189.3200 0.9913 1.1980 -6.9344
# 4 1.3406 9.4407 0.9913 40.8269 1.1302 0.9042
# 5 1.9226 -0.1372 1.1980 1.1302 45.1811 -0.7319
# 6 -4.7671 1.3914 -6.9344 0.9042 -0.7319 40.8032
#
#
#
# Elastic Compliance Matrix: (Units=1/GPa)
#
#
# Indices 1 2 3 4 5 6 
#
# 1 0.016066 -0.002931 -0.006366 0.000300 -0.000517 0.000879
# 2 -0.002931 0.009812 -0.001070 -0.002135 0.000223 -0.000808
# 3 -0.006366 -0.001070 0.008375 0.000236 0.000051 0.000712
# 4 0.000300 -0.002135 0.000236 0.024999 -0.000658 -0.000418
# 5 -0.000517 0.000223 0.000051 -0.000658 0.022177 0.000353
# 6 0.000879 -0.000808 0.000712 -0.000418 0.000353 0.024775
#
#
# Mechanical properties :
#
#
# Convention : Reuss Voigt Hill
#
# Bulk Modulus (GPa) = 73.96211 83.38276 78.67243
# Shear Modulus (GPa) = 38.03902 41.66250 39.85076
#
# Velocity S-wave (km/s) = 4.20330 4.39894 4.30223
# Velocity P-wave (km/s) = 7.60983 8.03300 7.82428
#
# Compressibility (1/GPa) = 0.01352044
#
# Stress axis : x y z
#
# Youngs Moduli (GPa) = 62.24195 101.91919 119.39590
#
# Poissons Ratio (x) = 0.29874 0.76005
# Poissons Ratio (y) = 0.18244 0.12771
# Poissons Ratio (z) = 0.39622 0.10902
#
# Static dielectric constant tensor:
#      x y z
#    x 3.710070 0.017740 -0.094090 
#    y 0.017740 4.423910 -0.174990 
#    z -0.094090 -0.174990 4.132770 
# 
# 
# High freq. dielectric constant tensor:
#      x y z
#    x 1.847810 0.010540 0.003360 
#    y 0.010540 1.862140 -0.000130 
#    z 0.003360 -0.000130 1.866060 
# 
# From -- ./inp_files/176959.got.cif
#   From: 2010.06.25/outbox.cif.g09.slc.cpg/sg2_89_cif.got.tgz:176959.got - 2010.06.27 13:26:56.
