data_PCOD8032436
_publ_section_title
;
Structure prediction by ZEFSAII (Michael W. Deem and Ramdas Pophale) SiO2 
 PCOD8032436
Probable space group: P -1
;
_chemical_formula_sum "Si O2"
_cell_formula_units_Z 14
_cell_length_a 9.754025
_cell_length_b 9.186458
_cell_length_c 21.215302
_cell_angle_alpha 132.169115
_cell_angle_beta 44.358282
_cell_angle_gamma 149.412546
_cell_volume 667.921449
_symmetry_space_group_name_H-M "P -1"
_symmetry_group_IT_number 2
_symmetry_cell_setting 'triclinic'
loop_
_space_group_symop_operation_xyz
x,y,z
-x,-y,-z
loop_
_atom_site_type_symbol
_atom_site_label
_atom_site_fract_x
_atom_site_fract_y
_atom_site_fract_z
Si Si1 0.638827 0.280621 0.658452
Si Si2 0.986332 0.134761 0.221770
Si Si3 0.529836 0.043962 0.076587
Si Si4 0.901755 0.672768 0.185949
Si Si5 0.448333 0.331564 0.609482
Si Si6 0.759729 0.801954 0.970895
Si Si7 0.973631 0.138380 0.493224
O O1 0.564177 0.263533 0.604291
O O2 0.801062 0.592536 0.721886
O O3 0.849069 0.251955 0.593186
O O4 0.337649 0.013267 0.716006
O O5 0.126567 0.241710 0.137996
O O6 0.955553 0.889041 0.182822
O O7 0.728724 0.377271 0.121133
O O8 0.216154 0.830485 0.151037
O O9 0.500000 0.000000 0.000000
O O10 0.681926 0.964440 0.027703
O O11 0.714991 0.604606 0.287086
O O12 0.704884 0.599925 0.561037
O O13 0.224822 0.064025 0.558912
O O14 0.500000 0.500000 0.000000
O O15 0.000000 0.000000 0.000000
O O16 0.000000 0.000000 0.500000
#
# Coordination Sequence:
#
# PCOD8032436 Si02
#       7
#     2   2   2   2   2   2   2
#     4  11  23  43  73  97 124 177 225 271 325 386
#     4  11  23  43  70  98 134 170 226 278 322 387
#     4  12  24  42  72  95 133 176 224 271 326 384
#     4  11  23  42  70 104 124 168 232 282 318 367
#     4  11  23  43  70  96 130 169 223 272 316 399
#     4  12  27  45  63  98 140 179 219 266 333 397
#     4  12  25  45  65  99 138 171 209 268 339 398
#
# _framework density 20.960549
#
# number of rings (size 3 to 8) (size 9 to 14) (size 15 to 20)
#    0.000    0.571    1.429    8.571    2.000    0.000 
#   15.429    0.000    0.000    0.000    0.000    0.000 
#    0.000    0.000    0.000    0.000    0.000    0.000 
#
# Total GULP energy -173641.716723 kJ/mol
# GULP energy per Si atom -12402.979766 kJ/mol
# Density = 2.091284 g / cm^3
# Si number density = 20.960549 Si / 1000 Ang^3
#
#
#
# Elastic Constant Matrix: (Units=GPa)
#
#
# Indices 1 2 3 4 5 6 
#
# 1 148.0069 75.4273 72.9005 -1.2388 1.6715 0.4674
# 2 75.4273 210.8419 77.0741 -9.1209 23.4386 6.3867
# 3 72.9005 77.0741 119.5057 -11.5925 3.3084 -12.2660
# 4 -1.2388 -9.1209 -11.5925 59.9372 4.6573 3.0537
# 5 1.6715 23.4386 3.3084 4.6573 35.4254 -2.7526
# 6 0.4674 6.3867 -12.2660 3.0537 -2.7526 32.7605
#
#
#
# Elastic Compliance Matrix: (Units=1/GPa)
#
#
# Indices 1 2 3 4 5 6 
#
# 1 0.010362 -0.001865 -0.005428 -0.001137 0.001277 -0.001603
# 2 -0.001865 0.007489 -0.003813 0.000915 -0.004892 -0.003357
# 3 -0.005428 -0.003813 0.014916 0.001739 0.001653 0.006382
# 4 -0.001137 0.000915 0.001739 0.017450 -0.003117 -0.001399
# 5 0.001277 -0.004892 0.001653 -0.003117 0.032013 0.004535
# 6 -0.001603 -0.003357 0.006382 -0.001399 0.004535 0.034103
#
#
# Mechanical properties :
#
#
# Convention : Reuss Voigt Hill
#
# Bulk Modulus (GPa) = 94.74263 103.23981 98.99122
# Shear Modulus (GPa) = 35.19601 42.48813 38.84207
#
# Velocity S-wave (km/s) = 4.10219 4.50716 4.30944
# Velocity P-wave (km/s) = 8.23018 8.74342 8.49068
#
# Compressibility (1/GPa) = 0.01055491
#
# Stress axis : x y z
#
# Youngs Moduli (GPa) = 96.50935 133.53063 67.04254
#
# Poissons Ratio (x) = 0.24905 0.36391
# Poissons Ratio (y) = 0.18000 0.25560
# Poissons Ratio (z) = 0.52386 0.50909
#
# Static dielectric constant tensor:
#      x y z
#    x 3.070850 0.639420 -0.115370 
#    y 0.639420 3.706850 -0.220470 
#    z -0.115370 -0.220470 4.160430 
# 
# 
# High freq. dielectric constant tensor:
#      x y z
#    x 1.812880 0.014780 -0.007640 
#    y 0.014780 1.845210 -0.003940 
#    z -0.007640 -0.003940 1.838310 
# 
# From -- ./inp_files/223314.got.cif
#   From: 2010.06.25/outbox.cif.g09.slc.cpg/sg2_112_cif.got.tgz:223314.got - 2010.06.27 13:26:56.
