data_PCOD8032692
_publ_section_title
;
Structure prediction by ZEFSAII (Michael W. Deem and Ramdas Pophale) SiO2 
 PCOD8032692
Probable space group: P -1
;
_chemical_formula_sum "Si O2"
_cell_formula_units_Z 16
_cell_length_a 13.882526
_cell_length_b 16.007572
_cell_length_c 6.659738
_cell_angle_alpha 52.166373
_cell_angle_beta 116.514674
_cell_angle_gamma 142.309585
_cell_volume 712.311272
_symmetry_space_group_name_H-M "P -1"
_symmetry_group_IT_number 2
_symmetry_cell_setting 'triclinic'
loop_
_space_group_symop_operation_xyz
x,y,z
-x,-y,-z
loop_
_atom_site_type_symbol
_atom_site_label
_atom_site_fract_x
_atom_site_fract_y
_atom_site_fract_z
Si Si1 0.777066 0.505356 0.215112
Si Si2 0.514715 0.373060 0.480449
Si Si3 0.087404 0.803113 0.241385
Si Si4 0.597621 0.037497 0.229065
Si Si5 0.313373 0.781022 0.595406
Si Si6 0.219982 0.016573 0.687729
Si Si7 0.000500 0.910159 0.300835
Si Si8 0.297864 0.399302 0.333743
O O1 0.617209 0.416312 0.318251
O O2 0.780679 0.392501 0.285519
O O3 0.928678 0.622371 0.324086
O O4 0.800460 0.607023 0.911270
O O5 0.381136 0.188198 0.654721
O O6 0.433429 0.429762 0.300731
O O7 0.624305 0.458468 0.654050
O O8 0.230836 0.824202 0.356508
O O9 0.063626 0.845736 0.365346
O O10 0.117620 0.915401 0.937468
O O11 0.486530 0.894747 0.492015
O O12 0.741859 0.066625 0.261179
O O13 0.669965 0.191368 0.188062
O O14 0.500000 0.000000 0.000000
O O15 0.117171 0.017826 0.440017
O O16 0.819829 0.766212 0.418087
O O17 0.000000 0.000000 0.000000
#
# Coordination Sequence:
#
# PCOD8032692 Si02
#       8
#     2   2   2   2   2   2   2   2
#     4  12  25  44  72 100 142 185 231 288 353 414
#     4  11  26  44  72 102 141 180 238 285 353 412
#     4  12  25  46  70 102 145 180 237 289 348 420
#     4  11  23  43  70 101 145 181 233 290 342 416
#     4  11  25  42  68 107 138 184 232 285 351 414
#     4  12  25  45  75 105 136 193 230 288 355 415
#     4  12  27  47  73 104 141 185 237 292 353 420
#     4  11  26  48  68 104 139 187 232 292 347 423
#
# _framework density 22.46209
#
# number of rings (size 3 to 8) (size 9 to 14) (size 15 to 20)
#    0.000    0.500    6.250    1.500    3.500    4.000 
#    0.000    1.250    0.000    0.000    0.000    0.000 
#    0.000    0.000    0.000    0.000    0.000    0.000 
#
# Total GULP energy -198444.414949 kJ/mol
# GULP energy per Si atom -12402.775934 kJ/mol
# Density = 2.241097 g / cm^3
# Si number density = 22.462090 Si / 1000 Ang^3
#
#
#
# Elastic Constant Matrix: (Units=GPa)
#
#
# Indices 1 2 3 4 5 6 
#
# 1 79.9025 22.5376 27.9134 4.7709 -7.5496 0.3653
# 2 22.5376 138.7547 34.3386 2.2469 -8.5212 0.9310
# 3 27.9134 34.3386 90.7039 10.3555 3.2613 0.5212
# 4 4.7709 2.2469 10.3555 36.8304 5.7974 -0.6490
# 5 -7.5496 -8.5212 3.2613 5.7974 30.8494 0.4594
# 6 0.3653 0.9310 0.5212 -0.6490 0.4594 36.6623
#
#
#
# Elastic Compliance Matrix: (Units=1/GPa)
#
#
# Indices 1 2 3 4 5 6 
#
# 1 0.014716 -0.001109 -0.004101 -0.001314 0.003977 -0.000133
# 2 -0.001109 0.008238 -0.002868 0.000083 0.002294 -0.000185
# 3 -0.004101 -0.002868 0.013785 -0.002740 -0.002737 -0.000096
# 4 -0.001314 0.000083 -0.002740 0.028958 -0.005460 0.000631
# 5 0.003977 0.002294 -0.002737 -0.005460 0.035347 -0.000599
# 6 -0.000133 -0.000185 -0.000096 0.000631 -0.000599 0.027302
#
#
# Mechanical properties :
#
#
# Convention : Reuss Voigt Hill
#
# Bulk Modulus (GPa) = 48.58733 53.21561 50.90147
# Shear Modulus (GPa) = 33.03347 35.83985 34.43666
#
# Velocity S-wave (km/s) = 3.83904 3.99879 3.91973
# Velocity P-wave (km/s) = 6.42875 6.71291 6.57236
#
# Compressibility (1/GPa) = 0.02058150
#
# Stress axis : x y z
#
# Youngs Moduli (GPa) = 67.95526 121.39295 72.54438
#
# Poissons Ratio (x) = 0.13461 0.29751
# Poissons Ratio (y) = 0.07535 0.20808
# Poissons Ratio (z) = 0.27869 0.34819
#
# Static dielectric constant tensor:
#      x y z
#    x 4.207160 -0.132120 -0.166750 
#    y -0.132120 4.117780 0.211740 
#    z -0.166750 0.211740 3.755050 
# 
# 
# High freq. dielectric constant tensor:
#      x y z
#    x 1.900340 -0.004420 -0.007680 
#    y -0.004420 1.896560 0.014310 
#    z -0.007680 0.014310 1.868260 
# 
# From -- ./inp_files/97606.got.cif
#   From: 2010.06.25/outbox.cif.g09.slc.cpg/sg2_49_cif.got.tgz:97606.got - 2010.06.27 13:26:56.
