data_PCOD8032317
_publ_section_title
;
Structure prediction by ZEFSAII (Michael W. Deem and Ramdas Pophale) SiO2 
 PCOD8032317
Probable space group: P -1
;
_chemical_formula_sum "Si O2"
_cell_formula_units_Z 14
_cell_length_a 12.789415
_cell_length_b 20.976449
_cell_length_c 9.136854
_cell_angle_alpha 140.837133
_cell_angle_beta 122.585040
_cell_angle_gamma 29.180868
_cell_volume 674.217999
_symmetry_space_group_name_H-M "P -1"
_symmetry_group_IT_number 2
_symmetry_cell_setting 'triclinic'
loop_
_space_group_symop_operation_xyz
x,y,z
-x,-y,-z
loop_
_atom_site_type_symbol
_atom_site_label
_atom_site_fract_x
_atom_site_fract_y
_atom_site_fract_z
Si Si1 0.419896 0.298888 0.285925
Si Si2 0.111560 0.159349 0.661220
Si Si3 0.338406 0.581568 0.657820
Si Si4 0.529383 0.779437 0.483053
Si Si5 0.559073 0.538611 0.995822
Si Si6 0.023228 0.450788 0.095322
Si Si7 0.890286 0.962911 0.853521
O O1 0.390176 0.440301 0.527326
O O2 0.442227 0.227776 0.333193
O O3 0.193154 0.409354 0.232824
O O4 0.645736 0.124954 0.044130
O O5 0.157104 0.053191 0.369630
O O6 0.841195 0.331456 0.814374
O O7 0.305503 0.001456 0.653283
O O8 0.139093 0.259037 0.829795
O O9 0.500000 0.500000 0.500000
O O10 0.394749 0.633720 0.901061
O O11 0.066254 0.768536 0.731580
O O12 0.771016 0.634925 0.318169
O O13 0.463558 0.710434 0.285565
O O14 0.500000 0.500000 0.000000
O O15 0.000000 0.500000 0.000000
O O16 0.000000 0.000000 0.000000
#
# Coordination Sequence:
#
# PCOD8032317 Si02
#       7
#     2   2   2   2   2   2   2
#     4  12  26  43  67 100 131 177 219 270 331 390
#     4  11  25  44  66  97 133 172 222 274 327 392
#     4  12  23  42  67  96 138 173 218 271 325 390
#     4  11  26  44  68  98 134 172 222 273 330 396
#     4  11  23  42  65  99 137 174 214 269 338 389
#     4  11  26  47  71  94 129 174 226 275 328 391
#     4  12  24  40  67  99 131 170 221 266 325 394
#
# _framework density 20.764796
#
# number of rings (size 3 to 8) (size 9 to 14) (size 15 to 20)
#    0.000    0.571    4.286    3.000    4.000    4.571 
#    0.000    0.000    0.000    0.000    0.000    0.000 
#    0.000    0.000    0.000    0.000    0.000    0.000 
#
# Total GULP energy -173549.444848 kJ/mol
# GULP energy per Si atom -12396.388918 kJ/mol
# Density = 2.071753 g / cm^3
# Si number density = 20.764796 Si / 1000 Ang^3
#
#
#
# Elastic Constant Matrix: (Units=GPa)
#
#
# Indices 1 2 3 4 5 6 
#
# 1 110.3488 31.0512 20.8024 -3.2013 4.2320 14.7960
# 2 31.0512 125.7395 13.9005 -9.9734 10.6942 21.4613
# 3 20.8024 13.9005 64.3738 -5.7494 11.0081 10.9189
# 4 -3.2013 -9.9734 -5.7494 41.7346 5.9029 3.5615
# 5 4.2320 10.6942 11.0081 5.9029 25.7480 -7.2322
# 6 14.7960 21.4613 10.9189 3.5615 -7.2322 39.4925
#
#
#
# Elastic Compliance Matrix: (Units=1/GPa)
#
#
# Indices 1 2 3 4 5 6 
#
# 1 0.010382 -0.001804 -0.002414 0.000332 -0.000674 -0.002395
# 2 -0.001804 0.010445 0.001183 0.004185 -0.007495 -0.007077
# 3 -0.002414 0.001183 0.019928 0.005222 -0.012037 -0.007923
# 4 0.000332 0.004185 0.005222 0.028289 -0.012974 -0.008769
# 5 -0.000674 -0.007495 -0.012037 -0.012974 0.055516 0.018990
# 6 -0.002395 -0.007077 -0.007923 -0.008769 0.018990 0.036524
#
#
# Mechanical properties :
#
#
# Convention : Reuss Voigt Hill
#
# Bulk Modulus (GPa) = 28.83179 47.99671 38.41425
# Shear Modulus (GPa) = 27.97759 37.04221 32.50990
#
# Velocity S-wave (km/s) = 3.67462 4.22820 3.96109
# Velocity P-wave (km/s) = 5.64968 6.85577 6.28173
#
# Compressibility (1/GPa) = 0.03468394
#
# Stress axis : x y z
#
# Youngs Moduli (GPa) = 96.32425 95.73930 50.18185
#
# Poissons Ratio (x) = 0.17276 0.12114
# Poissons Ratio (y) = 0.17381 -0.05939
# Poissons Ratio (z) = 0.23254 -0.11331
#
# Static dielectric constant tensor:
#      x y z
#    x 4.434850 0.009400 0.120670 
#    y 0.009400 4.128490 -0.017380 
#    z 0.120670 -0.017380 3.764170 
# 
# 
# High freq. dielectric constant tensor:
#      x y z
#    x 1.824400 0.001350 -0.000660 
#    y 0.001350 1.831060 -0.004220 
#    z -0.000660 -0.004220 1.820390 
# 
# From -- ./inp_files/99551.got.cif
#   From: 2010.06.25/outbox.cif.g09.slc.cpg/sg2_50_cif.got.tgz:99551.got - 2010.06.27 13:26:56.
