data_PCOD8032891
_publ_section_title
;
Structure prediction by ZEFSAII (Michael W. Deem and Ramdas Pophale) SiO2 
 PCOD8032891
Probable space group: P -1
;
_chemical_formula_sum "Si O2"
_cell_formula_units_Z 16
_cell_length_a 8.614417
_cell_length_b 11.077220
_cell_length_c 9.534370
_cell_angle_alpha 95.739389
_cell_angle_beta 86.884100
_cell_angle_gamma 50.611666
_cell_volume 691.370209
_symmetry_space_group_name_H-M "P -1"
_symmetry_group_IT_number 2
_symmetry_cell_setting 'triclinic'
loop_
_space_group_symop_operation_xyz
x,y,z
-x,-y,-z
loop_
_atom_site_type_symbol
_atom_site_label
_atom_site_fract_x
_atom_site_fract_y
_atom_site_fract_z
Si Si1 0.272085 0.564110 0.159118
Si Si2 0.457228 0.337250 0.884166
Si Si3 0.088600 0.083766 0.765137
Si Si4 0.783304 0.884864 0.517739
Si Si5 0.322462 0.991118 0.016280
Si Si6 0.521799 0.378392 0.380466
Si Si7 0.572684 0.772884 0.410336
Si Si8 0.024641 0.849175 0.746232
O O1 0.416897 0.606364 0.145271
O O2 0.334156 0.467218 0.290613
O O3 0.043748 0.728052 0.189593
O O4 0.283306 0.463109 0.018329
O O5 0.360236 0.339277 0.742075
O O6 0.598733 0.166334 0.927440
O O7 0.194547 0.038877 0.606325
O O8 0.958999 0.024331 0.765131
O O9 0.264135 0.986874 0.860930
O O10 0.761632 0.753924 0.462847
O O11 0.974706 0.802393 0.600720
O O12 0.583824 0.044848 0.619037
O O13 0.111364 0.141582 0.120794
O O14 0.500000 0.000000 0.000000
O O15 0.500000 0.500000 0.500000
O O16 0.520988 0.260386 0.464371
O O17 0.730725 0.282894 0.266250
#
# Coordination Sequence:
#
# PCOD8032891 Si02
#       8
#     2   2   2   2   2   2   2   2
#     4  11  25  42  72 103 143 182 239 292 350 419
#     4  11  23  44  67 101 143 183 230 291 359 408
#     4  12  24  45  73 108 136 187 244 291 348 426
#     4  11  24  42  71 104 139 180 239 295 357 405
#     4  12  27  45  71 104 146 183 236 292 359 421
#     4  12  25  44  73 109 144 189 234 292 356 424
#     4  11  23  44  70 100 145 184 226 298 356 414
#     4  12  25  43  73 104 140 185 247 291 341 427
#
# _framework density 23.142448999999999
#
# number of rings (size 3 to 8) (size 9 to 14) (size 15 to 20)
#    0.000    0.500    5.000    3.000    5.250    0.000 
#    0.000    6.250    0.000    0.000    0.000    0.000 
#    0.000    0.000    0.000    0.000    0.000    0.000 
#
# Total GULP energy -198346.981622 kJ/mol
# GULP energy per Si atom -12396.686351 kJ/mol
# Density = 2.308978 g / cm^3
# Si number density = 23.142449 Si / 1000 Ang^3
#
#
#
# Elastic Constant Matrix: (Units=GPa)
#
#
# Indices 1 2 3 4 5 6 
#
# 1 99.3165 6.4594 27.3381 7.4941 14.1448 6.3931
# 2 6.4594 78.7444 10.7092 9.9743 4.3495 -1.0883
# 3 27.3381 10.7092 102.4854 10.8909 16.4709 4.5248
# 4 7.4941 9.9743 10.8909 39.5110 -0.2346 3.6932
# 5 14.1448 4.3495 16.4709 -0.2346 39.7885 5.5692
# 6 6.3931 -1.0883 4.5248 3.6932 5.5692 25.1924
#
#
#
# Elastic Compliance Matrix: (Units=1/GPa)
#
#
# Indices 1 2 3 4 5 6 
#
# 1 0.011334 -0.000318 -0.002329 -0.001289 -0.002805 -0.001663
# 2 -0.000318 0.013338 -0.000836 -0.003229 -0.001236 0.001553
# 3 -0.002329 -0.000836 0.011344 -0.002469 -0.003750 -0.000291
# 4 -0.001289 -0.003229 -0.002469 0.027434 0.002549 -0.003954
# 5 -0.002805 -0.001236 -0.003750 0.002549 0.028583 -0.005360
# 6 -0.001663 0.001553 -0.000291 -0.003954 -0.005360 0.042001
#
#
# Mechanical properties :
#
#
# Convention : Reuss Voigt Hill
#
# Bulk Modulus (GPa) = 34.42223 41.06217 37.74220
# Shear Modulus (GPa) = 33.18216 36.63434 34.90825
#
# Velocity S-wave (km/s) = 3.79069 3.98300 3.88804
# Velocity P-wave (km/s) = 5.83657 6.23972 6.04151
#
# Compressibility (1/GPa) = 0.02905099
#
# Stress axis : x y z
#
# Youngs Moduli (GPa) = 88.22693 74.97502 88.15142
#
# Poissons Ratio (x) = 0.02383 0.20531
# Poissons Ratio (y) = 0.02804 0.07368
# Poissons Ratio (z) = 0.20548 0.06267
#
# Static dielectric constant tensor:
#      x y z
#    x 4.022490 0.157740 0.004810 
#    y 0.157740 4.297000 0.130260 
#    z 0.004810 0.130260 4.419910 
# 
# 
# High freq. dielectric constant tensor:
#      x y z
#    x 1.898030 0.008400 0.003230 
#    y 0.008400 1.906900 0.008130 
#    z 0.003230 0.008130 1.930040 
# 
# From -- ./inp_files/187627.got.cif
#   From: 2010.06.25/outbox.cif.g09.slc.cpg/sg2_94_cif.got.tgz:187627.got - 2010.06.27 13:26:56.
