data_PCOD8032607
_publ_section_title
;
Structure prediction by ZEFSAII (Michael W. Deem and Ramdas Pophale) SiO2 
 PCOD8032607
Probable space group: P -1
;
_chemical_formula_sum "Si O2"
_cell_formula_units_Z 16
_cell_length_a 9.756205
_cell_length_b 16.134629
_cell_length_c 9.870138
_cell_angle_alpha 57.711625
_cell_angle_beta 60.435849
_cell_angle_gamma 34.653611
_cell_volume 742.116027
_symmetry_space_group_name_H-M "P -1"
_symmetry_group_IT_number 2
_symmetry_cell_setting 'triclinic'
loop_
_space_group_symop_operation_xyz
x,y,z
-x,-y,-z
loop_
_atom_site_type_symbol
_atom_site_label
_atom_site_fract_x
_atom_site_fract_y
_atom_site_fract_z
Si Si1 0.285005 0.160062 0.035722
Si Si2 0.022921 0.803879 0.283534
Si Si3 0.572912 0.338575 0.997333
Si Si4 0.509965 0.143422 0.202201
Si Si5 0.767496 0.327719 0.178385
Si Si6 0.187447 0.303984 0.472092
Si Si7 0.760773 0.642150 0.315717
Si Si8 0.625339 0.340790 0.532319
O O1 0.218121 0.286287 0.871242
O O2 0.356027 0.157448 0.154695
O O3 0.054321 0.197385 0.125092
O O4 0.500000 0.000000 0.000000
O O5 0.194723 0.732404 0.133393
O O6 0.145688 0.790906 0.368817
O O7 0.984398 0.706928 0.407644
O O8 0.781352 0.976392 0.218171
O O9 0.339937 0.511843 0.915893
O O10 0.511680 0.256312 0.063466
O O11 0.632062 0.322087 0.141697
O O12 0.395022 0.177780 0.374895
O O13 0.718497 0.301394 0.368864
O O14 0.313646 0.275688 0.575592
O O15 0.026295 0.468196 0.347679
O O16 0.560740 0.659001 0.354849
O O17 0.500000 0.500000 0.500000
#
# Coordination Sequence:
#
# PCOD8032607 Si02
#       8
#     2   2   2   2   2   2   2   2
#     4  12  27  45  66  98 138 174 221 273 332 392
#     4  12  24  42  65  92 134 171 213 275 323 388
#     4  11  23  43  67  97 130 171 223 264 332 388
#     4  12  26  41  65  96 133 176 219 265 333 397
#     4  11  24  43  70  96 131 173 219 279 323 389
#     4  11  23  43  67  97 130 171 223 264 332 388
#     4  11  24  43  70  96 131 173 219 279 323 389
#     4  12  23  42  67  98 127 164 222 271 322 382
#
# _framework density 21.559971000000001
#
# number of rings (size 3 to 8) (size 9 to 14) (size 15 to 20)
#    0.000    0.500    2.500    6.000    0.000    7.000 
#    0.000    1.875    0.000    0.000    0.000    0.000 
#    0.000    0.000    0.000    0.000    0.000    0.000 
#
# Total GULP energy -198545.302450 kJ/mol
# GULP energy per Si atom -12409.081403 kJ/mol
# Density = 2.151090 g / cm^3
# Si number density = 21.559971 Si / 1000 Ang^3
#
#
#
# Elastic Constant Matrix: (Units=GPa)
#
#
# Indices 1 2 3 4 5 6 
#
# 1 74.6596 5.7624 -0.0823 1.1857 9.2010 -4.8163
# 2 5.7624 64.1907 4.9215 10.2387 11.0479 1.7560
# 3 -0.0823 4.9215 83.2828 12.5749 9.5945 1.9559
# 4 1.1857 10.2387 12.5749 36.1632 -6.0128 5.4820
# 5 9.2010 11.0479 9.5945 -6.0128 44.2694 -1.9321
# 6 -4.8163 1.7560 1.9559 5.4820 -1.9321 26.0491
#
#
#
# Elastic Compliance Matrix: (Units=1/GPa)
#
#
# Indices 1 2 3 4 5 6 
#
# 1 0.013999 -0.000651 0.000531 -0.001350 -0.002930 0.002659
# 2 -0.000651 0.017432 0.000455 -0.005853 -0.005129 -0.000478
# 3 0.000531 0.000455 0.013235 -0.005372 -0.003825 -0.000079
# 4 -0.001350 -0.005853 -0.005372 0.033313 0.007171 -0.005930
# 5 -0.002930 -0.005129 -0.003825 0.007171 0.026304 0.000533
# 6 0.002659 -0.000478 -0.000079 -0.005930 0.000533 0.040207
#
#
# Mechanical properties :
#
#
# Convention : Reuss Voigt Hill
#
# Bulk Modulus (GPa) = 22.05743 27.03736 24.54739
# Shear Modulus (GPa) = 31.46038 35.39843 33.42940
#
# Velocity S-wave (km/s) = 3.82410 4.05638 3.94195
# Velocity P-wave (km/s) = 5.45447 5.87424 5.66824
#
# Compressibility (1/GPa) = 0.04533619
#
# Stress axis : x y z
#
# Youngs Moduli (GPa) = 71.43398 57.36735 75.55917
#
# Poissons Ratio (x) = 0.03733 -0.04013
# Poissons Ratio (y) = 0.04648 -0.03439
# Poissons Ratio (z) = -0.03794 -0.02611
#
# Static dielectric constant tensor:
#      x y z
#    x 4.116610 0.013730 0.141680 
#    y 0.013730 3.880000 0.020490 
#    z 0.141680 0.020490 4.040100 
# 
# 
# High freq. dielectric constant tensor:
#      x y z
#    x 1.859380 -0.002490 0.004980 
#    y -0.002490 1.846420 0.004440 
#    z 0.004980 0.004440 1.862060 
# 
# From -- ./inp_files/205723.got.cif
#   From: 2010.06.25/outbox.cif.g09.slc.cpg/sg2_103_cif.got.tgz:205723.got - 2010.06.27 13:26:56.
