data_PCOD8032994
_publ_section_title
;
Structure prediction by ZEFSAII (Michael W. Deem and Ramdas Pophale) SiO2 
 PCOD8032994
Probable space group: P -1
;
_chemical_formula_sum "Si O2"
_cell_formula_units_Z 12
_cell_length_a 7.293046
_cell_length_b 14.263788
_cell_length_c 7.280283
_cell_angle_alpha 120.405284
_cell_angle_beta 41.020980
_cell_angle_gamma 121.002619
_cell_volume 416.663554
_symmetry_space_group_name_H-M "P -1"
_symmetry_group_IT_number 2
_symmetry_cell_setting 'triclinic'
loop_
_space_group_symop_operation_xyz
x,y,z
-x,-y,-z
loop_
_atom_site_type_symbol
_atom_site_label
_atom_site_fract_x
_atom_site_fract_y
_atom_site_fract_z
Si Si1 0.778904 0.576947 0.712378
Si Si2 0.940434 0.777790 0.552203
Si Si3 0.548670 0.097189 0.912645
Si Si4 0.618496 0.114680 0.362682
Si Si5 0.111201 0.235002 0.876099
Si Si6 0.271779 0.451928 0.774828
O O1 0.448415 0.501750 0.877818
O O2 0.000000 0.500000 0.500000
O O3 0.870644 0.643371 0.510920
O O4 0.804289 0.673719 0.936884
O O5 0.117456 0.829392 0.281725
O O6 0.164539 0.837557 0.594358
O O7 0.646889 0.816455 0.825943
O O8 0.453689 0.021925 0.723097
O O9 0.500000 0.000000 0.000000
O O10 0.320627 0.151934 0.638833
O O11 0.780453 0.166696 0.097980
O O12 0.176283 0.315142 0.721234
O O13 0.500000 0.500000 0.500000
O O14 0.000000 0.500000 0.000000
#
# Coordination Sequence:
#
# PCOD8032994 Si02
#       6
#     2   2   2   2   2   2
#     4  11  25  48  76 105 140 186 243 296 345 421
#     4  11  24  44  71 101 132 183 234 284 345 412
#     4  12  26  44  67 103 142 180 225 285 352 420
#     4  11  23  44  70  97 133 178 233 289 339 411
#     4  11  24  44  69  98 132 186 236 283 346 414
#     4  12  26  42  65 102 142 181 227 291 357 416
#
# _framework density 28.800215000000001
#
# number of rings (size 3 to 8) (size 9 to 14) (size 15 to 20)
#    0.000    0.667    0.000    9.000    0.000    9.333 
#    0.000    0.000    0.000    0.000    0.000    0.000 
#    0.000    0.000    0.000    0.000    0.000    0.000 
#
# Total GULP energy -148869.858122 kJ/mol
# GULP energy per Si atom -12405.821510 kJ/mol
# Density = 2.873466 g / cm^3
# Si number density = 28.800215 Si / 1000 Ang^3
#
#
#
# Elastic Constant Matrix: (Units=GPa)
#
#
# Indices 1 2 3 4 5 6 
#
# 1 93.9375 70.4484 44.5950 5.3761 -41.7719 4.5352
# 2 70.4484 248.7314 90.8131 -11.7419 -33.5743 21.1180
# 3 44.5950 90.8131 200.7364 9.6926 -53.4322 -1.2699
# 4 5.3761 -11.7419 9.6926 56.2149 -7.1435 -11.4701
# 5 -41.7719 -33.5743 -53.4322 -7.1435 64.6403 -3.5531
# 6 4.5352 21.1180 -1.2699 -11.4701 -3.5531 66.1325
#
#
#
# Elastic Compliance Matrix: (Units=1/GPa)
#
#
# Indices 1 2 3 4 5 6 
#
# 1 0.017781 -0.004006 0.000512 -0.001318 0.009707 0.000363
# 2 -0.004006 0.006006 -0.002239 0.001566 -0.001228 -0.001481
# 3 0.000512 -0.002239 0.007304 -0.000930 0.005154 0.000936
# 4 -0.001318 0.001566 -0.000930 0.019199 0.001478 0.002982
# 5 0.009707 -0.001228 0.005154 0.001478 0.025609 0.001458
# 6 0.000363 -0.001481 0.000936 0.002982 0.001458 0.016183
#
#
# Mechanical properties :
#
#
# Convention : Reuss Voigt Hill
#
# Bulk Modulus (GPa) = 50.95641 106.12428 78.54035
# Shear Modulus (GPa) = 45.41797 59.90078 52.65938
#
# Velocity S-wave (km/s) = 3.97546 4.56551 4.28066
# Velocity P-wave (km/s) = 6.22927 8.04489 7.19458
#
# Compressibility (1/GPa) = 0.01962461
#
# Stress axis : x y z
#
# Youngs Moduli (GPa) = 56.23994 166.49085 136.91880
#
# Poissons Ratio (x) = 0.66691 -0.07007
# Poissons Ratio (y) = 0.22528 0.30660
# Poissons Ratio (z) = -0.02878 0.37282
#
# Static dielectric constant tensor:
#      x y z
#    x -2.060890 0.694870 1.056070 
#    y 0.694870 7.905890 -1.137290 
#    z 1.056070 -1.137290 6.719190 
# 
# 
# High freq. dielectric constant tensor:
#      x y z
#    x 2.240090 0.027000 0.045220 
#    y 0.027000 2.221830 -0.028770 
#    z 0.045220 -0.028770 2.179960 
# 
# From -- ./inp_files/208590.got.cif
#   From: 2010.06.25/outbox.cif.g09.slc.cpg/sg2_105_cif.got.tgz:208590.got - 2010.06.27 13:26:56.
