data_PCOD8032950
_publ_section_title
;
Structure prediction by ZEFSAII (Michael W. Deem and Ramdas Pophale) SiO2 
 PCOD8032950
Probable space group: P -1
;
_chemical_formula_sum "Si O2"
_cell_formula_units_Z 16
_cell_length_a 6.586153
_cell_length_b 12.229671
_cell_length_c 11.067974
_cell_angle_alpha 69.613989
_cell_angle_beta 113.586965
_cell_angle_gamma 119.938078
_cell_volume 695.476623
_symmetry_space_group_name_H-M "P -1"
_symmetry_group_IT_number 2
_symmetry_cell_setting 'triclinic'
loop_
_space_group_symop_operation_xyz
x,y,z
-x,-y,-z
loop_
_atom_site_type_symbol
_atom_site_label
_atom_site_fract_x
_atom_site_fract_y
_atom_site_fract_z
Si Si1 0.892532 0.357866 0.723393
Si Si2 0.461086 0.360857 0.496052
Si Si3 0.977415 0.119363 0.515734
Si Si4 0.174262 0.490081 0.144151
Si Si5 0.582209 0.426172 0.240687
Si Si6 0.963343 0.109526 0.798255
Si Si7 0.763144 0.248665 0.232571
Si Si8 0.398827 0.078802 0.028364
O O1 0.145205 0.474435 0.704175
O O2 0.702609 0.335863 0.579448
O O3 0.765540 0.389266 0.798287
O O4 0.938347 0.232442 0.800298
O O5 0.500000 0.500000 0.500000
O O6 0.231283 0.244431 0.543326
O O7 0.427096 0.360517 0.346575
O O8 0.894653 0.084321 0.649049
O O9 0.784251 0.153548 0.378320
O O10 0.000000 0.000000 0.500000
O O11 0.414529 0.496973 0.125891
O O12 0.035806 0.356838 0.235682
O O13 0.000000 0.500000 0.000000
O O14 0.579556 0.312057 0.201803
O O15 0.766299 0.990487 0.869152
O O16 0.240154 0.128652 0.884752
O O17 0.648648 0.184311 0.103087
O O18 0.500000 0.000000 0.000000
#
# Coordination Sequence:
#
# PCOD8032950 Si02
#       8
#     2   2   2   2   2   2   2   2
#     4  11  25  41  71 105 134 185 243 294 357 435
#     4  12  22  44  74 101 145 189 234 299 366 429
#     4  12  27  47  76 110 150 195 246 307 374 433
#     4  11  26  42  71 105 145 187 235 298 369 433
#     4  11  23  44  69 104 143 183 232 299 363 431
#     4  11  28  47  72 107 140 190 249 298 359 441
#     4  11  26  46  73 105 144 189 241 299 367 439
#     4  11  28  49  73  99 144 193 242 300 364 435
#
# _framework density 23.005804000000001
#
# number of rings (size 3 to 8) (size 9 to 14) (size 15 to 20)
#    0.000    0.750    2.500    3.375   10.500    2.500 
#    0.000    0.000    0.000    0.000    0.000    0.000 
#    0.000    0.000    0.000    0.000    0.000    0.000 
#
# Total GULP energy -198334.042515 kJ/mol
# GULP energy per Si atom -12395.877657 kJ/mol
# Density = 2.295344 g / cm^3
# Si number density = 23.005804 Si / 1000 Ang^3
#
#
#
# Elastic Constant Matrix: (Units=GPa)
#
#
# Indices 1 2 3 4 5 6 
#
# 1 134.4333 41.6135 30.1623 5.1236 26.2172 -30.1431
# 2 41.6135 123.2638 20.8631 10.2253 4.6391 -32.3724
# 3 30.1623 20.8631 98.8823 3.8951 21.2982 -16.2051
# 4 5.1236 10.2253 3.8951 36.3799 -3.6056 0.2186
# 5 26.2172 4.6391 21.2982 -3.6056 49.3226 -6.0015
# 6 -30.1431 -32.3724 -16.2051 0.2186 -6.0015 42.7241
#
#
#
# Elastic Compliance Matrix: (Units=1/GPa)
#
#
# Indices 1 2 3 4 5 6 
#
# 1 0.010182 -0.001711 -0.000952 -0.001310 -0.004337 0.004923
# 2 -0.001711 0.010796 -0.000711 -0.002675 0.000837 0.006835
# 3 -0.000952 -0.000711 0.012000 -0.001401 -0.004379 0.002733
# 4 -0.001310 -0.002675 -0.001401 0.028919 0.003282 -0.003170
# 5 -0.004337 0.000837 -0.004379 0.003282 0.024552 -0.000654
# 6 0.004923 0.006835 0.002733 -0.003170 -0.000654 0.033019
#
#
# Mechanical properties :
#
#
# Convention : Reuss Voigt Hill
#
# Bulk Modulus (GPa) = 38.12566 60.20637 49.16602
# Shear Modulus (GPa) = 37.04852 43.28136 40.16494
#
# Velocity S-wave (km/s) = 4.01733 4.34213 4.18288
# Velocity P-wave (km/s) = 6.17469 7.16698 6.68926
#
# Compressibility (1/GPa) = 0.02622905
#
# Stress axis : x y z
#
# Youngs Moduli (GPa) = 98.21716 92.62612 83.33588
#
# Poissons Ratio (x) = 0.15850 0.07935
# Poissons Ratio (y) = 0.16807 0.05923
# Poissons Ratio (z) = 0.09352 0.06583
#
# Static dielectric constant tensor:
#      x y z
#    x 3.785200 -0.094230 0.154200 
#    y -0.094230 3.952600 -0.282440 
#    z 0.154200 -0.282440 4.647390 
# 
# 
# High freq. dielectric constant tensor:
#      x y z
#    x 1.922730 -0.009380 0.013860 
#    y -0.009380 1.904610 0.000950 
#    z 0.013860 0.000950 1.920600 
# 
# From -- ./inp_files/364151.got.cif
#   From: 2010.06.25/outbox.cif.g09.slc.cpg/sg2_183_cif.got.tgz:364151.got - 2010.06.27 13:26:56.
