data_PCOD8032374
_publ_section_title
;
Structure prediction by ZEFSAII (Michael W. Deem and Ramdas Pophale) SiO2 
 PCOD8032374
Probable space group: P -1
;
_chemical_formula_sum "Si O2"
_cell_formula_units_Z 14
_cell_length_a 9.723536
_cell_length_b 11.137661
_cell_length_c 5.188758
_cell_angle_alpha 90.507986
_cell_angle_beta 77.555768
_cell_angle_gamma 87.099594
_cell_volume 547.911871
_symmetry_space_group_name_H-M "P -1"
_symmetry_group_IT_number 2
_symmetry_cell_setting 'triclinic'
loop_
_space_group_symop_operation_xyz
x,y,z
-x,-y,-z
loop_
_atom_site_type_symbol
_atom_site_label
_atom_site_fract_x
_atom_site_fract_y
_atom_site_fract_z
Si Si1 0.463167 0.745621 0.723276
Si Si2 0.842379 0.149570 0.177478
Si Si3 0.632094 0.749892 0.178410
Si Si4 0.683697 0.479191 0.336515
Si Si5 0.970363 0.697815 0.588925
Si Si6 0.118890 0.117489 0.742686
Si Si7 0.151431 0.524040 0.208151
O O1 0.313892 0.813241 0.856795
O O2 0.531175 0.808540 0.447413
O O3 0.450736 0.603100 0.650517
O O4 0.560746 0.756823 0.930307
O O5 0.886201 0.252693 0.357376
O O6 0.841030 0.022158 0.324754
O O7 0.956794 0.136742 0.902580
O O8 0.660825 0.613693 0.250606
O O9 0.772907 0.825349 0.099757
O O10 0.733104 0.468387 0.611043
O O11 0.799006 0.422865 0.082280
O O12 0.011161 0.605673 0.336143
O O13 0.870337 0.809630 0.528734
O O14 0.883435 0.617022 0.819620
#
# Coordination Sequence:
#
# PCOD8032374 Si02
#       7
#     2   2   2   2   2   2   2
#     4  12  27  47  73 105 150 189 235 293 360 427
#     4  11  26  47  75 103 140 191 245 298 351 419
#     4  12  27  47  73 105 150 189 235 293 360 427
#     4  12  22  46  66 107 140 192 228 289 353 438
#     4  11  23  42  68 108 141 183 232 302 354 425
#     4  11  26  47  75 103 140 191 245 298 351 419
#     4  11  24  37  76 103 147 178 234 290 366 413
#
# _framework density 25.551555
#
# number of rings (size 3 to 8) (size 9 to 14) (size 15 to 20)
#    0.000    0.571    2.857    4.714    4.000    2.286 
#    0.000    0.000    0.000    0.000    0.000    0.000 
#    0.000    0.000    0.000    0.000    0.000    0.000 
#
# Total GULP energy -173604.465459 kJ/mol
# GULP energy per Si atom -12400.318961 kJ/mol
# Density = 2.549340 g / cm^3
# Si number density = 25.551555 Si / 1000 Ang^3
#
#
#
# Elastic Constant Matrix: (Units=GPa)
#
#
# Indices 1 2 3 4 5 6 
#
# 1 98.4020 4.2455 23.0550 -4.2889 25.0915 3.0038
# 2 4.2455 96.9731 17.7293 -16.6023 16.6347 -3.3662
# 3 23.0550 17.7293 86.6049 -1.4387 11.9927 16.2802
# 4 -4.2889 -16.6023 -1.4387 27.9863 0.9139 -3.1174
# 5 25.0915 16.6347 11.9927 0.9139 36.3436 2.0946
# 6 3.0038 -3.3662 16.2802 -3.1174 2.0946 27.1262
#
#
#
# Elastic Compliance Matrix: (Units=1/GPa)
#
#
# Indices 1 2 3 4 5 6 
#
# 1 0.013269 0.002276 -0.002960 0.003734 -0.009421 0.001746
# 2 0.002276 0.013803 -0.003202 0.009170 -0.007351 0.005004
# 3 -0.002960 -0.003202 0.014779 -0.002590 -0.000774 -0.009178
# 4 0.003734 0.009170 -0.002590 0.042718 -0.007442 0.007763
# 5 -0.009421 -0.007351 -0.000774 -0.007442 0.038011 -0.003195
# 6 0.001746 0.005004 -0.009178 0.007763 -0.003195 0.043939
#
#
# Mechanical properties :
#
#
# Convention : Reuss Voigt Hill
#
# Bulk Modulus (GPa) = 29.34288 41.33773 35.34031
# Shear Modulus (GPa) = 26.93227 34.08791 30.51009
#
# Velocity S-wave (km/s) = 3.25011 3.65647 3.45927
# Velocity P-wave (km/s) = 5.05896 5.83435 5.46044
#
# Compressibility (1/GPa) = 0.03407982
#
# Stress axis : x y z
#
# Youngs Moduli (GPa) = 75.36176 72.45054 67.66132
#
# Poissons Ratio (x) = -0.16491 0.20028
# Poissons Ratio (y) = -0.17153 0.21664
# Poissons Ratio (z) = 0.22308 0.23197
#
# Static dielectric constant tensor:
#      x y z
#    x 4.656990 0.173400 -0.355850 
#    y 0.173400 4.773680 -0.086070 
#    z -0.355850 -0.086070 4.773680 
# 
# 
# High freq. dielectric constant tensor:
#      x y z
#    x 2.024780 0.004390 -0.007560 
#    y 0.004390 2.022300 -0.004270 
#    z -0.007560 -0.004270 2.020650 
# 
# From -- ./inp_files/27544.got.cif
#   From: 2010.06.25/outbox.cif.g09.slc.cpg/sg2_14_cif.got.tgz:27544.got - 2010.06.27 13:26:56.
