data_PCOD8032556
_publ_section_title
;
Structure prediction by ZEFSAII (Michael W. Deem and Ramdas Pophale) SiO2 
 PCOD8032556
Probable space group: P -1
;
_chemical_formula_sum "Si O2"
_cell_formula_units_Z 12
_cell_length_a 16.718857
_cell_length_b 7.754304
_cell_length_c 7.341227
_cell_angle_alpha 143.500925
_cell_angle_beta 62.419867
_cell_angle_gamma 107.390792
_cell_volume 496.901837
_symmetry_space_group_name_H-M "P -1"
_symmetry_group_IT_number 2
_symmetry_cell_setting 'triclinic'
loop_
_space_group_symop_operation_xyz
x,y,z
-x,-y,-z
loop_
_atom_site_type_symbol
_atom_site_label
_atom_site_fract_x
_atom_site_fract_y
_atom_site_fract_z
Si Si1 0.117287 0.618184 0.755952
Si Si2 0.007257 0.209401 0.363631
Si Si3 0.703491 0.747908 0.425584
Si Si4 0.603288 0.045561 0.449307
Si Si5 0.320007 0.414921 0.295718
Si Si6 0.169762 0.797558 0.243101
O O1 0.070907 0.317936 0.551143
O O2 0.215715 0.564258 0.511348
O O3 0.121877 0.730664 0.050441
O O4 0.056949 0.901788 0.959693
O O5 0.000000 0.500000 0.500000
O O6 0.906978 0.160825 0.487744
O O7 0.652467 0.643840 0.570383
O O8 0.634951 0.948559 0.537406
O O9 0.783329 0.910252 0.564484
O O10 0.750621 0.471242 0.023848
O O11 0.612177 0.384721 0.698718
O O12 0.500000 0.000000 0.500000
O O13 0.666521 0.883020 0.086587
#
# Coordination Sequence:
#
# PCOD8032556 Si02
#       6
#     2   2   2   2   2   2
#     4  11  23  43  64  91 135 184 224 274 332 391
#     4  12  25  37  62 101 136 176 227 280 324 385
#     4  11  25  45  70 103 135 183 228 277 341 406
#     4  12  27  46  75 105 136 175 220 287 352 415
#     4  11  25  46  72 100 139 180 227 278 343 408
#     4  11  23  43  66  94 135 183 229 274 328 392
#
# _framework density 24.149636999999998
#
# number of rings (size 3 to 8) (size 9 to 14) (size 15 to 20)
#    0.000    0.667    0.000    9.000    7.000    1.333 
#    0.000    0.000    0.000    0.000    0.000    0.000 
#    0.000    0.000    0.000    0.000    0.000    0.000 
#
# Total GULP energy -148833.523559 kJ/mol
# GULP energy per Si atom -12402.793630 kJ/mol
# Density = 2.409467 g / cm^3
# Si number density = 24.149637 Si / 1000 Ang^3
#
#
#
# Elastic Constant Matrix: (Units=GPa)
#
#
# Indices 1 2 3 4 5 6 
#
# 1 73.0086 31.1504 -2.3998 -6.9992 -9.3427 -4.2728
# 2 31.1504 103.9240 11.6237 4.9810 -14.8992 -2.5883
# 3 -2.3998 11.6237 101.9409 0.6707 8.7974 1.8592
# 4 -6.9992 4.9810 0.6707 36.6892 7.8646 7.3183
# 5 -9.3427 -14.8992 8.7974 7.8646 23.3631 5.7346
# 6 -4.2728 -2.5883 1.8592 7.3183 5.7346 36.8149
#
#
#
# Elastic Compliance Matrix: (Units=1/GPa)
#
#
# Indices 1 2 3 4 5 6 
#
# 1 0.016387 -0.004857 0.000740 0.003240 0.001945 0.000576
# 2 -0.004857 0.012774 -0.002281 -0.004455 0.008562 0.000001
# 3 0.000740 -0.002281 0.010563 0.001468 -0.005624 -0.000024
# 4 0.003240 -0.004455 0.001468 0.031865 -0.011715 -0.004521
# 5 0.001945 0.008562 -0.005624 -0.011715 0.056415 -0.005347
# 6 0.000576 0.000001 -0.000024 -0.004521 -0.005347 0.028963
#
#
# Mechanical properties :
#
#
# Convention : Reuss Voigt Hill
#
# Bulk Modulus (GPa) = 37.13383 39.95801 38.54592
# Shear Modulus (GPa) = 27.97391 35.27338 31.62364
#
# Velocity S-wave (km/s) = 3.40716 3.82595 3.62261
# Velocity P-wave (km/s) = 5.55772 6.00825 5.78737
#
# Compressibility (1/GPa) = 0.02692962
#
# Stress axis : x y z
#
# Youngs Moduli (GPa) = 61.02498 78.28189 94.66811
#
# Poissons Ratio (x) = 0.38019 -0.07004
# Poissons Ratio (y) = 0.29638 0.21590
# Poissons Ratio (z) = -0.04515 0.17853
#
# Static dielectric constant tensor:
#      x y z
#    x 3.934570 -0.668880 -0.259360 
#    y -0.668880 3.666590 -0.133780 
#    z -0.259360 -0.133780 4.359850 
# 
# 
# High freq. dielectric constant tensor:
#      x y z
#    x 1.964380 -0.010580 0.013650 
#    y -0.010580 1.958040 0.016140 
#    z 0.013650 0.016140 1.977660 
# 
# From -- ./inp_files/201689.got.cif
#   From: 2010.06.25/outbox.cif.g09.slc.cpg/sg2_101_cif.got.tgz:201689.got - 2010.06.27 13:26:56.
