data_PCOD8032480
_publ_section_title
;
Structure prediction by ZEFSAII (Michael W. Deem and Ramdas Pophale) SiO2 
 PCOD8032480
Probable space group: P -1
;
_chemical_formula_sum "Si O2"
_cell_formula_units_Z 16
_cell_length_a 17.432157
_cell_length_b 11.833056
_cell_length_c 15.358827
_cell_angle_alpha 127.793655
_cell_angle_beta 32.156937
_cell_angle_gamma 151.033290
_cell_volume 709.078016
_symmetry_space_group_name_H-M "P -1"
_symmetry_group_IT_number 2
_symmetry_cell_setting 'triclinic'
loop_
_space_group_symop_operation_xyz
x,y,z
-x,-y,-z
loop_
_atom_site_type_symbol
_atom_site_label
_atom_site_fract_x
_atom_site_fract_y
_atom_site_fract_z
Si Si1 0.727568 0.775387 0.753739
Si Si2 0.225803 0.518754 0.178130
Si Si3 0.926661 0.547497 0.019513
Si Si4 0.602256 0.435972 0.396723
Si Si5 0.815915 0.285122 0.320851
Si Si6 0.581981 0.027740 0.837457
Si Si7 0.084738 0.871326 0.552779
Si Si8 0.862665 0.655588 0.434954
O O1 0.692102 0.610362 0.644550
O O2 0.935418 0.896367 0.686533
O O3 0.430071 0.563267 0.974680
O O4 0.852650 0.023508 0.706302
O O5 0.988253 0.337188 0.248760
O O6 0.110006 0.388007 0.322796
O O7 0.393369 0.806417 0.163795
O O8 0.862063 0.636198 0.177597
O O9 0.659116 0.274058 0.100045
O O10 0.000000 0.500000 0.000000
O O11 0.149109 0.749913 0.826591
O O12 0.500000 0.500000 0.500000
O O13 0.677629 0.484700 0.447200
O O14 0.361898 0.121889 0.458823
O O15 0.918280 0.536045 0.352226
O O16 0.500000 0.000000 0.500000
O O17 0.851310 0.156130 0.614822
O O18 0.500000 0.000000 0.000000
#
# Coordination Sequence:
#
# PCOD8032480 Si02
#       8
#     2   2   2   2   2   2   2   2
#     4  11  26  42  75 101 143 180 236 285 351 421
#     4  12  26  44  71 104 141 183 231 287 354 416
#     4  11  24  42  70 101 133 180 238 277 339 412
#     4  11  23  42  71  97 138 178 228 278 342 413
#     4  12  26  47  70 102 145 181 233 292 353 411
#     4  11  24  42  75 100 136 182 236 285 336 416
#     4  11  25  47  67 104 143 180 229 292 350 410
#     4  11  24  45  70 106 139 186 230 292 345 410
#
# _framework density 22.564513000000002
#
# number of rings (size 3 to 8) (size 9 to 14) (size 15 to 20)
#    0.000    0.750    3.750    3.000    7.000    0.000 
#    2.250    1.250    0.000    0.000    0.000    0.000 
#    0.000    0.000    0.000    0.000    0.000    0.000 
#
# Total GULP energy -198288.549918 kJ/mol
# GULP energy per Si atom -12393.034370 kJ/mol
# Density = 2.251316 g / cm^3
# Si number density = 22.564513 Si / 1000 Ang^3
#
#
#
# Elastic Constant Matrix: (Units=GPa)
#
#
# Indices 1 2 3 4 5 6 
#
# 1 98.0062 8.9501 65.4081 0.8451 -0.3206 -3.1063
# 2 8.9501 53.8598 40.7406 7.3479 4.4719 -9.5213
# 3 65.4081 40.7406 198.3030 4.1316 -1.7571 -10.7655
# 4 0.8451 7.3479 4.1316 34.5935 -7.3803 1.3941
# 5 -0.3206 4.4719 -1.7571 -7.3803 41.2792 -4.2331
# 6 -3.1063 -9.5213 -10.7655 1.3941 -4.2331 41.1143
#
#
#
# Elastic Compliance Matrix: (Units=1/GPa)
#
#
# Indices 1 2 3 4 5 6 
#
# 1 0.013163 0.001354 -0.004615 -0.000115 -0.000254 0.000077
# 2 0.001354 0.023908 -0.005050 -0.005386 -0.003331 0.004156
# 3 -0.004615 -0.005050 0.007632 0.000459 0.000976 0.000565
# 4 -0.000115 -0.005386 0.000459 0.031353 0.006046 -0.001576
# 5 -0.000254 -0.003331 0.000976 0.006046 0.025904 0.001927
# 6 0.000077 0.004156 0.000565 -0.001576 0.001927 0.025691
#
#
# Mechanical properties :
#
#
# Convention : Reuss Voigt Hill
#
# Bulk Modulus (GPa) = 35.61186 64.48515 50.04851
# Shear Modulus (GPa) = 32.54502 39.06873 35.80687
#
# Velocity S-wave (km/s) = 3.80190 4.16555 3.98787
# Velocity P-wave (km/s) = 5.92360 7.19555 6.59033
#
# Compressibility (1/GPa) = 0.02808053
#
# Stress axis : x y z
#
# Youngs Moduli (GPa) = 75.97238 41.82719 131.01944
#
# Poissons Ratio (x) = -0.05665 0.60472
# Poissons Ratio (y) = -0.10290 0.66167
# Poissons Ratio (z) = 0.35065 0.21123
#
# Static dielectric constant tensor:
#      x y z
#    x 3.911220 0.007700 0.136810 
#    y 0.007700 4.256110 0.290280 
#    z 0.136810 0.290280 4.796800 
# 
# 
# High freq. dielectric constant tensor:
#      x y z
#    x 1.902730 0.010580 -0.004530 
#    y 0.010580 1.875560 0.012470 
#    z -0.004530 0.012470 1.910190 
# 
# From -- ./inp_files/538458.got.cif
#   From: 2010.06.25/outbox.cif.g09.slc.cpg/sg2_270_cif.got.tgz:538458.got - 2010.06.27 13:26:56.
