data_PCOD8032682
_publ_section_title
;
Structure prediction by ZEFSAII (Michael W. Deem and Ramdas Pophale) SiO2 
 PCOD8032682
Probable space group: P -1
;
_chemical_formula_sum "Si O2"
_cell_formula_units_Z 14
_cell_length_a 15.721406
_cell_length_b 14.983443
_cell_length_c 9.508324
_cell_angle_alpha 38.633765
_cell_angle_beta 142.650213
_cell_angle_gamma 152.123305
_cell_volume 610.566490
_symmetry_space_group_name_H-M "P -1"
_symmetry_group_IT_number 2
_symmetry_cell_setting 'triclinic'
loop_
_space_group_symop_operation_xyz
x,y,z
-x,-y,-z
loop_
_atom_site_type_symbol
_atom_site_label
_atom_site_fract_x
_atom_site_fract_y
_atom_site_fract_z
Si Si1 0.115870 0.454394 0.641643
Si Si2 0.359127 0.800211 0.321680
Si Si3 0.768843 0.968378 0.139318
Si Si4 0.645215 0.459088 0.884867
Si Si5 0.845342 0.883746 0.625224
Si Si6 0.792542 0.341498 0.995538
Si Si7 0.214376 0.924380 0.479379
O O1 0.229345 0.590769 0.486129
O O2 0.000000 0.500000 0.500000
O O3 0.963141 0.224890 0.677013
O O4 0.261856 0.494690 0.896873
O O5 0.579617 0.946610 0.490190
O O6 0.367021 0.770675 0.201138
O O7 0.274014 0.897496 0.116255
O O8 0.580154 0.737163 0.152189
O O9 0.843190 0.002754 0.354562
O O10 0.942624 0.040663 0.176842
O O11 0.677348 0.648575 0.657094
O O12 0.750785 0.440720 0.925987
O O13 0.803553 0.929329 0.662311
O O14 0.785144 0.189971 0.255262
O O15 0.000000 0.500000 0.000000
#
# Coordination Sequence:
#
# PCOD8032682 Si02
#       7
#     2   2   2   2   2   2   2
#     4  12  25  44  69 104 140 177 227 282 337 405
#     4  12  24  43  76 103 132 179 233 284 334 398
#     4  11  23  43  70 100 138 178 226 279 345 397
#     4  12  26  45  67 101 142 179 224 276 345 409
#     4  11  26  42  68 101 139 178 222 285 341 397
#     4  12  21  42  73  99 135 174 230 287 327 391
#     4  12  25  44  70 104 135 176 234 279 336 401
#
# _framework density 22.929527
#
# number of rings (size 3 to 8) (size 9 to 14) (size 15 to 20)
#    0.000    0.286    5.714    3.429    2.000    5.143 
#    0.000    1.429    0.000    0.000    0.000    0.000 
#    0.000    0.000    0.000    0.000    0.000    0.000 
#
# Total GULP energy -173665.196997 kJ/mol
# GULP energy per Si atom -12404.656928 kJ/mol
# Density = 2.287734 g / cm^3
# Si number density = 22.929527 Si / 1000 Ang^3
#
#
#
# Elastic Constant Matrix: (Units=GPa)
#
#
# Indices 1 2 3 4 5 6 
#
# 1 89.0899 37.1600 22.7002 6.1268 15.6777 -12.3037
# 2 37.1600 140.2739 9.5937 14.0648 11.3789 0.2503
# 3 22.7002 9.5937 52.3973 8.2590 2.3315 -8.0079
# 4 6.1268 14.0648 8.2590 35.7593 -4.4765 4.9566
# 5 15.6777 11.3789 2.3315 -4.4765 37.3564 -0.1192
# 6 -12.3037 0.2503 -8.0079 4.9566 -0.1192 40.7558
#
#
#
# Elastic Compliance Matrix: (Units=1/GPa)
#
#
# Indices 1 2 3 4 5 6 
#
# 1 0.015397 -0.003164 -0.005042 -0.001429 -0.005342 0.003835
# 2 -0.003164 0.008372 0.000279 -0.002932 -0.001593 -0.000600
# 3 -0.005042 0.000279 0.022528 -0.004929 0.000046 0.003502
# 4 -0.001429 -0.002932 -0.004929 0.031931 0.005610 -0.005249
# 5 -0.005342 -0.001593 0.000046 0.005610 0.030159 -0.002188
# 6 0.003835 -0.000600 0.003502 -0.005249 -0.002188 0.027018
#
#
# Mechanical properties :
#
#
# Convention : Reuss Voigt Hill
#
# Bulk Modulus (GPa) = 32.84755 46.74099 39.79427
# Shear Modulus (GPa) = 30.97747 36.92813 33.95280
#
# Velocity S-wave (km/s) = 3.67956 4.01746 3.85222
# Velocity P-wave (km/s) = 5.69287 6.47680 6.09745
#
# Compressibility (1/GPa) = 0.03044367
#
# Stress axis : x y z
#
# Youngs Moduli (GPa) = 64.94663 119.44188 44.38863
#
# Poissons Ratio (x) = 0.37794 0.22381
# Poissons Ratio (y) = 0.20550 -0.01239
# Poissons Ratio (z) = 0.32746 -0.03335
#
# Static dielectric constant tensor:
#      x y z
#    x 3.978690 -0.047380 0.031490 
#    y -0.047380 3.709480 -0.481480 
#    z 0.031490 -0.481480 3.557310 
# 
# 
# High freq. dielectric constant tensor:
#      x y z
#    x 1.900090 0.003550 -0.000200 
#    y 0.003550 1.924120 0.002320 
#    z -0.000200 0.002320 1.900730 
# 
# From -- ./inp_files/283418.got.cif
#   From: 2010.06.25/outbox.cif.g09.slc.cpg/sg2_142_cif.got.tgz:283418.got - 2010.06.27 13:26:56.
