data_PCOD8032403
_publ_section_title
;
Structure prediction by ZEFSAII (Michael W. Deem and Ramdas Pophale) SiO2 
 PCOD8032403
Probable space group: P -1
;
_chemical_formula_sum "Si O2"
_cell_formula_units_Z 16
_cell_length_a 6.708687
_cell_length_b 22.914006
_cell_length_c 5.198510
_cell_angle_alpha 66.986041
_cell_angle_beta 108.094121
_cell_angle_gamma 106.790427
_cell_volume 686.228328
_symmetry_space_group_name_H-M "P -1"
_symmetry_group_IT_number 2
_symmetry_cell_setting 'triclinic'
loop_
_space_group_symop_operation_xyz
x,y,z
-x,-y,-z
loop_
_atom_site_type_symbol
_atom_site_label
_atom_site_fract_x
_atom_site_fract_y
_atom_site_fract_z
Si Si1 0.647765 0.839454 0.519359
Si Si2 0.388516 0.243934 0.849948
Si Si3 0.469086 0.423255 0.178461
Si Si4 0.075847 0.936451 0.542440
Si Si5 0.096060 0.572529 0.373494
Si Si6 0.692297 0.346082 0.076278
Si Si7 0.658832 0.063571 0.862369
Si Si8 0.896206 0.654201 0.494229
O O1 0.592421 0.783350 0.381218
O O2 0.465899 0.881576 0.368960
O O3 0.876936 0.882093 0.472799
O O4 0.654885 0.811328 0.856554
O O5 0.194764 0.282113 0.709699
O O6 0.611026 0.291920 0.922187
O O7 0.676070 0.408993 0.431579
O O8 0.481404 0.373674 0.032257
O O9 0.250689 0.396200 0.284737
O O10 0.500000 0.500000 0.000000
O O11 0.215425 0.953430 0.310716
O O12 0.195839 0.910715 0.876302
O O13 0.000000 0.000000 0.500000
O O14 0.000000 0.500000 0.500000
O O15 0.915778 0.612298 0.320109
O O16 0.144114 0.590048 0.067836
O O17 0.855182 0.318163 0.375130
O O18 0.500000 0.000000 0.000000
#
# Coordination Sequence:
#
# PCOD8032403 Si02
#       8
#     2   2   2   2   2   2   2   2
#     4  12  29  49  75 114 150 201 258 301 366 452
#     4  12  28  50  73 103 154 203 255 300 365 463
#     4  11  23  42  69 104 140 183 242 311 386 451
#     4  12  26  47  81 117 156 198 250 306 380 436
#     4  11  24  41  69 106 133 178 248 308 378 453
#     4  11  26  45  69 100 141 190 246 304 377 443
#     4  12  26  47  81 116 159 198 243 318 375 426
#     4  11  26  45  70  98 142 194 237 312 376 434
#
# _framework density 23.315854999999999
#
# number of rings (size 3 to 8) (size 9 to 14) (size 15 to 20)
#    0.000    0.500    2.500    4.500    8.750    6.000 
#    0.000    0.000    0.000    0.000    0.000    0.000 
#    0.000    0.000    0.000    0.000    0.000    0.000 
#
# Total GULP energy -198284.391639 kJ/mol
# GULP energy per Si atom -12392.774477 kJ/mol
# Density = 2.326279 g / cm^3
# Si number density = 23.315855 Si / 1000 Ang^3
#
#
#
# Elastic Constant Matrix: (Units=GPa)
#
#
# Indices 1 2 3 4 5 6 
#
# 1 128.5372 28.5624 37.4880 -3.7363 7.1021 -12.9106
# 2 28.5624 95.5149 14.6458 -4.1271 9.3812 -6.2274
# 3 37.4880 14.6458 101.6687 -10.9946 3.7308 -11.7561
# 4 -3.7363 -4.1271 -10.9946 39.6615 -10.4658 -0.6589
# 5 7.1021 9.3812 3.7308 -10.4658 45.3951 -2.4890
# 6 -12.9106 -6.2274 -11.7561 -0.6589 -2.4890 40.0844
#
#
#
# Elastic Compliance Matrix: (Units=1/GPa)
#
#
# Indices 1 2 3 4 5 6 
#
# 1 0.009324 -0.002165 -0.002931 -0.000328 -0.000750 0.001755
# 2 -0.002165 0.011466 -0.000659 0.000329 -0.001858 0.000781
# 3 -0.002931 -0.000659 0.011604 0.003038 0.000475 0.002436
# 4 -0.000328 0.000329 0.003038 0.027728 0.006218 0.001678
# 5 -0.000750 -0.001858 0.000475 0.006218 0.023990 0.001201
# 6 0.001755 0.000781 0.002436 0.001678 0.001201 0.026451
#
#
# Mechanical properties :
#
#
# Convention : Reuss Voigt Hill
#
# Bulk Modulus (GPa) = 47.88528 54.12369 51.00448
# Shear Modulus (GPa) = 38.74927 41.36318 40.05622
#
# Velocity S-wave (km/s) = 4.08110 4.21650 4.14935
# Velocity P-wave (km/s) = 6.54136 6.85338 6.69919
#
# Compressibility (1/GPa) = 0.02088324
#
# Stress axis : x y z
#
# Youngs Moduli (GPa) = 107.25050 87.21707 86.17373
#
# Poissons Ratio (x) = 0.18881 0.25259
# Poissons Ratio (y) = 0.23218 0.05682
# Poissons Ratio (z) = 0.31437 0.05751
#
# Static dielectric constant tensor:
#      x y z
#    x 3.606110 0.236540 0.237090 
#    y 0.236540 4.686560 0.548370 
#    z 0.237090 0.548370 4.823560 
# 
# 
# High freq. dielectric constant tensor:
#      x y z
#    x 1.942280 0.000450 0.009000 
#    y 0.000450 1.922350 0.004940 
#    z 0.009000 0.004940 1.936270 
# 
# From -- ./inp_files/11308.got.cif
#   From: 2010.06.25/outbox.cif.g09.slc.cpg/sg2_6_cif.got.tgz:11308.got - 2010.06.27 13:26:56.
