data_PCOD8032196
_publ_section_title
;
Structure prediction by ZEFSAII (Michael W. Deem and Ramdas Pophale) SiO2 
 PCOD8032196
Probable space group: P -1
;
_chemical_formula_sum "Si O2"
_cell_formula_units_Z 16
_cell_length_a 17.681689
_cell_length_b 21.813894
_cell_length_c 12.408237
_cell_angle_alpha 149.922919
_cell_angle_beta 150.393293
_cell_angle_gamma 18.377547
_cell_volume 720.133434
_symmetry_space_group_name_H-M "P -1"
_symmetry_group_IT_number 2
_symmetry_cell_setting 'triclinic'
loop_
_space_group_symop_operation_xyz
x,y,z
-x,-y,-z
loop_
_atom_site_type_symbol
_atom_site_label
_atom_site_fract_x
_atom_site_fract_y
_atom_site_fract_z
Si Si1 0.518385 0.816855 0.149205
Si Si2 0.133551 0.069691 0.741364
Si Si3 0.620543 0.252371 0.776036
Si Si4 0.769739 0.377060 0.278452
Si Si5 0.323960 0.399278 0.310249
Si Si6 0.645593 0.998442 0.546153
Si Si7 0.966970 0.977942 0.244104
Si Si8 0.030361 0.578029 0.002632
O O1 0.525783 0.942031 0.282749
O O2 0.776743 0.580217 0.092918
O O3 0.502978 0.850636 0.308210
O O4 0.289786 0.878502 0.920260
O O5 0.002563 0.143960 0.809761
O O6 0.406858 0.833202 0.728419
O O7 0.961454 0.111245 0.502082
O O8 0.149660 0.199458 0.922992
O O9 0.343182 0.467214 0.720464
O O10 0.804250 0.171493 0.782859
O O11 0.624805 0.104839 0.581566
O O12 0.698711 0.279706 0.021096
O O13 0.658961 0.487202 0.425335
O O14 0.066275 0.206240 0.377919
O O15 0.150461 0.419511 0.194778
O O16 0.193134 0.514463 0.211214
#
# Coordination Sequence:
#
# PCOD8032196 Si02
#       8
#     2   2   2   2   2   2   2   2
#     4  11  24  46  67 101 136 168 224 276 326 399
#     4  11  25  44  66  96 138 176 215 281 327 382
#     4  11  25  43  71  98 130 181 220 271 329 394
#     4  11  23  41  69 101 130 169 231 265 318 403
#     4  11  23  43  67 104 133 170 229 270 318 408
#     4  11  25  46  69  97 137 174 216 278 333 384
#     4  11  24  45  64  99 136 170 223 274 324 390
#     4  11  25  42  70  98 132 181 219 267 338 390
#
# _framework density 22.218104
#
# number of rings (size 3 to 8) (size 9 to 14) (size 15 to 20)
#    0.000    1.000    5.000    0.750    1.750    3.500 
#    0.000    1.250    0.000    0.000    0.000    0.000 
#    0.000    0.000    0.000    0.000    0.000    0.000 
#
# Total GULP energy -198417.861479 kJ/mol
# GULP energy per Si atom -12401.116342 kJ/mol
# Density = 2.216753 g / cm^3
# Si number density = 22.218104 Si / 1000 Ang^3
#
#
#
# Elastic Constant Matrix: (Units=GPa)
#
#
# Indices 1 2 3 4 5 6 
#
# 1 93.1067 42.9820 13.0866 15.8883 -5.5431 -5.6378
# 2 42.9820 73.2441 5.7717 10.1952 11.2068 -1.2414
# 3 13.0866 5.7717 51.2830 3.1699 -12.8141 1.2652
# 4 15.8883 10.1952 3.1699 29.2440 -7.3292 -0.5117
# 5 -5.5431 11.2068 -12.8141 -7.3292 28.3577 2.4034
# 6 -5.6378 -1.2414 1.2652 -0.5117 2.4034 21.1743
#
#
#
# Elastic Compliance Matrix: (Units=1/GPa)
#
#
# Indices 1 2 3 4 5 6 
#
# 1 0.016720 -0.009803 -0.001738 -0.004167 0.004999 0.003313
# 2 -0.009803 0.022539 -0.003122 -0.005625 -0.013715 0.000319
# 3 -0.001738 -0.003122 0.023312 0.002548 0.012373 -0.003382
# 4 -0.004167 -0.005625 0.002548 0.041480 0.013460 -0.002117
# 5 0.004999 -0.013715 0.012373 0.013460 0.051214 -0.005700
# 6 0.003313 0.000319 -0.003382 -0.002117 -0.005700 0.048926
#
#
# Mechanical properties :
#
#
# Convention : Reuss Voigt Hill
#
# Bulk Modulus (GPa) = 30.08143 37.92382 34.00262
# Shear Modulus (GPa) = 20.44166 26.14145 23.29156
#
# Velocity S-wave (km/s) = 3.03652 3.43386 3.24128
# Velocity P-wave (km/s) = 5.08551 5.72955 5.41711
#
# Compressibility (1/GPa) = 0.03324310
#
# Stress axis : x y z
#
# Youngs Moduli (GPa) = 59.80999 44.36806 42.89588
#
# Poissons Ratio (x) = 0.43496 0.07456
# Poissons Ratio (y) = 0.58634 0.13393
# Poissons Ratio (z) = 0.10396 0.13852
#
# Static dielectric constant tensor:
#      x y z
#    x 3.984470 -0.152940 -0.073170 
#    y -0.152940 3.870430 -0.029180 
#    z -0.073170 -0.029180 4.266500 
# 
# 
# High freq. dielectric constant tensor:
#      x y z
#    x 1.871720 -0.012810 -0.006470 
#    y -0.012810 1.868370 -0.002000 
#    z -0.006470 -0.002000 1.884000 
# 
# From -- ./inp_files/467203.got.cif
#   From: 2010.06.25/outbox.cif.g09.slc.cpg/sg2_234_cif.got.tgz:467203.got - 2010.06.27 13:26:56.
