data_PCOD8032089
_publ_section_title
;
Structure prediction by ZEFSAII (Michael W. Deem and Ramdas Pophale) SiO2 
 PCOD8032089
Probable space group: P -1
;
_chemical_formula_sum "Si O2"
_cell_formula_units_Z 16
_cell_length_a 17.536493
_cell_length_b 8.064655
_cell_length_c 20.357548
_cell_angle_alpha 42.920607
_cell_angle_beta 20.277334
_cell_angle_gamma 39.550855
_cell_volume 634.822818
_symmetry_space_group_name_H-M "P -1"
_symmetry_group_IT_number 2
_symmetry_cell_setting 'triclinic'
loop_
_space_group_symop_operation_xyz
x,y,z
-x,-y,-z
loop_
_atom_site_type_symbol
_atom_site_label
_atom_site_fract_x
_atom_site_fract_y
_atom_site_fract_z
Si Si1 0.163278 0.632701 0.978620
Si Si2 0.270328 0.698009 0.193532
Si Si3 0.424826 0.066155 0.876401
Si Si4 0.830796 0.922955 0.407123
Si Si5 0.934530 0.031447 0.469661
Si Si6 0.419373 0.794965 0.840409
Si Si7 0.321336 0.862702 0.665056
Si Si8 0.770868 0.438952 0.386616
O O1 0.335425 0.354439 0.894753
O O2 0.245015 0.709123 0.960428
O O3 0.162987 0.839809 0.861841
O O4 0.898072 0.633210 0.200504
O O5 0.457504 0.417011 0.140541
O O6 0.066728 0.692152 0.308149
O O7 0.152280 0.813429 0.323781
O O8 0.404482 0.878125 0.004815
O O9 0.697240 0.977680 0.661387
O O10 0.294152 0.041663 0.919647
O O11 0.852996 0.962503 0.299918
O O12 0.822407 0.191127 0.369905
O O13 0.602787 0.851149 0.626871
O O14 0.892612 0.323611 0.391772
O O15 0.000000 0.000000 0.500000
O O16 0.489279 0.584284 0.579424
O O17 0.500000 0.000000 0.500000
#
# Coordination Sequence:
#
# PCOD8032089 Si02
#       8
#     2   2   2   2   2   2   2   2
#     4  12  26  49  75 109 145 191 244 299 362 433
#     4  11  25  45  71 109 144 192 243 291 365 434
#     4  12  24  47  71 108 148 191 242 291 364 431
#     4  11  23  49  72 100 146 192 237 301 359 430
#     4  11  23  40  72 104 146 192 237 294 359 432
#     4  12  25  46  76 106 153 188 240 304 357 434
#     4  12  26  47  73 105 144 185 247 305 362 426
#     4  11  25  48  72 106 142 191 249 292 367 434
#
# _framework density 25.203883000000001
#
# number of rings (size 3 to 8) (size 9 to 14) (size 15 to 20)
#    0.000    0.500    7.500    1.875    1.750    3.000 
#    2.250    0.000    0.000    0.000    0.000    0.000 
#    0.000    0.000    0.000    0.000    0.000    0.000 
#
# Total GULP energy -198380.204246 kJ/mol
# GULP energy per Si atom -12398.762765 kJ/mol
# Density = 2.514652 g / cm^3
# Si number density = 25.203883 Si / 1000 Ang^3
#
#
#
# Elastic Constant Matrix: (Units=GPa)
#
#
# Indices 1 2 3 4 5 6 
#
# 1 161.1642 32.8543 17.0697 -8.9106 20.2586 -5.4789
# 2 32.8543 43.9217 -11.0172 -7.0793 -3.3549 -0.7034
# 3 17.0697 -11.0172 101.0968 -21.5356 5.7578 3.3469
# 4 -8.9106 -7.0793 -21.5356 44.0433 0.5346 5.3844
# 5 20.2586 -3.3549 5.7578 0.5346 31.1670 -8.0018
# 6 -5.4789 -0.7034 3.3469 5.3844 -8.0018 42.5696
#
#
#
# Elastic Compliance Matrix: (Units=1/GPa)
#
#
# Indices 1 2 3 4 5 6 
#
# 1 0.008701 -0.007541 -0.002027 -0.000377 -0.006071 0.000061
# 2 -0.007541 0.031355 0.005627 0.006224 0.007038 -0.000359
# 3 -0.002027 0.005627 0.012442 0.006862 -0.001061 -0.002214
# 4 -0.000377 0.006224 0.006862 0.027537 -0.001937 -0.004332
# 5 -0.006071 0.007038 -0.001061 -0.001937 0.038804 0.006957
# 6 0.000061 -0.000359 -0.002214 -0.004332 0.006957 0.025523
#
#
# Mechanical properties :
#
#
# Convention : Reuss Voigt Hill
#
# Bulk Modulus (GPa) = 22.41331 42.66625 32.53978
# Shear Modulus (GPa) = 29.91916 41.37437 35.64677
#
# Velocity S-wave (km/s) = 3.44915 4.05605 3.76485
# Velocity P-wave (km/s) = 4.97738 6.23703 5.64246
#
# Compressibility (1/GPa) = 0.04461635
#
# Stress axis : x y z
#
# Youngs Moduli (GPa) = 114.92735 31.89299 80.37007
#
# Poissons Ratio (x) = 0.24049 0.16295
# Poissons Ratio (y) = 0.86663 -0.45225
# Poissons Ratio (z) = 0.23301 -0.17946
#
# Static dielectric constant tensor:
#      x y z
#    x 4.865980 -0.344400 -0.004690 
#    y -0.344400 5.114010 0.226550 
#    z -0.004690 0.226550 5.026890 
# 
# 
# High freq. dielectric constant tensor:
#      x y z
#    x 2.006390 0.004670 0.019660 
#    y 0.004670 2.004340 -0.005640 
#    z 0.019660 -0.005640 2.020840 
# 
# From -- ./inp_files/599687.got.cif
#   From: 2010.06.25/outbox.cif.g09.slc.cpg/sg2_300_cif.got.tgz:599687.got - 2010.06.27 13:26:56.
