data_PCOD8032308
_publ_section_title
;
Structure prediction by ZEFSAII (Michael W. Deem and Ramdas Pophale) SiO2 
 PCOD8032308
Probable space group: P -1
;
_chemical_formula_sum "Si O2"
_cell_formula_units_Z 16
_cell_length_a 18.898291
_cell_length_b 9.262614
_cell_length_c 9.207821
_cell_angle_alpha 149.067382
_cell_angle_beta 62.771674
_cell_angle_gamma 117.742411
_cell_volume 727.243118
_symmetry_space_group_name_H-M "P -1"
_symmetry_group_IT_number 2
_symmetry_cell_setting 'triclinic'
loop_
_space_group_symop_operation_xyz
x,y,z
-x,-y,-z
loop_
_atom_site_type_symbol
_atom_site_label
_atom_site_fract_x
_atom_site_fract_y
_atom_site_fract_z
Si Si1 0.166821 0.119192 0.469085
Si Si2 0.194480 0.095749 0.751951
Si Si3 0.579809 0.525500 0.540464
Si Si4 0.079733 0.627111 0.950881
Si Si5 0.949246 0.243902 0.240635
Si Si6 0.698985 0.330774 0.778163
Si Si7 0.550124 0.309360 0.702857
Si Si8 0.668770 0.125496 0.939333
O O1 0.151225 0.094322 0.635023
O O2 0.100125 0.927807 0.271484
O O3 0.248503 0.006839 0.246436
O O4 0.154392 0.444786 0.729248
O O5 0.138863 0.883073 0.727116
O O6 0.275242 0.965918 0.546268
O O7 0.223651 0.414085 0.062442
O O8 0.500000 0.500000 0.500000
O O9 0.557770 0.387872 0.596590
O O10 0.602141 0.864260 0.821061
O O11 0.654628 0.380728 0.281850
O O12 0.058740 0.665451 0.837754
O O13 0.000000 0.500000 0.000000
O O14 0.000000 0.500000 0.500000
O O15 0.000000 0.000000 0.000000
O O16 0.638422 0.379620 0.750934
O O17 0.655673 0.271091 0.922612
O O18 0.500000 0.000000 0.500000
O O19 0.500000 0.500000 0.000000
#
# Coordination Sequence:
#
# PCOD8032308 Si02
#       8
#     2   2   2   2   2   2   2   2
#     4  11  23  42  65  93 127 166 211 264 324 384
#     4  11  23  42  65  92 127 169 210 260 323 388
#     4  12  24  41  66  95 127 168 216 268 318 381
#     4  12  24  41  66  95 127 168 216 268 318 381
#     4  12  25  43  65  94 131 171 215 266 321 385
#     4  11  23  42  65  92 127 169 210 260 323 388
#     4  12  25  43  65  94 131 171 215 266 321 385
#     4  11  23  42  65  93 127 166 211 264 324 384
#
# _framework density 22.000896999999998
#
# number of rings (size 3 to 8) (size 9 to 14) (size 15 to 20)
#    0.000    0.500    0.000   10.500    0.000    3.000 
#    0.000    0.000    0.000    0.000    0.000    0.000 
#    0.000    0.000    0.000    0.000    0.000    0.000 
#
# Total GULP energy -198272.337548 kJ/mol
# GULP energy per Si atom -12392.021097 kJ/mol
# Density = 2.195082 g / cm^3
# Si number density = 22.000897 Si / 1000 Ang^3
#
#
#
# Elastic Constant Matrix: (Units=GPa)
#
#
# Indices 1 2 3 4 5 6 
#
# 1 106.9365 50.6357 30.2520 -9.4485 11.5660 -29.6369
# 2 50.6357 169.5039 35.0508 -6.6125 17.9385 -21.8782
# 3 30.2520 35.0508 118.7942 6.5705 0.7268 -12.6250
# 4 -9.4485 -6.6125 6.5705 43.0939 6.2991 7.8042
# 5 11.5660 17.9385 0.7268 6.2991 49.4815 4.6499
# 6 -29.6369 -21.8782 -12.6250 7.8042 4.6499 41.3608
#
#
#
# Elastic Compliance Matrix: (Units=1/GPa)
#
#
# Indices 1 2 3 4 5 6 
#
# 1 0.013767 -0.002200 -0.002092 0.002038 -0.003407 0.008061
# 2 -0.002200 0.007408 -0.001445 0.000868 -0.002450 0.002013
# 3 -0.002092 -0.001445 0.009616 -0.002491 0.001093 0.001019
# 4 0.002038 0.000868 -0.002491 0.025281 -0.003672 -0.003198
# 5 -0.003407 -0.002450 0.001093 -0.003672 0.022842 -0.005279
# 6 0.008061 0.002013 0.001019 -0.003198 -0.005279 0.032527
#
#
# Mechanical properties :
#
#
# Convention : Reuss Voigt Hill
#
# Bulk Modulus (GPa) = 51.76198 69.67905 60.72051
# Shear Modulus (GPa) = 38.65346 45.40698 42.03022
#
# Velocity S-wave (km/s) = 4.19609 4.54791 4.37554
# Velocity P-wave (km/s) = 6.85963 7.70180 7.29288
#
# Compressibility (1/GPa) = 0.01931920
#
# Stress axis : x y z
#
# Youngs Moduli (GPa) = 72.63498 134.98120 103.98902
#
# Poissons Ratio (x) = 0.29690 0.21756
# Poissons Ratio (y) = 0.15976 0.15025
# Poissons Ratio (z) = 0.15197 0.19503
#
# Static dielectric constant tensor:
#      x y z
#    x 3.872850 -0.097110 -0.062030 
#    y -0.097110 3.920820 0.105210 
#    z -0.062030 0.105210 4.348450 
# 
# 
# High freq. dielectric constant tensor:
#      x y z
#    x 1.872160 -0.001370 -0.003060 
#    y -0.001370 1.871480 0.006650 
#    z -0.003060 0.006650 1.890470 
# 
# From -- ./inp_files/343969.got.cif
#   From: 2010.06.25/outbox.cif.g09.slc.cpg/sg2_172_cif.got.tgz:343969.got - 2010.06.27 13:26:56.
