data_PCOD8032288
_publ_section_title
;
Structure prediction by ZEFSAII (Michael W. Deem and Ramdas Pophale) SiO2 
 PCOD8032288
Probable space group: P -1
;
_chemical_formula_sum "Si O2"
_cell_formula_units_Z 16
_cell_length_a 17.540387
_cell_length_b 5.309790
_cell_length_c 14.944344
_cell_angle_alpha 112.887907
_cell_angle_beta 31.208692
_cell_angle_gamma 110.981634
_cell_volume 663.473422
_symmetry_space_group_name_H-M "P -1"
_symmetry_group_IT_number 2
_symmetry_cell_setting 'triclinic'
loop_
_space_group_symop_operation_xyz
x,y,z
-x,-y,-z
loop_
_atom_site_type_symbol
_atom_site_label
_atom_site_fract_x
_atom_site_fract_y
_atom_site_fract_z
Si Si1 0.507308 0.673085 0.245727
Si Si2 0.396304 0.762225 0.030252
Si Si3 0.940628 0.892166 0.293760
Si Si4 0.258289 0.983248 0.032912
Si Si5 0.194190 0.562228 0.499801
Si Si6 0.830391 0.546991 0.680592
Si Si7 0.093761 0.233582 0.884547
Si Si8 0.572726 0.702796 0.381524
O O1 0.334594 0.731200 0.425561
O O2 0.542352 0.564160 0.295106
O O3 0.512557 0.498694 0.122715
O O4 0.622190 0.930962 0.151042
O O5 0.263142 0.722058 0.228178
O O6 0.334111 0.781083 0.994798
O O7 0.500000 0.000000 0.000000
O O8 0.871020 0.656464 0.394272
O O9 0.869354 0.872631 0.265228
O O10 0.915020 0.205368 0.391802
O O11 0.115521 0.845703 0.108186
O O12 0.204595 0.217993 0.183866
O O13 0.224990 0.387343 0.354963
O O14 0.000000 0.500000 0.500000
O O15 0.250412 0.284949 0.783227
O O16 0.000000 0.500000 0.000000
O O17 0.000000 0.000000 0.000000
O O18 0.500000 0.500000 0.500000
O O19 0.500000 0.000000 0.500000
#
# Coordination Sequence:
#
# PCOD8032288 Si02
#       8
#     2   2   2   2   2   2   2   2
#     4  11  27  44  72 103 142 187 237 292 358 422
#     4  11  25  42  69 100 141 183 238 289 351 420
#     4  12  27  45  71 105 138 183 235 291 354 418
#     4  11  25  42  70  99 142 183 239 286 350 416
#     4  12  26  44  70 101 143 183 235 287 347 418
#     4  11  23  42  63 101 136 185 231 287 344 413
#     4  12  26  47  76 104 143 184 238 298 363 431
#     4  12  27  49  76 108 147 190 242 300 364 433
#
# _framework density 24.11551
#
# number of rings (size 3 to 8) (size 9 to 14) (size 15 to 20)
#    0.000    0.500    1.250    6.000   10.500    3.000 
#    0.000    0.000    0.000    0.000    0.000    0.000 
#    0.000    0.000    0.000    0.000    0.000    0.000 
#
# Total GULP energy -198240.192573 kJ/mol
# GULP energy per Si atom -12390.012036 kJ/mol
# Density = 2.406062 g / cm^3
# Si number density = 24.115510 Si / 1000 Ang^3
#
#
#
# Elastic Constant Matrix: (Units=GPa)
#
#
# Indices 1 2 3 4 5 6 
#
# 1 138.4607 19.6901 54.4460 -24.9055 -2.8227 -0.1850
# 2 19.6901 104.8332 69.8169 -21.6071 -0.2824 -17.7150
# 3 54.4460 69.8169 114.1119 -47.8838 2.6776 -12.0875
# 4 -24.9055 -21.6071 -47.8838 46.6140 -6.9418 2.9664
# 5 -2.8227 -0.2824 2.6776 -6.9418 51.0950 -3.3856
# 6 -0.1850 -17.7150 -12.0875 2.9664 -3.3856 40.4083
#
#
#
# Elastic Compliance Matrix: (Units=1/GPa)
#
#
# Indices 1 2 3 4 5 6 
#
# 1 0.009189 0.001882 -0.005513 0.000284 0.000797 -0.000736
# 2 0.001882 0.017794 -0.013262 -0.004555 0.000558 0.004224
# 3 -0.005513 -0.013262 0.027798 0.019524 0.000892 0.001117
# 4 0.000284 -0.004555 0.019524 0.040139 0.004505 0.001275
# 5 0.000797 0.000558 0.000892 0.004505 0.020309 0.001886
# 6 -0.000736 0.004224 0.001117 0.001275 0.001886 0.026994
#
#
# Mechanical properties :
#
#
# Convention : Reuss Voigt Hill
#
# Bulk Modulus (GPa) = 47.63156 71.70130 59.66643
# Shear Modulus (GPa) = 27.32121 41.85365 34.58743
#
# Velocity S-wave (km/s) = 3.36956 4.17051 3.79124
# Velocity P-wave (km/s) = 5.91040 7.27928 6.63026
#
# Compressibility (1/GPa) = 0.02099448
#
# Stress axis : x y z
#
# Youngs Moduli (GPa) = 108.82658 56.19827 35.97346
#
# Poissons Ratio (x) = -0.10578 0.19834
# Poissons Ratio (y) = -0.20483 0.47709
# Poissons Ratio (z) = 0.60000 0.74531
#
# Static dielectric constant tensor:
#      x y z
#    x 4.446220 0.082110 0.070470 
#    y 0.082110 4.169710 -0.057850 
#    z 0.070470 -0.057850 4.608410 
# 
# 
# High freq. dielectric constant tensor:
#      x y z
#    x 1.980350 0.003110 -0.001050 
#    y 0.003110 1.948370 -0.006180 
#    z -0.001050 -0.006180 1.975480 
# 
# From -- ./inp_files/78046.got.cif
#   From: 2010.06.25/outbox.cif.g09.slc.cpg/sg2_40_cif.got.tgz:78046.got - 2010.06.27 13:26:56.
