data_PCOD8032985
_publ_section_title
;
Structure prediction by ZEFSAII (Michael W. Deem and Ramdas Pophale) SiO2 
 PCOD8032985
Probable space group: P -1
;
_chemical_formula_sum "Si O2"
_cell_formula_units_Z 16
_cell_length_a 8.422200
_cell_length_b 24.883184
_cell_length_c 9.653792
_cell_angle_alpha 36.000203
_cell_angle_beta 101.162935
_cell_angle_gamma 128.684420
_cell_volume 680.520303
_symmetry_space_group_name_H-M "P -1"
_symmetry_group_IT_number 2
_symmetry_cell_setting 'triclinic'
loop_
_space_group_symop_operation_xyz
x,y,z
-x,-y,-z
loop_
_atom_site_type_symbol
_atom_site_label
_atom_site_fract_x
_atom_site_fract_y
_atom_site_fract_z
Si Si1 0.558189 0.377570 0.260178
Si Si2 0.577008 0.625175 0.475255
Si Si3 0.893937 0.544525 0.452629
Si Si4 0.034324 0.130551 0.513549
Si Si5 0.879623 0.034149 0.176331
Si Si6 0.546785 0.881168 0.170585
Si Si7 0.932026 0.613166 0.599697
Si Si8 0.805052 0.130505 0.224632
O O1 0.600265 0.455205 0.245764
O O2 0.538835 0.263441 0.533661
O O3 0.278655 0.282927 0.333328
O O4 0.833253 0.524650 0.911572
O O5 0.395880 0.558530 0.447478
O O6 0.744215 0.609154 0.520989
O O7 0.801163 0.808804 0.141536
O O8 0.878191 0.513413 0.678272
O O9 0.000000 0.500000 0.500000
O O10 0.105172 0.726555 0.099538
O O11 0.999688 0.184426 0.269187
O O12 0.146504 0.087084 0.557048
O O13 0.752521 0.992557 0.843988
O O14 0.808100 0.058342 0.251150
O O15 0.684373 0.978266 0.133912
O O16 0.250345 0.795874 0.280554
O O17 0.500000 0.000000 0.500000
#
# Coordination Sequence:
#
# PCOD8032985 Si02
#       8
#     2   2   2   2   2   2   2   2
#     4  11  23  44  70 107 137 189 240 290 359 435
#     4  12  24  45  73 100 144 185 244 286 366 428
#     4  12  29  49  72 101 148 194 238 301 363 426
#     4  11  23  45  75 102 147 186 239 294 362 432
#     4  11  24  45  75 104 141 194 232 297 358 432
#     4  11  23  46  72 107 144 185 234 297 365 427
#     4  12  26  43  73 105 143 190 238 302 357 428
#     4  12  28  46  70 109 141 188 247 296 359 432
#
# _framework density 23.511420000000001
#
# number of rings (size 3 to 8) (size 9 to 14) (size 15 to 20)
#    0.000    0.500    3.750    4.500    3.500    4.500 
#    0.000    0.000    0.000    0.000    0.000    0.000 
#    0.000    0.000    0.000    0.000    0.000    0.000 
#
# Total GULP energy -198398.328059 kJ/mol
# GULP energy per Si atom -12399.895504 kJ/mol
# Density = 2.345791 g / cm^3
# Si number density = 23.511420 Si / 1000 Ang^3
#
#
#
# Elastic Constant Matrix: (Units=GPa)
#
#
# Indices 1 2 3 4 5 6 
#
# 1 93.6067 26.6705 29.1877 6.6701 -13.8680 -3.1194
# 2 26.6705 126.0794 25.9096 8.0159 -21.4926 1.9281
# 3 29.1877 25.9096 79.5968 2.9585 -22.1514 -6.0984
# 4 6.6701 8.0159 2.9585 37.2710 0.4484 -6.1149
# 5 -13.8680 -21.4926 -22.1514 0.4484 37.7776 1.3456
# 6 -3.1194 1.9281 -6.0984 -6.1149 1.3456 37.6601
#
#
#
# Elastic Compliance Matrix: (Units=1/GPa)
#
#
# Indices 1 2 3 4 5 6 
#
# 1 0.012610 -0.001549 -0.003581 -0.001623 0.001660 0.000221
# 2 -0.001549 0.009369 -0.001393 -0.001886 0.004013 -0.001283
# 3 -0.003581 -0.001393 0.016602 -0.000111 0.007552 0.002175
# 4 -0.001623 -0.001886 -0.000111 0.028321 -0.002235 0.004622
# 5 0.001660 0.004013 0.007552 -0.002235 0.033832 -0.000417
# 6 0.000221 -0.001283 0.002175 0.004622 -0.000417 0.027755
#
#
# Mechanical properties :
#
#
# Convention : Reuss Voigt Hill
#
# Bulk Modulus (GPa) = 39.16105 51.42429 45.29267
# Shear Modulus (GPa) = 33.32306 37.04274 35.18290
#
# Velocity S-wave (km/s) = 3.76881 3.97359 3.87255
# Velocity P-wave (km/s) = 5.96916 6.55531 6.26909
#
# Compressibility (1/GPa) = 0.02553557
#
# Stress axis : x y z
#
# Youngs Moduli (GPa) = 79.30420 106.73418 60.23297
#
# Poissons Ratio (x) = 0.16532 0.21567
# Poissons Ratio (y) = 0.12283 0.08392
# Poissons Ratio (z) = 0.28396 0.14870
#
# Static dielectric constant tensor:
#      x y z
#    x 4.380580 0.129720 -0.116570 
#    y 0.129720 4.491780 0.045880 
#    z -0.116570 0.045880 4.354840 
# 
# 
# High freq. dielectric constant tensor:
#      x y z
#    x 1.938550 -0.000310 -0.002540 
#    y -0.000310 1.948120 0.004010 
#    z -0.002540 0.004010 1.926670 
# 
# From -- ./inp_files/225985.got.cif
#   From: 2010.06.25/outbox.cif.g09.slc.cpg/sg2_113_cif.got.tgz:225985.got - 2010.06.27 13:26:56.
