data_PCOD8032756
_publ_section_title
;
Structure prediction by ZEFSAII (Michael W. Deem and Ramdas Pophale) SiO2 
 PCOD8032756
Probable space group: P -1
;
_chemical_formula_sum "Si O2"
_cell_formula_units_Z 14
_cell_length_a 8.981691
_cell_length_b 19.049254
_cell_length_c 8.489452
_cell_angle_alpha 112.297635
_cell_angle_beta 116.261537
_cell_angle_gamma 35.272177
_cell_volume 751.724209
_symmetry_space_group_name_H-M "P -1"
_symmetry_group_IT_number 2
_symmetry_cell_setting 'triclinic'
loop_
_space_group_symop_operation_xyz
x,y,z
-x,-y,-z
loop_
_atom_site_type_symbol
_atom_site_label
_atom_site_fract_x
_atom_site_fract_y
_atom_site_fract_z
Si Si1 0.188595 0.825777 0.040554
Si Si2 0.767484 0.358538 0.986805
Si Si3 0.054190 0.213560 0.698878
Si Si4 0.304954 0.005953 0.851112
Si Si5 0.923276 0.876924 0.672396
Si Si6 0.755014 0.793622 0.698220
Si Si7 0.476647 0.155326 0.679949
O O1 0.414096 0.804375 0.173653
O O2 0.280939 0.711071 0.047981
O O3 0.156442 0.836107 0.843961
O O4 0.898232 0.955504 0.082188
O O5 0.986029 0.319566 0.172358
O O6 0.500000 0.500000 0.000000
O O7 0.851702 0.331563 0.818267
O O8 0.304997 0.179472 0.760054
O O9 0.943758 0.224129 0.486320
O O10 0.123177 0.109789 0.723656
O O11 0.492022 0.874118 0.751642
O O12 0.500000 0.000000 0.000000
O O13 0.772077 0.876229 0.726103
O O14 0.710962 0.012872 0.619193
O O15 0.710731 0.760771 0.489620
#
# Coordination Sequence:
#
# PCOD8032756 Si02
#       7
#     2   2   2   2   2   2   2
#     4  10  22  32  52  82 115 133 175 216 257 312
#     4  10  22  41  57  71  97 145 193 221 245 302
#     4  10  18  32  57  77 103 142 173 205 263 326
#     4  11  15  31  51  77 108 142 171 206 254 321
#     4  10  17  31  51  82 113 139 160 202 265 331
#     4  10  18  32  56  75 107 142 176 205 260 321
#     4  11  19  32  51  88 115 134 159 214 278 318
#
# _framework density 18.623850999999998
#
# number of rings (size 3 to 8) (size 9 to 14) (size 15 to 20)
#    0.000    1.714    7.143    1.286    0.000    0.571 
#    0.000    7.857    0.000    0.000    0.000    0.000 
#    0.000    0.000    0.000    0.000    0.000    0.000 
#
# Total GULP energy -173458.491472 kJ/mol
# GULP energy per Si atom -12389.892248 kJ/mol
# Density = 1.858146 g / cm^3
# Si number density = 18.623851 Si / 1000 Ang^3
#
#
#
# Elastic Constant Matrix: (Units=GPa)
#
#
# Indices 1 2 3 4 5 6 
#
# 1 48.9323 22.3047 50.0361 0.8141 9.1531 -8.5163
# 2 22.3047 110.4957 52.5101 5.3408 -5.7986 -10.6403
# 3 50.0361 52.5101 153.8932 -6.5664 3.9641 -16.4765
# 4 0.8141 5.3408 -6.5664 20.1381 -6.3242 -2.8254
# 5 9.1531 -5.7986 3.9641 -6.3242 30.5334 -0.4868
# 6 -8.5163 -10.6403 -16.4765 -2.8254 -0.4868 14.2356
#
#
#
# Elastic Compliance Matrix: (Units=1/GPa)
#
#
# Indices 1 2 3 4 5 6 
#
# 1 0.034702 -0.001916 -0.009986 -0.006676 -0.010756 0.006077
# 2 -0.001916 0.011520 -0.003126 -0.002682 0.002667 0.003405
# 3 -0.009986 -0.003126 0.011758 0.006757 0.002380 0.006721
# 4 -0.006676 -0.002682 0.006757 0.058894 0.013036 0.013957
# 5 -0.010756 0.002667 0.002380 0.013036 0.038908 0.002231
# 6 0.006077 0.003405 0.006721 0.013957 0.002231 0.087052
#
#
# Mechanical properties :
#
#
# Convention : Reuss Voigt Hill
#
# Bulk Modulus (GPa) = 35.81271 62.55810 49.18541
# Shear Modulus (GPa) = 17.71801 25.54610 21.63206
#
# Velocity S-wave (km/s) = 3.08776 3.70765 3.41181
# Velocity P-wave (km/s) = 5.65540 7.21056 6.47980
#
# Compressibility (1/GPa) = 0.02792305
#
# Stress axis : x y z
#
# Youngs Moduli (GPa) = 28.81684 86.80496 85.04649
#
# Poissons Ratio (x) = 0.16630 0.84930
# Poissons Ratio (y) = 0.05521 0.26590
# Poissons Ratio (z) = 0.28777 0.27139
#
# Static dielectric constant tensor:
#      x y z
#    x 3.245330 -0.202830 -0.234000 
#    y -0.202830 2.928180 -0.051380 
#    z -0.234000 -0.051380 3.800130 
# 
# 
# High freq. dielectric constant tensor:
#      x y z
#    x 1.699920 -0.012810 -0.015190 
#    y -0.012810 1.665640 -0.009620 
#    z -0.015190 -0.009620 1.745340 
# 
# From -- ./inp_files/164259.got.cif
#   From: 2010.06.25/outbox.cif.g09.slc.cpg/sg2_83_cif.got.tgz:164259.got - 2010.06.27 13:26:56.
