data_PCOD8032626
_publ_section_title
;
Structure prediction by ZEFSAII (Michael W. Deem and Ramdas Pophale) SiO2 
 PCOD8032626
Probable space group: P -1
;
_chemical_formula_sum "Si O2"
_cell_formula_units_Z 16
_cell_length_a 17.974377
_cell_length_b 5.638461
_cell_length_c 10.939573
_cell_angle_alpha 118.410907
_cell_angle_beta 45.890988
_cell_angle_gamma 93.012252
_cell_volume 628.365010
_symmetry_space_group_name_H-M "P -1"
_symmetry_group_IT_number 2
_symmetry_cell_setting 'triclinic'
loop_
_space_group_symop_operation_xyz
x,y,z
-x,-y,-z
loop_
_atom_site_type_symbol
_atom_site_label
_atom_site_fract_x
_atom_site_fract_y
_atom_site_fract_z
Si Si1 0.144884 0.711198 0.955647
Si Si2 0.894302 0.015604 0.297439
Si Si3 0.721896 0.694277 0.087878
Si Si4 0.170754 0.293946 0.487425
Si Si5 0.871595 0.742692 0.733457
Si Si6 0.303192 0.769098 0.607593
Si Si7 0.529442 0.580831 0.171516
Si Si8 0.418001 0.956165 0.177337
O O1 0.125807 0.018165 0.116696
O O2 0.182513 0.467667 0.958262
O O3 0.241345 0.598764 0.711255
O O4 0.022599 0.779552 0.046414
O O5 0.891955 0.347489 0.383737
O O6 0.790577 0.019073 0.333871
O O7 0.888177 0.863097 0.396930
O O8 0.619471 0.592443 0.170434
O O9 0.664912 0.039608 0.281768
O O10 0.788538 0.619157 0.863570
O O11 0.186151 0.121782 0.297735
O O12 0.293896 0.241595 0.389662
O O13 0.000000 0.500000 0.500000
O O14 0.425172 0.537921 0.349989
O O15 0.468652 0.894603 0.242095
O O16 0.596531 0.329788 0.931141
O O17 0.500000 0.000000 0.000000
#
# Coordination Sequence:
#
# PCOD8032626 Si02
#       8
#     2   2   2   2   2   2   2   2
#     4  11  26  44  71 104 145 198 239 305 365 447
#     4  12  27  47  76 111 147 196 247 303 373 439
#     4  11  26  43  72 103 146 195 248 298 370 436
#     4  12  26  44  78 110 148 191 240 309 377 439
#     4  11  23  43  68 106 146 185 240 299 371 440
#     4  11  26  47  67 103 146 194 252 299 363 435
#     4  11  24  46  70 105 143 190 247 308 365 439
#     4  11  24  41  73 105 145 188 243 305 374 436
#
# _framework density 25.462904999999999
#
# number of rings (size 3 to 8) (size 9 to 14) (size 15 to 20)
#    0.000    0.750    2.500    3.750    8.750    4.000 
#    0.000    0.000    0.000    0.000    0.000    0.000 
#    0.000    0.000    0.000    0.000    0.000    0.000 
#
# Total GULP energy -198284.908065 kJ/mol
# GULP energy per Si atom -12392.806754 kJ/mol
# Density = 2.540495 g / cm^3
# Si number density = 25.462905 Si / 1000 Ang^3
#
#
#
# Elastic Constant Matrix: (Units=GPa)
#
#
# Indices 1 2 3 4 5 6 
#
# 1 100.3856 6.3150 19.4469 5.3328 -0.4440 -5.9480
# 2 6.3150 104.3928 23.5961 -19.0364 3.8772 -17.6969
# 3 19.4469 23.5961 113.5581 -15.2506 -1.6126 -2.7384
# 4 5.3328 -19.0364 -15.2506 35.2824 -8.7276 0.8495
# 5 -0.4440 3.8772 -1.6126 -8.7276 39.8788 -5.6469
# 6 -5.9480 -17.6969 -2.7384 0.8495 -5.6469 36.2764
#
#
#
# Elastic Compliance Matrix: (Units=1/GPa)
#
#
# Indices 1 2 3 4 5 6 
#
# 1 0.010626 -0.000448 -0.002084 -0.002870 -0.000355 0.001378
# 2 -0.000448 0.011947 -0.001456 0.005966 0.000879 0.005642
# 3 -0.002084 -0.001456 0.010050 0.004230 0.001426 -0.000170
# 4 -0.002870 0.005966 0.004230 0.035681 0.007813 0.003140
# 5 -0.000355 0.000879 0.001426 0.007813 0.027400 0.004561
# 6 0.001378 0.005642 -0.000170 0.003140 0.004561 0.031168
#
#
# Mechanical properties :
#
#
# Convention : Reuss Voigt Hill
#
# Bulk Modulus (GPa) = 40.57313 46.33919 43.45616
# Shear Modulus (GPa) = 34.94962 40.21943 37.58452
#
# Velocity S-wave (km/s) = 3.70884 3.97864 3.84611
# Velocity P-wave (km/s) = 5.85743 6.27251 6.06852
#
# Compressibility (1/GPa) = 0.02464686
#
# Stress axis : x y z
#
# Youngs Moduli (GPa) = 94.10884 83.70206 99.50539
#
# Poissons Ratio (x) = 0.03752 0.20735
# Poissons Ratio (y) = 0.04219 0.14488
# Poissons Ratio (z) = 0.19610 0.12187
#
# Static dielectric constant tensor:
#      x y z
#    x 4.830510 0.063860 0.227750 
#    y 0.063860 4.944750 0.319290 
#    z 0.227750 0.319290 5.296690 
# 
# 
# High freq. dielectric constant tensor:
#      x y z
#    x 2.024040 -0.000470 0.002170 
#    y -0.000470 2.011430 -0.005640 
#    z 0.002170 -0.005640 2.024030 
# 
# From -- ./inp_files/411145.got.cif
#   From: 2010.06.25/outbox.cif.g09.slc.cpg/sg2_206_cif.got.tgz:411145.got - 2010.06.27 13:26:56.
