data_PCOD8032116
_publ_section_title
;
Structure prediction by ZEFSAII (Michael W. Deem and Ramdas Pophale) SiO2 
 PCOD8032116
Probable space group: P -1
;
_chemical_formula_sum "Si O2"
_cell_formula_units_Z 16
_cell_length_a 15.742001
_cell_length_b 9.086131
_cell_length_c 8.650563
_cell_angle_alpha 108.809053
_cell_angle_beta 79.888204
_cell_angle_gamma 140.663700
_cell_volume 736.783559
_symmetry_space_group_name_H-M "P -1"
_symmetry_group_IT_number 2
_symmetry_cell_setting 'triclinic'
loop_
_space_group_symop_operation_xyz
x,y,z
-x,-y,-z
loop_
_atom_site_type_symbol
_atom_site_label
_atom_site_fract_x
_atom_site_fract_y
_atom_site_fract_z
Si Si1 0.516396 0.084468 0.853053
Si Si2 0.229351 0.649249 0.658943
Si Si3 0.991367 0.522233 0.828887
Si Si4 0.090323 0.997431 0.893676
Si Si5 0.366560 0.294075 0.567992
Si Si6 0.720236 0.163520 0.617944
Si Si7 0.382956 0.440595 0.952230
Si Si8 0.859312 0.812638 0.399441
O O1 0.601411 0.080247 0.723438
O O2 0.370064 0.912209 0.766444
O O3 0.597307 0.355988 0.932060
O O4 0.500000 0.000000 0.000000
O O5 0.102740 0.576003 0.725156
O O6 0.231487 0.654173 0.472689
O O7 0.211114 0.452852 0.668178
O O8 0.014388 0.731978 0.850540
O O9 0.841406 0.278701 0.731389
O O10 0.000000 0.500000 0.000000
O O11 0.239344 0.190778 0.987247
O O12 0.110608 0.076630 0.739414
O O13 0.000000 0.000000 0.000000
O O14 0.500000 0.500000 0.500000
O O15 0.383948 0.416690 0.760433
O O16 0.241424 0.204999 0.489312
O O17 0.337094 0.071151 0.526176
O O18 0.500000 0.500000 0.000000
O O19 0.000000 0.000000 0.500000
#
# Coordination Sequence:
#
# PCOD8032116 Si02
#       8
#     2   2   2   2   2   2   2   2
#     4  12  24  43  67  97 134 177 222 273 329 394
#     4  12  24  42  66  98 134 175 224 276 332 397
#     4  12  25  43  67  98 133 176 221 275 336 399
#     4  11  23  42  63  92 128 167 215 267 320 389
#     4  11  24  43  65  94 130 170 217 269 324 390
#     4  12  25  44  68  99 134 176 222 277 334 395
#     4  11  24  42  64  93 128 170 215 266 324 386
#     4  11  23  41  64  93 127 169 213 267 325 388
#
# _framework density 21.716013
#
# number of rings (size 3 to 8) (size 9 to 14) (size 15 to 20)
#    0.000    0.500    0.000   10.500    0.000    3.000 
#    0.000    0.000    0.000    0.000    0.000    0.000 
#    0.000    0.000    0.000    0.000    0.000    0.000 
#
# Total GULP energy -198412.840865 kJ/mol
# GULP energy per Si atom -12400.802554 kJ/mol
# Density = 2.166659 g / cm^3
# Si number density = 21.716013 Si / 1000 Ang^3
#
#
#
# Elastic Constant Matrix: (Units=GPa)
#
#
# Indices 1 2 3 4 5 6 
#
# 1 150.0371 49.0591 41.1980 -7.8033 -12.2732 16.1226
# 2 49.0591 111.5788 39.5340 -3.2582 -3.9771 1.7288
# 3 41.1980 39.5340 91.0980 -7.4155 3.0661 0.7517
# 4 -7.8033 -3.2582 -7.4155 46.0437 -1.2357 -2.6481
# 5 -12.2732 -3.9771 3.0661 -1.2357 51.7208 4.3043
# 6 16.1226 1.7288 0.7517 -2.6481 4.3043 60.8795
#
#
#
# Elastic Compliance Matrix: (Units=1/GPa)
#
#
# Indices 1 2 3 4 5 6 
#
# 1 0.008804 -0.002745 -0.002784 0.000775 0.002257 -0.002345
# 2 -0.002745 0.011515 -0.003791 -0.000226 0.000419 0.000407
# 3 -0.002784 -0.003791 0.014060 0.001525 -0.001821 0.000866
# 4 0.000775 -0.000226 0.001525 0.022135 0.000546 0.000707
# 5 0.002257 0.000419 -0.001821 0.000546 0.020189 -0.001991
# 6 -0.002345 0.000407 0.000866 0.000707 -0.001991 0.017196
#
#
# Mechanical properties :
#
#
# Convention : Reuss Voigt Hill
#
# Bulk Modulus (GPa) = 63.54157 68.03290 65.78723
# Shear Modulus (GPa) = 42.45028 46.59031 44.52030
#
# Velocity S-wave (km/s) = 4.42610 4.63691 4.53273
# Velocity P-wave (km/s) = 7.44609 7.75012 7.59963
#
# Compressibility (1/GPa) = 0.01573773
#
# Stress axis : x y z
#
# Youngs Moduli (GPa) = 113.58598 86.84551 71.12504
#
# Poissons Ratio (x) = 0.23841 0.19798
# Poissons Ratio (y) = 0.31182 0.26967
# Poissons Ratio (z) = 0.31618 0.32927
#
# Static dielectric constant tensor:
#      x y z
#    x -4.047190 6.885530 1.066450 
#    y 6.885530 -1.076070 -0.755950 
#    z 1.066450 -0.755950 3.931110 
# 
# 
# High freq. dielectric constant tensor:
#      x y z
#    x 1.881280 0.009430 -0.002170 
#    y 0.009430 1.870880 0.003040 
#    z -0.002170 0.003040 1.850700 
# 
# From -- ./inp_files/206805.got.cif
#   From: 2010.06.25/outbox.cif.g09.slc.cpg/sg2_104_cif.got.tgz:206805.got - 2010.06.27 13:26:56.
