data_PCOD8032490
_publ_section_title
;
Structure prediction by ZEFSAII (Michael W. Deem and Ramdas Pophale) SiO2 
 PCOD8032490
Probable space group: P -1
;
_chemical_formula_sum "Si O2"
_cell_formula_units_Z 16
_cell_length_a 8.830348
_cell_length_b 9.268166
_cell_length_c 12.986871
_cell_angle_alpha 122.797968
_cell_angle_beta 108.003246
_cell_angle_gamma 58.092945
_cell_volume 758.048329
_symmetry_space_group_name_H-M "P -1"
_symmetry_group_IT_number 2
_symmetry_cell_setting 'triclinic'
loop_
_space_group_symop_operation_xyz
x,y,z
-x,-y,-z
loop_
_atom_site_type_symbol
_atom_site_label
_atom_site_fract_x
_atom_site_fract_y
_atom_site_fract_z
Si Si1 0.819686 0.487410 0.976601
Si Si2 0.700285 0.752330 0.246864
Si Si3 0.024434 0.789469 0.428172
Si Si4 0.972454 0.702837 0.605772
Si Si5 0.643723 0.908835 0.754136
Si Si6 0.185275 0.841598 0.021185
Si Si7 0.311563 0.573101 0.758802
Si Si8 0.655957 0.552702 0.742759
O O1 0.711899 0.646366 0.100560
O O2 0.855155 0.275832 0.941804
O O3 0.713682 0.529382 0.864343
O O4 0.000000 0.500000 0.000000
O O5 0.649096 0.642648 0.283729
O O6 0.885873 0.751104 0.314755
O O7 0.552352 0.972526 0.289921
O O8 0.218254 0.627441 0.371194
O O9 0.993949 0.799811 0.546464
O O10 0.000000 0.000000 0.500000
O O11 0.774608 0.813471 0.650458
O O12 0.000000 0.500000 0.500000
O O13 0.114920 0.690035 0.715791
O O14 0.648645 0.748745 0.772920
O O15 0.697735 0.057639 0.877783
O O16 0.310299 0.693561 0.905025
O O17 0.000000 0.000000 0.000000
O O18 0.459543 0.562784 0.703872
#
# Coordination Sequence:
#
# PCOD8032490 Si02
#       8
#     2   2   2   2   2   2   2   2
#     4  11  23  42  74 101 142 176 220 284 342 404
#     4  11  25  47  69 102 137 179 224 279 345 405
#     4  12  29  47  70 100 136 180 237 278 336 401
#     4  12  25  49  70  94 138 186 224 281 337 397
#     4  12  26  44  72 103 138 178 228 279 341 407
#     4  11  23  42  72 106 135 180 224 273 351 409
#     4  11  25  45  72 100 138 178 225 280 341 404
#     4  12  26  46  69 105 138 176 227 285 339 402
#
# _framework density 21.106833000000002
#
# number of rings (size 3 to 8) (size 9 to 14) (size 15 to 20)
#    0.000    0.500    5.000    2.250    5.250    7.000 
#    0.000    0.000    0.000    0.000    0.000    0.000 
#    0.000    0.000    0.000    0.000    0.000    0.000 
#
# Total GULP energy -198407.846494 kJ/mol
# GULP energy per Si atom -12400.490406 kJ/mol
# Density = 2.105879 g / cm^3
# Si number density = 21.106833 Si / 1000 Ang^3
#
#
#
# Elastic Constant Matrix: (Units=GPa)
#
#
# Indices 1 2 3 4 5 6 
#
# 1 122.5088 54.6505 16.8067 10.4353 -18.8131 10.8435
# 2 54.6505 161.1453 33.7273 4.3780 -16.1877 21.4494
# 3 16.8067 33.7273 74.1193 3.3719 -11.2183 12.3202
# 4 10.4353 4.3780 3.3719 38.1138 10.0683 1.0250
# 5 -18.8131 -16.1877 -11.2183 10.0683 30.1659 2.4333
# 6 10.8435 21.4494 12.3202 1.0250 2.4333 48.3685
#
#
#
# Elastic Compliance Matrix: (Units=1/GPa)
#
#
# Indices 1 2 3 4 5 6 
#
# 1 0.010963 -0.002730 0.000308 -0.004557 0.007136 -0.001588
# 2 -0.002730 0.008190 -0.002333 -0.000499 0.002195 -0.002525
# 3 0.000308 -0.002333 0.016099 -0.002767 0.006124 -0.003384
# 4 -0.004557 -0.000499 -0.002767 0.031661 -0.014869 0.002025
# 5 0.007136 0.002195 0.006124 -0.014869 0.046515 -0.006158
# 6 -0.001588 -0.002525 -0.003384 0.002025 -0.006158 0.023279
#
#
# Mechanical properties :
#
#
# Convention : Reuss Voigt Hill
#
# Bulk Modulus (GPa) = 38.84919 63.12693 50.98806
# Shear Modulus (GPa) = 32.30014 40.16888 36.23451
#
# Velocity S-wave (km/s) = 3.91617 4.36721 4.14783
# Velocity P-wave (km/s) = 6.23654 7.44334 6.86650
#
# Compressibility (1/GPa) = 0.02574056
#
# Stress axis : x y z
#
# Youngs Moduli (GPa) = 91.21595 122.09976 62.11612
#
# Poissons Ratio (x) = 0.33339 -0.01912
# Poissons Ratio (y) = 0.24906 0.14492
# Poissons Ratio (z) = -0.02808 0.28486
#
# Static dielectric constant tensor:
#      x y z
#    x 10.239730 -0.142990 3.835680 
#    y -0.142990 3.938240 -0.190370 
#    z 3.835680 -0.190370 6.061110 
# 
# 
# High freq. dielectric constant tensor:
#      x y z
#    x 1.839540 0.004330 -0.001830 
#    y 0.004330 1.842270 0.000240 
#    z -0.001830 0.000240 1.832720 
# 
# From -- ./inp_files/186167.got.cif
#   From: 2010.06.25/outbox.cif.g09.slc.cpg/sg2_94_cif.got.tgz:186167.got - 2010.06.27 13:26:56.
