data_PCOD8032105
_publ_section_title
;
Structure prediction by ZEFSAII (Michael W. Deem and Ramdas Pophale) SiO2 
 PCOD8032105
Probable space group: P -1
;
_chemical_formula_sum "Si O2"
_cell_formula_units_Z 12
_cell_length_a 14.279265
_cell_length_b 4.934123
_cell_length_c 18.809463
_cell_angle_alpha 98.294417
_cell_angle_beta 154.577845
_cell_angle_gamma 80.133169
_cell_volume 560.314065
_symmetry_space_group_name_H-M "P -1"
_symmetry_group_IT_number 2
_symmetry_cell_setting 'triclinic'
loop_
_space_group_symop_operation_xyz
x,y,z
-x,-y,-z
loop_
_atom_site_type_symbol
_atom_site_label
_atom_site_fract_x
_atom_site_fract_y
_atom_site_fract_z
Si Si1 0.476046 0.323894 0.773573
Si Si2 0.252543 0.907789 0.179564
Si Si3 0.847081 0.075868 0.234713
Si Si4 0.862140 0.457986 0.561729
Si Si5 0.536370 0.564645 0.608747
Si Si6 0.486538 0.133647 0.105976
O O1 0.648829 0.168653 0.832688
O O2 0.252374 0.444441 0.586823
O O3 0.582936 0.581689 0.890587
O O4 0.417809 0.107079 0.784695
O O5 0.389324 0.133433 0.318547
O O6 0.727537 0.353329 0.764495
O O7 0.000000 0.000000 0.000000
O O8 0.671975 0.184262 0.177827
O O9 0.955950 0.336810 0.288419
O O10 0.027595 0.851694 0.383554
O O11 0.733107 0.945929 0.084792
O O12 0.690132 0.468178 0.507980
O O13 0.500000 0.500000 0.500000
#
# Coordination Sequence:
#
# PCOD8032105 Si02
#       6
#     2   2   2   2   2   2
#     4  11  23  41  63  91 125 161 203 254 306 362
#     4  11  24  43  65  93 126 160 204 254 305 365
#     4  11  24  41  62  91 125 162 207 254 302 362
#     4  11  23  41  63  91 125 161 203 254 306 362
#     4  11  24  43  65  93 126 160 204 254 305 365
#     4  11  24  41  62  91 125 162 207 254 302 362
#
# _framework density 21.416558999999999
#
# number of rings (size 3 to 8) (size 9 to 14) (size 15 to 20)
#    0.000    1.000    0.000    8.000    0.000   10.667 
#    0.000    0.000    0.000    0.000    0.000    0.000 
#    0.000    0.000    0.000    0.000    0.000    0.000 
#
# Total GULP energy -148890.924032 kJ/mol
# GULP energy per Si atom -12407.577003 kJ/mol
# Density = 2.136781 g / cm^3
# Si number density = 21.416559 Si / 1000 Ang^3
#
#
#
# Elastic Constant Matrix: (Units=GPa)
#
#
# Indices 1 2 3 4 5 6 
#
# 1 78.5714 19.3850 33.6496 14.6503 -17.9058 -9.3679
# 2 19.3850 94.5835 -1.0364 9.8728 -5.7805 -8.4171
# 3 33.6496 -1.0364 71.4659 -0.2019 2.9607 -9.7498
# 4 14.6503 9.8728 -0.2019 45.0115 -2.5417 -3.1429
# 5 -17.9058 -5.7805 2.9607 -2.5417 22.6751 9.5003
# 6 -9.3679 -8.4171 -9.7498 -3.1429 9.5003 35.2290
#
#
#
# Elastic Compliance Matrix: (Units=1/GPa)
#
#
# Indices 1 2 3 4 5 6 
#
# 1 0.024922 -0.003645 -0.013288 -0.006455 0.021570 -0.004314
# 2 -0.003645 0.011628 0.002319 -0.001247 -0.001507 0.002746
# 3 -0.013288 0.002319 0.021977 0.003568 -0.015563 0.007618
# 4 -0.006455 -0.001247 0.003568 0.024535 -0.004079 0.002262
# 5 0.021570 -0.001507 -0.015563 -0.004079 0.069931 -0.018154
# 6 -0.004314 0.002746 0.007618 0.002262 -0.018154 0.035100
#
#
# Mechanical properties :
#
#
# Convention : Reuss Voigt Hill
#
# Bulk Modulus (GPa) = 34.13257 38.73527 36.43392
# Shear Modulus (GPa) = 22.01797 33.42464 27.72131
#
# Velocity S-wave (km/s) = 3.20985 3.95484 3.60166
# Velocity P-wave (km/s) = 5.45065 6.24342 5.86045
#
# Compressibility (1/GPa) = 0.02929753
#
# Stress axis : x y z
#
# Youngs Moduli (GPa) = 40.12489 86.00259 45.50220
#
# Poissons Ratio (x) = 0.31351 0.60462
# Poissons Ratio (y) = 0.14627 -0.10550
# Poissons Ratio (z) = 0.53317 -0.19940
#
# Static dielectric constant tensor:
#      x y z
#    x 3.856130 0.075690 -0.120400 
#    y 0.075690 4.139010 -0.012560 
#    z -0.120400 -0.012560 3.861420 
# 
# 
# High freq. dielectric constant tensor:
#      x y z
#    x 1.840480 0.002510 -0.006660 
#    y 0.002510 1.863610 0.001080 
#    z -0.006660 0.001080 1.844330 
# 
# From -- ./inp_files/596740.got.cif
#   From: 2010.06.25/outbox.cif.g09.slc.cpg/sg2_299_cif.got.tgz:596740.got - 2010.06.27 13:26:56.
