data_PCOD8032511
_publ_section_title
;
Structure prediction by ZEFSAII (Michael W. Deem and Ramdas Pophale) SiO2 
 PCOD8032511
Probable space group: P -1
;
_chemical_formula_sum "Si O2"
_cell_formula_units_Z 16
_cell_length_a 17.839758
_cell_length_b 12.251044
_cell_length_c 9.126097
_cell_angle_alpha 129.947911
_cell_angle_beta 47.879499
_cell_angle_gamma 147.775518
_cell_volume 774.690793
_symmetry_space_group_name_H-M "P -1"
_symmetry_group_IT_number 2
_symmetry_cell_setting 'triclinic'
loop_
_space_group_symop_operation_xyz
x,y,z
-x,-y,-z
loop_
_atom_site_type_symbol
_atom_site_label
_atom_site_fract_x
_atom_site_fract_y
_atom_site_fract_z
Si Si1 0.848770 0.263604 0.465940
Si Si2 0.368062 0.610195 0.581548
Si Si3 0.653467 0.878211 0.892926
Si Si4 0.866105 0.949483 0.202803
Si Si5 0.549164 0.562023 0.154374
Si Si6 0.149582 0.144995 0.515150
Si Si7 0.396988 0.009877 0.213659
Si Si8 0.343094 0.868065 0.666582
O O1 0.788786 0.256594 0.383470
O O2 0.000000 0.500000 0.500000
O O3 0.888232 0.138521 0.307104
O O4 0.720129 0.171015 0.671630
O O5 0.457841 0.609643 0.348998
O O6 0.227006 0.379234 0.628255
O O7 0.491515 0.758256 0.670831
O O8 0.310664 0.702102 0.673196
O O9 0.496968 0.633761 0.875128
O O10 0.770983 0.872835 0.724595
O O11 0.694701 0.014991 0.817196
O O12 0.657475 0.981043 0.119606
O O13 0.720319 0.753829 0.136179
O O14 0.858223 0.920675 0.364353
O O15 0.000000 0.000000 0.000000
O O16 0.500000 0.500000 0.000000
O O17 0.000000 0.000000 0.500000
O O18 0.500000 0.000000 0.000000
O O19 0.500000 0.000000 0.500000
#
# Coordination Sequence:
#
# PCOD8032511 Si02
#       8
#     2   2   2   2   2   2   2   2
#     4  12  28  46  69 102 148 184 229 294 359 411
#     4  11  23  42  75 100 137 179 235 287 340 418
#     4  11  23  42  75  98 138 179 231 287 345 413
#     4  12  27  47  69 100 143 182 234 288 352 424
#     4  11  23  42  73 104 134 181 236 284 349 412
#     4  11  27  46  70 101 142 183 235 287 351 413
#     4  12  22  45  71 105 135 184 236 288 348 419
#     4  12  23  44  71 107 138 178 233 288 345 428
#
# _framework density 20.653402
#
# number of rings (size 3 to 8) (size 9 to 14) (size 15 to 20)
#    0.000    0.500    5.000    2.250    7.000    5.000 
#    0.000    1.250    0.000    0.000    0.000    0.000 
#    0.000    0.000    0.000    0.000    0.000    0.000 
#
# Total GULP energy -198236.153765 kJ/mol
# GULP energy per Si atom -12389.759610 kJ/mol
# Density = 2.060639 g / cm^3
# Si number density = 20.653402 Si / 1000 Ang^3
#
#
#
# Elastic Constant Matrix: (Units=GPa)
#
#
# Indices 1 2 3 4 5 6 
#
# 1 114.6167 56.9772 32.3722 6.2758 8.1559 13.7215
# 2 56.9772 143.2753 54.3902 9.6869 -1.6473 23.7708
# 3 32.3722 54.3902 143.8851 6.7618 -6.5367 9.9853
# 4 6.2758 9.6869 6.7618 28.9703 1.7864 3.3139
# 5 8.1559 -1.6473 -6.5367 1.7864 40.0686 9.3383
# 6 13.7215 23.7708 9.9853 3.3139 9.3383 38.8690
#
#
#
# Elastic Compliance Matrix: (Units=1/GPa)
#
#
# Indices 1 2 3 4 5 6 
#
# 1 0.011283 -0.003955 -0.001080 -0.000645 -0.002457 -0.000641
# 2 -0.003955 0.010431 -0.002564 -0.001621 0.001974 -0.004661
# 3 -0.001080 -0.002564 0.008313 -0.000892 0.001627 -0.000501
# 4 -0.000645 -0.001621 -0.000892 0.035637 -0.001376 -0.001259
# 5 -0.002457 0.001974 0.001627 -0.001376 0.027558 -0.007261
# 6 -0.000641 -0.004661 -0.000501 -0.001259 -0.007261 0.030785
#
#
# Mechanical properties :
#
#
# Convention : Reuss Voigt Hill
#
# Bulk Modulus (GPa) = 67.43827 76.58404 72.01115
# Shear Modulus (GPa) = 34.68659 38.78408 36.73534
#
# Velocity S-wave (km/s) = 4.10257 4.33812 4.22199
# Velocity P-wave (km/s) = 7.42729 7.89009 7.66219
#
# Compressibility (1/GPa) = 0.01482838
#
# Stress axis : x y z
#
# Youngs Moduli (GPa) = 88.62969 95.86528 120.29552
#
# Poissons Ratio (x) = 0.37916 0.12995
# Poissons Ratio (y) = 0.35054 0.30844
# Poissons Ratio (z) = 0.09574 0.24580
#
# Static dielectric constant tensor:
#      x y z
#    x 3.943580 -0.158370 0.153170 
#    y -0.158370 3.865310 -0.052480 
#    z 0.153170 -0.052480 3.935960 
# 
# 
# High freq. dielectric constant tensor:
#      x y z
#    x 1.819940 -0.006680 0.000550 
#    y -0.006680 1.809170 0.008280 
#    z 0.000550 0.008280 1.825010 
# 
# From -- ./inp_files/187618.got.cif
#   From: 2010.06.25/outbox.cif.g09.slc.cpg/sg2_94_cif.got.tgz:187618.got - 2010.06.27 13:26:56.
