data_PCOD8032698
_publ_section_title
;
Structure prediction by ZEFSAII (Michael W. Deem and Ramdas Pophale) SiO2 
 PCOD8032698
Probable space group: P -1
;
_chemical_formula_sum "Si O2"
_cell_formula_units_Z 16
_cell_length_a 12.010871
_cell_length_b 12.617458
_cell_length_c 13.062245
_cell_angle_alpha 123.274635
_cell_angle_beta 140.275924
_cell_angle_gamma 88.639657
_cell_volume 705.144240
_symmetry_space_group_name_H-M "P -1"
_symmetry_group_IT_number 2
_symmetry_cell_setting 'triclinic'
loop_
_space_group_symop_operation_xyz
x,y,z
-x,-y,-z
loop_
_atom_site_type_symbol
_atom_site_label
_atom_site_fract_x
_atom_site_fract_y
_atom_site_fract_z
Si Si1 0.325952 0.271241 0.973735
Si Si2 0.494952 0.005109 0.703624
Si Si3 0.276875 0.657701 0.835313
Si Si4 0.923678 0.419122 0.789006
Si Si5 0.367393 0.557326 0.047575
Si Si6 0.838115 0.965769 0.598783
Si Si7 0.918452 0.085739 0.940349
Si Si8 0.351796 0.505277 0.477460
O O1 0.480606 0.239742 0.014428
O O2 0.307198 0.378228 0.937638
O O3 0.473901 0.385816 0.242439
O O4 0.037034 0.067683 0.697396
O O5 0.629222 0.969476 0.709439
O O6 0.226688 0.796190 0.442208
O O7 0.410314 0.078886 0.616999
O O8 0.679602 0.171266 0.008456
O O9 0.000000 0.500000 0.500000
O O10 0.280893 0.549810 0.867755
O O11 0.728832 0.408959 0.588711
O O12 0.000000 0.500000 0.000000
O O13 0.201923 0.558206 0.005401
O O14 0.682744 0.748359 0.388794
O O15 0.973010 0.094062 0.863266
O O16 0.090406 0.293010 0.215171
O O17 0.000000 0.000000 0.000000
O O18 0.500000 0.500000 0.500000
#
# Coordination Sequence:
#
# PCOD8032698 Si02
#       8
#     2   2   2   2   2   2   2   2
#     4  12  24  47  71 102 142 185 241 289 358 428
#     4  11  24  43  70 101 140 184 238 283 357 424
#     4  11  26  50  72 100 142 191 238 299 351 424
#     4  12  23  43  71 104 143 183 233 293 358 424
#     4  11  24  45  71 102 136 184 239 291 357 420
#     4  11  23  43  70 103 139 184 231 292 360 419
#     4  12  23  41  68 102 141 178 236 295 357 426
#     4  12  23  40  66 101 141 179 231 296 356 416
#
# _framework density 22.690391999999999
#
# number of rings (size 3 to 8) (size 9 to 14) (size 15 to 20)
#    0.000    0.500    2.500    7.500    0.000    2.000 
#    2.250    1.250    0.000    0.000    0.000    0.000 
#    0.000    0.000    0.000    0.000    0.000    0.000 
#
# Total GULP energy -198310.855171 kJ/mol
# GULP energy per Si atom -12394.428448 kJ/mol
# Density = 2.263875 g / cm^3
# Si number density = 22.690392 Si / 1000 Ang^3
#
#
#
# Elastic Constant Matrix: (Units=GPa)
#
#
# Indices 1 2 3 4 5 6 
#
# 1 137.1572 33.9274 28.1088 4.4506 21.4786 14.1515
# 2 33.9274 76.9287 42.2694 12.3539 0.3786 11.0822
# 3 28.1088 42.2694 113.5230 13.1330 -1.9017 12.9142
# 4 4.4506 12.3539 13.1330 44.3061 4.4938 3.5227
# 5 21.4786 0.3786 -1.9017 4.4938 45.1772 0.6073
# 6 14.1515 11.0822 12.9142 3.5227 0.6073 31.2003
#
#
#
# Elastic Compliance Matrix: (Units=1/GPa)
#
#
# Indices 1 2 3 4 5 6 
#
# 1 0.009243 -0.003307 -0.000939 0.000935 -0.004464 -0.002648
# 2 -0.003307 0.018218 -0.005296 -0.003139 0.001542 -0.002454
# 3 -0.000939 -0.005296 0.011497 -0.001776 0.001182 -0.002274
# 4 0.000935 -0.003139 -0.001776 0.024271 -0.002890 -0.001258
# 5 -0.004464 0.001542 0.001182 -0.002890 0.024570 0.000836
# 6 -0.002648 -0.002454 -0.002274 -0.001258 0.000836 0.035191
#
#
# Mechanical properties :
#
#
# Convention : Reuss Voigt Hill
#
# Bulk Modulus (GPa) = 50.31893 59.58001 54.94947
# Shear Modulus (GPa) = 33.62470 39.02360 36.32415
#
# Velocity S-wave (km/s) = 3.85371 4.15158 4.00542
# Velocity P-wave (km/s) = 6.48274 7.02109 6.75728
#
# Compressibility (1/GPa) = 0.01987324
#
# Stress axis : x y z
#
# Youngs Moduli (GPa) = 108.18616 54.89154 86.97744
#
# Poissons Ratio (x) = 0.18155 0.08167
# Poissons Ratio (y) = 0.35781 0.46065
# Poissons Ratio (z) = 0.10158 0.29071
#
# Static dielectric constant tensor:
#      x y z
#    x 3.884620 0.293550 0.567740 
#    y 0.293550 4.054230 -0.112870 
#    z 0.567740 -0.112870 3.521560 
# 
# 
# High freq. dielectric constant tensor:
#      x y z
#    x 1.901850 0.005120 0.010500 
#    y 0.005120 1.894460 0.007360 
#    z 0.010500 0.007360 1.907240 
# 
# From -- ./inp_files/428592.got.cif
#   From: 2010.06.25/outbox.cif.g09.slc.cpg/sg2_215_cif.got.tgz:428592.got - 2010.06.27 13:26:56.
