data_PCOD8032487
_publ_section_title
;
Structure prediction by ZEFSAII (Michael W. Deem and Ramdas Pophale) SiO2 
 PCOD8032487
Probable space group: P -1
;
_chemical_formula_sum "Si O2"
_cell_formula_units_Z 16
_cell_length_a 9.196673
_cell_length_b 16.885395
_cell_length_c 11.596611
_cell_angle_alpha 149.067757
_cell_angle_beta 51.550902
_cell_angle_gamma 125.849731
_cell_volume 718.809685
_symmetry_space_group_name_H-M "P -1"
_symmetry_group_IT_number 2
_symmetry_cell_setting 'triclinic'
loop_
_space_group_symop_operation_xyz
x,y,z
-x,-y,-z
loop_
_atom_site_type_symbol
_atom_site_label
_atom_site_fract_x
_atom_site_fract_y
_atom_site_fract_z
Si Si1 0.480974 0.244310 0.078928
Si Si2 0.383173 0.634572 0.254649
Si Si3 0.839412 0.316767 0.130878
Si Si4 0.362584 0.544997 0.406010
Si Si5 0.726434 0.737720 0.572515
Si Si6 0.594422 0.965958 0.525866
Si Si7 0.979401 0.005746 0.653065
Si Si8 0.036714 0.541160 0.166980
O O1 0.663477 0.338469 0.163218
O O2 0.393714 0.363321 0.183096
O O3 0.339611 0.186700 0.182098
O O4 0.547422 0.093592 0.800083
O O5 0.296983 0.583390 0.357854
O O6 0.515599 0.797440 0.403615
O O7 0.232430 0.643213 0.234627
O O8 0.500000 0.500000 0.000000
O O9 0.810921 0.410632 0.378392
O O10 0.026758 0.384118 0.051800
O O11 0.866796 0.140616 0.924872
O O12 0.552836 0.656512 0.482608
O O13 0.862590 0.617880 0.397837
O O14 0.854984 0.853215 0.569960
O O15 0.807569 0.978110 0.391467
O O16 0.500000 0.000000 0.500000
O O17 0.000000 0.000000 0.500000
O O18 0.000000 0.500000 0.000000
#
# Coordination Sequence:
#
# PCOD8032487 Si02
#       8
#     2   2   2   2   2   2   2   2
#     4  11  23  46  71 101 143 186 234 282 355 418
#     4  12  27  45  70 105 142 183 229 291 356 412
#     4  11  23  42  72 103 141 183 233 294 342 411
#     4  11  23  45  71 105 141 184 234 288 355 407
#     4  11  23  42  72 103 137 190 238 279 345 422
#     4  12  27  47  69 101 144 189 224 289 358 414
#     4  12  24  42  67 105 140 180 241 292 340 411
#     4  12  24  44  73 102 134 182 242 283 338 425
#
# _framework density 22.259021000000001
#
# number of rings (size 3 to 8) (size 9 to 14) (size 15 to 20)
#    0.000    0.500    3.750    5.250    3.500    1.500 
#    2.250    1.250    0.000    0.000    0.000    0.000 
#    0.000    0.000    0.000    0.000    0.000    0.000 
#
# Total GULP energy -198292.317332 kJ/mol
# GULP energy per Si atom -12393.269833 kJ/mol
# Density = 2.220836 g / cm^3
# Si number density = 22.259021 Si / 1000 Ang^3
#
#
#
# Elastic Constant Matrix: (Units=GPa)
#
#
# Indices 1 2 3 4 5 6 
#
# 1 96.7371 26.9419 18.6551 -8.3920 1.0194 -0.2576
# 2 26.9419 147.9201 38.9924 -1.5903 9.5160 -5.5990
# 3 18.6551 38.9924 122.5139 -6.2826 -7.8473 -4.6823
# 4 -8.3920 -1.5903 -6.2826 34.7990 -0.4149 -1.7691
# 5 1.0194 9.5160 -7.8473 -0.4149 30.6035 -4.3597
# 6 -0.2576 -5.5990 -4.6823 -1.7691 -4.3597 35.9632
#
#
#
# Elastic Compliance Matrix: (Units=1/GPa)
#
#
# Indices 1 2 3 4 5 6 
#
# 1 0.011237 -0.001747 -0.001045 0.002429 -0.000097 -0.000220
# 2 -0.001747 0.007931 -0.002455 -0.000511 -0.002971 0.000517
# 3 -0.001045 -0.002455 0.009448 0.001450 0.003429 0.001327
# 4 0.002429 -0.000511 0.001450 0.029661 0.001097 0.001719
# 5 -0.000097 -0.002971 0.003429 0.001097 0.035109 0.004293
# 6 -0.000220 0.000517 0.001327 0.001719 0.004293 0.028663
#
#
# Mechanical properties :
#
#
# Convention : Reuss Voigt Hill
#
# Bulk Modulus (GPa) = 55.18440 59.59443 57.38941
# Shear Modulus (GPa) = 36.07971 39.11194 37.59583
#
# Velocity S-wave (km/s) = 4.03041 4.19636 4.11422
# Velocity P-wave (km/s) = 6.81944 7.09299 6.95756
#
# Compressibility (1/GPa) = 0.01812106
#
# Stress axis : x y z
#
# Youngs Moduli (GPa) = 88.99532 126.08879 105.84801
#
# Poissons Ratio (x) = 0.22029 0.11061
# Poissons Ratio (y) = 0.15548 0.25984
# Poissons Ratio (z) = 0.09300 0.30953
#
# Static dielectric constant tensor:
#      x y z
#    x 11.334460 -0.731940 1.665740 
#    y -0.731940 3.903150 -0.259890 
#    z 1.665740 -0.259890 4.332800 
# 
# 
# High freq. dielectric constant tensor:
#      x y z
#    x 1.873180 -0.006140 -0.009300 
#    y -0.006140 1.888460 -0.005480 
#    z -0.009300 -0.005480 1.884030 
# 
# From -- ./inp_files/226121.got.cif
#   From: 2010.06.25/outbox.cif.g09.slc.cpg/sg2_114_cif.got.tgz:226121.got - 2010.06.27 13:26:56.
