data_PCOD8032456
_publ_section_title
;
Structure prediction by ZEFSAII (Michael W. Deem and Ramdas Pophale) SiO2 
 PCOD8032456
Probable space group: P -1
;
_chemical_formula_sum "Si O2"
_cell_formula_units_Z 16
_cell_length_a 11.168158
_cell_length_b 12.057290
_cell_length_c 8.915136
_cell_angle_alpha 60.225116
_cell_angle_beta 51.082805
_cell_angle_gamma 53.524176
_cell_volume 736.383576
_symmetry_space_group_name_H-M "P -1"
_symmetry_group_IT_number 2
_symmetry_cell_setting 'triclinic'
loop_
_space_group_symop_operation_xyz
x,y,z
-x,-y,-z
loop_
_atom_site_type_symbol
_atom_site_label
_atom_site_fract_x
_atom_site_fract_y
_atom_site_fract_z
Si Si1 0.985997 0.364474 0.544657
Si Si2 0.576255 0.839866 0.005573
Si Si3 0.036373 0.353647 0.158395
Si Si4 0.418067 0.872688 0.795655
Si Si5 0.316967 0.623670 0.038911
Si Si6 0.708316 0.819624 0.376544
Si Si7 0.274971 0.614526 0.748886
Si Si8 0.573749 0.665465 0.371610
O O1 0.802933 0.372447 0.730710
O O2 0.000000 0.500000 0.500000
O O3 0.000504 0.365841 0.355031
O O4 0.134467 0.232565 0.597750
O O5 0.774485 0.760238 0.939642
O O6 0.540248 0.815007 0.880754
O O7 0.483739 0.774152 0.234984
O O8 0.500000 0.000000 0.000000
O O9 0.913818 0.286473 0.227691
O O10 0.000000 0.500000 0.000000
O O11 0.532129 0.854988 0.573600
O O12 0.295239 0.039285 0.795196
O O13 0.312764 0.778831 0.925057
O O14 0.500000 0.500000 0.000000
O O15 0.251856 0.582830 0.962213
O O16 0.710817 0.704408 0.328972
O O17 0.416838 0.675318 0.591924
O O18 0.325228 0.484395 0.682792
#
# Coordination Sequence:
#
# PCOD8032456 Si02
#       8
#     2   2   2   2   2   2   2   2
#     4  12  27  43  72 106 140 187 237 298 356 420
#     4  12  25  44  73 102 140 187 235 287 357 427
#     4  12  26  46  68 106 141 182 238 295 355 427
#     4  11  24  45  72 100 140 190 233 289 353 424
#     4  12  27  43  71 105 145 182 239 294 353 422
#     4  11  23  47  72  99 140 186 241 285 351 431
#     4  11  25  42  68 102 140 180 231 295 351 412
#     4  11  23  42  71 100 138 182 233 286 356 412
#
# _framework density 21.727806000000001
#
# number of rings (size 3 to 8) (size 9 to 14) (size 15 to 20)
#    0.000    0.500    5.000    3.000    7.000    0.500 
#    0.000    0.625    0.000    0.000    0.000    0.000 
#    0.000    0.000    0.000    0.000    0.000    0.000 
#
# Total GULP energy -198317.508355 kJ/mol
# GULP energy per Si atom -12394.844272 kJ/mol
# Density = 2.167835 g / cm^3
# Si number density = 21.727806 Si / 1000 Ang^3
#
#
#
# Elastic Constant Matrix: (Units=GPa)
#
#
# Indices 1 2 3 4 5 6 
#
# 1 134.9305 48.0209 42.4482 -1.7782 14.5022 -13.0220
# 2 48.0209 104.8024 43.5072 -8.1553 -5.9622 -11.0620
# 3 42.4482 43.5072 128.0024 -3.7195 4.9945 -4.0747
# 4 -1.7782 -8.1553 -3.7195 32.0110 0.5851 3.4307
# 5 14.5022 -5.9622 4.9945 0.5851 43.2976 -1.5188
# 6 -13.0220 -11.0620 -4.0747 3.4307 -1.5188 37.4009
#
#
#
# Elastic Compliance Matrix: (Units=1/GPa)
#
#
# Indices 1 2 3 4 5 6 
#
# 1 0.009915 -0.003844 -0.001801 -0.000792 -0.003560 0.002047
# 2 -0.003844 0.013266 -0.003231 0.002496 0.003529 0.002148
# 3 -0.001801 -0.003231 0.009534 0.000267 -0.000967 -0.000608
# 4 -0.000792 0.002496 0.000267 0.032124 0.000058 -0.002453
# 5 -0.003560 0.003529 -0.000967 0.000058 0.024910 0.000705
# 6 0.002047 0.002148 -0.000608 -0.002453 0.000705 0.028273
#
#
# Mechanical properties :
#
#
# Convention : Reuss Voigt Hill
#
# Bulk Modulus (GPa) = 66.82627 70.63199 68.72913
# Shear Modulus (GPa) = 35.52113 38.12583 36.82348
#
# Velocity S-wave (km/s) = 4.04768 4.19346 4.12122
# Velocity P-wave (km/s) = 7.25726 7.48499 7.37200
#
# Compressibility (1/GPa) = 0.01496418
#
# Stress axis : x y z
#
# Youngs Moduli (GPa) = 100.85228 75.38022 104.88956
#
# Poissons Ratio (x) = 0.28976 0.18886
# Poissons Ratio (y) = 0.38767 0.33891
# Poissons Ratio (z) = 0.18159 0.24356
#
# Static dielectric constant tensor:
#      x y z
#    x 4.919320 -0.172210 0.003080 
#    y -0.172210 3.936700 -0.074050 
#    z 0.003080 -0.074050 4.310460 
# 
# 
# High freq. dielectric constant tensor:
#      x y z
#    x 1.862380 -0.000570 0.015270 
#    y -0.000570 1.840060 0.001510 
#    z 0.015270 0.001510 1.871430 
# 
# From -- ./inp_files/261952.got.cif
#   From: 2010.06.25/outbox.cif.g09.slc.cpg/sg2_131_cif.got.tgz:261952.got - 2010.06.27 13:26:56.
