data_PCOD8032122
_publ_section_title
;
Structure prediction by ZEFSAII (Michael W. Deem and Ramdas Pophale) SiO2 
 PCOD8032122
Probable space group: P -1
;
_chemical_formula_sum "Si O2"
_cell_formula_units_Z 16
_cell_length_a 15.068652
_cell_length_b 8.723147
_cell_length_c 15.252829
_cell_angle_alpha 98.257950
_cell_angle_beta 28.224919
_cell_angle_gamma 115.200116
_cell_volume 721.534343
_symmetry_space_group_name_H-M "P -1"
_symmetry_group_IT_number 2
_symmetry_cell_setting 'triclinic'
loop_
_space_group_symop_operation_xyz
x,y,z
-x,-y,-z
loop_
_atom_site_type_symbol
_atom_site_label
_atom_site_fract_x
_atom_site_fract_y
_atom_site_fract_z
Si Si1 0.945506 0.213355 0.764794
Si Si2 0.925969 0.382188 0.348476
Si Si3 0.567056 0.128787 0.789835
Si Si4 0.233306 0.915481 0.695217
Si Si5 0.309540 0.277149 0.569045
Si Si6 0.294690 0.517165 0.188222
Si Si7 0.088695 0.872999 0.408378
Si Si8 0.861050 0.590824 0.125207
O O1 0.847191 0.134016 0.746664
O O2 0.047299 0.439333 0.707769
O O3 0.151727 0.195791 0.610204
O O4 0.706274 0.054242 0.018733
O O5 0.695261 0.264225 0.603746
O O6 0.874314 0.231555 0.305913
O O7 0.169748 0.470375 0.198076
O O8 0.586281 0.261115 0.864051
O O9 0.682157 0.028478 0.717789
O O10 0.500000 0.000000 0.500000
O O11 0.259024 0.106805 0.661842
O O12 0.034656 0.797695 0.936245
O O13 0.590869 0.430824 0.304841
O O14 0.204347 0.374138 0.719240
O O15 0.105773 0.358879 0.412305
O O16 0.500000 0.500000 0.000000
O O17 0.000000 0.000000 0.500000
O O18 0.000000 0.500000 0.000000
#
# Coordination Sequence:
#
# PCOD8032122 Si02
#       8
#     2   2   2   2   2   2   2   2
#     4  12  25  43  70 101 140 184 240 282 356 428
#     4  11  26  45  67 104 140 188 237 292 358 422
#     4  11  24  45  69  98 146 185 234 297 348 419
#     4  12  27  47  77 104 145 187 241 301 367 428
#     4  11  28  45  75 111 137 187 243 292 369 434
#     4  11  23  43  68  98 145 185 235 290 352 420
#     4  11  23  41  65 100 140 186 231 285 347 421
#     4  11  24  52  75 101 144 183 234 308 363 422
#
# _framework density 22.174966999999999
#
# number of rings (size 3 to 8) (size 9 to 14) (size 15 to 20)
#    0.000    0.750    3.750    3.000   10.500    3.000 
#    0.000    0.000    0.000    0.000    0.000    0.000 
#    0.000    0.000    0.000    0.000    0.000    0.000 
#
# Total GULP energy -198388.017290 kJ/mol
# GULP energy per Si atom -12399.251081 kJ/mol
# Density = 2.212450 g / cm^3
# Si number density = 22.174967 Si / 1000 Ang^3
#
#
#
# Elastic Constant Matrix: (Units=GPa)
#
#
# Indices 1 2 3 4 5 6 
#
# 1 98.8464 25.1807 55.1100 -10.4435 -18.3125 -18.0022
# 2 25.1807 97.3720 28.5515 0.0721 -8.6704 -17.1517
# 3 55.1100 28.5515 151.0091 -13.4413 -24.7135 -12.2982
# 4 -10.4435 0.0721 -13.4413 40.6931 -1.0946 4.3865
# 5 -18.3125 -8.6704 -24.7135 -1.0946 32.4819 7.9070
# 6 -18.0022 -17.1517 -12.2982 4.3865 7.9070 41.4515
#
#
#
# Elastic Compliance Matrix: (Units=1/GPa)
#
#
# Indices 1 2 3 4 5 6 
#
# 1 0.014207 -0.001621 -0.003762 0.002146 0.003959 0.003401
# 2 -0.001621 0.011801 -0.001413 -0.001316 0.000176 0.003865
# 3 -0.003762 -0.001413 0.009185 0.002266 0.004721 -0.000634
# 4 0.002146 -0.001316 0.002266 0.026254 0.004075 -0.002496
# 5 0.003959 0.000176 0.004721 0.004075 0.037881 -0.004465
# 6 0.003401 0.003865 -0.000634 -0.002496 -0.004465 0.028129
#
#
# Mechanical properties :
#
#
# Convention : Reuss Voigt Hill
#
# Bulk Modulus (GPa) = 46.29662 62.76799 54.53230
# Shear Modulus (GPa) = 33.72694 38.81765 36.27229
#
# Velocity S-wave (km/s) = 3.90416 4.18846 4.04881
# Velocity P-wave (km/s) = 6.42234 7.19431 6.81926
#
# Compressibility (1/GPa) = 0.02159985
#
# Stress axis : x y z
#
# Youngs Moduli (GPa) = 70.38911 84.73903 108.87276
#
# Poissons Ratio (x) = 0.13734 0.40962
# Poissons Ratio (y) = 0.11408 0.15387
# Poissons Ratio (z) = 0.26483 0.11976
#
# Static dielectric constant tensor:
#      x y z
#    x 3.935520 -0.062870 -0.005920 
#    y -0.062870 4.031130 -0.116210 
#    z -0.005920 -0.116210 4.069390 
# 
# 
# High freq. dielectric constant tensor:
#      x y z
#    x 1.877500 -0.010400 -0.005150 
#    y -0.010400 1.873990 -0.010040 
#    z -0.005150 -0.010040 1.884420 
# 
# From -- ./inp_files/505037.got.cif
#   From: 2010.06.25/outbox.cif.g09.slc.cpg/sg2_253_cif.got.tgz:505037.got - 2010.06.27 13:26:56.
