data_PCOD8032664
_publ_section_title
;
Structure prediction by ZEFSAII (Michael W. Deem and Ramdas Pophale) SiO2 
 PCOD8032664
Probable space group: P -1
;
_chemical_formula_sum "Si O2"
_cell_formula_units_Z 14
_cell_length_a 28.043433
_cell_length_b 22.458829
_cell_length_c 14.148270
_cell_angle_alpha 157.976818
_cell_angle_beta 158.721165
_cell_angle_gamma 11.434776
_cell_volume 629.379035
_symmetry_space_group_name_H-M "P -1"
_symmetry_group_IT_number 2
_symmetry_cell_setting 'triclinic'
loop_
_space_group_symop_operation_xyz
x,y,z
-x,-y,-z
loop_
_atom_site_type_symbol
_atom_site_label
_atom_site_fract_x
_atom_site_fract_y
_atom_site_fract_z
Si Si1 0.740331 0.779356 0.875640
Si Si2 0.062257 0.152559 0.298476
Si Si3 0.371526 0.398431 0.490603
Si Si4 0.774824 0.744742 0.675805
Si Si5 0.082748 0.732112 0.258711
Si Si6 0.961164 0.113645 0.246730
Si Si7 0.549432 0.291312 0.342274
O O1 0.562273 0.840727 0.693636
O O2 0.776539 0.680209 0.691057
O O3 0.000000 0.500000 0.000000
O O4 0.619762 0.078236 0.086666
O O5 0.902634 0.248192 0.233238
O O6 0.976537 0.423155 0.520791
O O7 0.363177 0.816154 0.377147
O O8 0.000786 0.115200 0.034724
O O9 0.164648 0.598347 0.318915
O O10 0.259808 0.627958 0.704389
O O11 0.500000 0.000000 0.500000
O O12 0.861940 0.840072 0.973909
O O13 0.310267 0.478804 0.234017
O O14 0.000000 0.000000 0.500000
O O15 0.220335 0.924484 0.479503
O O16 0.500000 0.500000 0.500000
#
# Coordination Sequence:
#
# PCOD8032664 Si02
#       7
#     2   2   2   2   2   2   2
#     4  12  23  45  76 104 138 195 247 301 364 437
#     4  11  25  43  71 103 146 190 240 301 370 440
#     4  12  23  46  76 104 142 188 259 300 361 452
#     4  12  27  48  72 108 155 189 242 312 379 436
#     4  12  27  46  75 110 143 197 252 310 370 445
#     4  11  23  43  69 107 142 190 237 303 366 435
#     4  12  25  45  72 104 148 190 251 305 368 441
#
# _framework density 22.244147999999999
#
# number of rings (size 3 to 8) (size 9 to 14) (size 15 to 20)
#    0.000    0.286    5.714    3.000    4.000    1.143 
#    5.143    1.429    0.000    0.000    0.000    0.000 
#    0.000    0.000    0.000    0.000    0.000    0.000 
#
# Total GULP energy -173575.396734 kJ/mol
# GULP energy per Si atom -12398.242624 kJ/mol
# Density = 2.219352 g / cm^3
# Si number density = 22.244148 Si / 1000 Ang^3
#
#
#
# Elastic Constant Matrix: (Units=GPa)
#
#
# Indices 1 2 3 4 5 6 
#
# 1 100.4942 36.8489 40.1359 8.6585 -2.2342 -6.9099
# 2 36.8489 120.6797 64.6173 9.9799 -10.4679 -14.5697
# 3 40.1359 64.6173 172.5427 22.1293 -1.9733 -5.4525
# 4 8.6585 9.9799 22.1293 49.0619 4.0682 2.1599
# 5 -2.2342 -10.4679 -1.9733 4.0682 36.0193 4.0206
# 6 -6.9099 -14.5697 -5.4525 2.1599 4.0206 32.3894
#
#
#
# Elastic Compliance Matrix: (Units=1/GPa)
#
#
# Indices 1 2 3 4 5 6 
#
# 1 0.011667 -0.002484 -0.001638 -0.000856 -0.000122 0.001168
# 2 -0.002484 0.011712 -0.003562 -0.000732 0.002707 0.003852
# 3 -0.001638 -0.003562 0.007808 -0.002458 -0.000384 -0.000426
# 4 -0.000856 -0.000732 -0.002458 0.022103 -0.002666 -0.002068
# 5 -0.000122 0.002707 -0.000384 -0.002666 0.029079 -0.002305
# 6 0.001168 0.003852 -0.000426 -0.002068 -0.002305 0.033208
#
#
# Mechanical properties :
#
#
# Convention : Reuss Voigt Hill
#
# Bulk Modulus (GPa) = 63.21472 75.21340 69.21406
# Shear Modulus (GPa) = 36.70514 40.30176 38.50345
#
# Velocity S-wave (km/s) = 4.06655 4.26113 4.16498
# Velocity P-wave (km/s) = 7.10840 7.62206 7.36971
#
# Compressibility (1/GPa) = 0.01581910
#
# Stress axis : x y z
#
# Youngs Moduli (GPa) = 85.70894 85.37893 128.07220
#
# Poissons Ratio (x) = 0.21208 0.20983
# Poissons Ratio (y) = 0.21290 0.45619
# Poissons Ratio (z) = 0.14043 0.30412
#
# Static dielectric constant tensor:
#      x y z
#    x 3.963140 -0.244370 0.005870 
#    y -0.244370 3.733790 0.089300 
#    z 0.005870 0.089300 4.410600 
# 
# 
# High freq. dielectric constant tensor:
#      x y z
#    x 1.873530 -0.016840 -0.002100 
#    y -0.016840 1.867520 0.010560 
#    z -0.002100 0.010560 1.894820 
# 
# From -- ./inp_files/543485.got.cif
#   From: 2010.06.25/outbox.cif.g09.slc.cpg/sg2_272_cif.got.tgz:543485.got - 2010.06.27 13:26:56.
