data_PCOD8032592
_publ_section_title
;
Structure prediction by ZEFSAII (Michael W. Deem and Ramdas Pophale) SiO2 
 PCOD8032592
Probable space group: P -1
;
_chemical_formula_sum "Si O2"
_cell_formula_units_Z 16
_cell_length_a 9.177927
_cell_length_b 8.989217
_cell_length_c 18.112147
_cell_angle_alpha 56.885151
_cell_angle_beta 54.349793
_cell_angle_gamma 94.680147
_cell_volume 822.840277
_symmetry_space_group_name_H-M "P -1"
_symmetry_group_IT_number 2
_symmetry_cell_setting 'triclinic'
loop_
_space_group_symop_operation_xyz
x,y,z
-x,-y,-z
loop_
_atom_site_type_symbol
_atom_site_label
_atom_site_fract_x
_atom_site_fract_y
_atom_site_fract_z
Si Si1 0.625241 0.674143 0.481143
Si Si2 0.213219 0.220946 0.100402
Si Si3 0.079902 0.775545 0.315176
Si Si4 0.768190 0.112425 0.240852
Si Si5 0.341626 0.744926 0.632609
Si Si6 0.638679 0.021773 0.682100
Si Si7 0.027461 0.635094 0.626845
Si Si8 0.337145 0.367047 0.188067
O O1 0.500000 0.500000 0.500000
O O2 0.466815 0.628847 0.610507
O O3 0.834296 0.679599 0.445090
O O4 0.707026 0.909474 0.363896
O O5 0.220827 0.295863 0.161872
O O6 0.024106 0.226047 0.111863
O O7 0.163183 0.980966 0.180714
O O8 0.443785 0.384259 0.946285
O O9 0.244909 0.837248 0.317448
O O10 0.075698 0.591271 0.322935
O O11 0.738756 0.278144 0.252521
O O12 0.604529 0.029146 0.241209
O O13 0.128000 0.623836 0.676301
O O14 0.500000 0.000000 0.500000
O O15 0.784642 0.153795 0.531923
O O16 0.598118 0.789931 0.762149
O O17 0.829329 0.654293 0.696370
#
# Coordination Sequence:
#
# PCOD8032592 Si02
#       8
#     2   2   2   2   2   2   2   2
#     4  10  17  31  51  79 108 141 176 217 268 327
#     4   9  20  40  57  80 105 149 192 224 262 321
#     4  10  22  35  57  82 113 147 179 223 276 329
#     4  10  19  34  57  77 111 140 183 227 267 322
#     4  10  18  30  53  81 111 138 179 223 265 325
#     4  11  22  35  54  85 114 146 173 225 286 326
#     4  12  20  35  57  86 114 140 179 228 280 324
#     4  10  22  36  58  80 111 145 188 228 266 320
#
# _framework density 19.444842000000001
#
# number of rings (size 3 to 8) (size 9 to 14) (size 15 to 20)
#    0.000    1.750    5.000    0.750    1.750    2.000 
#    0.000    0.000    0.000    0.750    0.000    0.000 
#    0.000    0.000    0.000    0.000    0.000    0.000 
#
# Total GULP energy -198344.529445 kJ/mol
# GULP energy per Si atom -12396.533090 kJ/mol
# Density = 1.940058 g / cm^3
# Si number density = 19.444842 Si / 1000 Ang^3
#
#
#
# Elastic Constant Matrix: (Units=GPa)
#
#
# Indices 1 2 3 4 5 6 
#
# 1 125.4395 10.5840 16.4668 1.0192 -20.1649 14.5269
# 2 10.5840 47.6649 2.2642 5.3213 2.6188 5.9158
# 3 16.4668 2.2642 52.8960 -12.7959 -9.7641 -0.8004
# 4 1.0192 5.3213 -12.7959 15.7699 -1.4362 -1.6240
# 5 -20.1649 2.6188 -9.7641 -1.4362 19.1715 0.2821
# 6 14.5269 5.9158 -0.8004 -1.6240 0.2821 22.5543
#
#
#
# Elastic Compliance Matrix: (Units=1/GPa)
#
#
# Indices 1 2 3 4 5 6 
#
# 1 0.010905 -0.001979 -0.001662 -0.001090 0.010912 -0.006779
# 2 -0.001979 0.024579 -0.005711 -0.014297 -0.009327 -0.006288
# 3 -0.001662 -0.005711 0.029483 0.027979 0.016064 0.005429
# 4 -0.001090 -0.014297 0.027979 0.094239 0.021940 0.011956
# 5 0.010912 -0.009327 0.016064 0.021940 0.074787 -0.003368
# 6 -0.006779 -0.006288 0.005429 0.011956 -0.003368 0.051448
#
#
# Mechanical properties :
#
#
# Convention : Reuss Voigt Hill
#
# Bulk Modulus (GPa) = 21.61589 31.62560 26.62075
# Shear Modulus (GPa) = 15.64618 24.61151 20.12885
#
# Velocity S-wave (km/s) = 2.83970 3.56154 3.22091
# Velocity P-wave (km/s) = 4.67895 5.76301 5.24904
#
# Compressibility (1/GPa) = 0.04626226
#
# Stress axis : x y z
#
# Youngs Moduli (GPa) = 91.69920 40.68433 33.91839
#
# Poissons Ratio (x) = 0.08052 0.05637
# Poissons Ratio (y) = 0.18148 0.19372
# Poissons Ratio (z) = 0.15241 0.23236
#
# Static dielectric constant tensor:
#      x y z
#    x 3.657030 -0.023920 -0.145740 
#    y -0.023920 3.728980 0.048100 
#    z -0.145740 0.048100 3.096920 
# 
# 
# High freq. dielectric constant tensor:
#      x y z
#    x 1.761030 0.001600 -0.027210 
#    y 0.001600 1.757420 -0.006800 
#    z -0.027210 -0.006800 1.722080 
# 
# From -- ./inp_files/184081.got.cif
#   From: 2010.06.25/outbox.cif.g09.slc.cpg/sg2_93_cif.got.tgz:184081.got - 2010.06.27 13:26:56.
