data_PCOD8032071
_publ_section_title
;
Structure prediction by ZEFSAII (Michael W. Deem and Ramdas Pophale) SiO2 
 PCOD8032071
Probable space group: P -1
;
_chemical_formula_sum "Si O2"
_cell_formula_units_Z 14
_cell_length_a 8.536861
_cell_length_b 17.345585
_cell_length_c 11.706478
_cell_angle_alpha 32.358196
_cell_angle_beta 41.448346
_cell_angle_gamma 53.680306
_cell_volume 610.028865
_symmetry_space_group_name_H-M "P -1"
_symmetry_group_IT_number 2
_symmetry_cell_setting 'triclinic'
loop_
_space_group_symop_operation_xyz
x,y,z
-x,-y,-z
loop_
_atom_site_type_symbol
_atom_site_label
_atom_site_fract_x
_atom_site_fract_y
_atom_site_fract_z
Si Si1 0.591776 0.586320 0.231074
Si Si2 0.963706 0.260187 0.095778
Si Si3 0.110892 0.881959 0.339551
Si Si4 0.657227 0.970154 0.560704
Si Si5 0.255439 0.801676 0.115544
Si Si6 0.347856 0.670095 0.635113
Si Si7 0.142109 0.204007 0.843252
O O1 0.500000 0.500000 0.500000
O O2 0.362043 0.650119 0.222743
O O3 0.707511 0.480597 0.213234
O O4 0.793714 0.719312 0.987010
O O5 0.774728 0.353980 0.142840
O O6 0.834893 0.097911 0.359437
O O7 0.037695 0.307927 0.865881
O O8 0.153616 0.802640 0.296913
O O9 0.255480 0.807191 0.450681
O O10 0.831964 0.855474 0.562437
O O11 0.197940 0.054357 0.061303
O O12 0.500000 0.000000 0.500000
O O13 0.479317 0.922451 0.820992
O O14 0.049751 0.833273 0.102760
O O15 0.629590 0.708349 0.448618
#
# Coordination Sequence:
#
# PCOD8032071 Si02
#       7
#     2   2   2   2   2   2   2
#     4  12  25  48  67  97 140 188 231 274 325 410
#     4  11  24  45  70  97 137 176 231 281 336 403
#     4  11  23  40  70 100 138 178 225 276 346 400
#     4  11  24  43  69 107 139 166 222 289 349 400
#     4  12  24  44  71 100 145 174 225 285 340 400
#     4  12  25  44  69  99 138 185 232 271 332 408
#     4  11  24  40  68 105 133 177 223 287 347 393
#
# _framework density 22.949735
#
# number of rings (size 3 to 8) (size 9 to 14) (size 15 to 20)
#    0.000    0.571    5.714    3.000    2.000    6.857 
#    0.000    0.714    0.000    0.000    0.000    0.000 
#    0.000    0.000    0.000    0.000    0.000    0.000 
#
# Total GULP energy -173490.571189 kJ/mol
# GULP energy per Si atom -12392.183656 kJ/mol
# Density = 2.289750 g / cm^3
# Si number density = 22.949735 Si / 1000 Ang^3
#
#
#
# Elastic Constant Matrix: (Units=GPa)
#
#
# Indices 1 2 3 4 5 6 
#
# 1 76.5181 47.2508 42.0352 -0.4061 -26.4943 -4.4130
# 2 47.2508 148.4242 35.9836 30.2577 -7.1936 13.9350
# 3 42.0352 35.9836 51.4809 6.7310 -18.9392 -8.0033
# 4 -0.4061 30.2577 6.7310 51.2288 -1.9583 2.8256
# 5 -26.4943 -7.1936 -18.9392 -1.9583 31.0467 4.4120
# 6 -4.4130 13.9350 -8.0033 2.8256 4.4120 30.6908
#
#
#
# Elastic Compliance Matrix: (Units=1/GPa)
#
#
# Indices 1 2 3 4 5 6 
#
# 1 0.031821 -0.006959 -0.016012 0.007050 0.016135 0.000591
# 2 -0.006959 0.011652 -0.004667 -0.006200 -0.005606 -0.006132
# 3 -0.016012 -0.004667 0.040782 -0.002923 0.008600 0.009484
# 4 0.007050 -0.006200 -0.002923 0.023770 0.004259 0.000266
# 5 0.016135 -0.005606 0.008600 0.004259 0.050267 -0.000511
# 6 0.000591 -0.006132 0.009484 0.000266 -0.000511 0.037974
#
#
# Mechanical properties :
#
#
# Convention : Reuss Voigt Hill
#
# Bulk Modulus (GPa) = 34.50906 58.55137 46.53021
# Shear Modulus (GPa) = 19.14225 32.67017 25.90621
#
# Velocity S-wave (km/s) = 2.89120 3.77709 3.36344
# Velocity P-wave (km/s) = 5.12004 6.67759 5.95000
#
# Compressibility (1/GPa) = 0.02897790
#
# Stress axis : x y z
#
# Youngs Moduli (GPa) = 31.42624 85.81961 24.52089
#
# Poissons Ratio (x) = 0.59721 0.39263
# Poissons Ratio (y) = 0.21869 0.11445
# Poissons Ratio (z) = 0.50320 0.40055
#
# Static dielectric constant tensor:
#      x y z
#    x 3.970450 0.049060 -0.061690 
#    y 0.049060 4.704150 0.447970 
#    z -0.061690 0.447970 4.339100 
# 
# 
# High freq. dielectric constant tensor:
#      x y z
#    x 1.893590 0.002870 -0.011900 
#    y 0.002870 1.920750 0.031760 
#    z -0.011900 0.031760 1.901290 
# 
# From -- ./inp_files/257270.got.cif
#   From: 2010.06.25/outbox.cif.g09.slc.cpg/sg2_129_cif.got.tgz:257270.got - 2010.06.27 13:26:56.
