data_PCOD8032643
_publ_section_title
;
Structure prediction by ZEFSAII (Michael W. Deem and Ramdas Pophale) SiO2 
 PCOD8032643
Probable space group: P -1
;
_chemical_formula_sum "Si O2"
_cell_formula_units_Z 16
_cell_length_a 25.034225
_cell_length_b 8.689813
_cell_length_c 24.929413
_cell_angle_alpha 135.390248
_cell_angle_beta 11.530716
_cell_angle_gamma 136.988677
_cell_volume 739.073567
_symmetry_space_group_name_H-M "P -1"
_symmetry_group_IT_number 2
_symmetry_cell_setting 'triclinic'
loop_
_space_group_symop_operation_xyz
x,y,z
-x,-y,-z
loop_
_atom_site_type_symbol
_atom_site_label
_atom_site_fract_x
_atom_site_fract_y
_atom_site_fract_z
Si Si1 0.493977 0.787770 0.834969
Si Si2 0.984443 0.967363 0.798599
Si Si3 0.206415 0.341093 0.751450
Si Si4 0.936345 0.051565 0.635893
Si Si5 0.781995 0.717485 0.042821
Si Si6 0.342752 0.945246 0.584997
Si Si7 0.437957 0.886838 0.252845
Si Si8 0.749106 0.548225 0.728544
O O1 0.792985 0.793112 0.565281
O O2 0.541570 0.982326 0.791322
O O3 0.370891 0.545319 0.868827
O O4 0.305905 0.824712 0.080147
O O5 0.219752 0.927445 0.519386
O O6 0.897325 0.782978 0.885729
O O7 0.108906 0.213968 0.760838
O O8 0.732356 0.970716 0.009828
O O9 0.500000 0.500000 0.500000
O O10 0.232213 0.160813 0.727394
O O11 0.000000 0.500000 0.000000
O O12 0.829120 0.808220 0.704300
O O13 0.000000 0.000000 0.500000
O O14 0.049777 0.756223 0.828967
O O15 0.562611 0.867888 0.310303
O O16 0.500000 0.000000 0.500000
O O17 0.343329 0.615430 0.271801
O O18 0.000000 0.500000 0.500000
O O19 0.500000 0.500000 0.000000
#
# Coordination Sequence:
#
# PCOD8032643 Si02
#       8
#     2   2   2   2   2   2   2   2
#     4  12  26  45  64  98 137 173 223 285 334 404
#     4  11  25  42  66  97 132 174 222 267 340 403
#     4  11  23  43  69 100 138 173 223 284 332 401
#     4  12  26  44  66  98 131 174 229 279 340 405
#     4  11  25  45  67 100 141 180 226 283 339 409
#     4  11  24  45  71 103 138 184 230 277 345 415
#     4  12  24  42  67  95 131 176 222 276 338 402
#     4  12  23  44  67  94 131 174 223 283 337 390
#
# _framework density 21.648724000000001
#
# number of rings (size 3 to 8) (size 9 to 14) (size 15 to 20)
#    0.000    0.500    2.500    6.750    3.500    3.000 
#    0.000    0.000    0.000    0.000    0.000    0.000 
#    0.000    0.000    0.000    0.000    0.000    0.000 
#
# Total GULP energy -198244.270591 kJ/mol
# GULP energy per Si atom -12390.266912 kJ/mol
# Density = 2.159945 g / cm^3
# Si number density = 21.648724 Si / 1000 Ang^3
#
#
#
# Elastic Constant Matrix: (Units=GPa)
#
#
# Indices 1 2 3 4 5 6 
#
# 1 92.8647 25.7434 50.2166 -0.6405 -2.2723 18.4978
# 2 25.7434 127.3450 53.5910 -9.6266 -4.2429 27.5867
# 3 50.2166 53.5910 185.7529 -2.2355 3.4766 12.8526
# 4 -0.6405 -9.6266 -2.2355 46.7659 11.4110 -4.6093
# 5 -2.2723 -4.2429 3.4766 11.4110 46.3974 -5.9788
# 6 18.4978 27.5867 12.8526 -4.6093 -5.9788 38.3291
#
#
#
# Elastic Compliance Matrix: (Units=1/GPa)
#
#
# Indices 1 2 3 4 5 6 
#
# 1 0.013675 -0.000273 -0.003264 -0.000638 0.000359 -0.005330
# 2 -0.000273 0.010440 -0.002478 0.001407 -0.000042 -0.006389
# 3 -0.003264 -0.002478 0.006933 0.000063 -0.000803 0.000916
# 4 -0.000638 0.001407 0.000063 0.023112 -0.005436 0.001205
# 5 0.000359 -0.000042 -0.000803 -0.005436 0.023366 0.003117
# 6 -0.005330 -0.006389 0.000916 0.001205 0.003117 0.033584
#
#
# Mechanical properties :
#
#
# Convention : Reuss Voigt Hill
#
# Bulk Modulus (GPa) = 52.58179 73.89610 63.23895
# Shear Modulus (GPa) = 38.61636 44.72592 41.67114
#
# Velocity S-wave (km/s) = 4.22805 4.55024 4.39210
# Velocity P-wave (km/s) = 6.94094 7.86222 7.41590
#
# Compressibility (1/GPa) = 0.01901799
#
# Stress axis : x y z
#
# Youngs Moduli (GPa) = 73.12701 95.78771 144.23142
#
# Poissons Ratio (x) = 0.02611 0.47075
# Poissons Ratio (y) = 0.01993 0.35747
# Poissons Ratio (z) = 0.23868 0.23741
#
# Static dielectric constant tensor:
#      x y z
#    x 4.055100 0.297330 -0.010520 
#    y 0.297330 4.052580 -0.124940 
#    z -0.010520 -0.124940 4.400350 
# 
# 
# High freq. dielectric constant tensor:
#      x y z
#    x 1.846410 0.019850 -0.003440 
#    y 0.019850 1.863720 -0.010290 
#    z -0.003440 -0.010290 1.881070 
# 
# From -- ./inp_files/621167.got.cif
#   From: 2010.06.25/outbox.cif.g09.slc.cpg/sg2_311_cif.got.tgz:621167.got - 2010.06.27 13:26:56.
