data_PCOD8032108
_publ_section_title
;
Structure prediction by ZEFSAII (Michael W. Deem and Ramdas Pophale) SiO2 
 PCOD8032108
Probable space group: P -1
;
_chemical_formula_sum "Si O2"
_cell_formula_units_Z 14
_cell_length_a 8.073312
_cell_length_b 6.865044
_cell_length_c 18.575139
_cell_angle_alpha 109.596783
_cell_angle_beta 134.082533
_cell_angle_gamma 55.827924
_cell_volume 609.193939
_symmetry_space_group_name_H-M "P -1"
_symmetry_group_IT_number 2
_symmetry_cell_setting 'triclinic'
loop_
_space_group_symop_operation_xyz
x,y,z
-x,-y,-z
loop_
_atom_site_type_symbol
_atom_site_label
_atom_site_fract_x
_atom_site_fract_y
_atom_site_fract_z
Si Si1 0.756385 0.746418 0.047345
Si Si2 0.282485 0.618361 0.116081
Si Si3 0.390204 0.797043 0.579827
Si Si4 0.849188 0.449773 0.595230
Si Si5 0.645632 0.217331 0.274106
Si Si6 0.334290 0.234729 0.817239
Si Si7 0.136890 0.242943 0.472133
O O1 0.785265 0.648670 0.126452
O O2 0.003250 0.772553 0.092581
O O3 0.732020 0.555067 0.968124
O O4 0.500000 0.000000 0.000000
O O5 0.488534 0.473760 0.223346
O O6 0.392565 0.770396 0.124411
O O7 0.621235 0.534160 0.595856
O O8 0.131283 0.762971 0.478684
O O9 0.464663 0.806152 0.685315
O O10 0.358381 0.034746 0.561808
O O11 0.740133 0.703347 0.553878
O O12 0.128378 0.364840 0.706845
O O13 0.943804 0.152887 0.371159
O O14 0.616204 0.031688 0.190915
O O15 0.000000 0.500000 0.500000
#
# Coordination Sequence:
#
# PCOD8032108 Si02
#       7
#     2   2   2   2   2   2   2
#     4  11  25  51  74 104 136 172 228 286 346 432
#     4  11  26  48  74 101 139 179 222 285 355 411
#     4  11  24  39  61  97 136 183 229 280 330 400
#     4  11  23  41  63  93 137 181 230 277 338 400
#     4  12  23  42  65 100 136 174 234 279 332 410
#     4  12  24  46  72 101 139 181 225 288 345 405
#     4  12  22  40  63  90 136 183 227 276 335 394
#
# _framework density 22.981186000000001
#
# number of rings (size 3 to 8) (size 9 to 14) (size 15 to 20)
#    0.000    0.571    5.714    3.000    0.000    0.571 
#    7.714    0.000    0.000    0.000    0.000    0.000 
#    0.000    0.000    0.000    0.000    0.000    0.000 
#
# Total GULP energy -173442.525972 kJ/mol
# GULP energy per Si atom -12388.751855 kJ/mol
# Density = 2.292888 g / cm^3
# Si number density = 22.981186 Si / 1000 Ang^3
#
#
#
# Elastic Constant Matrix: (Units=GPa)
#
#
# Indices 1 2 3 4 5 6 
#
# 1 127.6079 33.6571 42.0919 7.0074 0.2508 4.2033
# 2 33.6571 89.8136 15.2240 4.6632 -1.1648 6.8111
# 3 42.0919 15.2240 79.2076 10.0229 -10.8178 -1.1701
# 4 7.0074 4.6632 10.0229 28.8091 6.9383 0.4611
# 5 0.2508 -1.1648 -10.8178 6.9383 38.9534 0.1308
# 6 4.2033 6.8111 -1.1701 0.4611 0.1308 37.7084
#
#
#
# Elastic Compliance Matrix: (Units=1/GPa)
#
#
# Indices 1 2 3 4 5 6 
#
# 1 0.010349 -0.002971 -0.005183 0.000170 -0.001623 -0.000774
# 2 -0.002971 0.012573 -0.000663 -0.001152 0.000423 -0.001948
# 3 -0.005183 -0.000663 0.017080 -0.005996 0.005820 0.001281
# 4 0.000170 -0.001152 -0.005996 0.039033 -0.008652 -0.000444
# 5 -0.001623 0.000423 0.005820 -0.008652 0.028851 0.000291
# 6 -0.000774 -0.001948 0.001281 -0.000444 0.000291 0.027002
#
#
# Mechanical properties :
#
#
# Convention : Reuss Voigt Hill
#
# Bulk Modulus (GPa) = 44.70791 53.17501 48.94146
# Shear Modulus (GPa) = 31.25434 34.80458 33.02946
#
# Velocity S-wave (km/s) = 3.69181 3.89586 3.79521
# Velocity P-wave (km/s) = 6.13751 6.58981 6.36768
#
# Compressibility (1/GPa) = 0.02236741
#
# Stress axis : x y z
#
# Youngs Moduli (GPa) = 96.62642 79.53613 58.54960
#
# Poissons Ratio (x) = 0.23629 0.30347
# Poissons Ratio (y) = 0.28706 0.03882
# Poissons Ratio (z) = 0.50083 0.05273
#
# Static dielectric constant tensor:
#      x y z
#    x 4.679840 0.188730 -0.255460 
#    y 0.188730 4.004180 0.037760 
#    z -0.255460 0.037760 4.219090 
# 
# 
# High freq. dielectric constant tensor:
#      x y z
#    x 1.919630 0.004540 -0.015480 
#    y 0.004540 1.902170 0.001730 
#    z -0.015480 0.001730 1.906540 
# 
# From -- ./inp_files/315237.got.cif
#   From: 2010.06.25/outbox.cif.g09.slc.cpg/sg2_158_cif.got.tgz:315237.got - 2010.06.27 13:26:56.
