data_PCOD8032359
_publ_section_title
;
Structure prediction by ZEFSAII (Michael W. Deem and Ramdas Pophale) SiO2 
 PCOD8032359
Probable space group: P -1
;
_chemical_formula_sum "Si O2"
_cell_formula_units_Z 16
_cell_length_a 15.147896
_cell_length_b 11.391570
_cell_length_c 14.805641
_cell_angle_alpha 39.024985
_cell_angle_beta 148.772319
_cell_angle_gamma 120.041153
_cell_volume 721.570744
_symmetry_space_group_name_H-M "P -1"
_symmetry_group_IT_number 2
_symmetry_cell_setting 'triclinic'
loop_
_space_group_symop_operation_xyz
x,y,z
-x,-y,-z
loop_
_atom_site_type_symbol
_atom_site_label
_atom_site_fract_x
_atom_site_fract_y
_atom_site_fract_z
Si Si1 0.564355 0.871876 0.760077
Si Si2 0.992700 0.350696 0.162064
Si Si3 0.725123 0.828506 0.323127
Si Si4 0.395631 0.336065 0.260412
Si Si5 0.032691 0.050883 0.665836
Si Si6 0.588485 0.298639 0.132601
Si Si7 0.680288 0.486161 0.389722
Si Si8 0.040573 0.275184 0.712244
O O1 0.593130 0.684233 0.826907
O O2 0.435451 0.882144 0.727072
O O3 0.439541 0.108331 0.470809
O O4 0.780219 0.819761 0.005909
O O5 0.200769 0.216022 0.480256
O O6 0.937514 0.186915 0.163952
O O7 0.819870 0.488707 0.999721
O O8 0.000000 0.500000 0.000000
O O9 0.846029 0.923370 0.323478
O O10 0.772353 0.594201 0.469327
O O11 0.500000 0.000000 0.000000
O O12 0.567249 0.389191 0.407106
O O13 0.096404 0.096663 0.790912
O O14 0.809604 0.228858 0.344942
O O15 0.500000 0.500000 0.000000
O O16 0.480013 0.329094 0.925068
O O17 0.852688 0.304895 0.586546
O O18 0.000000 0.500000 0.500000
#
# Coordination Sequence:
#
# PCOD8032359 Si02
#       8
#     2   2   2   2   2   2   2   2
#     4  11  23  42  68 100 140 173 225 278 345 408
#     4  12  28  48  70  94 140 188 236 280 344 413
#     4  12  26  46  69 101 136 179 235 288 334 403
#     4  11  25  44  66  97 135 186 225 275 340 416
#     4  12  24  43  71 101 137 181 228 280 345 410
#     4  12  20  38  70 103 135 171 222 279 343 410
#     4  12  23  39  70 100 137 173 222 283 342 398
#     4  12  22  40  69 109 136 169 220 291 343 399
#
# _framework density 22.173848
#
# number of rings (size 3 to 8) (size 9 to 14) (size 15 to 20)
#    0.000    0.250    5.000    4.125    0.000    3.500 
#    0.000    1.875    0.000    0.000    0.000    0.000 
#    0.000    0.000    0.000    0.000    0.000    0.000 
#
# Total GULP energy -198421.919087 kJ/mol
# GULP energy per Si atom -12401.369943 kJ/mol
# Density = 2.212338 g / cm^3
# Si number density = 22.173848 Si / 1000 Ang^3
#
#
#
# Elastic Constant Matrix: (Units=GPa)
#
#
# Indices 1 2 3 4 5 6 
#
# 1 105.9234 32.7551 30.7735 0.5701 11.5482 18.8739
# 2 32.7551 134.2622 19.9199 -3.7989 -6.7813 1.8814
# 3 30.7735 19.9199 102.5120 9.5254 16.6257 2.7083
# 4 0.5701 -3.7989 9.5254 36.9034 1.9178 4.6215
# 5 11.5482 -6.7813 16.6257 1.9178 31.7529 6.9515
# 6 18.8739 1.8814 2.7083 4.6215 6.9515 35.8706
#
#
#
# Elastic Compliance Matrix: (Units=1/GPa)
#
#
# Indices 1 2 3 4 5 6 
#
# 1 0.012343 -0.002610 -0.002759 0.001107 -0.002393 -0.005828
# 2 -0.002610 0.008516 -0.001541 0.001106 0.003458 0.000230
# 3 -0.002759 -0.001541 0.012085 -0.003200 -0.005938 0.002183
# 4 0.001107 0.001106 -0.003200 0.028511 0.000709 -0.004209
# 5 -0.002393 0.003458 -0.005938 0.000709 0.037443 -0.005822
# 6 -0.005828 0.000230 0.002183 -0.004209 -0.005822 0.032438
#
#
# Mechanical properties :
#
#
# Convention : Reuss Voigt Hill
#
# Bulk Modulus (GPa) = 52.28798 56.62164 54.45481
# Shear Modulus (GPa) = 32.99672 38.18866 35.59269
#
# Velocity S-wave (km/s) = 3.86176 4.15449 4.01080
# Velocity P-wave (km/s) = 6.59670 6.97164 6.78676
#
# Compressibility (1/GPa) = 0.01912485
#
# Stress axis : x y z
#
# Youngs Moduli (GPa) = 81.01956 117.42427 82.74463
#
# Poissons Ratio (x) = 0.30644 0.22829
# Poissons Ratio (y) = 0.21144 0.12751
# Poissons Ratio (z) = 0.22353 0.18096
#
# Static dielectric constant tensor:
#      x y z
#    x 4.141420 0.033180 -0.006450 
#    y 0.033180 4.188250 0.170790 
#    z -0.006450 0.170790 3.965550 
# 
# 
# High freq. dielectric constant tensor:
#      x y z
#    x 1.877920 0.003440 0.009540 
#    y 0.003440 1.886880 0.004520 
#    z 0.009540 0.004520 1.867880 
# 
# From -- ./inp_files/532368.got.cif
#   From: 2010.06.25/outbox.cif.g09.slc.cpg/sg2_267_cif.got.tgz:532368.got - 2010.06.27 13:26:56.
