data_PCOD8032538
_publ_section_title
;
Structure prediction by ZEFSAII (Michael W. Deem and Ramdas Pophale) SiO2 
 PCOD8032538
Probable space group: P -1
;
_chemical_formula_sum "Si O2"
_cell_formula_units_Z 12
_cell_length_a 13.025226
_cell_length_b 6.743183
_cell_length_c 13.046283
_cell_angle_alpha 41.878330
_cell_angle_beta 135.693006
_cell_angle_gamma 126.403491
_cell_volume 529.765943
_symmetry_space_group_name_H-M "P -1"
_symmetry_group_IT_number 2
_symmetry_cell_setting 'triclinic'
loop_
_space_group_symop_operation_xyz
x,y,z
-x,-y,-z
loop_
_atom_site_type_symbol
_atom_site_label
_atom_site_fract_x
_atom_site_fract_y
_atom_site_fract_z
Si Si1 0.819896 0.872956 0.667514
Si Si2 0.550972 0.442566 0.675596
Si Si3 0.927556 0.858555 0.104680
Si Si4 0.385681 0.209402 0.999955
Si Si5 0.063485 0.313768 0.386749
Si Si6 0.681851 0.445643 0.374793
O O1 0.717654 0.602288 0.755775
O O2 0.864271 0.703715 0.664436
O O3 0.715594 0.132707 0.467462
O O4 0.971115 0.993455 0.787254
O O5 0.500000 0.500000 0.500000
O O6 0.459687 0.601572 0.634259
O O7 0.532442 0.087422 0.825881
O O8 0.754046 0.881061 0.988781
O O9 0.928398 0.506735 0.223414
O O10 0.000000 0.000000 0.000000
O O11 0.326115 0.290909 0.814936
O O12 0.500000 0.500000 0.000000
O O13 0.181448 0.464260 0.490920
O O14 0.000000 0.000000 0.500000
#
# Coordination Sequence:
#
# PCOD8032538 Si02
#       6
#     2   2   2   2   2   2
#     4  11  24  46  73 102 141 185 234 293 342 421
#     4  12  25  45  75 102 140 190 234 283 360 415
#     4  11  27  45  70 106 141 185 237 285 350 413
#     4  12  28  46  71 106 146 184 234 293 350 417
#     4  11  23  42  74  97 139 184 230 289 350 415
#     4  11  25  45  70 106 140 183 236 287 351 417
#
# _framework density 22.651513999999999
#
# number of rings (size 3 to 8) (size 9 to 14) (size 15 to 20)
#    0.000    0.667    1.667    5.000    7.000    6.667 
#    0.000    0.000    0.000    0.000    0.000    0.000 
#    0.000    0.000    0.000    0.000    0.000    0.000 
#
# Total GULP energy -148719.556028 kJ/mol
# GULP energy per Si atom -12393.296336 kJ/mol
# Density = 2.259996 g / cm^3
# Si number density = 22.651514 Si / 1000 Ang^3
#
#
#
# Elastic Constant Matrix: (Units=GPa)
#
#
# Indices 1 2 3 4 5 6 
#
# 1 94.1309 14.5873 -1.8188 20.2341 3.1292 11.3685
# 2 14.5873 98.8108 19.1698 -21.5371 12.7320 5.3252
# 3 -1.8188 19.1698 75.2283 -3.4445 -4.7071 -9.0261
# 4 20.2341 -21.5371 -3.4445 18.7907 1.7862 -6.8692
# 5 3.1292 12.7320 -4.7071 1.7862 38.0091 -0.1212
# 6 11.3685 5.3252 -9.0261 -6.8692 -0.1212 46.8173
#
#
#
# Elastic Compliance Matrix: (Units=1/GPa)
#
#
# Indices 1 2 3 4 5 6 
#
# 1 0.023507 -0.013500 0.000984 -0.044922 0.004786 -0.010562
# 2 -0.013500 0.023262 -0.004088 0.043598 -0.009216 0.006217
# 3 0.000984 -0.004088 0.014783 -0.002341 0.003238 0.002741
# 4 -0.044922 0.043598 -0.002341 0.163690 -0.018794 0.029466
# 5 0.004786 -0.009216 0.003238 -0.018794 0.030280 -0.002169
# 6 -0.010562 0.006217 0.002741 0.029466 -0.002169 0.028063
#
#
# Mechanical properties :
#
#
# Convention : Reuss Voigt Hill
#
# Bulk Modulus (GPa) = 35.28265 36.89404 36.08835
# Shear Modulus (GPa) = 15.32607 36.47219 25.89913
#
# Velocity S-wave (km/s) = 2.60398 4.01701 3.38505
# Velocity P-wave (km/s) = 4.96498 6.15128 5.58969
#
# Compressibility (1/GPa) = 0.02834254
#
# Stress axis : x y z
#
# Youngs Moduli (GPa) = 42.53990 42.98912 67.64639
#
# Poissons Ratio (x) = 0.58035 -0.06655
# Poissons Ratio (y) = 0.57429 0.27657
# Poissons Ratio (z) = -0.04185 0.17576
#
# Static dielectric constant tensor:
#      x y z
#    x 4.339510 -0.108640 -0.083570 
#    y -0.108640 3.388830 0.017600 
#    z -0.083570 0.017600 4.321280 
# 
# 
# High freq. dielectric constant tensor:
#      x y z
#    x 1.910270 0.000060 0.004510 
#    y 0.000060 1.908160 -0.010260 
#    z 0.004510 -0.010260 1.892540 
# 
# From -- ./inp_files/26013.got.cif
#   From: 2010.06.25/outbox.cif.g09.slc.cpg/sg2_14_cif.got.tgz:26013.got - 2010.06.27 13:26:56.
