data_PCOD8032205
_publ_section_title
;
Structure prediction by ZEFSAII (Michael W. Deem and Ramdas Pophale) SiO2 
 PCOD8032205
Probable space group: P -1
;
_chemical_formula_sum "Si O2"
_cell_formula_units_Z 14
_cell_length_a 9.705542
_cell_length_b 25.430097
_cell_length_c 9.399272
_cell_angle_alpha 152.994667
_cell_angle_beta 44.985662
_cell_angle_gamma 144.176288
_cell_volume 615.540735
_symmetry_space_group_name_H-M "P -1"
_symmetry_group_IT_number 2
_symmetry_cell_setting 'triclinic'
loop_
_space_group_symop_operation_xyz
x,y,z
-x,-y,-z
loop_
_atom_site_type_symbol
_atom_site_label
_atom_site_fract_x
_atom_site_fract_y
_atom_site_fract_z
Si Si1 0.606076 0.245159 0.823459
Si Si2 0.931514 0.951251 0.272366
Si Si3 0.428075 0.536593 0.782708
Si Si4 0.195598 0.391073 0.088475
Si Si5 0.219035 0.185761 0.398098
Si Si6 0.704757 0.314233 0.244460
Si Si7 0.984454 0.771045 0.605215
O O1 0.341224 0.110465 0.701066
O O2 0.758531 0.188966 0.522320
O O3 0.640285 0.354937 0.942946
O O4 0.685838 0.316520 0.092396
O O5 0.977311 0.830824 0.909168
O O6 0.000000 0.000000 0.500000
O O7 0.087442 0.084875 0.381862
O O8 0.500000 0.500000 0.500000
O O9 0.657764 0.611492 0.894261
O O10 0.205815 0.395608 0.672671
O O11 0.249073 0.542486 0.381316
O O12 0.910198 0.292847 0.088396
O O13 0.261918 0.335456 0.769407
O O14 0.459005 0.195240 0.211037
O O15 0.069485 0.141867 0.255737
#
# Coordination Sequence:
#
# PCOD8032205 Si02
#       7
#     2   2   2   2   2   2   2
#     4  12  25  47  71 105 141 188 233 289 358 415
#     4  12  28  49  69  99 146 187 235 293 354 419
#     4  12  22  45  72 102 152 182 220 298 354 411
#     4  11  23  41  69 105 143 176 235 283 348 416
#     4  12  24  44  74 102 139 188 237 290 342 420
#     4  11  23  42  72 106 140 182 233 289 350 413
#     4  12  26  46  73 105 137 189 240 285 355 416
#
# _framework density 22.744228
#
# number of rings (size 3 to 8) (size 9 to 14) (size 15 to 20)
#    0.000    0.286    7.143    2.143    0.000    2.286 
#    5.143    0.000    0.000    0.000    0.000    0.000 
#    0.000    0.000    0.000    0.000    0.000    0.000 
#
# Total GULP energy -173610.562197 kJ/mol
# GULP energy per Si atom -12400.754443 kJ/mol
# Density = 2.269246 g / cm^3
# Si number density = 22.744228 Si / 1000 Ang^3
#
#
#
# Elastic Constant Matrix: (Units=GPa)
#
#
# Indices 1 2 3 4 5 6 
#
# 1 113.3599 69.3968 47.6131 -7.6667 2.4966 13.5167
# 2 69.3968 145.3435 34.7742 -17.4919 -11.4372 14.1408
# 3 47.6131 34.7742 89.9143 -21.3781 11.3460 14.1191
# 4 -7.6667 -17.4919 -21.3781 37.1223 1.9386 -13.5962
# 5 2.4966 -11.4372 11.3460 1.9386 29.9293 -8.3315
# 6 13.5167 14.1408 14.1191 -13.5962 -8.3315 45.6833
#
#
#
# Elastic Compliance Matrix: (Units=1/GPa)
#
#
# Indices 1 2 3 4 5 6 
#
# 1 0.015182 -0.006207 -0.006022 -0.003975 -0.001712 -0.002205
# 2 -0.006207 0.010758 -0.000806 0.003298 0.004896 0.000630
# 3 -0.006022 -0.000806 0.017958 0.008210 -0.007843 -0.002506
# 4 -0.003975 0.003298 0.008210 0.035357 -0.001627 0.007844
# 5 -0.001712 0.004896 -0.007843 -0.001627 0.040837 0.008378
# 6 -0.002205 0.000630 -0.002506 0.007844 0.008378 0.026984
#
#
# Mechanical properties :
#
#
# Convention : Reuss Voigt Hill
#
# Bulk Modulus (GPa) = 56.09550 72.46508 64.28029
# Shear Modulus (GPa) = 27.91926 35.66920 31.79423
#
# Velocity S-wave (km/s) = 3.50742 3.96444 3.74291
# Velocity P-wave (km/s) = 6.41247 7.27226 6.85586
#
# Compressibility (1/GPa) = 0.01782674
#
# Stress axis : x y z
#
# Youngs Moduli (GPa) = 65.86617 92.95728 55.68703
#
# Poissons Ratio (x) = 0.57697 0.33535
# Poissons Ratio (y) = 0.40882 0.04491
# Poissons Ratio (z) = 0.39665 0.07496
#
# Static dielectric constant tensor:
#      x y z
#    x 3.907530 0.588290 0.149270 
#    y 0.588290 3.943570 0.109890 
#    z 0.149270 0.109890 4.639010 
# 
# 
# High freq. dielectric constant tensor:
#      x y z
#    x 1.893590 0.012980 0.008560 
#    y 0.012980 1.902160 -0.011080 
#    z 0.008560 -0.011080 1.903600 
# 
# From -- ./inp_files/185509.got.cif
#   From: 2010.06.25/outbox.cif.g09.slc.cpg/sg2_93_cif.got.tgz:185509.got - 2010.06.27 13:26:56.
