data_PCOD8032310
_publ_section_title
;
Structure prediction by ZEFSAII (Michael W. Deem and Ramdas Pophale) SiO2 
 PCOD8032310
Probable space group: P -1
;
_chemical_formula_sum "Si O2"
_cell_formula_units_Z 14
_cell_length_a 28.636716
_cell_length_b 28.465705
_cell_length_c 8.746210
_cell_angle_alpha 150.459599
_cell_angle_beta 149.556854
_cell_angle_gamma 10.012942
_cell_volume 609.979639
_symmetry_space_group_name_H-M "P -1"
_symmetry_group_IT_number 2
_symmetry_cell_setting 'triclinic'
loop_
_space_group_symop_operation_xyz
x,y,z
-x,-y,-z
loop_
_atom_site_type_symbol
_atom_site_label
_atom_site_fract_x
_atom_site_fract_y
_atom_site_fract_z
Si Si1 0.785200 0.492989 0.963152
Si Si2 0.609103 0.987433 0.192944
Si Si3 0.902923 0.449445 0.840987
Si Si4 0.370716 0.523244 0.714953
Si Si5 0.265461 0.802226 0.704549
Si Si6 0.285615 0.984561 0.140853
Si Si7 0.143531 0.015161 0.268543
O O1 0.753041 0.412026 0.597320
O O2 0.868342 0.476846 0.004744
O O3 0.515328 0.794548 0.132887
O O4 0.006759 0.287093 0.136248
O O5 0.686888 0.989347 0.546046
O O6 0.383745 0.251667 0.195763
O O7 0.863950 0.706783 0.009703
O O8 0.500000 0.000000 0.000000
O O9 0.028240 0.229686 0.508694
O O10 0.607387 0.220286 0.576251
O O11 0.500000 0.500000 0.000000
O O12 0.117165 0.791427 0.867612
O O13 0.500000 0.500000 0.500000
O O14 0.292663 0.862622 0.832592
O O15 0.284936 0.827346 0.996645
O O16 0.000000 0.000000 0.500000
#
# Coordination Sequence:
#
# PCOD8032310 Si02
#       7
#     2   2   2   2   2   2   2
#     4  11  25  43  70  99 138 187 218 287 354 389
#     4  12  26  48  79 106 133 180 230 284 352 427
#     4  11  23  48  72 100 140 179 228 276 345 426
#     4  11  24  39  64  93 136 182 243 279 323 409
#     4  12  27  40  64  96 141 184 230 283 343 396
#     4  12  26  46  68 102 143 175 235 291 340 408
#     4  11  23  42  65  93 131 189 232 275 337 397
#
# _framework density 22.951587
#
# number of rings (size 3 to 8) (size 9 to 14) (size 15 to 20)
#    0.000    0.571    1.429    7.714    8.000    0.000 
#    0.000    4.286    0.000    0.000    0.000    0.000 
#    0.000    0.000    0.000    0.000    0.000    0.000 
#
# Total GULP energy -173511.989906 kJ/mol
# GULP energy per Si atom -12393.713565 kJ/mol
# Density = 2.289935 g / cm^3
# Si number density = 22.951587 Si / 1000 Ang^3
#
#
#
# Elastic Constant Matrix: (Units=GPa)
#
#
# Indices 1 2 3 4 5 6 
#
# 1 120.6737 38.7643 30.2262 -11.5270 -7.2620 -14.8581
# 2 38.7643 142.4857 21.8811 -14.7199 -19.1612 -0.0427
# 3 30.2262 21.8811 34.1216 -7.9153 9.4795 7.2527
# 4 -11.5270 -14.7199 -7.9153 29.9335 -4.4505 -4.2338
# 5 -7.2620 -19.1612 9.4795 -4.4505 22.1079 0.7330
# 6 -14.8581 -0.0427 7.2527 -4.2338 0.7330 55.9015
#
#
#
# Elastic Compliance Matrix: (Units=1/GPa)
#
#
# Indices 1 2 3 4 5 6 
#
# 1 0.014370 0.001127 -0.017638 0.004381 0.013935 0.006258
# 2 0.001127 0.011323 -0.011953 0.005566 0.016362 0.002066
# 3 -0.017638 -0.011953 0.067125 -0.003491 -0.045205 -0.013078
# 4 0.004381 0.005566 -0.003491 0.039861 0.015638 0.004436
# 5 0.013935 0.016362 -0.045205 0.015638 0.086203 0.009635
# 6 0.006258 0.002066 -0.013078 0.004436 0.009635 0.021460
#
#
# Mechanical properties :
#
#
# Convention : Reuss Voigt Hill
#
# Bulk Modulus (GPa) = 27.86213 53.22489 40.54351
# Shear Modulus (GPa) = 16.16905 35.34920 25.75913
#
# Velocity S-wave (km/s) = 2.65709 3.92875 3.35375
# Velocity P-wave (km/s) = 4.64536 6.61971 5.71839
#
# Compressibility (1/GPa) = 0.03589101
#
# Stress axis : x y z
#
# Youngs Moduli (GPa) = 69.58922 88.31468 14.89759
#
# Poissons Ratio (x) = -0.09957 0.26276
# Poissons Ratio (y) = -0.07846 0.17808
# Poissons Ratio (z) = 1.22739 1.05566
#
# Static dielectric constant tensor:
#      x y z
#    x 5.127920 -1.764440 0.088030 
#    y -1.764440 7.793270 -0.354570 
#    z 0.088030 -0.354570 3.913910 
# 
# 
# High freq. dielectric constant tensor:
#      x y z
#    x 1.919310 -0.014770 -0.003880 
#    y -0.014770 1.934120 -0.007000 
#    z -0.003880 -0.007000 1.883470 
# 
# From -- ./inp_files/313349.got.cif
#   From: 2010.06.25/outbox.cif.g09.slc.cpg/sg2_157_cif.got.tgz:313349.got - 2010.06.27 13:26:56.
