data_PCOD8032709
_publ_section_title
;
Structure prediction by ZEFSAII (Michael W. Deem and Ramdas Pophale) SiO2 
 PCOD8032709
Probable space group: P -1
;
_chemical_formula_sum "Si O2"
_cell_formula_units_Z 14
_cell_length_a 8.433003
_cell_length_b 9.289655
_cell_length_c 8.723642
_cell_angle_alpha 66.726248
_cell_angle_beta 88.616279
_cell_angle_gamma 99.416605
_cell_volume 616.357047
_symmetry_space_group_name_H-M "P -1"
_symmetry_group_IT_number 2
_symmetry_cell_setting 'triclinic'
loop_
_space_group_symop_operation_xyz
x,y,z
-x,-y,-z
loop_
_atom_site_type_symbol
_atom_site_label
_atom_site_fract_x
_atom_site_fract_y
_atom_site_fract_z
Si Si1 0.691873 0.893462 0.406271
Si Si2 0.208513 0.749346 0.670610
Si Si3 0.002868 0.922997 0.194969
Si Si4 0.143585 0.641573 0.389029
Si Si5 0.344037 0.453956 0.922518
Si Si6 0.149223 0.210493 0.259441
Si Si7 0.484555 0.640741 0.331680
O O1 0.728264 0.795901 0.599035
O O2 0.530221 0.804729 0.361435
O O3 0.826619 0.881278 0.284377
O O4 0.682965 0.078421 0.360621
O O5 0.232327 0.722100 0.503433
O O6 0.269896 0.610479 0.821535
O O7 0.018847 0.745511 0.700860
O O8 0.066477 0.760333 0.236026
O O9 0.118595 0.033741 0.264438
O O10 0.000000 0.000000 0.000000
O O11 0.294264 0.604339 0.299996
O O12 0.000000 0.500000 0.500000
O O13 0.393940 0.361408 0.811991
O O14 0.500000 0.500000 0.000000
O O15 0.214909 0.334265 0.073740
O O16 0.500000 0.500000 0.500000
#
# Coordination Sequence:
#
# PCOD8032709 Si02
#       7
#     2   2   2   2   2   2   2
#     4  11  23  47  75 104 142 183 239 292 355 422
#     4  11  24  46  74 106 136 194 235 285 354 418
#     4  11  23  43  70 107 139 183 235 294 349 413
#     4  12  26  44  76 102 141 187 241 285 354 428
#     4  12  28  45  68 107 147 183 234 296 354 413
#     4  11  23  44  73 102 142 184 238 290 349 418
#     4  12  26  45  71 105 142 189 233 291 356 418
#
# _framework density 22.714108
#
# number of rings (size 3 to 8) (size 9 to 14) (size 15 to 20)
#    0.000    0.571    4.286    3.857    4.000    4.000 
#    0.000    2.143    0.000    0.000    0.000    0.000 
#    0.000    0.000    0.000    0.000    0.000    0.000 
#
# Total GULP energy -173563.099971 kJ/mol
# GULP energy per Si atom -12397.364284 kJ/mol
# Density = 2.266241 g / cm^3
# Si number density = 22.714108 Si / 1000 Ang^3
#
#
#
# Elastic Constant Matrix: (Units=GPa)
#
#
# Indices 1 2 3 4 5 6 
#
# 1 72.1589 51.7305 36.0509 -22.3551 5.9506 3.4456
# 2 51.7305 99.2463 29.9527 -11.5531 -0.4080 -2.7521
# 3 36.0509 29.9527 144.2570 -14.2864 0.2784 -13.4031
# 4 -22.3551 -11.5531 -14.2864 43.2689 -1.9235 7.1182
# 5 5.9506 -0.4080 0.2784 -1.9235 35.7094 -6.5174
# 6 3.4456 -2.7521 -13.4031 7.1182 -6.5174 37.8897
#
#
#
# Elastic Compliance Matrix: (Units=1/GPa)
#
#
# Indices 1 2 3 4 5 6 
#
# 1 0.030068 -0.013251 -0.004383 0.011676 -0.006047 -0.008481
# 2 -0.013251 0.016803 -0.000148 -0.002840 0.002869 0.003400
# 3 -0.004383 -0.000148 0.008383 -0.000069 0.001315 0.003592
# 4 0.011676 -0.002840 -0.000069 0.029458 -0.001690 -0.007117
# 5 -0.006047 0.002869 0.001315 -0.001690 0.030171 0.006731
# 6 -0.008481 0.003400 0.003592 -0.007117 0.006731 0.031176
#
#
# Mechanical properties :
#
#
# Convention : Reuss Voigt Hill
#
# Bulk Modulus (GPa) = 50.78756 61.23672 56.01214
# Shear Modulus (GPa) = 26.56927 36.56880 31.56904
#
# Velocity S-wave (km/s) = 3.42384 4.01678 3.73210
# Velocity P-wave (km/s) = 6.16751 6.96642 6.57911
#
# Compressibility (1/GPa) = 0.01968986
#
# Stress axis : x y z
#
# Youngs Moduli (GPa) = 33.25749 59.51367 119.29450
#
# Poissons Ratio (x) = 0.78860 0.52287
# Poissons Ratio (y) = 0.44069 0.01769
# Poissons Ratio (z) = 0.14577 0.00883
#
# Static dielectric constant tensor:
#      x y z
#    x 9.042040 1.797540 -5.234850 
#    y 1.797540 5.108870 -1.558440 
#    z -5.234850 -1.558440 9.622050 
# 
# 
# High freq. dielectric constant tensor:
#      x y z
#    x 1.904680 0.000820 -0.007840 
#    y 0.000820 1.906420 -0.003230 
#    z -0.007840 -0.003230 1.901210 
# 
# From -- ./inp_files/156618.got.cif
#   From: 2010.06.25/outbox.cif.g09.slc.cpg/sg2_79_cif.got.tgz:156618.got - 2010.06.27 13:26:56.
