data_PCOD8032008
_publ_section_title
;
Structure prediction by ZEFSAII (Michael W. Deem and Ramdas Pophale) SiO2 
 PCOD8032008
Probable space group: P -1
;
_chemical_formula_sum "Si O2"
_cell_formula_units_Z 14
_cell_length_a 14.499762
_cell_length_b 14.163496
_cell_length_c 9.183173
_cell_angle_alpha 111.418079
_cell_angle_beta 46.061229
_cell_angle_gamma 146.427537
_cell_volume 634.541171
_symmetry_space_group_name_H-M "P -1"
_symmetry_group_IT_number 2
_symmetry_cell_setting 'triclinic'
loop_
_space_group_symop_operation_xyz
x,y,z
-x,-y,-z
loop_
_atom_site_type_symbol
_atom_site_label
_atom_site_fract_x
_atom_site_fract_y
_atom_site_fract_z
Si Si1 0.978727 0.334112 0.979864
Si Si2 0.079395 0.964271 0.791309
Si Si3 0.639672 0.282795 0.403216
Si Si4 0.256728 0.624978 0.331192
Si Si5 0.764783 0.877826 0.599815
Si Si6 0.634994 0.002104 0.945860
Si Si7 0.742773 0.555389 0.992286
O O1 0.740512 0.238753 0.240387
O O2 0.051272 0.320408 0.035065
O O3 0.236112 0.568853 0.782254
O O4 0.894493 0.215355 0.860555
O O5 0.333391 0.076470 0.622237
O O6 0.137648 0.062167 0.635508
O O7 0.830897 0.721408 0.917667
O O8 0.000000 0.000000 0.000000
O O9 0.732589 0.389261 0.516850
O O10 0.268914 0.529456 0.176615
O O11 0.000000 0.500000 0.500000
O O12 0.468529 0.850758 0.178893
O O13 0.685714 0.940802 0.751695
O O14 0.537628 0.640864 0.739766
O O15 0.000000 0.000000 0.500000
O O16 0.500000 0.000000 0.000000
#
# Coordination Sequence:
#
# PCOD8032008 Si02
#       7
#     2   2   2   2   2   2   2
#     4  11  23  42  73 104 141 188 229 299 362 415
#     4  12  29  47  73 102 140 191 245 290 355 430
#     4  11  24  43  68 106 145 181 239 293 356 426
#     4  11  23  40  65 105 141 178 231 292 357 425
#     4  11  28  51  70 103 148 188 239 298 359 437
#     4  11  25  41  72 103 140 186 239 291 363 418
#     4  11  26  47  71 104 141 185 239 291 361 423
#
# _framework density 22.063188
#
# number of rings (size 3 to 8) (size 9 to 14) (size 15 to 20)
#    0.000    0.857    2.857    2.571   16.000    3.429 
#    0.000    0.000    0.000    0.000    0.000    0.000 
#    0.000    0.000    0.000    0.000    0.000    0.000 
#
# Total GULP energy -173544.087349 kJ/mol
# GULP energy per Si atom -12396.006239 kJ/mol
# Density = 2.201297 g / cm^3
# Si number density = 22.063188 Si / 1000 Ang^3
#
#
#
# Elastic Constant Matrix: (Units=GPa)
#
#
# Indices 1 2 3 4 5 6 
#
# 1 64.8171 19.7731 48.6184 -4.2895 -3.7726 11.5152
# 2 19.7731 110.0498 51.6561 -15.1858 4.5407 -2.1692
# 3 48.6184 51.6561 146.7038 -8.4336 9.0688 -10.4201
# 4 -4.2895 -15.1858 -8.4336 37.9668 10.3727 7.0283
# 5 -3.7726 4.5407 9.0688 10.3727 35.2657 3.3618
# 6 11.5152 -2.1692 -10.4201 7.0283 3.3618 39.1197
#
#
#
# Elastic Compliance Matrix: (Units=1/GPa)
#
#
# Indices 1 2 3 4 5 6 
#
# 1 0.024550 -0.000502 -0.008992 0.000922 0.005714 -0.010306
# 2 -0.000502 0.011527 -0.003582 0.004408 -0.001837 -0.000801
# 3 -0.008992 -0.003582 0.011744 0.000200 -0.004142 0.005896
# 4 0.000922 0.004408 0.000200 0.031715 -0.009385 -0.004865
# 5 0.005714 -0.001837 -0.004142 -0.009385 0.033418 -0.004073
# 6 -0.010306 -0.000801 0.005896 -0.004865 -0.004073 0.031347
#
#
# Mechanical properties :
#
#
# Convention : Reuss Voigt Hill
#
# Bulk Modulus (GPa) = 46.14873 62.40731 54.27802
# Shear Modulus (GPa) = 28.14122 35.90532 32.02327
#
# Velocity S-wave (km/s) = 3.57527 4.03846 3.81390
# Velocity P-wave (km/s) = 6.16485 7.07762 6.63695
#
# Compressibility (1/GPa) = 0.02166907
#
# Stress axis : x y z
#
# Youngs Moduli (GPa) = 40.73280 86.75468 85.15023
#
# Poissons Ratio (x) = 0.04357 0.76563
# Poissons Ratio (y) = 0.02046 0.30503
# Poissons Ratio (z) = 0.36625 0.31077
#
# Static dielectric constant tensor:
#      x y z
#    x 3.650110 -0.082170 -0.075940 
#    y -0.082170 3.966290 -0.281700 
#    z -0.075940 -0.281700 4.057630 
# 
# 
# High freq. dielectric constant tensor:
#      x y z
#    x 1.865170 0.009790 0.014180 
#    y 0.009790 1.872830 -0.005620 
#    z 0.014180 -0.005620 1.883710 
# 
# From -- ./inp_files/222927.got.cif
#   From: 2010.06.25/outbox.cif.g09.slc.cpg/sg2_112_cif.got.tgz:222927.got - 2010.06.27 13:26:56.
