data_PCOD8032470
_publ_section_title
;
Structure prediction by ZEFSAII (Michael W. Deem and Ramdas Pophale) SiO2 
 PCOD8032470
Probable space group: P -1
;
_chemical_formula_sum "Si O2"
_cell_formula_units_Z 16
_cell_length_a 23.542784
_cell_length_b 6.747240
_cell_length_c 5.501159
_cell_angle_alpha 108.871398
_cell_angle_beta 97.753095
_cell_angle_gamma 56.639135
_cell_volume 689.608899
_symmetry_space_group_name_H-M "P -1"
_symmetry_group_IT_number 2
_symmetry_cell_setting 'triclinic'
loop_
_space_group_symop_operation_xyz
x,y,z
-x,-y,-z
loop_
_atom_site_type_symbol
_atom_site_label
_atom_site_fract_x
_atom_site_fract_y
_atom_site_fract_z
Si Si1 0.160253 0.480567 0.290174
Si Si2 0.466455 0.399884 0.119175
Si Si3 0.922674 0.198222 0.020829
Si Si4 0.918749 0.633725 0.460833
Si Si5 0.837977 0.119254 0.285983
Si Si6 0.647947 0.108117 0.558570
Si Si7 0.269156 0.006175 0.939236
Si Si8 0.556602 0.940835 0.315103
O O1 0.126150 0.333029 0.312733
O O2 0.190744 0.594249 0.535899
O O3 0.099785 0.739529 0.244716
O O4 0.217105 0.303433 0.054893
O O5 0.416925 0.607736 0.368255
O O6 0.528577 0.163549 0.193885
O O7 0.500000 0.500000 0.000000
O O8 0.422296 0.315445 0.909276
O O9 0.905159 0.455913 0.225255
O O10 0.886458 0.068799 0.065780
O O11 0.000000 0.000000 0.000000
O O12 0.000000 0.500000 0.500000
O O13 0.883928 0.902611 0.422988
O O14 0.771639 0.128539 0.161824
O O15 0.688992 0.054538 0.310321
O O16 0.621651 0.918940 0.474566
O O17 0.688405 0.078479 0.818059
O O18 0.500000 0.000000 0.500000
#
# Coordination Sequence:
#
# PCOD8032470 Si02
#       8
#     2   2   2   2   2   2   2   2
#     4  11  26  46  70  99 147 188 248 307 375 440
#     4  11  24  47  78 113 156 193 241 311 380 426
#     4  11  24  41  71 109 133 179 251 313 380 449
#     4  11  23  42  71 105 140 183 244 312 384 452
#     4  11  26  46  71  97 145 195 238 309 380 430
#     4  12  28  48  76 113 149 200 260 290 365 456
#     4  12  29  49  72 105 153 208 251 298 359 463
#     4  11  25  45  80 113 154 189 240 318 377 417
#
# _framework density 23.201557000000001
#
# number of rings (size 3 to 8) (size 9 to 14) (size 15 to 20)
#    0.000    0.750    2.500    3.375   10.500    5.000 
#    0.000    0.000    0.000    0.000    0.000    0.000 
#    0.000    0.000    0.000    0.000    0.000    0.000 
#
# Total GULP energy -198286.492835 kJ/mol
# GULP energy per Si atom -12392.905802 kJ/mol
# Density = 2.314875 g / cm^3
# Si number density = 23.201557 Si / 1000 Ang^3
#
#
#
# Elastic Constant Matrix: (Units=GPa)
#
#
# Indices 1 2 3 4 5 6 
#
# 1 176.9042 42.8345 72.4184 5.2834 5.3772 25.3005
# 2 42.8345 87.1462 31.4756 -2.3129 -0.5940 20.5061
# 3 72.4184 31.4756 115.7767 -2.0058 -5.8669 11.0691
# 4 5.2834 -2.3129 -2.0058 49.9209 4.1164 -1.5343
# 5 5.3772 -0.5940 -5.8669 4.1164 51.4286 2.4101
# 6 25.3005 20.5061 11.0691 -1.5343 2.4101 39.9057
#
#
#
# Elastic Compliance Matrix: (Units=1/GPa)
#
#
# Indices 1 2 3 4 5 6 
#
# 1 0.008497 -0.001812 -0.004602 -0.001167 -0.001193 -0.003153
# 2 -0.001812 0.014535 -0.002248 0.000573 0.000322 -0.005694
# 3 -0.004602 -0.002248 0.012169 0.000746 0.001755 0.000620
# 4 -0.001167 0.000573 0.000746 0.020367 -0.001468 0.001110
# 5 -0.001193 0.000322 0.001755 -0.001468 0.019945 -0.001157
# 6 -0.003153 -0.005694 0.000620 0.001110 -0.001157 0.029924
#
#
# Mechanical properties :
#
#
# Convention : Reuss Voigt Hill
#
# Bulk Modulus (GPa) = 55.93148 74.80935 65.37041
# Shear Modulus (GPa) = 38.84428 43.79095 41.31762
#
# Velocity S-wave (km/s) = 4.09615 4.34915 4.22455
# Velocity P-wave (km/s) = 6.82132 7.58508 7.21331
#
# Compressibility (1/GPa) = 0.01787902
#
# Stress axis : x y z
#
# Youngs Moduli (GPa) = 117.68487 68.80167 82.17377
#
# Poissons Ratio (x) = 0.12466 0.37814
# Poissons Ratio (y) = 0.21322 0.18469
# Poissons Ratio (z) = 0.54156 0.15463
#
# Static dielectric constant tensor:
#      x y z
#    x 4.279860 0.209880 0.133320 
#    y 0.209880 3.925850 -0.176400 
#    z 0.133320 -0.176400 3.734800 
# 
# 
# High freq. dielectric constant tensor:
#      x y z
#    x 1.924980 0.014200 0.009780 
#    y 0.014200 1.917960 0.009240 
#    z 0.009780 0.009240 1.935210 
# 
# From -- ./inp_files/13424.got.cif
#   From: 2010.06.25/outbox.cif.g09.slc.cpg/sg2_7_cif.got.tgz:13424.got - 2010.06.27 13:26:56.
