data_PCOD8032993
_publ_section_title
;
Structure prediction by ZEFSAII (Michael W. Deem and Ramdas Pophale) SiO2 
 PCOD8032993
Probable space group: P -1
;
_chemical_formula_sum "Si O2"
_cell_formula_units_Z 16
_cell_length_a 12.890438
_cell_length_b 10.768142
_cell_length_c 10.866857
_cell_angle_alpha 121.559514
_cell_angle_beta 58.584586
_cell_angle_gamma 74.296818
_cell_volume 728.804977
_symmetry_space_group_name_H-M "P -1"
_symmetry_group_IT_number 2
_symmetry_cell_setting 'triclinic'
loop_
_space_group_symop_operation_xyz
x,y,z
-x,-y,-z
loop_
_atom_site_type_symbol
_atom_site_label
_atom_site_fract_x
_atom_site_fract_y
_atom_site_fract_z
Si Si1 0.209562 0.320231 0.235678
Si Si2 0.694542 0.000925 0.413397
Si Si3 0.283041 0.927981 0.993168
Si Si4 0.014313 0.210239 0.691684
Si Si5 0.637991 0.536147 0.685912
Si Si6 0.208341 0.843074 0.756104
Si Si7 0.707347 0.692266 0.102928
Si Si8 0.945412 0.154046 0.452669
O O1 0.299934 0.351245 0.292753
O O2 0.000000 0.500000 0.500000
O O3 0.240106 0.354373 0.097100
O O4 0.314463 0.072888 0.048321
O O5 0.723575 0.840062 0.221341
O O6 0.806050 0.877464 0.407266
O O7 0.770632 0.077158 0.338610
O O8 0.488502 0.202010 0.691601
O O9 0.415467 0.737582 0.917807
O O10 0.324611 0.819339 0.778325
O O11 0.068100 0.090232 0.228253
O O12 0.014494 0.203396 0.540396
O O13 0.844369 0.461253 0.970380
O O14 0.996772 0.060922 0.668211
O O15 0.705789 0.392464 0.446844
O O16 0.730084 0.371947 0.663507
O O17 0.000000 0.000000 0.000000
#
# Coordination Sequence:
#
# PCOD8032993 Si02
#       8
#     2   2   2   2   2   2   2   2
#     4  12  23  48  71 102 143 185 232 295 346 416
#     4  11  25  45  69 102 141 182 233 284 346 419
#     4  12  25  45  72 100 139 184 234 289 353 413
#     4  11  23  44  70  96 141 181 228 280 352 416
#     4  12  25  43  69 106 134 181 234 287 358 403
#     4  12  23  48  71 102 143 185 232 295 346 416
#     4  11  25  45  69 102 141 182 233 284 346 419
#     4  11  24  42  68 105 130 179 234 286 344 416
#
# _framework density 21.953745000000001
#
# number of rings (size 3 to 8) (size 9 to 14) (size 15 to 20)
#    0.000    0.500    6.250    1.125    3.500    0.000 
#    4.500    3.125    0.000    0.000    0.000    0.000 
#    0.000    0.000    0.000    0.000    0.000    0.000 
#
# Total GULP energy -198261.330993 kJ/mol
# GULP energy per Si atom -12391.333187 kJ/mol
# Density = 2.190378 g / cm^3
# Si number density = 21.953745 Si / 1000 Ang^3
#
#
#
# Elastic Constant Matrix: (Units=GPa)
#
#
# Indices 1 2 3 4 5 6 
#
# 1 124.4864 32.2993 65.2174 13.3398 14.7238 -7.2966
# 2 32.2993 79.4378 45.0706 9.7071 1.3204 -6.2064
# 3 65.2174 45.0706 102.6239 6.9979 0.5826 0.9474
# 4 13.3398 9.7071 6.9979 39.3661 0.0883 -2.5551
# 5 14.7238 1.3204 0.5826 0.0883 40.9788 8.5701
# 6 -7.2966 -6.2064 0.9474 -2.5551 8.5701 41.0811
#
#
#
# Elastic Compliance Matrix: (Units=1/GPa)
#
#
# Indices 1 2 3 4 5 6 
#
# 1 0.013647 -0.000020 -0.008470 -0.002868 -0.005527 0.003591
# 2 -0.000020 0.017410 -0.007465 -0.002772 -0.001036 0.002842
# 3 -0.008470 -0.007465 0.018337 0.001198 0.003810 -0.003775
# 4 -0.002868 -0.002772 0.001198 0.026877 0.000936 0.000520
# 5 -0.005527 -0.001036 0.003810 0.000936 0.027824 -0.006972
# 6 0.003591 0.002842 -0.003775 0.000520 -0.006972 0.026983
#
#
# Mechanical properties :
#
#
# Convention : Reuss Voigt Hill
#
# Bulk Modulus (GPa) = 57.19441 65.74696 61.47068
# Shear Modulus (GPa) = 29.61796 35.21592 32.41694
#
# Velocity S-wave (km/s) = 3.67700 4.00946 3.84683
# Velocity P-wave (km/s) = 6.64349 7.17268 6.91315
#
# Compressibility (1/GPa) = 0.01748423
#
# Stress axis : x y z
#
# Youngs Moduli (GPa) = 73.27475 57.43833 54.53492
#
# Poissons Ratio (x) = 0.00117 0.46191
# Poissons Ratio (y) = 0.00149 0.40708
# Poissons Ratio (z) = 0.62064 0.42875
#
# Static dielectric constant tensor:
#      x y z
#    x 4.322150 -0.066190 0.313700 
#    y -0.066190 3.901300 0.249000 
#    z 0.313700 0.249000 4.013600 
# 
# 
# High freq. dielectric constant tensor:
#      x y z
#    x 1.887930 -0.000320 0.017910 
#    y -0.000320 1.848890 0.024840 
#    z 0.017910 0.024840 1.863720 
# 
# From -- ./inp_files/428877.got.cif
#   From: 2010.06.25/outbox.cif.g09.slc.cpg/sg2_215_cif.got.tgz:428877.got - 2010.06.27 13:26:56.
