data_PCOD8032398
_publ_section_title
;
Structure prediction by ZEFSAII (Michael W. Deem and Ramdas Pophale) SiO2 
 PCOD8032398
Probable space group: P -1
;
_chemical_formula_sum "Si O2"
_cell_formula_units_Z 16
_cell_length_a 8.764456
_cell_length_b 9.042203
_cell_length_c 12.993719
_cell_angle_alpha 51.008506
_cell_angle_beta 61.986067
_cell_angle_gamma 84.944046
_cell_volume 673.538419
_symmetry_space_group_name_H-M "P -1"
_symmetry_group_IT_number 2
_symmetry_cell_setting 'triclinic'
loop_
_space_group_symop_operation_xyz
x,y,z
-x,-y,-z
loop_
_atom_site_type_symbol
_atom_site_label
_atom_site_fract_x
_atom_site_fract_y
_atom_site_fract_z
Si Si1 0.854037 0.598849 0.054652
Si Si2 0.774564 0.907990 0.809887
Si Si3 0.076149 0.629255 0.157954
Si Si4 0.485175 0.278598 0.323035
Si Si5 0.015068 0.299450 0.630571
Si Si6 0.872160 0.772390 0.640602
Si Si7 0.594864 0.709301 0.432189
Si Si8 0.573894 0.091864 0.176602
O O1 0.646468 0.473587 0.156490
O O2 0.901307 0.630554 0.146232
O O3 0.853921 0.816582 0.920895
O O4 0.000000 0.500000 0.000000
O O5 0.765002 0.752540 0.789964
O O6 0.572367 0.930340 0.860280
O O7 0.919076 0.128108 0.652861
O O8 0.030016 0.397666 0.309002
O O9 0.091498 0.754459 0.203257
O O10 0.253786 0.723654 0.990855
O O11 0.280299 0.293264 0.371213
O O12 0.508092 0.240546 0.454461
O O13 0.503224 0.115716 0.304717
O O14 0.217210 0.306309 0.581278
O O15 0.000000 0.500000 0.500000
O O16 0.000000 0.000000 0.500000
O O17 0.500000 0.500000 0.500000
O O18 0.619575 0.883275 0.263065
#
# Coordination Sequence:
#
# PCOD8032398 Si02
#       8
#     2   2   2   2   2   2   2   2
#     4  12  23  42  71 105 140 173 233 294 352 411
#     4  11  24  43  67  99 138 179 229 290 350 416
#     4  12  25  44  71 102 141 184 237 289 347 421
#     4  11  24  43  71 101 140 181 235 291 355 410
#     4  12  27  46  68 100 143 188 231 285 355 423
#     4  11  23  42  69 101 137 184 233 288 349 414
#     4  12  26  45  68 100 144 186 235 289 352 424
#     4  11  25  45  71 103 135 185 241 289 352 415
#
# _framework density 23.755141999999999
#
# number of rings (size 3 to 8) (size 9 to 14) (size 15 to 20)
#    0.000    0.500    2.500    5.625    0.000    9.500 
#    0.000    0.000    0.000    0.000    0.000    0.000 
#    0.000    0.000    0.000    0.000    0.000    0.000 
#
# Total GULP energy -198213.538783 kJ/mol
# GULP energy per Si atom -12388.346174 kJ/mol
# Density = 2.370107 g / cm^3
# Si number density = 23.755142 Si / 1000 Ang^3
#
#
#
# Elastic Constant Matrix: (Units=GPa)
#
#
# Indices 1 2 3 4 5 6 
#
# 1 161.8346 37.9646 56.7778 -18.8781 -0.2971 9.6703
# 2 37.9646 90.2831 36.4624 2.2747 17.0900 15.6678
# 3 56.7778 36.4624 122.0968 -23.2977 11.5386 -3.3214
# 4 -18.8781 2.2747 -23.2977 45.9526 1.1488 4.0174
# 5 -0.2971 17.0900 11.5386 1.1488 46.5145 -4.4150
# 6 9.6703 15.6678 -3.3214 4.0174 -4.4150 36.4252
#
#
#
# Elastic Compliance Matrix: (Units=1/GPa)
#
#
# Indices 1 2 3 4 5 6 
#
# 1 0.008045 -0.002306 -0.002829 0.002077 0.001411 -0.001460
# 2 -0.002306 0.015953 -0.003932 -0.002986 -0.005486 -0.006944
# 3 -0.002829 -0.003932 0.011801 0.004802 -0.001351 0.002825
# 4 0.002077 -0.002986 0.004802 0.025371 -0.000872 -0.001733
# 5 0.001411 -0.005486 -0.001351 -0.000872 0.024346 0.004909
# 6 -0.001460 -0.006944 0.002825 -0.001733 0.004909 0.031871
#
#
# Mechanical properties :
#
#
# Convention : Reuss Voigt Hill
#
# Bulk Modulus (GPa) = 56.61208 70.73598 63.67403
# Shear Modulus (GPa) = 35.35849 41.97912 38.66881
#
# Velocity S-wave (km/s) = 3.86224 4.20832 4.03899
# Velocity P-wave (km/s) = 6.61607 7.31130 6.97235
#
# Compressibility (1/GPa) = 0.01766407
#
# Stress axis : x y z
#
# Youngs Moduli (GPa) = 124.30350 62.68515 84.74028
#
# Poissons Ratio (x) = 0.14458 0.23972
# Poissons Ratio (y) = 0.28670 0.33318
# Poissons Ratio (z) = 0.35164 0.24646
#
# Static dielectric constant tensor:
#      x y z
#    x 4.250410 0.021920 0.204190 
#    y 0.021920 4.404260 0.216000 
#    z 0.204190 0.216000 4.197860 
# 
# 
# High freq. dielectric constant tensor:
#      x y z
#    x 1.951570 0.013320 0.007090 
#    y 0.013320 1.943690 0.002920 
#    z 0.007090 0.002920 1.942460 
# 
# From -- ./inp_files/494221.got.cif
#   From: 2010.06.25/outbox.cif.g09.slc.cpg/sg2_248_cif.got.tgz:494221.got - 2010.06.27 13:26:56.
