data_PCOD8032481
_publ_section_title
;
Structure prediction by ZEFSAII (Michael W. Deem and Ramdas Pophale) SiO2 
 PCOD8032481
Probable space group: P -1
;
_chemical_formula_sum "Si O2"
_cell_formula_units_Z 14
_cell_length_a 18.143407
_cell_length_b 12.034841
_cell_length_c 9.217648
_cell_angle_alpha 108.309050
_cell_angle_beta 72.042136
_cell_angle_gamma 159.964003
_cell_volume 654.125177
_symmetry_space_group_name_H-M "P -1"
_symmetry_group_IT_number 2
_symmetry_cell_setting 'triclinic'
loop_
_space_group_symop_operation_xyz
x,y,z
-x,-y,-z
loop_
_atom_site_type_symbol
_atom_site_label
_atom_site_fract_x
_atom_site_fract_y
_atom_site_fract_z
Si Si1 0.343957 0.740046 0.226083
Si Si2 0.468480 0.715880 0.345654
Si Si3 0.310281 0.267751 0.125737
Si Si4 0.662765 0.810883 0.616001
Si Si5 0.408271 0.676008 0.691705
Si Si6 0.104360 0.254205 0.954614
Si Si7 0.920082 0.262806 0.403534
O O1 0.465274 0.836859 0.317383
O O2 0.107549 0.457444 0.288933
O O3 0.506050 0.072660 0.224789
O O4 0.301879 0.594713 0.056973
O O5 0.321465 0.421083 0.220750
O O6 0.361052 0.588349 0.514687
O O7 0.703509 0.983999 0.326265
O O8 0.296221 0.177019 0.244724
O O9 0.500000 0.500000 0.000000
O O10 0.091819 0.933411 0.033530
O O11 0.500000 0.500000 0.500000
O O12 0.588168 0.838078 0.696764
O O13 0.874031 0.116867 0.512563
O O14 0.196728 0.347737 0.779247
O O15 0.000000 0.000000 0.000000
O O16 0.000000 0.500000 0.500000
#
# Coordination Sequence:
#
# PCOD8032481 Si02
#       7
#     2   2   2   2   2   2   2
#     4  12  25  47  72 100 146 180 229 292 343 418
#     4  11  24  44  74 103 137 183 230 291 341 406
#     4  12  25  45  68 104 139 182 232 285 347 411
#     4  11  23  42  71  99 137 177 227 291 335 408
#     4  11  25  46  67 104 136 177 233 287 348 403
#     4  12  27  44  68 100 136 186 228 282 347 413
#     4  11  23  43  70 107 135 177 230 281 352 404
#
# _framework density 21.402631
#
# number of rings (size 3 to 8) (size 9 to 14) (size 15 to 20)
#    0.000    0.571    7.143    2.571    4.000    0.571 
#    0.000    0.714    0.000    0.000    0.000    0.000 
#    0.000    0.000    0.000    0.000    0.000    0.000 
#
# Total GULP energy -173525.233976 kJ/mol
# GULP energy per Si atom -12394.659570 kJ/mol
# Density = 2.135392 g / cm^3
# Si number density = 21.402631 Si / 1000 Ang^3
#
#
#
# Elastic Constant Matrix: (Units=GPa)
#
#
# Indices 1 2 3 4 5 6 
#
# 1 122.9871 24.7736 38.2781 -3.7741 22.1584 -12.3274
# 2 24.7736 83.1629 41.8294 -16.1349 11.9246 -13.5033
# 3 38.2781 41.8294 99.7523 -6.9058 10.8047 -5.5519
# 4 -3.7741 -16.1349 -6.9058 38.2156 -4.4485 -4.8795
# 5 22.1584 11.9246 10.8047 -4.4485 38.0267 4.8833
# 6 -12.3274 -13.5033 -5.5519 -4.8795 4.8833 47.5455
#
#
#
# Elastic Compliance Matrix: (Units=1/GPa)
#
#
# Indices 1 2 3 4 5 6 
#
# 1 0.010430 -0.000275 -0.003134 0.000074 -0.005456 0.002828
# 2 -0.000275 0.017937 -0.006268 0.006678 -0.003589 0.005345
# 3 -0.003134 -0.006268 0.013761 -0.000608 -0.000056 -0.001042
# 4 0.000074 0.006678 -0.000608 0.029599 0.000883 0.004792
# 5 -0.005456 -0.003589 -0.000056 0.000883 0.031437 -0.005579
# 6 0.002828 0.005345 -0.001042 0.004792 -0.005579 0.024227
#
#
# Mechanical properties :
#
#
# Convention : Reuss Voigt Hill
#
# Bulk Modulus (GPa) = 43.90524 57.29607 50.60065
# Shear Modulus (GPa) = 32.39671 38.15898 35.27784
#
# Velocity S-wave (km/s) = 3.89482 4.22703 4.06432
# Velocity P-wave (km/s) = 6.38629 7.11705 6.76155
#
# Compressibility (1/GPa) = 0.02277632
#
# Stress axis : x y z
#
# Youngs Moduli (GPa) = 95.87404 55.75018 72.66703
#
# Poissons Ratio (x) = 0.01534 0.22771
# Poissons Ratio (y) = 0.02638 0.45544
# Poissons Ratio (z) = 0.30043 0.34941
#
# Static dielectric constant tensor:
#      x y z
#    x 5.833550 1.611560 0.307890 
#    y 1.611560 5.516980 0.275020 
#    z 0.307890 0.275020 3.965100 
# 
# 
# High freq. dielectric constant tensor:
#      x y z
#    x 1.850910 -0.008100 0.003700 
#    y -0.008100 1.836910 -0.003470 
#    z 0.003700 -0.003470 1.846640 
# 
# From -- ./inp_files/153782.got.cif
#   From: 2010.06.25/outbox.cif.g09.slc.cpg/sg2_77_cif.got.tgz:153782.got - 2010.06.27 13:26:56.
