data_PCOD8032097
_publ_section_title
;
Structure prediction by ZEFSAII (Michael W. Deem and Ramdas Pophale) SiO2 
 PCOD8032097
Probable space group: P -1
;
_chemical_formula_sum "Si O2"
_cell_formula_units_Z 16
_cell_length_a 13.028085
_cell_length_b 9.337628
_cell_length_c 13.345909
_cell_angle_alpha 81.094444
_cell_angle_beta 143.139331
_cell_angle_gamma 74.048226
_cell_volume 711.902527
_symmetry_space_group_name_H-M "P -1"
_symmetry_group_IT_number 2
_symmetry_cell_setting 'triclinic'
loop_
_space_group_symop_operation_xyz
x,y,z
-x,-y,-z
loop_
_atom_site_type_symbol
_atom_site_label
_atom_site_fract_x
_atom_site_fract_y
_atom_site_fract_z
Si Si1 0.292625 0.335911 0.957162
Si Si2 0.633100 0.739023 0.192126
Si Si3 0.024359 0.918667 0.245204
Si Si4 0.152511 0.665226 0.946039
Si Si5 0.385875 0.000788 0.154847
Si Si6 0.666281 0.802854 0.589154
Si Si7 0.032008 0.656006 0.418054
Si Si8 0.471231 0.403711 0.400731
O O1 0.452596 0.245311 0.990733
O O2 0.259598 0.516512 0.952135
O O3 0.044348 0.404621 0.728097
O O4 0.397000 0.170661 0.143554
O O5 0.716255 0.539646 0.327406
O O6 0.846432 0.734383 0.354597
O O7 0.437045 0.919978 0.088539
O O8 0.045577 0.814348 0.376012
O O9 0.278659 0.800554 0.413386
O O10 0.902831 0.140333 0.152961
O O11 0.871354 0.920232 0.040607
O O12 0.921664 0.719632 0.797749
O O13 0.341279 0.558910 0.192621
O O14 0.564174 0.841029 0.393077
O O15 0.683172 0.639739 0.674696
O O16 0.500000 0.000000 0.500000
O O17 0.500000 0.500000 0.500000
#
# Coordination Sequence:
#
# PCOD8032097 Si02
#       8
#     2   2   2   2   2   2   2   2
#     4   9  20  38  68  99 130 174 226 278 329 403
#     4   9  18  39  70 104 128 179 236 272 332 408
#     4  11  26  44  67 103 139 178 229 280 346 404
#     4  12  26  47  68  98 145 177 224 289 346 400
#     4  11  23  40  76  98 138 177 232 284 333 407
#     4  12  26  45  70 101 135 182 227 284 345 398
#     4   8  19  38  70  96 135 173 235 270 332 411
#     4  12  29  46  71  97 135 187 234 279 338 411
#
# _framework density 22.474986999999999
#
# number of rings (size 3 to 8) (size 9 to 14) (size 15 to 20)
#    0.750    0.750    1.250    3.000    8.750    1.000 
#    0.000    1.250    0.000    0.000    0.000    0.000 
#    0.000    0.000    0.000    0.000    0.000    0.000 
#
# Total GULP energy -198321.011552 kJ/mol
# GULP energy per Si atom -12395.063222 kJ/mol
# Density = 2.242383 g / cm^3
# Si number density = 22.474987 Si / 1000 Ang^3
#
#
#
# Elastic Constant Matrix: (Units=GPa)
#
#
# Indices 1 2 3 4 5 6 
#
# 1 80.8145 49.2555 21.4342 -4.4201 -18.9149 8.5078
# 2 49.2555 131.7653 21.4221 -10.0826 -14.2749 12.8913
# 3 21.4342 21.4221 85.8912 -4.8879 -10.6576 0.7113
# 4 -4.4201 -10.0826 -4.8879 29.1539 6.0403 -8.1060
# 5 -18.9149 -14.2749 -10.6576 6.0403 28.3855 -10.0330
# 6 8.5078 12.8913 0.7113 -8.1060 -10.0330 45.7810
#
#
#
# Elastic Compliance Matrix: (Units=1/GPa)
#
#
# Indices 1 2 3 4 5 6 
#
# 1 0.018411 -0.005668 -0.002159 -0.001395 0.008871 -0.000095
# 2 -0.005668 0.010170 -0.000989 0.002093 0.000019 -0.001420
# 3 -0.002159 -0.000989 0.012874 0.001226 0.003125 0.001382
# 4 -0.001395 0.002093 0.001226 0.037595 -0.005623 0.005075
# 5 0.008871 0.000019 0.003125 -0.005623 0.046140 0.007414
# 6 -0.000095 -0.001420 0.001382 0.005075 0.007414 0.024763
#
#
# Mechanical properties :
#
#
# Convention : Reuss Voigt Hill
#
# Bulk Modulus (GPa) = 41.97405 53.63273 47.80339
# Shear Modulus (GPa) = 28.48609 34.42137 31.45373
#
# Velocity S-wave (km/s) = 3.56400 3.91774 3.74505
# Velocity P-wave (km/s) = 5.97098 6.66183 6.32584
#
# Compressibility (1/GPa) = 0.02382424
#
# Stress axis : x y z
#
# Youngs Moduli (GPa) = 54.31566 98.32985 77.67527
#
# Poissons Ratio (x) = 0.55730 0.16768
# Poissons Ratio (y) = 0.30784 0.07681
# Poissons Ratio (z) = 0.11725 0.09723
#
# Static dielectric constant tensor:
#      x y z
#    x 3.840600 0.006590 -0.095140 
#    y 0.006590 3.817030 -0.216510 
#    z -0.095140 -0.216510 4.036100 
# 
# 
# High freq. dielectric constant tensor:
#      x y z
#    x 1.883760 0.012110 -0.008150 
#    y 0.012110 1.873540 -0.019160 
#    z -0.008150 -0.019160 1.879430 
# 
# From -- ./inp_files/529811.got.cif
#   From: 2010.06.25/outbox.cif.g09.slc.cpg/sg2_265_cif.got.tgz:529811.got - 2010.06.27 13:26:56.
