data_PCOD8032389
_publ_section_title
;
Structure prediction by ZEFSAII (Michael W. Deem and Ramdas Pophale) SiO2 
 PCOD8032389
Probable space group: P -1
;
_chemical_formula_sum "Si O2"
_cell_formula_units_Z 16
_cell_length_a 15.496559
_cell_length_b 5.536906
_cell_length_c 15.984236
_cell_angle_alpha 53.145368
_cell_angle_beta 141.517453
_cell_angle_gamma 115.796884
_cell_volume 681.270484
_symmetry_space_group_name_H-M "P -1"
_symmetry_group_IT_number 2
_symmetry_cell_setting 'triclinic'
loop_
_space_group_symop_operation_xyz
x,y,z
-x,-y,-z
loop_
_atom_site_type_symbol
_atom_site_label
_atom_site_fract_x
_atom_site_fract_y
_atom_site_fract_z
Si Si1 0.551283 0.493563 0.841338
Si Si2 0.726695 0.468860 0.286856
Si Si3 0.216068 0.020934 0.890764
Si Si4 0.867480 0.843516 0.464000
Si Si5 0.265389 0.543098 0.304881
Si Si6 0.981017 0.649370 0.753997
Si Si7 0.501500 0.351743 0.412531
Si Si8 0.201338 0.113929 0.047590
O O1 0.437789 0.508542 0.825343
O O2 0.470771 0.533821 0.683502
O O3 0.643855 0.776682 0.859642
O O4 0.647793 0.186495 0.989592
O O5 0.756766 0.638435 0.187053
O O6 0.799194 0.649435 0.379640
O O7 0.770623 0.114795 0.378629
O O8 0.072894 0.937638 0.754948
O O9 0.181014 0.973359 0.970595
O O10 0.914321 0.600021 0.622245
O O11 0.000000 0.000000 0.500000
O O12 0.344987 0.471833 0.293397
O O13 0.377797 0.512603 0.470439
O O14 0.145743 0.316249 0.282250
O O15 0.191860 0.878250 0.165720
O O16 0.082776 0.373709 0.920442
O O17 0.500000 0.000000 0.500000
#
# Coordination Sequence:
#
# PCOD8032389 Si02
#       8
#     2   2   2   2   2   2   2   2
#     4  11  25  45  69 104 136 183 234 290 355 423
#     4  12  28  45  80 103 143 190 240 293 360 418
#     4  11  25  46  67 100 143 183 228 296 345 427
#     4  12  26  49  73 106 145 186 238 300 352 418
#     4  11  24  43  70  99 134 181 234 288 353 427
#     4  11  26  42  70 100 137 186 235 286 360 420
#     4  11  23  42  68  96 137 173 227 295 349 409
#     4  11  24  44  68  97 145 179 232 291 348 425
#
# _framework density 23.485531000000002
#
# number of rings (size 3 to 8) (size 9 to 14) (size 15 to 20)
#    0.000    0.750    3.750    2.625    7.000    2.000 
#    0.000    0.000    0.000    0.000    0.000    0.000 
#    0.000    0.000    0.000    0.000    0.000    0.000 
#
# Total GULP energy -198345.671423 kJ/mol
# GULP energy per Si atom -12396.604464 kJ/mol
# Density = 2.343208 g / cm^3
# Si number density = 23.485531 Si / 1000 Ang^3
#
#
#
# Elastic Constant Matrix: (Units=GPa)
#
#
# Indices 1 2 3 4 5 6 
#
# 1 97.9884 8.4905 27.9779 4.2218 18.2029 15.0920
# 2 8.4905 64.3608 17.4332 -2.1394 8.5609 -2.9617
# 3 27.9779 17.4332 93.6910 0.5418 -1.1018 11.5870
# 4 4.2218 -2.1394 0.5418 24.7125 5.7261 -6.7323
# 5 18.2029 8.5609 -1.1018 5.7261 41.9788 1.6344
# 6 15.0920 -2.9617 11.5870 -6.7323 1.6344 40.6485
#
#
#
# Elastic Compliance Matrix: (Units=1/GPa)
#
#
# Indices 1 2 3 4 5 6 
#
# 1 0.012843 -0.000360 -0.003325 -0.002043 -0.005149 -0.003978
# 2 -0.000360 0.017355 -0.003580 0.003444 -0.004070 0.003153
# 3 -0.003325 -0.003580 0.012748 -0.001500 0.002829 -0.003022
# 4 -0.002043 0.003444 -0.001500 0.045118 -0.006367 0.009165
# 5 -0.005149 -0.004070 0.002829 -0.006367 0.027880 -0.001367
# 6 -0.003978 0.003153 -0.003022 0.009165 -0.001367 0.028742
#
#
# Mechanical properties :
#
#
# Convention : Reuss Voigt Hill
#
# Bulk Modulus (GPa) = 35.18895 40.42704 37.80799
# Shear Modulus (GPa) = 29.64051 34.94387 32.29219
#
# Velocity S-wave (km/s) = 3.55642 3.86150 3.71210
# Velocity P-wave (km/s) = 5.64624 6.09365 5.87420
#
# Compressibility (1/GPa) = 0.02841801
#
# Stress axis : x y z
#
# Youngs Moduli (GPa) = 77.86263 57.61914 78.44317
#
# Poissons Ratio (x) = 0.02072 0.26083
# Poissons Ratio (y) = 0.02800 0.28079
# Poissons Ratio (z) = 0.25890 0.20625
#
# Static dielectric constant tensor:
#      x y z
#    x 4.219670 -0.047660 0.120170 
#    y -0.047660 4.034040 0.340840 
#    z 0.120170 0.340840 3.975990 
# 
# 
# High freq. dielectric constant tensor:
#      x y z
#    x 1.934310 0.010660 0.000730 
#    y 0.010660 1.915740 0.000310 
#    z 0.000730 0.000310 1.947140 
# 
# From -- ./inp_files/90087.got.cif
#   From: 2010.06.25/outbox.cif.g09.slc.cpg/sg2_46_cif.got.tgz:90087.got - 2010.06.27 13:26:56.
