data_PCOD8032039
_publ_section_title
;
Structure prediction by ZEFSAII (Michael W. Deem and Ramdas Pophale) SiO2 
 PCOD8032039
Probable space group: P -1
;
_chemical_formula_sum "Si O2"
_cell_formula_units_Z 16
_cell_length_a 15.217408
_cell_length_b 9.609837
_cell_length_c 9.568523
_cell_angle_alpha 115.564543
_cell_angle_beta 141.219171
_cell_angle_gamma 79.374977
_cell_volume 761.469485
_symmetry_space_group_name_H-M "P -1"
_symmetry_group_IT_number 2
_symmetry_cell_setting 'triclinic'
loop_
_space_group_symop_operation_xyz
x,y,z
-x,-y,-z
loop_
_atom_site_type_symbol
_atom_site_label
_atom_site_fract_x
_atom_site_fract_y
_atom_site_fract_z
Si Si1 0.548507 0.684120 0.594834
Si Si2 0.175654 0.358809 0.519520
Si Si3 0.299479 0.693953 0.935537
Si Si4 0.986303 0.648801 0.959369
Si Si5 0.864276 0.818807 0.114412
Si Si6 0.617894 0.815702 0.436013
Si Si7 0.287921 0.811000 0.276755
Si Si8 0.039080 0.806635 0.585186
O O1 0.500000 0.500000 0.500000
O O2 0.587828 0.703368 0.487255
O O3 0.420267 0.768217 0.505920
O O4 0.690062 0.771745 0.899268
O O5 0.280270 0.509080 0.793589
O O6 0.266775 0.232293 0.542651
O O7 0.039929 0.276823 0.411648
O O8 0.107217 0.415641 0.321750
O O9 0.191452 0.762588 0.735016
O O10 0.466093 0.790621 0.153083
O O11 0.260274 0.710481 0.056089
O O12 0.145540 0.762810 0.174200
O O13 0.898897 0.751734 0.980619
O O14 0.000000 0.500000 0.000000
O O15 0.937509 0.743570 0.297940
O O16 0.931602 0.006369 0.277067
O O17 0.675162 0.000856 0.631912
#
# Coordination Sequence:
#
# PCOD8032039 Si02
#       8
#     2   2   2   2   2   2   2   2
#     4  11  23  40  67  97 133 175 217 274 329 392
#     4  12  25  41  69  97 135 171 222 272 336 387
#     4  11  23  41  66  96 131 168 219 272 326 389
#     4  12  25  41  67  99 134 171 223 279 327 393
#     4  11  24  43  65  95 135 170 225 267 333 394
#     4  11  24  44  67  99 130 178 224 271 324 400
#     4  11  24  42  71  97 131 175 227 270 327 396
#     4  11  24  42  68  95 130 178 214 277 330 393
#
# _framework density 21.012003
#
# number of rings (size 3 to 8) (size 9 to 14) (size 15 to 20)
#    0.000    0.750    2.500    6.000    5.250    1.000 
#    0.000    0.000    0.000    5.250    0.000    0.000 
#    0.000    0.000    0.000    0.000    0.000    0.000 
#
# Total GULP energy -198475.197626 kJ/mol
# GULP energy per Si atom -12404.699852 kJ/mol
# Density = 2.096418 g / cm^3
# Si number density = 21.012003 Si / 1000 Ang^3
#
#
#
# Elastic Constant Matrix: (Units=GPa)
#
#
# Indices 1 2 3 4 5 6 
#
# 1 76.8726 34.0791 42.6988 2.4515 6.2543 -1.9222
# 2 34.0791 105.6136 42.7152 5.3208 -6.8489 2.2610
# 3 42.6988 42.7152 143.7971 -8.6570 7.1341 0.1936
# 4 2.4515 5.3208 -8.6570 41.1421 -6.7294 3.9838
# 5 6.2543 -6.8489 7.1341 -6.7294 34.4135 -1.4487
# 6 -1.9222 2.2610 0.1936 3.9838 -1.4487 35.4062
#
#
#
# Elastic Compliance Matrix: (Units=1/GPa)
#
#
# Indices 1 2 3 4 5 6 
#
# 1 0.017407 -0.004210 -0.003866 -0.002012 -0.003538 0.001317
# 2 -0.004210 0.012187 -0.002616 -0.001241 0.003460 -0.000711
# 3 -0.003866 -0.002616 0.009082 0.002312 -0.001266 -0.000404
# 4 -0.002012 -0.001241 0.002312 0.026100 0.004626 -0.002790
# 5 -0.003538 0.003460 -0.001266 0.004626 0.031572 0.000365
# 6 0.001317 -0.000711 -0.000404 -0.002790 0.000365 0.028692
#
#
# Mechanical properties :
#
#
# Convention : Reuss Voigt Hill
#
# Bulk Modulus (GPa) = 57.82475 62.80771 60.31623
# Shear Modulus (GPa) = 32.85481 35.97838 34.41659
#
# Velocity S-wave (km/s) = 3.95855 4.14246 4.05155
# Velocity P-wave (km/s) = 6.96227 7.26885 7.11721
#
# Compressibility (1/GPa) = 0.01729363
#
# Stress axis : x y z
#
# Youngs Moduli (GPa) = 57.44862 82.05622 110.11314
#
# Poissons Ratio (x) = 0.34542 0.42566
# Poissons Ratio (y) = 0.24183 0.28800
# Poissons Ratio (z) = 0.22208 0.21462
#
# Static dielectric constant tensor:
#      x y z
#    x 4.464530 -0.125040 0.087270 
#    y -0.125040 3.802020 -0.151270 
#    z 0.087270 -0.151270 4.194300 
# 
# 
# High freq. dielectric constant tensor:
#      x y z
#    x 1.814770 -0.009030 0.015940 
#    y -0.009030 1.828730 -0.003800 
#    z 0.015940 -0.003800 1.840470 
# 
# From -- ./inp_files/218265.got.cif
#   From: 2010.06.25/outbox.cif.g09.slc.cpg/sg2_110_cif.got.tgz:218265.got - 2010.06.27 13:26:56.
