data_PCOD8032189
_publ_section_title
;
Structure prediction by ZEFSAII (Michael W. Deem and Ramdas Pophale) SiO2 
 PCOD8032189
Probable space group: P -1
;
_chemical_formula_sum "Si O2"
_cell_formula_units_Z 16
_cell_length_a 8.498555
_cell_length_b 26.868303
_cell_length_c 8.869259
_cell_angle_alpha 136.585019
_cell_angle_beta 32.551280
_cell_angle_gamma 138.579660
_cell_volume 695.142223
_symmetry_space_group_name_H-M "P -1"
_symmetry_group_IT_number 2
_symmetry_cell_setting 'triclinic'
loop_
_space_group_symop_operation_xyz
x,y,z
-x,-y,-z
loop_
_atom_site_type_symbol
_atom_site_label
_atom_site_fract_x
_atom_site_fract_y
_atom_site_fract_z
Si Si1 0.462041 0.295574 0.793691
Si Si2 0.859133 0.631135 0.246642
Si Si3 0.855361 0.607406 0.552660
Si Si4 0.179671 0.541810 0.594844
Si Si5 0.309488 0.798018 0.138480
Si Si6 0.273623 0.146439 0.801771
Si Si7 0.280759 0.187123 0.439230
Si Si8 0.541301 0.084550 0.207852
O O1 0.489022 0.227341 0.726879
O O2 0.266551 0.255074 0.713750
O O3 0.792197 0.350879 0.581020
O O4 0.336810 0.347957 0.112409
O O5 0.856010 0.614651 0.389504
O O6 0.498416 0.614296 0.452852
O O7 0.083093 0.719205 0.227639
O O8 0.959879 0.570649 0.938418
O O9 0.718187 0.517906 0.518469
O O10 0.000000 0.500000 0.500000
O O11 0.603849 0.849832 0.118560
O O12 0.085814 0.847858 0.396468
O O13 0.470742 0.777550 0.817269
O O14 0.343734 0.077578 0.506213
O O15 0.907908 0.135070 0.058215
O O16 0.389271 0.123388 0.291635
O O17 0.500000 0.000000 0.000000
#
# Coordination Sequence:
#
# PCOD8032189 Si02
#       8
#     2   2   2   2   2   2   2   2
#     4  11  23  41  68  99 127 178 228 279 333 410
#     4  12  26  46  66  93 134 182 224 282 358 408
#     4  12  24  43  69  92 130 175 235 277 352 405
#     4  12  28  45  63  95 134 176 233 289 348 421
#     4  12  25  43  71 104 142 175 230 295 346 394
#     4  11  23  44  70 106 137 176 233 276 331 411
#     4  11  25  43  68 105 144 175 226 285 345 393
#     4  11  24  47  73 101 142 188 225 265 333 418
#
# _framework density 23.016874000000001
#
# number of rings (size 3 to 8) (size 9 to 14) (size 15 to 20)
#    0.000    0.500    1.250    8.250    7.000    0.000 
#    0.000    3.750    0.000    0.000    0.000    0.000 
#    0.000    0.000    0.000    0.000    0.000    0.000 
#
# Total GULP energy -198371.312811 kJ/mol
# GULP energy per Si atom -12398.207051 kJ/mol
# Density = 2.296449 g / cm^3
# Si number density = 23.016874 Si / 1000 Ang^3
#
#
#
# Elastic Constant Matrix: (Units=GPa)
#
#
# Indices 1 2 3 4 5 6 
#
# 1 154.6532 39.8940 70.8551 5.0151 4.5127 10.1266
# 2 39.8940 59.7197 35.2643 5.3797 5.3935 4.5319
# 3 70.8551 35.2643 202.9874 7.9725 23.8839 -1.4567
# 4 5.0151 5.3797 7.9725 33.0628 5.4894 -6.8719
# 5 4.5127 5.3935 23.8839 5.4894 46.3710 -6.7377
# 6 10.1266 4.5319 -1.4567 -6.8719 -6.7377 18.9938
#
#
#
# Elastic Compliance Matrix: (Units=1/GPa)
#
#
# Indices 1 2 3 4 5 6 
#
# 1 0.008955 -0.004165 -0.002436 -0.001030 0.000379 -0.004205
# 2 -0.004165 0.021484 -0.002030 -0.003120 -0.001358 -0.004671
# 3 -0.002436 -0.002030 0.006456 -0.000150 -0.002648 0.001285
# 4 -0.001030 -0.003120 -0.000150 0.033908 -0.001586 0.012987
# 5 0.000379 -0.001358 -0.002648 -0.001586 0.024400 0.008000
# 6 -0.004205 -0.004671 0.001285 0.012987 0.008000 0.063641
#
#
# Mechanical properties :
#
#
# Convention : Reuss Voigt Hill
#
# Bulk Modulus (GPa) = 50.93741 78.82079 64.87910
# Shear Modulus (GPa) = 27.37465 37.77530 32.57498
#
# Velocity S-wave (km/s) = 3.45241 4.05557 3.76608
# Velocity P-wave (km/s) = 6.17014 7.49995 6.86731
#
# Compressibility (1/GPa) = 0.01963194
#
# Stress axis : x y z
#
# Youngs Moduli (GPa) = 111.67541 46.54599 154.89246
#
# Poissons Ratio (x) = 0.19389 0.37737
# Poissons Ratio (y) = 0.46518 0.31437
# Poissons Ratio (z) = 0.27208 0.09447
#
# Static dielectric constant tensor:
#      x y z
#    x 4.317330 0.099290 0.044110 
#    y 0.099290 4.123520 -0.062780 
#    z 0.044110 -0.062780 4.393210 
# 
# 
# High freq. dielectric constant tensor:
#      x y z
#    x 1.920370 0.010300 0.002890 
#    y 0.010300 1.889190 -0.006060 
#    z 0.002890 -0.006060 1.933380 
# 
# From -- ./inp_files/223544.got.cif
#   From: 2010.06.25/outbox.cif.g09.slc.cpg/sg2_112_cif.got.tgz:223544.got - 2010.06.27 13:26:56.
