data_PCOD8032527
_publ_section_title
;
Structure prediction by ZEFSAII (Michael W. Deem and Ramdas Pophale) SiO2 
 PCOD8032527
Probable space group: P -1
;
_chemical_formula_sum "Si O2"
_cell_formula_units_Z 14
_cell_length_a 11.617262
_cell_length_b 9.728372
_cell_length_c 15.315350
_cell_angle_alpha 120.620804
_cell_angle_beta 29.121313
_cell_angle_gamma 130.917184
_cell_volume 627.178043
_symmetry_space_group_name_H-M "P -1"
_symmetry_group_IT_number 2
_symmetry_cell_setting 'triclinic'
loop_
_space_group_symop_operation_xyz
x,y,z
-x,-y,-z
loop_
_atom_site_type_symbol
_atom_site_label
_atom_site_fract_x
_atom_site_fract_y
_atom_site_fract_z
Si Si1 0.477603 0.174312 0.047690
Si Si2 0.102402 0.480464 0.018612
Si Si3 0.861219 0.075389 0.447655
Si Si4 0.443789 0.662842 0.565087
Si Si5 0.863162 0.298670 0.363836
Si Si6 0.716688 0.296855 0.737289
Si Si7 0.173578 0.209858 0.979459
O O1 0.169330 0.130463 0.240539
O O2 0.650913 0.323672 0.053801
O O3 0.603790 0.244087 0.892169
O O4 0.500000 0.000000 0.000000
O O5 0.200345 0.330120 0.913729
O O6 0.849239 0.399922 0.223786
O O7 0.000000 0.500000 0.000000
O O8 0.744083 0.138670 0.464465
O O9 0.843924 0.171602 0.579706
O O10 0.681912 0.854600 0.508304
O O11 0.500000 0.500000 0.500000
O O12 0.393600 0.690119 0.504892
O O13 0.057081 0.489206 0.347064
O O14 0.038108 0.256052 0.165072
O O15 0.477385 0.261554 0.818597
O O16 0.000000 0.000000 0.000000
#
# Coordination Sequence:
#
# PCOD8032527 Si02
#       7
#     2   2   2   2   2   2   2
#     4  12  27  48  76 106 150 192 239 307 363 429
#     4  11  26  47  70 102 148 193 236 292 373 427
#     4  12  27  44  78 111 140 192 247 296 367 431
#     4  11  25  46  69 104 150 188 236 305 358 429
#     4  11  23  47  71 102 148 191 242 304 361 426
#     4  12  24  47  77 107 147 188 251 299 360 432
#     4  11  23  42  74 104 143 193 240 298 359 431
#
# _framework density 22.322209000000001
#
# number of rings (size 3 to 8) (size 9 to 14) (size 15 to 20)
#    0.000    0.571    4.286    4.714    4.000    4.000 
#    0.000    0.000    0.000    0.000    0.000    0.000 
#    0.000    0.000    0.000    0.000    0.000    0.000 
#
# Total GULP energy -173584.774892 kJ/mol
# GULP energy per Si atom -12398.912492 kJ/mol
# Density = 2.227140 g / cm^3
# Si number density = 22.322209 Si / 1000 Ang^3
#
#
#
# Elastic Constant Matrix: (Units=GPa)
#
#
# Indices 1 2 3 4 5 6 
#
# 1 151.5758 67.7247 31.6122 -4.6161 12.6217 -13.1057
# 2 67.7247 204.7213 27.2313 1.4610 1.5285 3.9030
# 3 31.6122 27.2313 84.7343 -4.1634 22.4548 -4.9127
# 4 -4.6161 1.4610 -4.1634 41.8334 -11.0460 1.0942
# 5 12.6217 1.5285 22.4548 -11.0460 44.6755 -5.5441
# 6 -13.1057 3.9030 -4.9127 1.0942 -5.5441 46.5944
#
#
#
# Elastic Compliance Matrix: (Units=1/GPa)
#
#
# Indices 1 2 3 4 5 6 
#
# 1 0.008437 -0.002576 -0.001919 0.000528 -0.000919 0.002265
# 2 -0.002576 0.005926 -0.001278 -0.000341 0.000930 -0.001237
# 3 -0.001919 -0.001278 0.014755 -0.000535 -0.006924 0.000312
# 4 0.000528 -0.000341 -0.000535 0.025631 0.006505 0.000293
# 5 -0.000919 0.000930 -0.006924 0.006505 0.027962 0.002108
# 6 0.002265 -0.001237 0.000312 0.000293 0.002108 0.022479
#
#
# Mechanical properties :
#
#
# Convention : Reuss Voigt Hill
#
# Bulk Modulus (GPa) = 56.90984 77.12976 67.01980
# Shear Modulus (GPa) = 40.78531 47.58486 44.18509
#
# Velocity S-wave (km/s) = 4.27912 4.62207 4.45390
# Velocity P-wave (km/s) = 7.06856 7.94435 7.51922
#
# Compressibility (1/GPa) = 0.01757165
#
# Stress axis : x y z
#
# Youngs Moduli (GPa) = 118.52651 168.74977 67.77405
#
# Poissons Ratio (x) = 0.43468 0.13005
# Poissons Ratio (y) = 0.30531 0.08663
# Poissons Ratio (z) = 0.22744 0.21571
#
# Static dielectric constant tensor:
#      x y z
#    x -5.163360 4.261570 1.010020 
#    y 4.261570 2.201120 -0.484480 
#    z 1.010020 -0.484480 3.915170 
# 
# 
# High freq. dielectric constant tensor:
#      x y z
#    x 1.892680 -0.005410 -0.007630 
#    y -0.005410 1.898750 -0.003430 
#    z -0.007630 -0.003430 1.877660 
# 
# From -- ./inp_files/218997.got.cif
#   From: 2010.06.25/outbox.cif.g09.slc.cpg/sg2_110_cif.got.tgz:218997.got - 2010.06.27 13:26:56.
