data_PCOD8032091
_publ_section_title
;
Structure prediction by ZEFSAII (Michael W. Deem and Ramdas Pophale) SiO2 
 PCOD8032091
Probable space group: P -1
;
_chemical_formula_sum "Si O2"
_cell_formula_units_Z 16
_cell_length_a 9.025396
_cell_length_b 12.197769
_cell_length_c 10.024691
_cell_angle_alpha 106.134712
_cell_angle_beta 45.499854
_cell_angle_gamma 91.222339
_cell_volume 731.516439
_symmetry_space_group_name_H-M "P -1"
_symmetry_group_IT_number 2
_symmetry_cell_setting 'triclinic'
loop_
_space_group_symop_operation_xyz
x,y,z
-x,-y,-z
loop_
_atom_site_type_symbol
_atom_site_label
_atom_site_fract_x
_atom_site_fract_y
_atom_site_fract_z
Si Si1 0.220301 0.882224 0.170191
Si Si2 0.417417 0.946805 0.327358
Si Si3 0.937735 0.685574 0.783134
Si Si4 0.632156 0.708476 0.227158
Si Si5 0.885652 0.945837 0.938703
Si Si6 0.600886 0.474413 0.571625
Si Si7 0.640019 0.711193 0.732620
Si Si8 0.183280 0.198721 0.612935
O O1 0.252721 0.937332 0.310328
O O2 0.067930 0.792503 0.249585
O O3 0.099574 0.989050 0.187271
O O4 0.448279 0.814215 0.944505
O O5 0.455525 0.832339 0.358722
O O6 0.310106 0.063384 0.518553
O O7 0.638648 0.959308 0.130836
O O8 0.005322 0.807871 0.804518
O O9 0.835698 0.684704 0.702379
O O10 0.145960 0.578396 0.624719
O O11 0.768574 0.666925 0.994166
O O12 0.505552 0.612059 0.307849
O O13 0.793760 0.721878 0.247779
O O14 0.000000 0.000000 0.000000
O O15 0.500000 0.500000 0.500000
O O16 0.557602 0.594726 0.722868
O O17 0.717602 0.753357 0.560123
#
# Coordination Sequence:
#
# PCOD8032091 Si02
#       8
#     2   2   2   2   2   2   2   2
#     4  12  24  44  72 108 147 190 229 291 362 420
#     4  11  23  45  68 109 145 182 237 290 354 434
#     4  11  27  48  73 104 144 187 240 292 359 416
#     4  11  26  47  69 108 139 185 239 297 351 429
#     4  11  23  40  72 106 149 187 225 288 362 423
#     4  12  29  48  77 102 140 190 245 300 350 420
#     4  12  26  50  71 106 144 189 241 292 349 427
#     4  12  26  40  74 106 148 184 233 287 358 430
#
# _framework density 21.872371000000001
#
# number of rings (size 3 to 8) (size 9 to 14) (size 15 to 20)
#    0.000    0.500    5.000    3.750    8.750    2.000 
#    0.000    0.000    0.000    0.000    0.000    0.000 
#    0.000    0.000    0.000    0.000    0.000    0.000 
#
# Total GULP energy -198524.284040 kJ/mol
# GULP energy per Si atom -12407.767753 kJ/mol
# Density = 2.182259 g / cm^3
# Si number density = 21.872371 Si / 1000 Ang^3
#
#
#
# Elastic Constant Matrix: (Units=GPa)
#
#
# Indices 1 2 3 4 5 6 
#
# 1 96.4245 28.0874 1.2443 -10.8921 8.7757 6.0465
# 2 28.0874 113.5813 25.1361 -21.2664 3.5719 5.2350
# 3 1.2443 25.1361 36.9652 -6.9764 -1.5257 -6.8824
# 4 -10.8921 -21.2664 -6.9764 32.3503 4.6583 -3.5154
# 5 8.7757 3.5719 -1.5257 4.6583 33.9248 4.5138
# 6 6.0465 5.2350 -6.8824 -3.5154 4.5138 38.9889
#
#
#
# Elastic Compliance Matrix: (Units=1/GPa)
#
#
# Indices 1 2 3 4 5 6 
#
# 1 0.011756 -0.002606 0.001713 0.002991 -0.003027 -0.000551
# 2 -0.002606 0.012323 -0.007660 0.005575 -0.001477 -0.001929
# 3 0.001713 -0.007660 0.034224 0.003624 0.000463 0.007077
# 4 0.002991 0.005575 0.003624 0.037747 -0.006863 0.003625
# 5 -0.003027 -0.001477 0.000463 -0.006863 0.031852 -0.003557
# 6 -0.000551 -0.001929 0.007077 0.003625 -0.003557 0.027981
#
#
# Mechanical properties :
#
#
# Convention : Reuss Voigt Hill
#
# Bulk Modulus (GPa) = 24.27306 39.54518 31.90912
# Shear Modulus (GPa) = 26.77812 33.88634 30.33223
#
# Velocity S-wave (km/s) = 3.50278 3.94035 3.72799
# Velocity P-wave (km/s) = 5.24223 6.23066 5.75769
#
# Compressibility (1/GPa) = 0.04119793
#
# Stress axis : x y z
#
# Youngs Moduli (GPa) = 85.06643 81.14994 29.21907
#
# Poissons Ratio (x) = 0.21144 -0.05005
# Poissons Ratio (y) = 0.22165 0.22381
# Poissons Ratio (z) = -0.14572 0.62159
#
# Static dielectric constant tensor:
#      x y z
#    x 4.007800 0.127450 0.047350 
#    y 0.127450 4.130360 0.026040 
#    z 0.047350 0.026040 3.899570 
# 
# 
# High freq. dielectric constant tensor:
#      x y z
#    x 1.875910 0.004200 0.002980 
#    y 0.004200 1.864360 -0.007040 
#    z 0.002980 -0.007040 1.862070 
# 
# From -- ./inp_files/188151.got.cif
#   From: 2010.06.25/outbox.cif.g09.slc.cpg/sg2_95_cif.got.tgz:188151.got - 2010.06.27 13:26:56.
