data_PCOD8032252
_publ_section_title
;
Structure prediction by ZEFSAII (Michael W. Deem and Ramdas Pophale) SiO2 
 PCOD8032252
Probable space group: P -1
;
_chemical_formula_sum "Si O2"
_cell_formula_units_Z 14
_cell_length_a 20.578383
_cell_length_b 11.113525
_cell_length_c 14.428453
_cell_angle_alpha 150.028464
_cell_angle_beta 156.804242
_cell_angle_gamma 30.651820
_cell_volume 613.943817
_symmetry_space_group_name_H-M "P -1"
_symmetry_group_IT_number 2
_symmetry_cell_setting 'triclinic'
loop_
_space_group_symop_operation_xyz
x,y,z
-x,-y,-z
loop_
_atom_site_type_symbol
_atom_site_label
_atom_site_fract_x
_atom_site_fract_y
_atom_site_fract_z
Si Si1 0.599352 0.275424 0.261032
Si Si2 0.973876 0.788159 0.927623
Si Si3 0.388304 0.282644 0.316403
Si Si4 0.668417 0.993263 0.775656
Si Si5 0.236972 0.036932 0.410433
Si Si6 0.268338 0.291194 0.958803
Si Si7 0.410319 0.456407 0.948577
O O1 0.686852 0.467950 0.550726
O O2 0.739180 0.991228 0.260699
O O3 0.423021 0.313752 0.112878
O O4 0.557015 0.334661 0.137003
O O5 0.086126 0.513787 0.847895
O O6 0.831158 0.943565 0.770018
O O7 0.847502 0.767966 0.832651
O O8 0.092929 0.960152 0.230889
O O9 0.366608 0.043363 0.185749
O O10 0.594350 0.212668 0.522094
O O11 0.292736 0.324908 0.122303
O O12 0.500000 0.000000 0.500000
O O13 0.704314 0.259020 0.982185
O O14 0.278732 0.291674 0.663436
O O15 0.500000 0.500000 0.000000
#
# Coordination Sequence:
#
# PCOD8032252 Si02
#       7
#     2   2   2   2   2   2   2
#     4  11  23  41  72 101 135 189 229 271 354 419
#     4  11  25  44  65 103 143 176 230 300 340 399
#     4  12  22  45  74  98 137 189 230 277 347 430
#     4  12  23  43  72  96 135 188 229 285 360 401
#     4  11  23  42  69 100 141 174 229 296 334 396
#     4  11  25  43  68 102 143 179 233 281 344 422
#     4  12  22  41  72 107 133 179 242 282 333 427
#
# _framework density 22.803391000000001
#
# number of rings (size 3 to 8) (size 9 to 14) (size 15 to 20)
#    0.000    0.571    7.143    0.429    2.000    1.143 
#    2.571    0.714    0.000    0.000    0.000    0.000 
#    0.000    0.000    0.000    0.000    0.000    0.000 
#
# Total GULP energy -173488.489274 kJ/mol
# GULP energy per Si atom -12392.034948 kJ/mol
# Density = 2.275149 g / cm^3
# Si number density = 22.803391 Si / 1000 Ang^3
#
#
#
# Elastic Constant Matrix: (Units=GPa)
#
#
# Indices 1 2 3 4 5 6 
#
# 1 98.9327 9.4508 19.2462 -2.0586 3.2967 0.3618
# 2 9.4508 107.9448 40.7956 23.8846 13.4233 -12.5390
# 3 19.2462 40.7956 93.7305 26.1799 1.7027 -12.7127
# 4 -2.0586 23.8846 26.1799 41.5107 -4.9047 4.0987
# 5 3.2967 13.4233 1.7027 -4.9047 30.2028 -5.4006
# 6 0.3618 -12.5390 -12.7127 4.0987 -5.4006 34.9534
#
#
#
# Elastic Compliance Matrix: (Units=1/GPa)
#
#
# Indices 1 2 3 4 5 6 
#
# 1 0.010838 -0.000587 -0.003017 0.002888 -0.000615 -0.001854
# 2 -0.000587 0.013131 -0.003168 -0.006639 -0.006063 0.003406
# 3 -0.003017 -0.003168 0.015931 -0.008895 0.000432 0.005798
# 4 0.002888 -0.006639 -0.008895 0.035385 0.007334 -0.008663
# 5 -0.000615 -0.006063 0.000432 0.007334 0.037562 0.002932
# 6 -0.001854 0.003406 0.005798 -0.008663 0.002932 0.033428
#
#
# Mechanical properties :
#
#
# Convention : Reuss Voigt Hill
#
# Bulk Modulus (GPa) = 37.94222 48.84368 43.39295
# Shear Modulus (GPa) = 29.65501 36.74105 33.19803
#
# Velocity S-wave (km/s) = 3.61011 4.01834 3.81968
# Velocity P-wave (km/s) = 5.83542 6.55709 6.20675
#
# Compressibility (1/GPa) = 0.02635587
#
# Stress axis : x y z
#
# Youngs Moduli (GPa) = 92.26606 76.15345 62.77253
#
# Poissons Ratio (x) = 0.04467 0.18939
# Poissons Ratio (y) = 0.05412 0.19889
# Poissons Ratio (z) = 0.27838 0.24129
#
# Static dielectric constant tensor:
#      x y z
#    x 4.134630 0.074830 0.053320 
#    y 0.074830 4.563220 0.351330 
#    z 0.053320 0.351330 4.003700 
# 
# 
# High freq. dielectric constant tensor:
#      x y z
#    x 1.902940 0.007080 -0.000480 
#    y 0.007080 1.911600 0.020040 
#    z -0.000480 0.020040 1.873800 
# 
# From -- ./inp_files/261335.got.cif
#   From: 2010.06.25/outbox.cif.g09.slc.cpg/sg2_131_cif.got.tgz:261335.got - 2010.06.27 13:26:56.
