data_PCOD8032486
_publ_section_title
;
Structure prediction by ZEFSAII (Michael W. Deem and Ramdas Pophale) SiO2 
 PCOD8032486
Probable space group: P -1
;
_chemical_formula_sum "Si O2"
_cell_formula_units_Z 16
_cell_length_a 18.746920
_cell_length_b 5.133665
_cell_length_c 11.155596
_cell_angle_alpha 61.081381
_cell_angle_beta 51.678369
_cell_angle_gamma 75.238387
_cell_volume 735.682948
_symmetry_space_group_name_H-M "P -1"
_symmetry_group_IT_number 2
_symmetry_cell_setting 'triclinic'
loop_
_space_group_symop_operation_xyz
x,y,z
-x,-y,-z
loop_
_atom_site_type_symbol
_atom_site_label
_atom_site_fract_x
_atom_site_fract_y
_atom_site_fract_z
Si Si1 0.415191 0.646195 0.501802
Si Si2 0.302976 0.101327 0.646641
Si Si3 0.784061 0.539592 0.543827
Si Si4 0.468531 0.068796 0.147161
Si Si5 0.796037 0.287009 0.966903
Si Si6 0.892749 0.027799 0.473139
Si Si7 0.096544 0.119892 0.229565
Si Si8 0.349907 0.568384 0.097941
O O1 0.500000 0.500000 0.500000
O O2 0.336391 0.387026 0.626467
O O3 0.385677 0.906170 0.562467
O O4 0.441567 0.772876 0.315044
O O5 0.254883 0.206204 0.553899
O O6 0.234363 0.904397 0.843867
O O7 0.833758 0.316239 0.453126
O O8 0.708777 0.337455 0.745537
O O9 0.850150 0.720884 0.529201
O O10 0.378604 0.247883 0.185056
O O11 0.557469 0.239342 0.076676
O O12 0.500000 0.000000 0.000000
O O13 0.866617 0.538062 0.890272
O O14 0.711241 0.437617 0.957193
O O15 0.843066 0.079689 0.870351
O O16 0.992495 0.095314 0.296631
O O17 0.899416 0.998754 0.614540
#
# Coordination Sequence:
#
# PCOD8032486 Si02
#       8
#     2   2   2   2   2   2   2   2
#     4  12  26  46  66  92 137 183 224 275 333 391
#     4  12  27  45  66  98 135 177 229 265 333 403
#     4  12  23  44  69  98 134 179 217 272 333 396
#     4  11  26  40  66  96 132 170 227 281 323 383
#     4  12  25  43  70  98 135 176 219 273 332 391
#     4  11  23  42  72 103 132 171 217 275 339 390
#     4  11  23  43  69 105 134 166 221 278 327 402
#     4  11  24  41  64  98 128 173 222 276 325 382
#
# _framework density 21.748497
#
# number of rings (size 3 to 8) (size 9 to 14) (size 15 to 20)
#    0.000    0.500    3.750    4.125    7.000    2.000 
#    0.000    3.750    0.000    0.000    0.000    0.000 
#    0.000    0.000    0.000    0.000    0.000    0.000 
#
# Total GULP energy -198417.160021 kJ/mol
# GULP energy per Si atom -12401.072501 kJ/mol
# Density = 2.169900 g / cm^3
# Si number density = 21.748497 Si / 1000 Ang^3
#
#
#
# Elastic Constant Matrix: (Units=GPa)
#
#
# Indices 1 2 3 4 5 6 
#
# 1 32.5599 18.7251 10.0927 2.1954 -11.7069 -6.4728
# 2 18.7251 111.7220 21.5333 -7.5502 -20.0319 -2.1919
# 3 10.0927 21.5333 114.3345 -9.2327 -0.8566 -4.3081
# 4 2.1954 -7.5502 -9.2327 36.7947 4.5621 -1.7033
# 5 -11.7069 -20.0319 -0.8566 4.5621 39.6325 -0.0074
# 6 -6.4728 -2.1919 -4.3081 -1.7033 -0.0074 36.2409
#
#
#
# Elastic Compliance Matrix: (Units=1/GPa)
#
#
# Indices 1 2 3 4 5 6 
#
# 1 0.039226 -0.004502 -0.002702 -0.004873 0.009815 0.006186
# 2 -0.004502 0.010797 -0.001486 0.001615 0.003909 -0.000251
# 3 -0.002702 -0.001486 0.009477 0.002467 -0.001628 0.000670
# 4 -0.004873 0.001615 0.002467 0.028944 -0.003901 0.000880
# 5 0.009815 0.003909 -0.001628 -0.003901 0.030521 0.001619
# 6 0.006186 -0.000251 0.000670 0.000880 0.001619 0.028804
#
#
# Mechanical properties :
#
#
# Convention : Reuss Voigt Hill
#
# Bulk Modulus (GPa) = 23.74091 39.92428 31.83259
# Shear Modulus (GPa) = 27.90367 36.41797 32.16082
#
# Velocity S-wave (km/s) = 3.58581 4.09651 3.84964
# Velocity P-wave (km/s) = 5.29942 6.38532 5.86754
#
# Compressibility (1/GPa) = 0.04212139
#
# Stress axis : x y z
#
# Youngs Moduli (GPa) = 25.49307 92.61951 105.52033
#
# Poissons Ratio (x) = 0.41696 0.28508
# Poissons Ratio (y) = 0.11477 0.15678
# Poissons Ratio (z) = 0.06887 0.13761
#
# Static dielectric constant tensor:
#      x y z
#    x 1.433640 -2.086900 2.082140 
#    y -2.086900 2.239210 1.637240 
#    z 2.082140 1.637240 1.878900 
# 
# 
# High freq. dielectric constant tensor:
#      x y z
#    x 1.853760 -0.005660 -0.009430 
#    y -0.005660 1.864120 -0.000700 
#    z -0.009430 -0.000700 1.858000 
# 
# From -- ./inp_files/128280.got.cif
#   From: 2010.06.25/outbox.cif.g09.slc.cpg/sg2_65_cif.got.tgz:128280.got - 2010.06.27 13:26:56.
