data_PCOD8032844
_publ_section_title
;
Structure prediction by ZEFSAII (Michael W. Deem and Ramdas Pophale) SiO2 
 PCOD8032844
Probable space group: P -1
;
_chemical_formula_sum "Si O2"
_cell_formula_units_Z 12
_cell_length_a 16.393776
_cell_length_b 8.504599
_cell_length_c 5.035868
_cell_angle_alpha 75.146740
_cell_angle_beta 75.937408
_cell_angle_gamma 44.874118
_cell_volume 476.884729
_symmetry_space_group_name_H-M "P -1"
_symmetry_group_IT_number 2
_symmetry_cell_setting 'triclinic'
loop_
_space_group_symop_operation_xyz
x,y,z
-x,-y,-z
loop_
_atom_site_type_symbol
_atom_site_label
_atom_site_fract_x
_atom_site_fract_y
_atom_site_fract_z
Si Si1 0.166663 0.901672 0.821641
Si Si2 0.583583 0.529363 0.029255
Si Si3 0.801071 0.660285 0.185213
Si Si4 0.418900 0.249862 0.571309
Si Si5 0.019702 0.833459 0.760946
Si Si6 0.873820 0.734667 0.566642
O O1 0.303271 0.711455 0.841552
O O2 0.114385 0.788210 0.906815
O O3 0.132710 0.057163 0.517482
O O4 0.097181 0.077177 0.044970
O O5 0.529127 0.710259 0.239805
O O6 0.500000 0.500000 0.000000
O O7 0.616346 0.593431 0.719942
O O8 0.694507 0.679006 0.240978
O O9 0.919174 0.409454 0.292135
O O10 0.782553 0.815266 0.366073
O O11 0.817690 0.729791 0.868255
O O12 0.500000 0.000000 0.500000
O O13 0.000000 0.000000 0.500000
O O14 0.000000 0.500000 0.500000
#
# Coordination Sequence:
#
# PCOD8032844 Si02
#       6
#     2   2   2   2   2   2
#     4  11  26  44  74 110 155 196 253 319 387 465
#     4  12  28  53  80 116 154 205 268 331 390 456
#     4  12  26  47  74 105 154 200 251 313 388 468
#     4  12  28  55  79 110 152 208 270 324 389 466
#     4  11  23  43  75 107 148 201 246 315 394 469
#     4  12  26  45  72 114 155 198 249 310 392 467
#
# _framework density 25.163315999999998
#
# number of rings (size 3 to 8) (size 9 to 14) (size 15 to 20)
#    0.000    0.333    3.333    4.500    7.000    0.000 
#    0.000    0.000    0.000    0.000    0.000    0.000 
#    0.000    0.000    0.000    0.000    0.000    0.000 
#
# Total GULP energy -148726.786052 kJ/mol
# GULP energy per Si atom -12393.898838 kJ/mol
# Density = 2.510604 g / cm^3
# Si number density = 25.163316 Si / 1000 Ang^3
#
#
#
# Elastic Constant Matrix: (Units=GPa)
#
#
# Indices 1 2 3 4 5 6 
#
# 1 127.0156 49.2725 46.2963 15.3484 2.1064 22.3004
# 2 49.2725 138.5246 54.3681 0.2096 -10.5553 1.5217
# 3 46.2963 54.3681 215.9355 -8.0175 -9.7548 10.5319
# 4 15.3484 0.2096 -8.0175 41.5302 8.5306 2.2096
# 5 2.1064 -10.5553 -9.7548 8.5306 40.7780 3.5817
# 6 22.3004 1.5217 10.5319 2.2096 3.5817 32.9117
#
#
#
# Elastic Compliance Matrix: (Units=1/GPa)
#
#
# Indices 1 2 3 4 5 6 
#
# 1 0.011418 -0.003455 -0.001413 -0.004035 -0.000380 -0.006813
# 2 -0.003455 0.009187 -0.001578 0.000419 0.001899 0.002186
# 3 -0.001413 -0.001578 0.005463 0.001480 0.000741 -0.000898
# 4 -0.004035 0.000419 0.001480 0.026834 -0.005029 0.000986
# 5 -0.000380 0.001899 0.000741 -0.005029 0.026493 -0.002613
# 6 -0.006813 0.002186 -0.000898 0.000986 -0.002613 0.035405
#
#
# Mechanical properties :
#
#
# Convention : Reuss Voigt Hill
#
# Bulk Modulus (GPa) = 75.88450 86.81661 81.35056
# Shear Modulus (GPa) = 37.85461 45.14658 41.50059
#
# Velocity S-wave (km/s) = 3.88281 4.24033 4.06550
# Velocity P-wave (km/s) = 7.09393 7.65180 7.37814
#
# Compressibility (1/GPa) = 0.01317792
#
# Stress axis : x y z
#
# Youngs Moduli (GPa) = 87.57926 108.84844 183.03690
#
# Poissons Ratio (x) = 0.37606 0.25861
# Poissons Ratio (y) = 0.30257 0.28877
# Poissons Ratio (z) = 0.12374 0.17172
#
# Static dielectric constant tensor:
#      x y z
#    x 5.773950 0.840480 0.172750 
#    y 0.840480 4.824220 0.163330 
#    z 0.172750 0.163330 4.400710 
# 
# 
# High freq. dielectric constant tensor:
#      x y z
#    x 2.030700 0.023730 0.005080 
#    y 0.023730 1.994610 -0.004970 
#    z 0.005080 -0.004970 2.017630 
# 
# From -- ./inp_files/106175.got.cif
#   From: 2010.06.25/outbox.cif.g09.slc.cpg/sg2_54_cif.got.tgz:106175.got - 2010.06.27 13:26:56.
