data_PCOD8032529
_publ_section_title
;
Structure prediction by ZEFSAII (Michael W. Deem and Ramdas Pophale) SiO2 
 PCOD8032529
Probable space group: P -1
;
_chemical_formula_sum "Si O2"
_cell_formula_units_Z 14
_cell_length_a 12.222781
_cell_length_b 11.588866
_cell_length_c 8.386569
_cell_angle_alpha 114.614900
_cell_angle_beta 36.815718
_cell_angle_gamma 128.894845
_cell_volume 544.510498
_symmetry_space_group_name_H-M "P -1"
_symmetry_group_IT_number 2
_symmetry_cell_setting 'triclinic'
loop_
_space_group_symop_operation_xyz
x,y,z
-x,-y,-z
loop_
_atom_site_type_symbol
_atom_site_label
_atom_site_fract_x
_atom_site_fract_y
_atom_site_fract_z
Si Si1 0.462949 0.283283 0.184443
Si Si2 0.343877 0.037868 0.920835
Si Si3 0.210401 0.728808 0.002206
Si Si4 0.269526 0.708136 0.562157
Si Si5 0.133007 0.100697 0.728197
Si Si6 0.233205 0.412653 0.387408
Si Si7 0.037689 0.216715 0.196066
O O1 0.701675 0.331306 0.993525
O O2 0.312393 0.224536 0.479092
O O3 0.445868 0.421231 0.217668
O O4 0.364595 0.153825 0.093558
O O5 0.521298 0.126405 0.625038
O O6 0.365889 0.910699 0.911405
O O7 0.107912 0.944719 0.064053
O O8 0.223168 0.665836 0.778607
O O9 0.966449 0.672259 0.304128
O O10 0.295849 0.581300 0.373717
O O11 0.061396 0.698922 0.726220
O O12 0.147584 0.952132 0.623802
O O13 0.184286 0.183663 0.888596
O O14 0.180427 0.319389 0.233572
#
# Coordination Sequence:
#
# PCOD8032529 Si02
#       7
#     2   2   2   2   2   2   2
#     4  12  25  44  72 104 140 179 232 286 345 412
#     4  12  23  46  71 106 137 178 236 292 341 403
#     4  12  26  46  74 101 139 183 238 283 345 408
#     4  12  27  45  69 103 144 183 231 282 349 415
#     4  11  23  42  74 106 135 180 232 296 342 399
#     4  12  26  49  69 102 145 187 224 284 348 420
#     4  11  23  43  72 100 139 180 233 286 347 399
#
# _framework density 25.711165000000001
#
# number of rings (size 3 to 8) (size 9 to 14) (size 15 to 20)
#    0.000    0.286    4.286    4.714    4.000    1.143 
#    2.571    0.000    0.000    0.000    0.000    0.000 
#    0.000    0.000    0.000    0.000    0.000    0.000 
#
# Total GULP energy -173590.869096 kJ/mol
# GULP energy per Si atom -12399.347793 kJ/mol
# Density = 2.565264 g / cm^3
# Si number density = 25.711165 Si / 1000 Ang^3
#
#
#
# Elastic Constant Matrix: (Units=GPa)
#
#
# Indices 1 2 3 4 5 6 
#
# 1 80.1161 51.3744 21.4873 35.9092 -21.0481 -14.7779
# 2 51.3744 119.5231 8.2572 31.0654 6.0683 -26.6047
# 3 21.4873 8.2572 67.9006 5.0824 7.1149 10.3589
# 4 35.9092 31.0654 5.0824 42.0565 1.7444 -5.5010
# 5 -21.0481 6.0683 7.1149 1.7444 28.3878 20.9115
# 6 -14.7779 -26.6047 10.3589 -5.5010 20.9115 31.3327
#
#
#
# Elastic Compliance Matrix: (Units=1/GPa)
#
#
# Indices 1 2 3 4 5 6 
#
# 1 -0.171003 0.132182 0.025420 0.100724 -0.388906 0.300420
# 2 0.132182 -0.080830 -0.024260 -0.086590 0.268722 -0.192817
# 3 0.025420 -0.024260 0.013020 -0.015848 0.065518 -0.059424
# 4 0.100724 -0.086590 -0.015848 -0.029671 0.232372 -0.181073
# 5 -0.388906 0.268722 0.065518 0.232372 -0.763873 0.573693
# 6 0.300420 -0.192817 -0.059424 -0.181073 0.573693 -0.385142
#
#
# Mechanical properties :
#
#
# Convention : Reuss Voigt Hill
#
# Bulk Modulus (GPa) = 35.87906 47.75306 41.81606
# Shear Modulus (GPa) = -2.98527 32.78346 14.89910
#
# Velocity S-wave (km/s) = -1.07870 3.57468 2.40985
# Velocity P-wave (km/s) = 3.52612 5.97085 4.90329
#
# Compressibility (1/GPa) = 0.02787141
#
# Stress axis : x y z
#
# Youngs Moduli (GPa) = -5.84786 -12.37168 76.80446
#
# Poissons Ratio (x) = 1.63532 -1.95237
# Poissons Ratio (y) = 0.77298 1.86331
# Poissons Ratio (z) = 0.14865 -0.30014
#
# Static dielectric constant tensor:
#      x y z
#    x 4.864420 -0.394390 0.042160 
#    y -0.394390 4.707390 0.188950 
#    z 0.042160 0.188950 4.645340 
# 
# 
# High freq. dielectric constant tensor:
#      x y z
#    x 2.035050 -0.017040 0.009080 
#    y -0.017040 2.026830 0.012800 
#    z 0.009080 0.012800 2.033730 
# 
# From -- ./inp_files/259323.got.cif
#   From: 2010.06.25/outbox.cif.g09.slc.cpg/sg2_130_cif.got.tgz:259323.got - 2010.06.27 13:26:56.
