data_PCOD8032519
_publ_section_title
;
Structure prediction by ZEFSAII (Michael W. Deem and Ramdas Pophale) SiO2 
 PCOD8032519
Probable space group: P -1
;
_chemical_formula_sum "Si O2"
_cell_formula_units_Z 16
_cell_length_a 8.396334
_cell_length_b 9.863946
_cell_length_c 18.592914
_cell_angle_alpha 43.270887
_cell_angle_beta 118.006946
_cell_angle_gamma 134.928696
_cell_volume 744.118806
_symmetry_space_group_name_H-M "P -1"
_symmetry_group_IT_number 2
_symmetry_cell_setting 'triclinic'
loop_
_space_group_symop_operation_xyz
x,y,z
-x,-y,-z
loop_
_atom_site_type_symbol
_atom_site_label
_atom_site_fract_x
_atom_site_fract_y
_atom_site_fract_z
Si Si1 0.462527 0.208375 0.411779
Si Si2 0.126430 0.553935 0.858090
Si Si3 0.446659 0.926105 0.900876
Si Si4 0.775686 0.003547 0.052667
Si Si5 0.440470 0.258748 0.544606
Si Si6 0.943403 0.801646 0.646087
Si Si7 0.254982 0.660412 0.304458
Si Si8 0.190377 0.423652 0.771146
O O1 0.552371 0.330786 0.462021
O O2 0.201771 0.111506 0.385592
O O3 0.596211 0.404845 0.301130
O O4 0.500000 0.000000 0.500000
O O5 0.311481 0.704661 0.900924
O O6 0.244617 0.555973 0.809089
O O7 0.957295 0.276124 0.956573
O O8 0.997499 0.676015 0.768037
O O9 0.551037 0.855544 0.012338
O O10 0.652574 0.174374 0.811081
O O11 0.284806 0.979714 0.884394
O O12 0.874291 0.848666 0.131148
O O13 0.500000 0.500000 0.500000
O O14 0.568357 0.188635 0.651627
O O15 0.175112 0.034303 0.570730
O O16 0.795961 0.602569 0.627179
O O17 0.021091 0.606769 0.298482
#
# Coordination Sequence:
#
# PCOD8032519 Si02
#       8
#     2   2   2   2   2   2   2   2
#     4  12  27  46  68 104 142 179 227 290 342 396
#     4  11  23  45  70 100 136 184 227 272 346 413
#     4  11  23  42  73  98 137 179 237 269 334 418
#     4  11  24  44  69 103 140 179 223 287 337 399
#     4  12  26  45  77  98 129 188 239 275 342 406
#     4  11  23  46  74  96 137 179 228 286 336 403
#     4  11  23  46  72  99 137 184 226 281 342 412
#     4  11  26  45  67 101 151 177 220 288 346 398
#
# _framework density 21.501944000000002
#
# number of rings (size 3 to 8) (size 9 to 14) (size 15 to 20)
#    0.000    0.750    5.000    3.375    3.500    1.000 
#    2.250    0.000    0.000    0.000    0.000    0.000 
#    0.000    0.000    0.000    0.000    0.000    0.000 
#
# Total GULP energy -198407.525280 kJ/mol
# GULP energy per Si atom -12400.470330 kJ/mol
# Density = 2.145300 g / cm^3
# Si number density = 21.501944 Si / 1000 Ang^3
#
#
#
# Elastic Constant Matrix: (Units=GPa)
#
#
# Indices 1 2 3 4 5 6 
#
# 1 132.6372 51.3470 42.2853 -1.6499 -1.5779 -10.2439
# 2 51.3470 131.8347 33.7821 6.9995 -4.5411 -0.7623
# 3 42.2853 33.7821 89.6475 -12.3987 -7.6933 -9.4862
# 4 -1.6499 6.9995 -12.3987 35.3193 -12.0663 0.8387
# 5 -1.5779 -4.5411 -7.6933 -12.0663 38.6390 -6.4084
# 6 -10.2439 -0.7623 -9.4862 0.8387 -6.4084 32.7333
#
#
#
# Elastic Compliance Matrix: (Units=1/GPa)
#
#
# Indices 1 2 3 4 5 6 
#
# 1 0.009928 -0.002971 -0.003437 -0.000340 -0.000407 0.001971
# 2 -0.002971 0.009634 -0.002943 -0.003347 -0.000894 -0.001647
# 3 -0.003437 -0.002943 0.015959 0.007937 0.005905 0.004433
# 4 -0.000340 -0.003347 0.007937 0.036125 0.013076 0.003750
# 5 -0.000407 -0.000894 0.005905 0.013076 0.032270 0.007546
# 6 0.001971 -0.001647 0.004433 0.003750 0.007546 0.033794
#
#
# Mechanical properties :
#
#
# Convention : Reuss Voigt Hill
#
# Bulk Modulus (GPa) = 59.45584 67.66094 63.55839
# Shear Modulus (GPa) = 30.86080 36.45198 33.65639
#
# Velocity S-wave (km/s) = 3.79259 4.12185 3.96064
# Velocity P-wave (km/s) = 6.84761 7.36129 7.10909
#
# Compressibility (1/GPa) = 0.01681921
#
# Stress axis : x y z
#
# Youngs Moduli (GPa) = 100.72258 103.80050 62.66197
#
# Poissons Ratio (x) = 0.30836 0.21537
# Poissons Ratio (y) = 0.29922 0.18442
# Poissons Ratio (z) = 0.34618 0.30549
#
# Static dielectric constant tensor:
#      x y z
#    x 3.901340 0.069600 0.170810 
#    y 0.069600 4.146240 0.276060 
#    z 0.170810 0.276060 4.103010 
# 
# 
# High freq. dielectric constant tensor:
#      x y z
#    x 1.842710 -0.000130 0.002200 
#    y -0.000130 1.840250 0.002620 
#    z 0.002200 0.002620 1.863060 
# 
# From -- ./inp_files/556901.got.cif
#   From: 2010.06.25/outbox.cif.g09.slc.cpg/sg2_279_cif.got.tgz:556901.got - 2010.06.27 13:26:56.
