data_PCOD8032818
_publ_section_title
;
Structure prediction by ZEFSAII (Michael W. Deem and Ramdas Pophale) SiO2 
 PCOD8032818
Probable space group: P -1
;
_chemical_formula_sum "Si O2"
_cell_formula_units_Z 14
_cell_length_a 9.378351
_cell_length_b 10.252208
_cell_length_c 9.302530
_cell_angle_alpha 101.146135
_cell_angle_beta 44.433662
_cell_angle_gamma 105.894591
_cell_volume 602.229494
_symmetry_space_group_name_H-M "P -1"
_symmetry_group_IT_number 2
_symmetry_cell_setting 'triclinic'
loop_
_space_group_symop_operation_xyz
x,y,z
-x,-y,-z
loop_
_atom_site_type_symbol
_atom_site_label
_atom_site_fract_x
_atom_site_fract_y
_atom_site_fract_z
Si Si1 0.556023 0.656195 0.081295
Si Si2 0.621488 0.819604 0.562397
Si Si3 0.060076 0.825311 0.136176
Si Si4 0.562786 0.965632 0.106917
Si Si5 0.403635 0.600871 0.488819
Si Si6 0.347567 0.640328 0.942051
Si Si7 0.954316 0.619066 0.909245
O O1 0.456955 0.575661 0.279049
O O2 0.438098 0.581860 0.008397
O O3 0.512465 0.807296 0.140361
O O4 0.804836 0.663927 0.903581
O O5 0.565905 0.963605 0.669780
O O6 0.511651 0.757135 0.480850
O O7 0.868194 0.839972 0.376539
O O8 0.539791 0.706051 0.717640
O O9 0.216876 0.754762 0.102040
O O10 0.190553 0.974239 0.033076
O O11 0.998640 0.738317 0.018383
O O12 0.500000 0.000000 0.000000
O O13 0.500000 0.500000 0.500000
O O14 0.156959 0.583829 0.681253
O O15 0.183320 0.520660 0.952733
#
# Coordination Sequence:
#
# PCOD8032818 Si02
#       7
#     2   2   2   2   2   2   2
#     4  12  27  45  71 109 145 182 241 302 349 418
#     4  11  23  43  74 102 139 192 234 288 355 420
#     4  11  23  43  76 103 135 198 234 284 361 425
#     4  11  24  50  69 102 149 185 239 296 351 418
#     4  12  26  46  74 109 143 185 238 295 361 427
#     4  11  24  45  71 106 147 181 235 300 359 418
#     4  12  25  44  73 106 141 187 241 292 359 423
#
# _framework density 23.246952
#
# number of rings (size 3 to 8) (size 9 to 14) (size 15 to 20)
#    0.000    0.571    7.143    2.571    0.000    4.571 
#    0.000    0.000    0.000    0.000    0.000    0.000 
#    0.000    0.000    0.000    0.000    0.000    0.000 
#
# Total GULP energy -173569.765104 kJ/mol
# GULP energy per Si atom -12397.840365 kJ/mol
# Density = 2.319404 g / cm^3
# Si number density = 23.246952 Si / 1000 Ang^3
#
#
#
# Elastic Constant Matrix: (Units=GPa)
#
#
# Indices 1 2 3 4 5 6 
#
# 1 128.6676 23.6504 71.8457 0.5424 -14.9121 5.8624
# 2 23.6504 77.7643 27.1727 -3.1758 -3.6612 12.3333
# 3 71.8457 27.1727 175.2741 3.3757 -31.6385 7.9726
# 4 0.5424 -3.1758 3.3757 34.9158 0.6177 2.3272
# 5 -14.9121 -3.6612 -31.6385 0.6177 44.2352 -1.3595
# 6 5.8624 12.3333 7.9726 2.3272 -1.3595 36.6899
#
#
#
# Elastic Compliance Matrix: (Units=1/GPa)
#
#
# Indices 1 2 3 4 5 6 
#
# 1 0.010314 -0.001729 -0.003847 0.000058 0.000575 -0.000213
# 2 -0.001729 0.014665 -0.001507 0.001815 -0.000609 -0.004464
# 3 -0.003847 -0.001507 0.008381 -0.000937 0.004571 -0.000471
# 4 0.000058 0.001815 -0.000937 0.029065 -0.000977 -0.002296
# 5 0.000575 -0.000609 0.004571 -0.000977 0.026037 0.000146
# 6 -0.000213 -0.004464 -0.000471 -0.002296 0.000146 0.029043
#
#
# Mechanical properties :
#
#
# Convention : Reuss Voigt Hill
#
# Bulk Modulus (GPa) = 52.10146 69.67153 60.88650
# Shear Modulus (GPa) = 36.21346 40.43732 38.32539
#
# Velocity S-wave (km/s) = 3.95114 4.17522 4.06473
# Velocity P-wave (km/s) = 6.57847 7.29921 6.94819
#
# Compressibility (1/GPa) = 0.01919332
#
# Stress axis : x y z
#
# Youngs Moduli (GPa) = 96.95329 68.18922 119.32335
#
# Poissons Ratio (x) = 0.11791 0.45909
# Poissons Ratio (y) = 0.16765 0.17977
# Poissons Ratio (z) = 0.37303 0.10273
#
# Static dielectric constant tensor:
#      x y z
#    x 4.522760 0.074680 -0.183880 
#    y 0.074680 4.720030 0.317130 
#    z -0.183880 0.317130 4.295720 
# 
# 
# High freq. dielectric constant tensor:
#      x y z
#    x 1.924020 0.007780 -0.014850 
#    y 0.007780 1.943090 0.017140 
#    z -0.014850 0.017140 1.908890 
# 
# From -- ./inp_files/179812.got.cif
#   From: 2010.06.25/outbox.cif.g09.slc.cpg/sg2_90_cif.got.tgz:179812.got - 2010.06.27 13:26:56.
