data_PCOD8032083
_publ_section_title
;
Structure prediction by ZEFSAII (Michael W. Deem and Ramdas Pophale) SiO2 
 PCOD8032083
Probable space group: P -1
;
_chemical_formula_sum "Si O2"
_cell_formula_units_Z 16
_cell_length_a 5.313841
_cell_length_b 11.156662
_cell_length_c 16.478303
_cell_angle_alpha 52.858316
_cell_angle_beta 123.198218
_cell_angle_gamma 115.339667
_cell_volume 644.652699
_symmetry_space_group_name_H-M "P -1"
_symmetry_group_IT_number 2
_symmetry_cell_setting 'triclinic'
loop_
_space_group_symop_operation_xyz
x,y,z
-x,-y,-z
loop_
_atom_site_type_symbol
_atom_site_label
_atom_site_fract_x
_atom_site_fract_y
_atom_site_fract_z
Si Si1 0.359639 0.152783 0.414176
Si Si2 0.810006 0.947343 0.098865
Si Si3 0.874420 0.494447 0.180739
Si Si4 0.249478 0.831244 0.771648
Si Si5 0.257949 0.204849 0.015368
Si Si6 0.412791 0.521320 0.695181
Si Si7 0.928327 0.741480 0.347360
Si Si8 0.623808 0.850532 0.404631
O O1 0.615274 0.300065 0.389505
O O2 0.209729 0.160620 0.474472
O O3 0.108386 0.151649 0.299027
O O4 0.500000 0.000000 0.500000
O O5 0.782421 0.854239 0.215307
O O6 0.873432 0.839455 0.079053
O O7 0.064001 0.095172 0.091175
O O8 0.500000 0.000000 0.000000
O O9 0.704803 0.326418 0.199102
O O10 0.743994 0.543292 0.223278
O O11 0.236627 0.501972 0.240461
O O12 0.787050 0.619660 0.050073
O O13 0.391799 0.821014 0.891830
O O14 0.419841 0.975807 0.693509
O O15 0.223681 0.431551 0.625616
O O16 0.836786 0.784206 0.404097
O O17 0.288090 0.754930 0.391159
#
# Coordination Sequence:
#
# PCOD8032083 Si02
#       8
#     2   2   2   2   2   2   2   2
#     4  11  26  50  77 106 144 198 251 312 365 434
#     4  11  23  40  71 103 151 191 239 300 361 444
#     4  11  24  45  71 109 153 196 237 296 367 447
#     4  11  24  47  72 106 148 194 245 306 357 447
#     4  11  23  43  71 110 143 198 239 293 374 440
#     4  11  25  47  75 106 151 191 242 306 372 434
#     4  12  25  45  73 105 149 183 243 306 365 436
#     4  12  26  45  74 106 140 194 248 303 367 424
#
# _framework density 24.819565000000001
#
# number of rings (size 3 to 8) (size 9 to 14) (size 15 to 20)
#    0.000    0.750    2.500    4.500    1.750    5.000 
#    4.500    3.125    0.000    0.000    0.000    0.000 
#    0.000    0.000    0.000    0.000    0.000    0.000 
#
# Total GULP energy -198347.708290 kJ/mol
# GULP energy per Si atom -12396.731768 kJ/mol
# Density = 2.476307 g / cm^3
# Si number density = 24.819565 Si / 1000 Ang^3
#
#
#
# Elastic Constant Matrix: (Units=GPa)
#
#
# Indices 1 2 3 4 5 6 
#
# 1 116.0142 39.4687 18.6258 0.6555 -0.9460 9.7825
# 2 39.4687 156.3040 48.5131 -25.1045 4.7166 23.3145
# 3 18.6258 48.5131 96.0839 -6.9115 10.4929 8.7053
# 4 0.6555 -25.1045 -6.9115 40.0592 -4.7577 -2.6573
# 5 -0.9460 4.7166 10.4929 -4.7577 33.2376 5.2096
# 6 9.7825 23.3145 8.7053 -2.6573 5.2096 26.5805
#
#
#
# Elastic Compliance Matrix: (Units=1/GPa)
#
#
# Indices 1 2 3 4 5 6 
#
# 1 0.009670 -0.002243 -0.000808 -0.001711 0.000865 -0.001667
# 2 -0.002243 0.009897 -0.003762 0.005343 0.001484 -0.006380
# 3 -0.000808 -0.003762 0.012814 -0.000560 -0.003623 0.000055
# 4 -0.001711 0.005343 -0.000560 0.028570 0.003734 -0.001749
# 5 0.000865 0.001484 -0.003623 0.003734 0.032589 -0.006448
# 6 -0.001667 -0.006380 0.000055 -0.001749 -0.006448 0.044902
#
#
# Mechanical properties :
#
#
# Convention : Reuss Voigt Hill
#
# Bulk Modulus (GPa) = 53.32210 64.62414 58.97312
# Shear Modulus (GPa) = 31.58153 37.42843 34.50498
#
# Velocity S-wave (km/s) = 3.57100 3.88754 3.73263
# Velocity P-wave (km/s) = 6.20752 6.80035 6.51068
#
# Compressibility (1/GPa) = 0.01875395
#
# Stress axis : x y z
#
# Youngs Moduli (GPa) = 103.41423 101.04317 78.03909
#
# Poissons Ratio (x) = 0.22665 0.06309
# Poissons Ratio (y) = 0.23197 0.29357
# Poissons Ratio (z) = 0.08361 0.38011
#
# Static dielectric constant tensor:
#      x y z
#    x 4.320670 -0.094940 -0.316710 
#    y -0.094940 5.530530 0.488050 
#    z -0.316710 0.488050 5.008400 
# 
# 
# High freq. dielectric constant tensor:
#      x y z
#    x 1.968180 0.009780 0.001970 
#    y 0.009780 2.008140 -0.007570 
#    z 0.001970 -0.007570 1.997130 
# 
# From -- ./inp_files/549475.got.cif
#   From: 2010.06.25/outbox.cif.g09.slc.cpg/sg2_275_cif.got.tgz:549475.got - 2010.06.27 13:26:56.
