data_PCOD8032066
_publ_section_title
;
Structure prediction by ZEFSAII (Michael W. Deem and Ramdas Pophale) SiO2 
 PCOD8032066
Probable space group: P -1
;
_chemical_formula_sum "Si O2"
_cell_formula_units_Z 16
_cell_length_a 21.321203
_cell_length_b 17.739092
_cell_length_c 9.630128
_cell_angle_alpha 34.256489
_cell_angle_beta 145.353229
_cell_angle_gamma 158.015989
_cell_volume 739.658601
_symmetry_space_group_name_H-M "P -1"
_symmetry_group_IT_number 2
_symmetry_cell_setting 'triclinic'
loop_
_space_group_symop_operation_xyz
x,y,z
-x,-y,-z
loop_
_atom_site_type_symbol
_atom_site_label
_atom_site_fract_x
_atom_site_fract_y
_atom_site_fract_z
Si Si1 0.797527 0.808123 0.455199
Si Si2 0.386957 0.119372 0.119570
Si Si3 0.033454 0.248435 0.699048
Si Si4 0.510521 0.098705 0.102669
Si Si5 0.337915 0.664191 0.476253
Si Si6 0.565582 0.374591 0.570707
Si Si7 0.157213 0.739778 0.463205
Si Si8 0.215654 0.174578 0.273142
O O1 0.714941 0.585281 0.614195
O O2 0.764783 0.818829 0.536662
O O3 0.699505 0.819387 0.159521
O O4 0.000000 0.000000 0.500000
O O5 0.491740 0.163493 0.111618
O O6 0.516475 0.254999 0.277756
O O7 0.237172 0.873492 0.263202
O O8 0.147188 0.466854 0.494883
O O9 0.900299 0.192711 0.646083
O O10 0.161890 0.273378 0.981954
O O11 0.927999 0.065687 0.671858
O O12 0.701738 0.214653 0.266461
O O13 0.364509 0.845988 0.214308
O O14 0.487945 0.173487 0.816071
O O15 0.347461 0.585909 0.474299
O O16 0.403656 0.320909 0.326483
O O17 0.000000 0.500000 0.500000
#
# Coordination Sequence:
#
# PCOD8032066 Si02
#       8
#     2   2   2   2   2   2   2   2
#     4  12  26  42  67  99 134 170 222 279 332 393
#     4  11  23  43  69  96 132 175 227 267 326 398
#     4  11  24  43  69  99 135 175 221 278 334 384
#     4  11  24  44  68  97 134 179 222 267 330 399
#     4  11  24  44  67  99 134 176 226 268 326 402
#     4  12  26  44  69  98 136 178 217 275 339 388
#     4  11  23  40  69  98 133 177 221 273 325 391
#     4  11  24  44  69  96 135 174 221 276 333 395
#
# _framework density 21.631602000000001
#
# number of rings (size 3 to 8) (size 9 to 14) (size 15 to 20)
#    0.000    0.750    1.250    7.500    5.250    4.000 
#    0.000    1.250    0.000    0.000    0.000    0.000 
#    0.000    0.000    0.000    0.000    0.000    0.000 
#
# Total GULP energy -198527.433110 kJ/mol
# GULP energy per Si atom -12407.964569 kJ/mol
# Density = 2.158237 g / cm^3
# Si number density = 21.631602 Si / 1000 Ang^3
#
#
#
# Elastic Constant Matrix: (Units=GPa)
#
#
# Indices 1 2 3 4 5 6 
#
# 1 95.3382 14.5771 30.2539 9.3275 4.5442 1.6400
# 2 14.5771 110.2849 27.5718 -12.5925 -0.5672 5.5241
# 3 30.2539 27.5718 91.5545 4.8992 10.6576 0.7622
# 4 9.3275 -12.5925 4.8992 24.4682 0.0641 -0.5414
# 5 4.5442 -0.5672 10.6576 0.0641 35.8215 3.8449
# 6 1.6400 5.5241 0.7622 -0.5414 3.8449 40.0800
#
#
#
# Elastic Compliance Matrix: (Units=1/GPa)
#
#
# Indices 1 2 3 4 5 6 
#
# 1 0.012234 -0.001307 -0.003334 -0.004673 -0.000544 -0.000268
# 2 -0.001307 0.010940 -0.003386 0.006770 0.001489 -0.001441
# 3 -0.003334 -0.003386 0.013646 -0.003180 -0.003756 0.000661
# 4 -0.004673 0.006770 -0.003180 0.046763 0.001584 -0.000202
# 5 -0.000544 0.001489 -0.003756 0.001584 0.029436 -0.002914
# 6 -0.000268 -0.001441 0.000661 -0.000202 -0.002914 0.025424
#
#
# Mechanical properties :
#
#
# Convention : Reuss Voigt Hill
#
# Bulk Modulus (GPa) = 48.15478 49.10922 48.63200
# Shear Modulus (GPa) = 30.97533 35.05892 33.01712
#
# Velocity S-wave (km/s) = 3.78821 4.03019 3.91108
# Velocity P-wave (km/s) = 6.43768 6.66396 6.55180
#
# Compressibility (1/GPa) = 0.02076637
#
# Stress axis : x y z
#
# Youngs Moduli (GPa) = 81.73668 91.41060 73.28295
#
# Poissons Ratio (x) = 0.11944 0.24431
# Poissons Ratio (y) = 0.10680 0.24816
# Poissons Ratio (z) = 0.27249 0.30955
#
# Static dielectric constant tensor:
#      x y z
#    x 4.048830 0.090430 0.024800 
#    y 0.090430 3.956530 -0.100600 
#    z 0.024800 -0.100600 3.992570 
# 
# 
# High freq. dielectric constant tensor:
#      x y z
#    x 1.860890 0.002110 0.002640 
#    y 0.002110 1.859490 -0.006500 
#    z 0.002640 -0.006500 1.851090 
# 
# From -- ./inp_files/335639.got.cif
#   From: 2010.06.25/outbox.cif.g09.slc.cpg/sg2_168_cif.got.tgz:335639.got - 2010.06.27 13:26:56.
