data_PCOD8032109
_publ_section_title
;
Structure prediction by ZEFSAII (Michael W. Deem and Ramdas Pophale) SiO2 
 PCOD8032109
Probable space group: P -1
;
_chemical_formula_sum "Si O2"
_cell_formula_units_Z 14
_cell_length_a 14.140327
_cell_length_b 14.673662
_cell_length_c 14.750796
_cell_angle_alpha 151.003166
_cell_angle_beta 149.769275
_cell_angle_gamma 29.345612
_cell_volume 657.279538
_symmetry_space_group_name_H-M "P -1"
_symmetry_group_IT_number 2
_symmetry_cell_setting 'triclinic'
loop_
_space_group_symop_operation_xyz
x,y,z
-x,-y,-z
loop_
_atom_site_type_symbol
_atom_site_label
_atom_site_fract_x
_atom_site_fract_y
_atom_site_fract_z
Si Si1 0.789346 0.172820 0.424303
Si Si2 0.055021 0.123812 0.075471
Si Si3 0.370610 0.468961 0.946435
Si Si4 0.382928 0.681724 0.315254
Si Si5 0.494347 0.001661 0.603180
Si Si6 0.361959 0.357281 0.332913
Si Si7 0.092547 0.105816 0.890573
O O1 0.571644 0.199664 0.312284
O O2 0.776937 0.406472 0.619568
O O3 0.791301 0.092216 0.253451
O O4 0.000000 0.000000 0.500000
O O5 0.875052 0.366324 0.128350
O O6 0.264447 0.139121 0.287127
O O7 0.085496 0.015212 0.906645
O O8 0.000000 0.000000 0.000000
O O9 0.391689 0.236871 0.763530
O O10 0.500000 0.500000 0.000000
O O11 0.458735 0.499913 0.142731
O O12 0.559974 0.603589 0.471197
O O13 0.149073 0.738597 0.209684
O O14 0.352458 0.899167 0.432321
O O15 0.500000 0.000000 0.500000
O O16 0.214029 0.246327 0.120042
#
# Coordination Sequence:
#
# PCOD8032109 Si02
#       7
#     2   2   2   2   2   2   2
#     4  11  25  48  73 104 138 176 229 288 354 414
#     4  11  23  41  67 101 138 183 232 273 338 407
#     4  11  23  41  63  94 135 183 227 286 334 388
#     4  11  24  44  67 102 137 178 238 279 338 418
#     4  12  23  43  66  96 142 182 230 286 333 404
#     4  11  25  46  72 103 135 180 228 285 352 410
#     4  11  24  46  71 101 142 181 229 285 340 411
#
# _framework density 21.299918000000002
#
# number of rings (size 3 to 8) (size 9 to 14) (size 15 to 20)
#    0.000    0.857    5.714    1.286    2.000    3.429 
#    2.571    0.000    0.000    0.000    0.000    0.000 
#    0.000    0.000    0.000    0.000    0.000    0.000 
#
# Total GULP energy -173601.221934 kJ/mol
# GULP energy per Si atom -12400.087281 kJ/mol
# Density = 2.125144 g / cm^3
# Si number density = 21.299918 Si / 1000 Ang^3
#
#
#
# Elastic Constant Matrix: (Units=GPa)
#
#
# Indices 1 2 3 4 5 6 
#
# 1 124.1348 50.7814 53.1675 7.6095 -11.5019 -7.8929
# 2 50.7814 123.7096 55.3062 -3.9612 -4.3065 -9.1579
# 3 53.1675 55.3062 124.4731 5.2458 -4.9835 -11.6268
# 4 7.6095 -3.9612 5.2458 40.3543 -3.5672 0.9483
# 5 -11.5019 -4.3065 -4.9835 -3.5672 44.2192 2.5579
# 6 -7.8929 -9.1579 -11.6268 0.9483 2.5579 33.1730
#
#
#
# Elastic Compliance Matrix: (Units=1/GPa)
#
#
# Indices 1 2 3 4 5 6 
#
# 1 0.010977 -0.003055 -0.003121 -0.001798 0.002028 0.000569
# 2 -0.003055 0.011099 -0.003622 0.002112 -0.000010 0.001008
# 3 -0.003121 -0.003622 0.011235 -0.001292 -0.000132 0.002242
# 4 -0.001798 0.002112 -0.001292 0.025675 0.001731 -0.001165
# 5 0.002028 -0.000010 -0.000132 0.001731 0.023348 -0.001416
# 6 0.000569 0.001008 0.002242 -0.001165 -0.001416 0.031487
#
#
# Mechanical properties :
#
#
# Convention : Reuss Voigt Hill
#
# Bulk Modulus (GPa) = 72.91612 76.75865 74.83738
# Shear Modulus (GPa) = 36.23527 37.75346 36.99436
#
# Velocity S-wave (km/s) = 4.12903 4.21464 4.17205
# Velocity P-wave (km/s) = 7.55243 7.73302 7.64326
#
# Compressibility (1/GPa) = 0.01371439
#
# Stress axis : x y z
#
# Youngs Moduli (GPa) = 91.10224 90.10135 89.01053
#
# Poissons Ratio (x) = 0.27530 0.27779
# Poissons Ratio (y) = 0.27836 0.32235
# Poissons Ratio (z) = 0.28431 0.32630
#
# Static dielectric constant tensor:
#      x y z
#    x 4.368550 -0.223990 -0.284900 
#    y -0.223990 3.846330 -0.124830 
#    z -0.284900 -0.124830 3.953140 
# 
# 
# High freq. dielectric constant tensor:
#      x y z
#    x 1.852210 -0.004810 -0.008130 
#    y -0.004810 1.832830 -0.010680 
#    z -0.008130 -0.010680 1.839270 
# 
# From -- ./inp_files/534619.got.cif
#   From: 2010.06.25/outbox.cif.g09.slc.cpg/sg2_268_cif.got.tgz:534619.got - 2010.06.27 13:26:56.
