data_PCOD8032549
_publ_section_title
;
Structure prediction by ZEFSAII (Michael W. Deem and Ramdas Pophale) SiO2 
 PCOD8032549
Probable space group: P -1
;
_chemical_formula_sum "Si O2"
_cell_formula_units_Z 16
_cell_length_a 17.211335
_cell_length_b 15.282449
_cell_length_c 9.478689
_cell_angle_alpha 116.537848
_cell_angle_beta 38.720511
_cell_angle_gamma 146.560313
_cell_volume 692.248743
_symmetry_space_group_name_H-M "P -1"
_symmetry_group_IT_number 2
_symmetry_cell_setting 'triclinic'
loop_
_space_group_symop_operation_xyz
x,y,z
-x,-y,-z
loop_
_atom_site_type_symbol
_atom_site_label
_atom_site_fract_x
_atom_site_fract_y
_atom_site_fract_z
Si Si1 0.739261 0.894657 0.671581
Si Si2 0.325286 0.829926 0.826055
Si Si3 0.914764 0.699442 0.420767
Si Si4 0.264788 0.396243 0.696668
Si Si5 0.273389 0.747818 0.518524
Si Si6 0.963054 0.019754 0.914735
Si Si7 0.279796 0.624214 0.952547
Si Si8 0.513652 0.705717 0.135306
O O1 0.833792 0.886494 0.412031
O O2 0.482466 0.770075 0.894746
O O3 0.679215 0.791841 0.825083
O O4 0.948147 0.117864 0.566809
O O5 0.240302 0.741030 0.727278
O O6 0.359269 0.756602 0.817479
O O7 0.590424 0.067844 0.616787
O O8 0.108931 0.748532 0.138749
O O9 0.754580 0.625669 0.460711
O O10 0.725289 0.527279 0.682262
O O11 0.500000 0.500000 0.500000
O O12 0.017398 0.173706 0.951830
O O13 0.273818 0.514145 0.811716
O O14 0.440728 0.768453 0.265270
O O15 0.991185 0.540450 0.711379
O O16 0.000000 0.000000 0.000000
O O17 0.680981 0.807603 0.111876
#
# Coordination Sequence:
#
# PCOD8032549 Si02
#       8
#     2   2   2   2   2   2   2   2
#     4  12  29  50  71 112 158 196 242 321 376 453
#     4  11  23  44  74 112 150 197 251 310 365 451
#     4  12  25  49  77 109 153 203 246 304 388 442
#     4  12  24  47  76 111 148 194 258 310 362 447
#     4  11  23  42  76 110 149 198 253 309 373 442
#     4  12  28  49  79 111 149 196 258 312 370 451
#     4  12  26  45  76 108 154 195 254 307 370 442
#     4  12  26  48  77 106 155 202 248 308 387 438
#
# _framework density 23.113078000000002
#
# number of rings (size 3 to 8) (size 9 to 14) (size 15 to 20)
#    0.000    0.250    6.250    2.250    3.500    3.500 
#    0.000    0.000    0.000    0.000    0.000    0.000 
#    0.000    0.000    0.000    0.000    0.000    0.000 
#
# Total GULP energy -198484.346530 kJ/mol
# GULP energy per Si atom -12405.271658 kJ/mol
# Density = 2.306047 g / cm^3
# Si number density = 23.113078 Si / 1000 Ang^3
#
#
#
# Elastic Constant Matrix: (Units=GPa)
#
#
# Indices 1 2 3 4 5 6 
#
# 1 138.0704 73.1490 41.6928 -16.5914 4.2763 -5.3010
# 2 73.1490 115.3393 49.5552 -21.1184 19.5685 2.2443
# 3 41.6928 49.5552 95.6204 -18.9219 10.9295 2.6994
# 4 -16.5914 -21.1184 -18.9219 45.8138 -4.7502 -0.9760
# 5 4.2763 19.5685 10.9295 -4.7502 45.2075 -13.7184
# 6 -5.3010 2.2443 2.6994 -0.9760 -13.7184 35.9913
#
#
#
# Elastic Compliance Matrix: (Units=1/GPa)
#
#
# Indices 1 2 3 4 5 6 
#
# 1 0.011722 -0.007260 -0.001745 0.000636 0.003651 0.003719
# 2 -0.007260 0.016714 -0.004111 0.002607 -0.006565 -0.004235
# 3 -0.001745 -0.004111 0.014203 0.003134 -0.001648 -0.001609
# 4 0.000636 0.002607 0.003134 0.024657 0.000854 0.000690
# 5 0.003651 -0.006565 -0.001648 0.000854 0.028764 0.012058
# 6 0.003719 -0.004235 -0.001609 0.000690 0.012058 0.033332
#
#
# Mechanical properties :
#
#
# Convention : Reuss Voigt Hill
#
# Bulk Modulus (GPa) = 60.94610 75.31379 68.12995
# Shear Modulus (GPa) = 31.03807 37.71139 34.37473
#
# Velocity S-wave (km/s) = 3.66851 4.04369 3.86066
# Velocity P-wave (km/s) = 6.66107 7.37954 7.02949
#
# Compressibility (1/GPa) = 0.01640794
#
# Stress axis : x y z
#
# Youngs Moduli (GPa) = 85.31038 59.83016 70.40540
#
# Poissons Ratio (x) = 0.43435 0.12287
# Poissons Ratio (y) = 0.61933 0.28942
# Poissons Ratio (z) = 0.14888 0.24595
#
# Static dielectric constant tensor:
#      x y z
#    x 4.324070 -0.047980 -0.156210 
#    y -0.047980 4.418020 -0.210130 
#    z -0.156210 -0.210130 4.310680 
# 
# 
# High freq. dielectric constant tensor:
#      x y z
#    x 1.919120 -0.005580 -0.005930 
#    y -0.005580 1.924030 -0.015200 
#    z -0.005930 -0.015200 1.918650 
# 
# From -- ./inp_files/315395.got.cif
#   From: 2010.06.25/outbox.cif.g09.slc.cpg/sg2_158_cif.got.tgz:315395.got - 2010.06.27 13:26:56.
