data_PCOD8032738
_publ_section_title
;
Structure prediction by ZEFSAII (Michael W. Deem and Ramdas Pophale) SiO2 
 PCOD8032738
Probable space group: P -1
;
_chemical_formula_sum "Si O2"
_cell_formula_units_Z 16
_cell_length_a 11.055098
_cell_length_b 11.497780
_cell_length_c 6.479803
_cell_angle_alpha 114.864885
_cell_angle_beta 108.226923
_cell_angle_gamma 89.002535
_cell_volume 703.546599
_symmetry_space_group_name_H-M "P -1"
_symmetry_group_IT_number 2
_symmetry_cell_setting 'triclinic'
loop_
_space_group_symop_operation_xyz
x,y,z
-x,-y,-z
loop_
_atom_site_type_symbol
_atom_site_label
_atom_site_fract_x
_atom_site_fract_y
_atom_site_fract_z
Si Si1 0.925207 0.607351 0.445458
Si Si2 0.535986 0.298309 0.831187
Si Si3 0.010602 0.052693 0.815728
Si Si4 0.353499 0.857493 0.906410
Si Si5 0.902510 0.178716 0.521254
Si Si6 0.314843 0.439188 0.992280
Si Si7 0.571084 0.871051 0.702313
Si Si8 0.208660 0.274103 0.176234
O O1 0.791725 0.546571 0.226878
O O2 0.893627 0.698552 0.684528
O O3 0.000000 0.500000 0.500000
O O4 0.018525 0.681534 0.377345
O O5 0.639050 0.264566 0.031181
O O6 0.406423 0.333948 0.895496
O O7 0.505789 0.167999 0.579277
O O8 0.602492 0.420330 0.825328
O O9 0.898066 0.137730 0.734405
O O10 0.007452 0.922424 0.588747
O O11 0.144005 0.147833 0.923884
O O12 0.000000 0.000000 0.000000
O O13 0.348529 0.985148 0.142273
O O14 0.234446 0.833309 0.669603
O O15 0.481210 0.867886 0.849021
O O16 0.244385 0.396463 0.136657
O O17 0.661312 0.758872 0.677376
#
# Coordination Sequence:
#
# PCOD8032738 Si02
#       8
#     2   2   2   2   2   2   2   2
#     4  12  26  45  70 100 140 186 230 289 346 416
#     4  11  24  44  70 100 139 190 236 285 349 408
#     4  11  23  43  71 103 134 186 228 280 354 417
#     4  11  24  44  68 108 141 175 236 292 346 421
#     4  11  24  42  70 102 142 176 227 288 346 417
#     4  11  25  44  70  99 138 186 241 285 339 424
#     4  11  24  43  71 101 136 185 226 297 352 406
#     4  12  23  46  72  95 141 179 233 288 352 411
#
# _framework density 22.741921999999999
#
# number of rings (size 3 to 8) (size 9 to 14) (size 15 to 20)
#    0.000    0.750    6.250    1.125    0.000    4.000 
#    6.750    0.000    0.000    0.000    0.000    0.000 
#    0.000    0.000    0.000    0.000    0.000    0.000 
#
# Total GULP energy -198314.013036 kJ/mol
# GULP energy per Si atom -12394.625815 kJ/mol
# Density = 2.269016 g / cm^3
# Si number density = 22.741922 Si / 1000 Ang^3
#
#
#
# Elastic Constant Matrix: (Units=GPa)
#
#
# Indices 1 2 3 4 5 6 
#
# 1 71.0382 59.1309 28.8955 -6.4922 17.1792 -6.7541
# 2 59.1309 124.7248 42.8836 -35.4870 11.6779 -6.0783
# 3 28.8955 42.8836 94.9490 -17.6109 20.0508 -6.6060
# 4 -6.4922 -35.4870 -17.6109 46.4122 -5.3437 6.8186
# 5 17.1792 11.6779 20.0508 -5.3437 39.2558 -3.5748
# 6 -6.7541 -6.0783 -6.6060 6.8186 -3.5748 42.4922
#
#
#
# Elastic Compliance Matrix: (Units=1/GPa)
#
#
# Indices 1 2 3 4 5 6 
#
# 1 0.028288 -0.014485 -0.001855 -0.009186 -0.008107 0.002928
# 2 -0.014485 0.018819 -0.002750 0.011980 0.003625 -0.001655
# 3 -0.001855 -0.002750 0.013872 0.002215 -0.005092 0.000685
# 4 -0.009186 0.011980 0.002215 0.031239 0.003200 -0.004146
# 5 -0.008107 0.003625 -0.005092 0.003200 0.031028 0.000535
# 6 0.002928 -0.001655 0.000685 -0.004146 0.000535 0.024579
#
#
# Mechanical properties :
#
#
# Convention : Reuss Voigt Hill
#
# Bulk Modulus (GPa) = 43.86123 61.39245 52.62684
# Shear Modulus (GPa) = 25.82577 36.28551 31.05564
#
# Velocity S-wave (km/s) = 3.37353 3.99875 3.69937
# Velocity P-wave (km/s) = 5.87389 6.95513 6.43725
#
# Compressibility (1/GPa) = 0.02279918
#
# Stress axis : x y z
#
# Youngs Moduli (GPa) = 35.35074 53.13775 72.08687
#
# Poissons Ratio (x) = 0.76971 0.13369
# Poissons Ratio (y) = 0.51206 0.19825
# Poissons Ratio (z) = 0.06556 0.14613
#
# Static dielectric constant tensor:
#      x y z
#    x 3.888000 -0.029030 0.063040 
#    y -0.029030 4.396880 -0.353310 
#    z 0.063040 -0.353310 4.672380 
# 
# 
# High freq. dielectric constant tensor:
#      x y z
#    x 1.883320 -0.002510 0.016170 
#    y -0.002510 1.910790 -0.011890 
#    z 0.016170 -0.011890 1.899240 
# 
# From -- ./inp_files/72017.got.cif
#   From: 2010.06.25/outbox.cif.g09.slc.cpg/sg2_37_cif.got.tgz:72017.got - 2010.06.27 13:26:56.
