data_PCOD8032061
_publ_section_title
;
Structure prediction by ZEFSAII (Michael W. Deem and Ramdas Pophale) SiO2 
 PCOD8032061
Probable space group: P -1
;
_chemical_formula_sum "Si O2"
_cell_formula_units_Z 16
_cell_length_a 11.386936
_cell_length_b 14.121234
_cell_length_c 14.389068
_cell_angle_alpha 30.934107
_cell_angle_beta 39.425443
_cell_angle_gamma 59.894450
_cell_volume 657.119728
_symmetry_space_group_name_H-M "P -1"
_symmetry_group_IT_number 2
_symmetry_cell_setting 'triclinic'
loop_
_space_group_symop_operation_xyz
x,y,z
-x,-y,-z
loop_
_atom_site_type_symbol
_atom_site_label
_atom_site_fract_x
_atom_site_fract_y
_atom_site_fract_z
Si Si1 0.045073 0.922441 0.685819
Si Si2 0.641598 0.213351 0.318804
Si Si3 0.731108 0.686913 0.231383
Si Si4 0.311451 0.021213 0.840388
Si Si5 0.973510 0.601880 0.299401
Si Si6 0.384813 0.632907 0.980258
Si Si7 0.441552 0.730287 0.068013
Si Si8 0.170645 0.302414 0.164552
O O1 0.228819 0.909953 0.641059
O O2 0.014872 0.787813 0.723037
O O3 0.104642 0.159415 0.418948
O O4 0.837324 0.831187 0.954992
O O5 0.452876 0.151234 0.557778
O O6 0.562731 0.184044 0.283719
O O7 0.783684 0.469167 0.024210
O O8 0.500000 0.500000 0.500000
O O9 0.734395 0.822195 0.204152
O O10 0.879341 0.598374 0.257149
O O11 0.432523 0.946887 0.904662
O O12 0.101989 0.825796 0.087053
O O13 0.782742 0.461432 0.603479
O O14 0.129471 0.504396 0.264763
O O15 0.489236 0.751617 0.910615
O O16 0.500000 0.500000 0.000000
O O17 0.639976 0.709375 0.001116
#
# Coordination Sequence:
#
# PCOD8032061 Si02
#       8
#     2   2   2   2   2   2   2   2
#     4  11  25  46  70 104 143 190 252 301 368 444
#     4  12  23  45  72 104 144 190 246 305 373 434
#     4  12  26  48  73 107 146 194 250 308 363 444
#     4  11  25  44  71 104 146 198 238 304 377 436
#     4  11  25  47  71 104 154 194 240 306 376 441
#     4  11  23  40  69 105 136 186 238 303 357 429
#     4  11  23  46  68 105 151 192 244 303 373 442
#     4  11  24  44  74 101 145 192 244 308 369 439
#
# _framework density 24.348683000000001
#
# number of rings (size 3 to 8) (size 9 to 14) (size 15 to 20)
#    0.000    0.750    3.750    4.500    0.000    5.000 
#    2.250    1.250    0.000    0.000    0.000    0.000 
#    0.000    0.000    0.000    0.000    0.000    0.000 
#
# Total GULP energy -198234.439533 kJ/mol
# GULP energy per Si atom -12389.652471 kJ/mol
# Density = 2.429326 g / cm^3
# Si number density = 24.348683 Si / 1000 Ang^3
#
#
#
# Elastic Constant Matrix: (Units=GPa)
#
#
# Indices 1 2 3 4 5 6 
#
# 1 112.9338 26.7697 21.6230 0.0270 5.3631 1.8492
# 2 26.7697 77.6038 36.8128 18.7642 3.2496 1.0087
# 3 21.6230 36.8128 145.4685 15.9453 17.7561 15.0554
# 4 0.0270 18.7642 15.9453 32.8725 2.2447 3.8587
# 5 5.3631 3.2496 17.7561 2.2447 44.6610 6.3573
# 6 1.8492 1.0087 15.0554 3.8587 6.3573 32.7808
#
#
#
# Elastic Compliance Matrix: (Units=1/GPa)
#
#
# Indices 1 2 3 4 5 6 
#
# 1 0.009893 -0.003649 -0.000703 0.002498 -0.000729 -0.000275
# 2 -0.003649 0.017786 -0.003278 -0.008846 0.000594 0.002090
# 3 -0.000703 -0.003278 0.008641 -0.001778 -0.002579 -0.003119
# 4 0.002498 -0.008846 -0.001778 0.036741 -0.000324 -0.003314
# 5 -0.000729 0.000594 -0.002579 -0.000324 0.023961 -0.003401
# 6 -0.000275 0.002090 -0.003119 -0.003314 -0.003401 0.032939
#
#
# Mechanical properties :
#
#
# Convention : Reuss Voigt Hill
#
# Bulk Modulus (GPa) = 47.48402 56.26857 51.87630
# Shear Modulus (GPa) = 32.84253 38.78289 35.81271
#
# Velocity S-wave (km/s) = 3.67664 3.99534 3.83930
# Velocity P-wave (km/s) = 6.12924 6.66658 6.40355
#
# Compressibility (1/GPa) = 0.02105971
#
# Stress axis : x y z
#
# Youngs Moduli (GPa) = 101.08285 56.22281 115.72934
#
# Poissons Ratio (x) = 0.20514 0.08141
# Poissons Ratio (y) = 0.36883 0.37936
# Poissons Ratio (z) = 0.07111 0.18430
#
# Static dielectric constant tensor:
#      x y z
#    x 2.990250 2.390980 -0.216670 
#    y 2.390980 0.818690 0.661430 
#    z -0.216670 0.661430 4.435500 
# 
# 
# High freq. dielectric constant tensor:
#      x y z
#    x 1.984030 -0.006320 0.008500 
#    y -0.006320 1.955740 0.012360 
#    z 0.008500 0.012360 1.981680 
# 
# From -- ./inp_files/522105.got.cif
#   From: 2010.06.25/outbox.cif.g09.slc.cpg/sg2_262_cif.got.tgz:522105.got - 2010.06.27 13:26:56.
