data_PCOD8032877
_publ_section_title
;
Structure prediction by ZEFSAII (Michael W. Deem and Ramdas Pophale) SiO2 
 PCOD8032877
Probable space group: P -1
;
_chemical_formula_sum "Si O2"
_cell_formula_units_Z 14
_cell_length_a 6.691671
_cell_length_b 18.963163
_cell_length_c 8.860727
_cell_angle_alpha 123.485287
_cell_angle_beta 118.386751
_cell_angle_gamma 44.613167
_cell_volume 652.017375
_symmetry_space_group_name_H-M "P -1"
_symmetry_group_IT_number 2
_symmetry_cell_setting 'triclinic'
loop_
_space_group_symop_operation_xyz
x,y,z
-x,-y,-z
loop_
_atom_site_type_symbol
_atom_site_label
_atom_site_fract_x
_atom_site_fract_y
_atom_site_fract_z
Si Si1 0.888545 0.433116 0.916469
Si Si2 0.019820 0.809280 0.947734
Si Si3 0.278007 0.274980 0.368379
Si Si4 0.082461 0.958764 0.310736
Si Si5 0.741212 0.414448 0.170998
Si Si6 0.729074 0.779301 0.371487
Si Si7 0.859131 0.168751 0.311681
O O1 0.583598 0.485739 0.783640
O O2 0.118821 0.310805 0.807574
O O3 0.836715 0.438589 0.081782
O O4 0.000000 0.500000 0.000000
O O5 0.949708 0.897046 0.149389
O O6 0.735820 0.819822 0.810384
O O7 0.247978 0.691051 0.963735
O O8 0.153708 0.822831 0.863374
O O9 0.319304 0.267425 0.553479
O O10 0.541662 0.262874 0.370959
O O11 0.972518 0.389895 0.353736
O O12 0.424746 0.879669 0.317246
O O13 0.000000 0.000000 0.500000
O O14 0.948463 0.055104 0.259964
O O15 0.919795 0.816579 0.519720
#
# Coordination Sequence:
#
# PCOD8032877 Si02
#       7
#     2   2   2   2   2   2   2
#     4  11  24  42  71  97 127 169 215 269 334 385
#     4   9  23  43  66  92 132 170 220 258 325 386
#     4   9  22  43  65  94 132 172 212 266 318 388
#     4  12  24  41  66  98 133 176 218 272 316 377
#     4   9  23  43  65  99 126 166 215 264 325 390
#     4  11  25  43  65  99 133 168 220 271 322 386
#     4  11  23  44  65  93 135 177 216 262 328 379
#
# _framework density 21.471822
#
# number of rings (size 3 to 8) (size 9 to 14) (size 15 to 20)
#    0.857    0.857    1.429    1.714    6.000    3.429 
#    2.571    1.429    0.000    0.000    0.000    0.000 
#    0.000    0.000    0.000    0.000    0.000    0.000 
#
# Total GULP energy -173555.921098 kJ/mol
# GULP energy per Si atom -12396.851507 kJ/mol
# Density = 2.142295 g / cm^3
# Si number density = 21.471822 Si / 1000 Ang^3
#
#
#
# Elastic Constant Matrix: (Units=GPa)
#
#
# Indices 1 2 3 4 5 6 
#
# 1 97.5895 33.0000 16.8742 -4.5541 -11.5978 -4.1233
# 2 33.0000 96.3539 -6.3807 -9.2961 -3.9043 -8.6359
# 3 16.8742 -6.3807 41.1913 4.7358 -0.1086 -0.4378
# 4 -4.5541 -9.2961 4.7358 39.5001 1.2741 -1.0528
# 5 -11.5978 -3.9043 -0.1086 1.2741 25.8190 -5.0206
# 6 -4.1233 -8.6359 -0.4378 -1.0528 -5.0206 45.8130
#
#
#
# Elastic Compliance Matrix: (Units=1/GPa)
#
#
# Indices 1 2 3 4 5 6 
#
# 1 0.013701 -0.004707 -0.006443 0.001090 0.005540 0.000916
# 2 -0.004707 0.012618 0.003671 0.002038 0.000107 0.002049
# 3 -0.006443 0.003671 0.027842 -0.003149 -0.002051 0.000081
# 4 0.001090 0.002038 -0.003149 0.026337 -0.000316 0.001023
# 5 0.005540 0.000107 -0.002051 -0.000316 0.042239 0.005121
# 6 0.000916 0.002049 0.000081 0.001023 0.005121 0.022882
#
#
# Mechanical properties :
#
#
# Convention : Reuss Voigt Hill
#
# Bulk Modulus (GPa) = 25.50836 35.79129 30.64983
# Shear Modulus (GPa) = 28.79447 35.00249 31.89848
#
# Velocity S-wave (km/s) = 3.66599 4.04190 3.85853
# Velocity P-wave (km/s) = 5.46123 6.20385 5.84435
#
# Compressibility (1/GPa) = 0.03920283
#
# Stress axis : x y z
#
# Youngs Moduli (GPa) = 72.98891 79.25059 35.91652
#
# Poissons Ratio (x) = 0.37305 0.23140
# Poissons Ratio (y) = 0.34357 -0.13184
# Poissons Ratio (z) = 0.47025 -0.29091
#
# Static dielectric constant tensor:
#      x y z
#    x 3.930670 -0.011300 -0.013310 
#    y -0.011300 3.963850 -0.154480 
#    z -0.013310 -0.154480 3.681340 
# 
# 
# High freq. dielectric constant tensor:
#      x y z
#    x 1.849530 0.001540 0.001330 
#    y 0.001540 1.845000 -0.015550 
#    z 0.001330 -0.015550 1.826560 
# 
# From -- ./inp_files/136859.got.cif
#   From: 2010.06.25/outbox.cif.g09.slc.cpg/sg2_69_cif.got.tgz:136859.got - 2010.06.27 13:26:56.
