data_PCOD8032786
_publ_section_title
;
Structure prediction by ZEFSAII (Michael W. Deem and Ramdas Pophale) SiO2 
 PCOD8032786
Probable space group: P -1
;
_chemical_formula_sum "Si O2"
_cell_formula_units_Z 16
_cell_length_a 12.389582
_cell_length_b 5.319092
_cell_length_c 14.153685
_cell_angle_alpha 106.244128
_cell_angle_beta 128.890573
_cell_angle_gamma 95.747844
_cell_volume 647.816532
_symmetry_space_group_name_H-M "P -1"
_symmetry_group_IT_number 2
_symmetry_cell_setting 'triclinic'
loop_
_space_group_symop_operation_xyz
x,y,z
-x,-y,-z
loop_
_atom_site_type_symbol
_atom_site_label
_atom_site_fract_x
_atom_site_fract_y
_atom_site_fract_z
Si Si1 0.663527 0.695197 0.577286
Si Si2 0.514413 0.382507 0.096074
Si Si3 0.876663 0.213627 0.048671
Si Si4 0.818107 0.696205 0.839286
Si Si5 0.393460 0.724277 0.199278
Si Si6 0.676645 0.139446 0.466807
Si Si7 0.252426 0.853741 0.839166
Si Si8 0.903008 0.172902 0.432532
O O1 0.500000 0.500000 0.500000
O O2 0.769506 0.848893 0.740702
O O3 0.672591 0.934864 0.531627
O O4 0.732754 0.469135 0.555298
O O5 0.495276 0.571495 0.190553
O O6 0.678149 0.363160 0.191027
O O7 0.500000 0.500000 0.000000
O O8 0.382121 0.078350 0.996724
O O9 0.744830 0.299865 0.945025
O O10 0.852487 0.893328 0.972111
O O11 0.879046 0.270952 0.168790
O O12 0.041297 0.395146 0.118016
O O13 0.674632 0.418337 0.753884
O O14 0.507533 0.037777 0.320092
O O15 0.786679 0.117447 0.445964
O O16 0.185753 0.969601 0.727037
O O17 0.000000 0.500000 0.500000
O O18 0.000000 0.000000 0.500000
#
# Coordination Sequence:
#
# PCOD8032786 Si02
#       8
#     2   2   2   2   2   2   2   2
#     4  12  26  50  75 114 146 207 254 319 368 450
#     4  11  23  43  72 109 140 187 248 317 374 446
#     4  11  25  46  70 109 146 199 243 317 386 450
#     4  11  26  45  72 104 157 190 262 306 382 447
#     4  12  24  44  75 108 148 196 253 315 378 451
#     4  12  29  48  81 107 154 198 261 312 379 448
#     4  11  26  45  74 107 146 192 252 309 390 454
#     4  12  31  53  77 113 155 204 253 316 389 468
#
# _framework density 24.698350999999999
#
# number of rings (size 3 to 8) (size 9 to 14) (size 15 to 20)
#    0.000    0.500    3.750    3.000   12.250    0.000 
#    0.000    0.000    0.000    0.000    0.000    0.000 
#    0.000    0.000    0.000    0.000    0.000    0.000 
#
# Total GULP energy -198345.830831 kJ/mol
# GULP energy per Si atom -12396.614427 kJ/mol
# Density = 2.464214 g / cm^3
# Si number density = 24.698351 Si / 1000 Ang^3
#
#
#
# Elastic Constant Matrix: (Units=GPa)
#
#
# Indices 1 2 3 4 5 6 
#
# 1 167.0710 33.6905 35.4285 -17.6757 2.0447 -0.7691
# 2 33.6905 92.7545 17.9341 -19.0972 -1.6568 -7.2445
# 3 35.4285 17.9341 91.1357 -27.1036 -0.7082 -4.2781
# 4 -17.6757 -19.0972 -27.1036 45.5384 4.7711 4.1421
# 5 2.0447 -1.6568 -0.7082 4.7711 33.2661 -4.7780
# 6 -0.7691 -7.2445 -4.2781 4.1421 -4.7780 35.8457
#
#
#
# Elastic Compliance Matrix: (Units=1/GPa)
#
#
# Indices 1 2 3 4 5 6 
#
# 1 0.006926 -0.002026 -0.002117 0.000723 -0.000776 -0.000701
# 2 -0.002026 0.012590 -0.000393 0.004025 0.000460 0.002050
# 3 -0.002117 -0.000393 0.014101 0.007408 -0.000562 0.000627
# 4 0.000723 0.004025 0.007408 0.028972 -0.004156 -0.002189
# 5 -0.000776 0.000460 -0.000562 -0.004156 0.031387 0.004673
# 6 -0.000701 0.002050 0.000627 -0.002189 0.004673 0.029247
#
#
# Mechanical properties :
#
#
# Convention : Reuss Voigt Hill
#
# Bulk Modulus (GPa) = 40.74299 58.34082 49.54190
# Shear Modulus (GPa) = 35.59295 40.52392 38.05843
#
# Velocity S-wave (km/s) = 3.80031 4.05502 3.92973
# Velocity P-wave (km/s) = 5.98235 6.75254 6.37908
#
# Compressibility (1/GPa) = 0.02454410
#
# Stress axis : x y z
#
# Youngs Moduli (GPa) = 144.38693 79.42797 70.91520
#
# Poissons Ratio (x) = 0.16091 0.15016
# Poissons Ratio (y) = 0.29250 0.02789
# Poissons Ratio (z) = 0.30574 0.03123
#
# Static dielectric constant tensor:
#      x y z
#    x 4.843090 0.012520 0.097950 
#    y 0.012520 4.662460 0.264980 
#    z 0.097950 0.264980 4.693250 
# 
# 
# High freq. dielectric constant tensor:
#      x y z
#    x 2.010070 -0.000270 -0.000730 
#    y -0.000270 1.967850 -0.008520 
#    z -0.000730 -0.008520 1.983050 
# 
# From -- ./inp_files/511187.got.cif
#   From: 2010.06.25/outbox.cif.g09.slc.cpg/sg2_256_cif.got.tgz:511187.got - 2010.06.27 13:26:56.
