data_PCOD8032889
_publ_section_title
;
Structure prediction by ZEFSAII (Michael W. Deem and Ramdas Pophale) SiO2 
 PCOD8032889
Probable space group: P -1
;
_chemical_formula_sum "Si O2"
_cell_formula_units_Z 16
_cell_length_a 6.777624
_cell_length_b 11.323486
_cell_length_c 13.592744
_cell_angle_alpha 56.201122
_cell_angle_beta 91.828391
_cell_angle_gamma 64.219065
_cell_volume 726.448322
_symmetry_space_group_name_H-M "P -1"
_symmetry_group_IT_number 2
_symmetry_cell_setting 'triclinic'
loop_
_space_group_symop_operation_xyz
x,y,z
-x,-y,-z
loop_
_atom_site_type_symbol
_atom_site_label
_atom_site_fract_x
_atom_site_fract_y
_atom_site_fract_z
Si Si1 0.253601 0.441191 0.569623
Si Si2 0.528364 0.141543 0.383822
Si Si3 0.684951 0.742209 0.160384
Si Si4 0.777607 0.397500 0.050150
Si Si5 0.781612 0.024738 0.044554
Si Si6 0.057803 0.474635 0.163219
Si Si7 0.333930 0.720514 0.498367
Si Si8 0.884415 0.041054 0.260305
O O1 0.356919 0.276853 0.717142
O O2 0.243794 0.593165 0.560518
O O3 0.417073 0.382133 0.504384
O O4 0.000000 0.500000 0.500000
O O5 0.272910 0.284882 0.274203
O O6 0.629862 0.223906 0.419479
O O7 0.704687 0.057846 0.333388
O O8 0.500000 0.000000 0.500000
O O9 0.915597 0.560694 0.220256
O O10 0.744046 0.880753 0.074100
O O11 0.450701 0.792384 0.071825
O O12 0.893743 0.206399 0.175602
O O13 0.865705 0.484793 0.082787
O O14 0.500000 0.500000 0.000000
O O15 0.852968 0.410865 0.934422
O O16 0.810335 0.008239 0.169462
O O17 0.000000 0.000000 0.000000
O O18 0.146502 0.887599 0.358973
#
# Coordination Sequence:
#
# PCOD8032889 Si02
#       8
#     2   2   2   2   2   2   2   2
#     4  11  25  47  74 102 140 187 238 295 353 424
#     4  12  28  45  70 105 146 191 239 292 354 429
#     4  11  25  41  73 100 136 178 230 292 350 418
#     4  11  23  44  67 101 137 182 227 284 353 423
#     4  11  25  46  69 104 136 178 232 291 355 418
#     4  11  25  43  69 102 140 179 231 289 352 418
#     4  11  27  46  70 104 140 187 241 289 353 422
#     4  12  25  45  74  97 145 185 231 293 358 420
#
# _framework density 22.024965999999999
#
# number of rings (size 3 to 8) (size 9 to 14) (size 15 to 20)
#    0.000    0.750    1.250    4.875    8.750    5.000 
#    0.000    0.000    0.000    0.000    0.000    0.000 
#    0.000    0.000    0.000    0.000    0.000    0.000 
#
# Total GULP energy -198437.523348 kJ/mol
# GULP energy per Si atom -12402.345209 kJ/mol
# Density = 2.197484 g / cm^3
# Si number density = 22.024966 Si / 1000 Ang^3
#
#
#
# Elastic Constant Matrix: (Units=GPa)
#
#
# Indices 1 2 3 4 5 6 
#
# 1 154.4391 55.5243 62.9629 1.3285 5.6822 -5.0796
# 2 55.5243 100.0355 30.4256 10.0374 1.3157 -11.0042
# 3 62.9629 30.4256 131.2889 -1.5984 1.2373 -9.1542
# 4 1.3285 10.0374 -1.5984 45.8803 3.8457 2.2325
# 5 5.6822 1.3157 1.2373 3.8457 51.9429 -0.5112
# 6 -5.0796 -11.0042 -9.1542 2.2325 -0.5112 28.0752
#
#
#
# Elastic Compliance Matrix: (Units=1/GPa)
#
#
# Indices 1 2 3 4 5 6 
#
# 1 0.009507 -0.004372 -0.003616 0.000692 -0.000907 -0.001244
# 2 -0.004372 0.013450 -0.000749 -0.003096 0.000429 0.004491
# 3 -0.003616 -0.000749 0.009680 0.000486 0.000169 0.002173
# 4 0.000692 -0.003096 0.000486 0.022749 -0.001720 -0.002770
# 5 -0.000907 0.000429 0.000169 -0.001720 0.019469 0.000551
# 6 -0.001244 0.004491 0.002173 -0.002770 0.000551 0.038093
#
#
# Mechanical properties :
#
#
# Convention : Reuss Voigt Hill
#
# Bulk Modulus (GPa) = 65.94566 75.95433 70.95000
# Shear Modulus (GPa) = 36.90672 40.96972 38.93822
#
# Velocity S-wave (km/s) = 4.09794 4.31762 4.20922
# Velocity P-wave (km/s) = 7.23859 7.70819 7.47708
#
# Compressibility (1/GPa) = 0.01516400
#
# Stress axis : x y z
#
# Youngs Moduli (GPa) = 105.18022 74.35116 103.30075
#
# Poissons Ratio (x) = 0.32503 0.37356
# Poissons Ratio (y) = 0.45980 0.07738
# Poissons Ratio (z) = 0.38036 0.05569
#
# Static dielectric constant tensor:
#      x y z
#    x 3.731050 -0.522710 -0.033730 
#    y -0.522710 3.386520 -0.035890 
#    z -0.033730 -0.035890 4.143960 
# 
# 
# High freq. dielectric constant tensor:
#      x y z
#    x 1.883720 -0.004330 0.001270 
#    y -0.004330 1.867390 -0.001320 
#    z 0.001270 -0.001320 1.880880 
# 
# From -- ./inp_files/364248.got.cif
#   From: 2010.06.25/outbox.cif.g09.slc.cpg/sg2_183_cif.got.tgz:364248.got - 2010.06.27 13:26:56.
