data_PCOD8032006
_publ_section_title
;
Structure prediction by ZEFSAII (Michael W. Deem and Ramdas Pophale) SiO2 
 PCOD8032006
Probable space group: P -1
;
_chemical_formula_sum "Si O2"
_cell_formula_units_Z 16
_cell_length_a 9.978214
_cell_length_b 11.809382
_cell_length_c 15.200853
_cell_angle_alpha 130.444886
_cell_angle_beta 135.709692
_cell_angle_gamma 35.998352
_cell_volume 724.522220
_symmetry_space_group_name_H-M "P -1"
_symmetry_group_IT_number 2
_symmetry_cell_setting 'triclinic'
loop_
_space_group_symop_operation_xyz
x,y,z
-x,-y,-z
loop_
_atom_site_type_symbol
_atom_site_label
_atom_site_fract_x
_atom_site_fract_y
_atom_site_fract_z
Si Si1 0.236749 0.982688 0.272520
Si Si2 0.463631 0.932445 0.651202
Si Si3 0.147265 0.338562 0.159515
Si Si4 0.052913 0.265858 0.741788
Si Si5 0.317746 0.641045 0.060787
Si Si6 0.375808 0.720491 0.375723
Si Si7 0.379440 0.212589 0.024586
Si Si8 0.678039 0.351870 0.232421
O O1 0.441160 0.998935 0.343047
O O2 0.971937 0.207169 0.270647
O O3 0.224879 0.859742 0.129965
O O4 0.317601 0.869390 0.346036
O O5 0.633016 0.848408 0.776068
O O6 0.452010 0.775216 0.524803
O O7 0.187943 0.111957 0.648353
O O8 0.195597 0.351973 0.086761
O O9 0.095890 0.526236 0.272562
O O10 0.922754 0.337264 0.053873
O O11 0.880205 0.242540 0.706433
O O12 0.243999 0.262248 0.892776
O O13 0.477103 0.535512 0.169331
O O14 0.500000 0.500000 0.000000
O O15 0.612197 0.485646 0.354937
O O16 0.607901 0.214606 0.132124
O O17 0.500000 0.000000 0.000000
#
# Coordination Sequence:
#
# PCOD8032006 Si02
#       8
#     2   2   2   2   2   2   2   2
#     4  11  26  44  71  99 134 185 226 280 339 396
#     4  12  28  45  66 102 137 181 232 278 333 400
#     4  12  24  40  67 101 138 176 217 281 348 398
#     4  12  24  44  71 100 138 173 225 288 339 398
#     4  11  23  40  65 101 140 171 218 279 346 405
#     4  11  26  48  70  95 134 186 235 276 328 399
#     4  12  21  40  68  99 133 168 216 275 342 400
#     4  11  23  43  69  97 133 176 224 273 335 410
#
# _framework density 22.083518000000002
#
# number of rings (size 3 to 8) (size 9 to 14) (size 15 to 20)
#    0.000    0.500    3.750    5.625    0.000    4.000 
#    0.000    0.000    0.000    0.000    0.000    0.000 
#    0.000    0.000    0.000    0.000    0.000    0.000 
#
# Total GULP energy -198305.996707 kJ/mol
# GULP energy per Si atom -12394.124794 kJ/mol
# Density = 2.203326 g / cm^3
# Si number density = 22.083518 Si / 1000 Ang^3
#
#
#
# Elastic Constant Matrix: (Units=GPa)
#
#
# Indices 1 2 3 4 5 6 
#
# 1 67.9506 26.4440 28.4293 12.7796 6.0993 -13.4584
# 2 26.4440 114.4264 25.1995 28.4677 -1.7140 -15.5167
# 3 28.4293 25.1995 99.0481 30.7649 0.7117 -8.5085
# 4 12.7796 28.4677 30.7649 43.1817 0.3226 -6.2544
# 5 6.0993 -1.7140 0.7117 0.3226 26.0519 11.1292
# 6 -13.4584 -15.5167 -8.5085 -6.2544 11.1292 40.5353
#
#
#
# Elastic Compliance Matrix: (Units=1/GPa)
#
#
# Indices 1 2 3 4 5 6 
#
# 1 0.019572 -0.002831 -0.004331 0.000168 -0.007463 0.006581
# 2 -0.002831 0.011263 0.000108 -0.006338 0.000506 0.002277
# 3 -0.004331 0.000108 0.014038 -0.008798 0.000753 -0.000014
# 4 0.000168 -0.006338 -0.008798 0.033755 -0.001198 0.001320
# 5 -0.007463 0.000506 0.000753 -0.001198 0.046614 -0.015109
# 6 0.006581 0.002277 -0.000014 0.001320 -0.015109 0.032075
#
#
# Mechanical properties :
#
#
# Convention : Reuss Voigt Hill
#
# Bulk Modulus (GPa) = 32.50440 49.06340 40.78390
# Shear Modulus (GPa) = 27.52092 35.37728 31.44910
#
# Velocity S-wave (km/s) = 3.53401 4.00681 3.77782
# Velocity P-wave (km/s) = 5.60385 6.60844 6.12677
#
# Compressibility (1/GPa) = 0.03076506
#
# Stress axis : x y z
#
# Youngs Moduli (GPa) = 51.09417 88.78717 71.23552
#
# Poissons Ratio (x) = 0.25132 0.30850
# Poissons Ratio (y) = 0.14463 -0.00766
# Poissons Ratio (z) = 0.22128 -0.00955
#
# Static dielectric constant tensor:
#      x y z
#    x 3.320160 1.028880 -0.447860 
#    y 1.028880 3.716600 -0.182270 
#    z -0.447860 -0.182270 4.692820 
# 
# 
# High freq. dielectric constant tensor:
#      x y z
#    x 1.871620 -0.004460 0.001310 
#    y -0.004460 1.881970 0.023970 
#    z 0.001310 0.023970 1.867940 
# 
# From -- ./inp_files/500891.got.cif
#   From: 2010.06.25/outbox.cif.g09.slc.cpg/sg2_251_cif.got.tgz:500891.got - 2010.06.27 13:26:56.
