data_PCOD8032077
_publ_section_title
;
Structure prediction by ZEFSAII (Michael W. Deem and Ramdas Pophale) SiO2 
 PCOD8032077
Probable space group: P -1
;
_chemical_formula_sum "Si O2"
_cell_formula_units_Z 14
_cell_length_a 17.319324
_cell_length_b 12.543777
_cell_length_c 5.513413
_cell_angle_alpha 61.227692
_cell_angle_beta 129.261902
_cell_angle_gamma 140.486558
_cell_volume 590.009009
_symmetry_space_group_name_H-M "P -1"
_symmetry_group_IT_number 2
_symmetry_cell_setting 'triclinic'
loop_
_space_group_symop_operation_xyz
x,y,z
-x,-y,-z
loop_
_atom_site_type_symbol
_atom_site_label
_atom_site_fract_x
_atom_site_fract_y
_atom_site_fract_z
Si Si1 0.467403 0.673386 0.183924
Si Si2 0.955609 0.283322 0.742660
Si Si3 0.650913 0.600447 0.085787
Si Si4 0.419905 0.054007 0.242174
Si Si5 0.761072 0.480122 0.752109
Si Si6 0.842567 0.285167 0.029111
Si Si7 0.274732 0.092541 0.280120
O O1 0.383516 0.666811 0.240256
O O2 0.628019 0.782283 0.442248
O O3 0.383348 0.480966 0.160876
O O4 0.470859 0.762430 0.858315
O O5 0.931147 0.348803 0.385466
O O6 0.873784 0.087068 0.752582
O O7 0.920074 0.314302 0.901078
O O8 0.116811 0.386517 0.960325
O O9 0.743467 0.581261 0.432934
O O10 0.500000 0.500000 0.000000
O O11 0.740182 0.799606 0.035389
O O12 0.361908 0.057412 0.372279
O O13 0.500000 0.000000 0.500000
O O14 0.287670 0.912517 0.965569
O O15 0.797055 0.386167 0.785180
#
# Coordination Sequence:
#
# PCOD8032077 Si02
#       7
#     2   2   2   2   2   2   2
#     4  12  23  42  71  99 140 181 243 291 359 414
#     4  11  27  49  74 105 147 190 234 295 363 428
#     4  12  25  44  67 102 141 185 241 297 353 417
#     4  11  23  40  70 105 141 181 236 297 357 423
#     4  12  28  43  72 105 138 189 240 291 357 431
#     4  11  25  47  74 105 148 185 235 293 364 427
#     4  11  24  45  67  99 140 189 232 294 356 423
#
# _framework density 23.728452000000001
#
# number of rings (size 3 to 8) (size 9 to 14) (size 15 to 20)
#    0.000    0.571    4.286    3.000    8.000    1.714 
#    0.000    0.714    0.000    0.000    0.000    0.000 
#    0.000    0.000    0.000    0.000    0.000    0.000 
#
# Total GULP energy -173523.796037 kJ/mol
# GULP energy per Si atom -12394.556860 kJ/mol
# Density = 2.367445 g / cm^3
# Si number density = 23.728452 Si / 1000 Ang^3
#
#
#
# Elastic Constant Matrix: (Units=GPa)
#
#
# Indices 1 2 3 4 5 6 
#
# 1 40.2156 26.1846 32.2513 -1.7333 -2.3584 -4.3076
# 2 26.1846 73.1549 15.0425 0.6139 16.4326 0.7939
# 3 32.2513 15.0425 122.0748 3.5235 10.1616 -11.4142
# 4 -1.7333 0.6139 3.5235 47.2864 -1.3746 3.7441
# 5 -2.3584 16.4326 10.1616 -1.3746 36.4220 -2.9783
# 6 -4.3076 0.7939 -11.4142 3.7441 -2.9783 35.1828
#
#
#
# Elastic Compliance Matrix: (Units=1/GPa)
#
#
# Indices 1 2 3 4 5 6 
#
# 1 0.046683 -0.017747 -0.011119 0.002921 0.014522 0.003427
# 2 -0.017747 0.022241 0.002752 -0.001287 -0.012219 -0.002679
# 3 -0.011119 0.002752 0.011447 -0.001604 -0.005049 0.002033
# 4 0.002921 -0.001287 -0.001604 0.021625 0.001847 -0.002279
# 5 0.014522 -0.012219 -0.005049 0.001847 0.035652 0.003237
# 6 0.003427 -0.002679 0.002033 -0.002279 0.003237 0.030079
#
#
# Mechanical properties :
#
#
# Convention : Reuss Voigt Hill
#
# Bulk Modulus (GPa) = 35.53416 42.48913 39.01165
# Shear Modulus (GPa) = 21.80207 34.57603 28.18905
#
# Velocity S-wave (km/s) = 3.03449 3.82141 3.45046
# Velocity P-wave (km/s) = 5.22353 6.11688 5.68777
#
# Compressibility (1/GPa) = 0.02814193
#
# Stress axis : x y z
#
# Youngs Moduli (GPa) = 21.42120 44.96290 87.35946
#
# Poissons Ratio (x) = 0.79795 0.97136
# Poissons Ratio (y) = 0.38016 -0.24039
# Poissons Ratio (z) = 0.23819 -0.12373
#
# Static dielectric constant tensor:
#      x y z
#    x 4.108060 -0.076210 0.063750 
#    y -0.076210 5.052110 0.138970 
#    z 0.063750 0.138970 4.345100 
# 
# 
# High freq. dielectric constant tensor:
#      x y z
#    x 1.916890 -0.006060 -0.001530 
#    y -0.006060 1.963440 0.006590 
#    z -0.001530 0.006590 1.941520 
# 
# From -- ./inp_files/65492.got.cif
#   From: 2010.06.25/outbox.cif.g09.slc.cpg/sg2_33_cif.got.tgz:65492.got - 2010.06.27 13:26:56.
