data_PCOD8032353
_publ_section_title
;
Structure prediction by ZEFSAII (Michael W. Deem and Ramdas Pophale) SiO2 
 PCOD8032353
Probable space group: P -1
;
_chemical_formula_sum "Si O2"
_cell_formula_units_Z 10
_cell_length_a 6.726725
_cell_length_b 11.300075
_cell_length_c 5.850145
_cell_angle_alpha 92.864173
_cell_angle_beta 90.611415
_cell_angle_gamma 88.577709
_cell_volume 443.971991
_symmetry_space_group_name_H-M "P -1"
_symmetry_group_IT_number 2
_symmetry_cell_setting 'triclinic'
loop_
_space_group_symop_operation_xyz
x,y,z
-x,-y,-z
loop_
_atom_site_type_symbol
_atom_site_label
_atom_site_fract_x
_atom_site_fract_y
_atom_site_fract_z
Si Si1 0.058967 0.621249 0.124894
Si Si2 0.604702 0.375751 0.538340
Si Si3 0.612787 0.996358 0.248126
Si Si4 0.892330 0.217412 0.254824
Si Si5 0.770066 0.767258 0.405998
O O1 0.284037 0.609146 0.217557
O O2 0.886774 0.649490 0.308732
O O3 0.049405 0.741847 0.991129
O O4 0.000000 0.500000 0.000000
O O5 0.500000 0.500000 0.500000
O O6 0.775258 0.334814 0.359790
O O7 0.446400 0.272195 0.521515
O O8 0.738424 0.872992 0.233360
O O9 0.500000 0.000000 0.500000
O O10 0.760170 0.103686 0.251244
O O11 0.500000 0.000000 0.000000
O O12 0.099135 0.183970 0.379597
#
# Coordination Sequence:
#
# PCOD8032353 Si02
#       5
#     2   2   2   2   2
#     4  11  25  42  67 104 137 184 237 290 356 426
#     4  11  23  42  67  97 138 182 232 291 353 421
#     4  12  27  47  76 106 142 189 242 294 358 424
#     4  11  25  44  69  99 140 181 238 290 356 424
#     4  11  25  44  69  99 140 184 234 294 355 420
#
# _framework density 22.523944
#
# number of rings (size 3 to 8) (size 9 to 14) (size 15 to 20)
#    0.000    0.800    2.000    4.200    5.600   10.400 
#    0.000    0.000    0.000    0.000    0.000    0.000 
#    0.000    0.000    0.000    0.000    0.000    0.000 
#
# Total GULP energy -123889.562454 kJ/mol
# GULP energy per Si atom -12388.956245 kJ/mol
# Density = 2.247268 g / cm^3
# Si number density = 22.523944 Si / 1000 Ang^3
#
#
#
# Elastic Constant Matrix: (Units=GPa)
#
#
# Indices 1 2 3 4 5 6 
#
# 1 135.7704 40.0371 52.3106 -2.1307 38.5548 9.3114
# 2 40.0371 116.5240 23.2895 -10.2535 23.1283 2.5228
# 3 52.3106 23.2895 109.6436 -9.6130 36.2548 5.1392
# 4 -2.1307 -10.2535 -9.6130 38.9342 -3.5943 6.0904
# 5 38.5548 23.1283 36.2548 -3.5943 48.8374 -2.9037
# 6 9.3114 2.5228 5.1392 6.0904 -2.9037 53.3992
#
#
#
# Elastic Compliance Matrix: (Units=1/GPa)
#
#
# Indices 1 2 3 4 5 6 
#
# 1 0.010756 -0.002064 -0.002853 -0.000907 -0.005564 -0.001703
# 2 -0.002064 0.010106 0.000093 0.002375 -0.003084 -0.000565
# 3 -0.002853 0.000093 0.013255 0.002681 -0.007523 -0.001497
# 4 -0.000907 0.002375 0.002681 0.027395 -0.000583 -0.003368
# 5 -0.005564 -0.003084 -0.007523 -0.000583 0.032088 0.003651
# 6 -0.001703 -0.000565 -0.001497 -0.003368 0.003651 0.019777
#
#
# Mechanical properties :
#
#
# Convention : Reuss Voigt Hill
#
# Bulk Modulus (GPa) = 40.87079 65.91249 53.39164
# Shear Modulus (GPa) = 38.11516 44.65422 41.38469
#
# Velocity S-wave (km/s) = 4.11811 4.45738 4.29110
# Velocity P-wave (km/s) = 6.38722 7.47113 6.95034
#
# Compressibility (1/GPa) = 0.02446735
#
# Stress axis : x y z
#
# Youngs Moduli (GPa) = 92.97371 98.95151 75.44465
#
# Poissons Ratio (x) = 0.20424 0.21525
# Poissons Ratio (y) = 0.19190 -0.00699
# Poissons Ratio (z) = 0.26527 -0.00916
#
# Static dielectric constant tensor:
#      x y z
#    x 4.204390 -0.104820 0.176780 
#    y -0.104820 4.032330 0.108180 
#    z 0.176780 0.108180 4.322480 
# 
# 
# High freq. dielectric constant tensor:
#      x y z
#    x 1.903720 -0.002310 0.010910 
#    y -0.002310 1.906410 -0.002530 
#    z 0.010910 -0.002530 1.884590 
# 
# From -- ./inp_files/1429.got.cif
#   From: 2010.06.25/outbox.cif.g09.slc.cpg/sg2_1_cif.got.tgz:1429.got - 2010.06.27 13:26:56.
