data_PCOD8032025
_publ_section_title
;
Structure prediction by ZEFSAII (Michael W. Deem and Ramdas Pophale) SiO2 
 PCOD8032025
Probable space group: P -1
;
_chemical_formula_sum "Si O2"
_cell_formula_units_Z 12
_cell_length_a 8.600643
_cell_length_b 8.131255
_cell_length_c 12.260777
_cell_angle_alpha 89.167340
_cell_angle_beta 46.925271
_cell_angle_gamma 110.624891
_cell_volume 543.849633
_symmetry_space_group_name_H-M "P -1"
_symmetry_group_IT_number 2
_symmetry_cell_setting 'triclinic'
loop_
_space_group_symop_operation_xyz
x,y,z
-x,-y,-z
loop_
_atom_site_type_symbol
_atom_site_label
_atom_site_fract_x
_atom_site_fract_y
_atom_site_fract_z
Si Si1 0.916593 0.616702 0.681875
Si Si2 0.903352 0.069480 0.831228
Si Si3 0.424616 0.293231 0.885590
Si Si4 0.754298 0.077449 0.315657
Si Si5 0.855796 0.251360 0.642023
Si Si6 0.032311 0.706145 0.994403
O O1 0.618722 0.504341 0.835308
O O2 0.008914 0.463610 0.619085
O O3 0.032088 0.729795 0.734852
O O4 0.011168 0.760987 0.531440
O O5 0.849465 0.103551 0.734007
O O6 0.170568 0.085588 0.711952
O O7 0.112743 0.784496 0.077846
O O8 0.702759 0.851713 0.952622
O O9 0.581910 0.214545 0.744519
O O10 0.224411 0.300290 0.904618
O O11 0.755326 0.143670 0.189930
O O12 0.500000 0.000000 0.500000
O O13 0.000000 0.500000 0.000000
#
# Coordination Sequence:
#
# PCOD8032025 Si02
#       6
#     2   2   2   2   2   2
#     4   9  21  39  63  90 130 159 211 248 318 361
#     4  11  23  40  66  94 125 163 212 255 312 366
#     4   9  20  41  63  89 125 166 202 261 298 368
#     4  11  25  42  62  95 129 166 204 261 311 373
#     4   9  20  39  64  95 120 167 203 258 310 365
#     4  11  25  43  64  94 124 169 210 254 313 370
#
# _framework density 22.064924000000001
#
# number of rings (size 3 to 8) (size 9 to 14) (size 15 to 20)
#    1.000    1.000    0.000    3.500    4.667    4.667 
#    3.000    2.500    0.000    0.000    0.000    0.000 
#    0.000    0.000    0.000    0.000    0.000    0.000 
#
# Total GULP energy -148697.467054 kJ/mol
# GULP energy per Si atom -12391.455588 kJ/mol
# Density = 2.201470 g / cm^3
# Si number density = 22.064924 Si / 1000 Ang^3
#
#
#
# Elastic Constant Matrix: (Units=GPa)
#
#
# Indices 1 2 3 4 5 6 
#
# 1 61.6735 23.5582 46.4214 -17.4149 -1.1217 -13.1625
# 2 23.5582 71.6149 28.6138 1.1947 -2.9210 -9.2153
# 3 46.4214 28.6138 134.0683 -12.0169 -10.8455 -12.7290
# 4 -17.4149 1.1947 -12.0169 30.0041 2.4495 3.1688
# 5 -1.1217 -2.9210 -10.8455 2.4495 36.7884 -5.4130
# 6 -13.1625 -9.2153 -12.7290 3.1688 -5.4130 41.0287
#
#
#
# Elastic Compliance Matrix: (Units=1/GPa)
#
#
# Indices 1 2 3 4 5 6 
#
# 1 0.028797 -0.006391 -0.007127 0.013830 -0.002025 0.004257
# 2 -0.006391 0.017102 -0.001633 -0.005349 0.001313 0.001871
# 3 -0.007127 -0.001633 0.010595 -0.000178 0.002941 0.001036
# 4 0.013830 -0.005349 -0.000178 0.041780 -0.002900 -0.000429
# 5 -0.002025 0.001313 0.002941 -0.002900 0.028962 0.004603
# 6 0.004257 0.001871 0.001036 -0.000429 0.004603 0.027121
#
#
# Mechanical properties :
#
#
# Convention : Reuss Voigt Hill
#
# Bulk Modulus (GPa) = 38.17849 51.61593 44.89721
# Shear Modulus (GPa) = 25.85458 32.81514 29.33486
#
# Velocity S-wave (km/s) = 3.42680 3.86062 3.65016
# Velocity P-wave (km/s) = 5.74435 6.58149 6.17712
#
# Compressibility (1/GPa) = 0.02619276
#
# Stress axis : x y z
#
# Youngs Moduli (GPa) = 34.72591 58.47347 94.38028
#
# Poissons Ratio (x) = 0.37370 0.67265
# Poissons Ratio (y) = 0.22193 0.15410
# Poissons Ratio (z) = 0.24749 0.09547
#
# Static dielectric constant tensor:
#      x y z
#    x 3.717540 -0.085530 -0.117600 
#    y -0.085530 3.872860 -0.021710 
#    z -0.117600 -0.021710 4.075040 
# 
# 
# High freq. dielectric constant tensor:
#      x y z
#    x 1.843530 0.003020 0.000840 
#    y 0.003020 1.859090 -0.001000 
#    z 0.000840 -0.001000 1.879120 
# 
# From -- ./inp_files/176197.got.cif
#   From: 2010.06.25/outbox.cif.g09.slc.cpg/sg2_89_cif.got.tgz:176197.got - 2010.06.27 13:26:56.
