data_PCOD8032433
_publ_section_title
;
Structure prediction by ZEFSAII (Michael W. Deem and Ramdas Pophale) SiO2 
 PCOD8032433
Probable space group: P -1
;
_chemical_formula_sum "Si O2"
_cell_formula_units_Z 16
_cell_length_a 10.717038
_cell_length_b 8.900940
_cell_length_c 11.158122
_cell_angle_alpha 57.002285
_cell_angle_beta 124.460115
_cell_angle_gamma 97.477494
_cell_volume 711.239985
_symmetry_space_group_name_H-M "P -1"
_symmetry_group_IT_number 2
_symmetry_cell_setting 'triclinic'
loop_
_space_group_symop_operation_xyz
x,y,z
-x,-y,-z
loop_
_atom_site_type_symbol
_atom_site_label
_atom_site_fract_x
_atom_site_fract_y
_atom_site_fract_z
Si Si1 0.152460 0.061268 0.028529
Si Si2 0.137505 0.096116 0.563041
Si Si3 0.570153 0.572741 0.191472
Si Si4 0.388604 0.702974 0.268025
Si Si5 0.123429 0.310305 0.687579
Si Si6 0.300153 0.350893 0.410026
Si Si7 0.588617 0.242125 0.203462
Si Si8 0.638433 0.850914 0.705106
O O1 0.222523 0.075135 0.193516
O O2 0.273192 0.900925 0.087210
O O3 0.107470 0.250084 0.842888
O O4 0.000000 0.000000 0.000000
O O5 0.109884 0.140902 0.668538
O O6 0.157130 0.286592 0.426787
O O7 0.297246 0.956869 0.668207
O O8 0.000000 0.000000 0.500000
O O9 0.469122 0.580705 0.252148
O O10 0.700349 0.678805 0.242512
O O11 0.658509 0.365247 0.283507
O O12 0.444125 0.663129 0.983613
O O13 0.286828 0.570982 0.329890
O O14 0.523562 0.749569 0.404557
O O15 0.000000 0.500000 0.500000
O O16 0.285512 0.306973 0.280811
O O17 0.425614 0.231275 0.177315
O O18 0.500000 0.000000 0.500000
#
# Coordination Sequence:
#
# PCOD8032433 Si02
#       8
#     2   2   2   2   2   2   2   2
#     4  12  29  46  71 107 150 193 240 302 367 436
#     4  12  26  44  68 103 148 190 236 292 364 435
#     4  11  23  43  71 100 137 178 242 303 346 430
#     4  11  23  45  71 106 140 185 247 294 363 423
#     4  12  28  47  72 104 143 194 241 302 365 427
#     4  11  24  41  74 105 136 191 237 298 352 441
#     4  11  23  42  70 103 135 183 236 289 358 422
#     4  12  22  44  73 104 138 184 240 291 355 430
#
# _framework density 22.495923000000001
#
# number of rings (size 3 to 8) (size 9 to 14) (size 15 to 20)
#    0.000    0.500    6.250    1.500    3.500    2.000 
#    0.000    0.625    0.000    0.000    0.000    0.000 
#    0.000    0.000    0.000    0.000    0.000    0.000 
#
# Total GULP energy -198281.150999 kJ/mol
# GULP energy per Si atom -12392.571937 kJ/mol
# Density = 2.244472 g / cm^3
# Si number density = 22.495923 Si / 1000 Ang^3
#
#
#
# Elastic Constant Matrix: (Units=GPa)
#
#
# Indices 1 2 3 4 5 6 
#
# 1 88.5416 38.8982 32.4749 10.0055 -5.3673 19.9131
# 2 38.8982 130.5281 46.2397 23.8154 4.8658 11.5239
# 3 32.4749 46.2397 108.2452 3.7674 -4.0667 1.1617
# 4 10.0055 23.8154 3.7674 41.9957 3.5374 -1.9041
# 5 -5.3673 4.8658 -4.0667 3.5374 25.1728 0.2434
# 6 19.9131 11.5239 1.1617 -1.9041 0.2434 52.7883
#
#
#
# Elastic Compliance Matrix: (Units=1/GPa)
#
#
# Indices 1 2 3 4 5 6 
#
# 1 0.015297 -0.002675 -0.003170 -0.002387 0.003653 -0.005220
# 2 -0.002675 0.010950 -0.003779 -0.005084 -0.002569 -0.001470
# 3 -0.003170 -0.003779 0.011786 0.001781 0.001691 0.001818
# 4 -0.002387 -0.005084 0.001781 0.027503 -0.003132 0.002978
# 5 0.003653 -0.002569 0.001691 -0.003132 0.041725 -0.001160
# 6 -0.005220 -0.001470 0.001818 0.002978 -0.001160 0.021306
#
#
# Mechanical properties :
#
#
# Convention : Reuss Voigt Hill
#
# Bulk Modulus (GPa) = 53.23591 62.50450 57.87021
# Shear Modulus (GPa) = 32.45121 37.97149 35.21135
#
# Velocity S-wave (km/s) = 3.80220 4.11290 3.96059
# Velocity P-wave (km/s) = 6.55680 7.09927 6.83342
#
# Compressibility (1/GPa) = 0.01878431
#
# Stress axis : x y z
#
# Youngs Moduli (GPa) = 65.37080 91.32302 84.84925
#
# Poissons Ratio (x) = 0.24433 0.26899
# Poissons Ratio (y) = 0.17489 0.32063
# Poissons Ratio (z) = 0.20724 0.34509
#
# Static dielectric constant tensor:
#      x y z
#    x 3.959300 0.051110 -0.240750 
#    y 0.051110 4.530000 0.099990 
#    z -0.240750 0.099990 4.164150 
# 
# 
# High freq. dielectric constant tensor:
#      x y z
#    x 1.878390 0.006520 -0.016070 
#    y 0.006520 1.910050 0.008080 
#    z -0.016070 0.008080 1.869900 
# 
# From -- ./inp_files/414374.got.cif
#   From: 2010.06.25/outbox.cif.g09.slc.cpg/sg2_208_cif.got.tgz:414374.got - 2010.06.27 13:26:56.
