data_PCOD8032849
_publ_section_title
;
Structure prediction by ZEFSAII (Michael W. Deem and Ramdas Pophale) SiO2 
 PCOD8032849
Probable space group: P -1
;
_chemical_formula_sum "Si O2"
_cell_formula_units_Z 14
_cell_length_a 12.317139
_cell_length_b 8.909044
_cell_length_c 18.076472
_cell_angle_alpha 74.975562
_cell_angle_beta 20.611079
_cell_angle_gamma 68.885640
_cell_volume 632.779765
_symmetry_space_group_name_H-M "P -1"
_symmetry_group_IT_number 2
_symmetry_cell_setting 'triclinic'
loop_
_space_group_symop_operation_xyz
x,y,z
-x,-y,-z
loop_
_atom_site_type_symbol
_atom_site_label
_atom_site_fract_x
_atom_site_fract_y
_atom_site_fract_z
Si Si1 0.810353 0.480945 0.551086
Si Si2 0.107144 0.642051 0.947259
Si Si3 0.829517 0.825332 0.238803
Si Si4 0.894038 0.897942 0.943516
Si Si5 0.135116 0.640588 0.209394
Si Si6 0.910159 0.015923 0.337766
Si Si7 0.779100 0.135163 0.570978
O O1 0.429434 0.570730 0.800821
O O2 0.863782 0.295323 0.517590
O O3 0.000000 0.500000 0.500000
O O4 0.901229 0.569960 0.412853
O O5 0.183244 0.748287 0.817346
O O6 0.000000 0.500000 0.000000
O O7 0.828369 0.749248 0.168133
O O8 0.448052 0.943862 0.478256
O O9 0.977264 0.677600 0.223107
O O10 0.074787 0.930418 0.070603
O O11 0.901084 0.896286 0.849526
O O12 0.586642 0.858473 0.179443
O O13 0.500000 0.500000 0.000000
O O14 0.113357 0.818450 0.235629
O O15 0.889493 0.092008 0.421684
O O16 0.000000 0.000000 0.500000
#
# Coordination Sequence:
#
# PCOD8032849 Si02
#       7
#     2   2   2   2   2   2   2
#     4  12  26  46  70 101 148 188 233 301 362 422
#     4  12  23  43  72 106 139 182 238 298 355 415
#     4  11  23  43  76 102 138 189 239 288 357 429
#     4  11  24  44  72 103 140 182 240 291 355 422
#     4  11  25  44  69 106 142 185 238 291 365 425
#     4  11  24  48  73 104 141 188 240 296 347 432
#     4  12  28  45  69 104 141 191 241 289 361 426
#
# _framework density 22.124601999999999
#
# number of rings (size 3 to 8) (size 9 to 14) (size 15 to 20)
#    0.000    0.571    2.857    5.571    8.000    1.714 
#    2.571    2.857    0.000    0.000    0.000    0.000 
#    0.000    0.000    0.000    0.000    0.000    0.000 
#
# Total GULP energy -173491.112782 kJ/mol
# GULP energy per Si atom -12392.222342 kJ/mol
# Density = 2.207425 g / cm^3
# Si number density = 22.124602 Si / 1000 Ang^3
#
#
#
# Elastic Constant Matrix: (Units=GPa)
#
#
# Indices 1 2 3 4 5 6 
#
# 1 171.3078 86.3362 60.3441 -11.9583 15.3040 -2.5693
# 2 86.3362 153.5600 46.8045 -6.5478 11.0775 -13.4572
# 3 60.3441 46.8045 76.7353 -1.8113 8.2227 0.2368
# 4 -11.9583 -6.5478 -1.8113 44.7804 -12.4311 -3.2241
# 5 15.3040 11.0775 8.2227 -12.4311 42.9431 2.8010
# 6 -2.5693 -13.4572 0.2368 -3.2241 2.8010 46.7669
#
#
#
# Elastic Compliance Matrix: (Units=1/GPa)
#
#
# Indices 1 2 3 4 5 6 
#
# 1 0.009791 -0.003801 -0.005232 0.001532 -0.001040 -0.000362
# 2 -0.003801 0.009847 -0.002942 0.000303 -0.000711 0.002703
# 3 -0.005232 -0.002942 0.019057 -0.001532 -0.001387 -0.001253
# 4 0.001532 0.000303 -0.001532 0.024695 0.006721 0.001479
# 5 -0.001040 -0.000711 -0.001387 0.006721 0.026140 -0.001357
# 6 -0.000362 0.002703 -0.001253 0.001479 -0.001357 0.022330
#
#
# Mechanical properties :
#
#
# Convention : Reuss Voigt Hill
#
# Bulk Modulus (GPa) = 67.82291 87.61917 77.72104
# Shear Modulus (GPa) = 35.53017 40.77264 38.15140
#
# Velocity S-wave (km/s) = 4.01173 4.29752 4.15708
# Velocity P-wave (km/s) = 7.22358 8.01957 7.63196
#
# Compressibility (1/GPa) = 0.01474428
#
# Stress axis : x y z
#
# Youngs Moduli (GPa) = 102.13824 101.55321 52.47399
#
# Poissons Ratio (x) = 0.38603 0.27455
# Poissons Ratio (y) = 0.38825 0.15438
# Poissons Ratio (z) = 0.53439 0.29876
#
# Static dielectric constant tensor:
#      x y z
#    x 3.906600 -0.321160 0.066330 
#    y -0.321160 4.076120 -0.108320 
#    z 0.066330 -0.108320 3.698800 
# 
# 
# High freq. dielectric constant tensor:
#      x y z
#    x 1.887900 -0.018540 0.004760 
#    y -0.018540 1.882260 0.004570 
#    z 0.004760 0.004570 1.870770 
# 
# From -- ./inp_files/566671.got.cif
#   From: 2010.06.25/outbox.cif.g09.slc.cpg/sg2_284_cif.got.tgz:566671.got - 2010.06.27 13:26:56.
