data_PCOD8032212
_publ_section_title
;
Structure prediction by ZEFSAII (Michael W. Deem and Ramdas Pophale) SiO2 
 PCOD8032212
Probable space group: P -1
;
_chemical_formula_sum "Si O2"
_cell_formula_units_Z 14
_cell_length_a 8.697822
_cell_length_b 6.774584
_cell_length_c 23.172040
_cell_angle_alpha 130.803203
_cell_angle_beta 39.134101
_cell_angle_gamma 125.840947
_cell_volume 643.405603
_symmetry_space_group_name_H-M "P -1"
_symmetry_group_IT_number 2
_symmetry_cell_setting 'triclinic'
loop_
_space_group_symop_operation_xyz
x,y,z
-x,-y,-z
loop_
_atom_site_type_symbol
_atom_site_label
_atom_site_fract_x
_atom_site_fract_y
_atom_site_fract_z
Si Si1 0.536493 0.414065 0.298506
Si Si2 0.818173 0.952782 0.097311
Si Si3 0.455135 0.582587 0.964834
Si Si4 0.628325 0.715973 0.547868
Si Si5 0.024680 0.450853 0.416506
Si Si6 0.255904 0.002806 0.661632
Si Si7 0.877903 0.984255 0.867586
O O1 0.677367 0.200401 0.188024
O O2 0.457036 0.332300 0.370606
O O3 0.312963 0.432750 0.321417
O O4 0.724163 0.690687 0.301367
O O5 0.963495 0.910969 0.104059
O O6 0.631997 0.681003 0.095665
O O7 0.000000 0.000000 0.000000
O O8 0.697127 0.717804 0.886357
O O9 0.500000 0.500000 0.000000
O O10 0.261345 0.780784 0.065717
O O11 0.500000 0.500000 0.500000
O O12 0.532926 0.976094 0.600288
O O13 0.924142 0.694515 0.457768
O O14 0.000000 0.500000 0.500000
O O15 0.839604 0.179572 0.400727
O O16 0.051457 0.911121 0.752231
#
# Coordination Sequence:
#
# PCOD8032212 Si02
#       7
#     2   2   2   2   2   2   2
#     4  11  24  41  66 100 133 176 219 272 340 386
#     4  12  24  43  69  97 138 178 224 271 333 406
#     4  11  25  44  68  95 136 176 222 279 333 388
#     4   9  20  43  64  95 129 170 223 269 333 396
#     4   9  22  41  65  96 132 169 222 270 332 400
#     4  11  23  41  69  94 137 172 219 275 332 401
#     4  11  25  43  66 100 128 181 226 270 337 396
#
# _framework density 21.759212999999999
#
# number of rings (size 3 to 8) (size 9 to 14) (size 15 to 20)
#    0.000    1.429    2.857    1.286    2.000    6.857 
#    0.000    2.857    0.000    0.000    0.000    0.000 
#    0.000    0.000    0.000    0.000    0.000    0.000 
#
# Total GULP energy -173488.253432 kJ/mol
# GULP energy per Si atom -12392.018102 kJ/mol
# Density = 2.170969 g / cm^3
# Si number density = 21.759213 Si / 1000 Ang^3
#
#
#
# Elastic Constant Matrix: (Units=GPa)
#
#
# Indices 1 2 3 4 5 6 
#
# 1 150.4898 45.3991 48.4943 7.7738 -5.3428 3.5364
# 2 45.3991 109.2031 36.3689 29.5912 -0.7883 8.3821
# 3 48.4943 36.3689 103.1707 8.3091 -4.9794 -4.3159
# 4 7.7738 29.5912 8.3091 25.3644 0.7510 4.8617
# 5 -5.3428 -0.7883 -4.9794 0.7510 36.5834 6.5587
# 6 3.5364 8.3821 -4.3159 4.8617 6.5587 32.5686
#
#
#
# Elastic Compliance Matrix: (Units=1/GPa)
#
#
# Indices 1 2 3 4 5 6 
#
# 1 0.008493 -0.002961 -0.003114 0.002048 0.000901 -0.001060
# 2 -0.002961 0.015963 -0.002980 -0.016406 0.000159 -0.001765
# 3 -0.003114 -0.002980 0.012362 -0.000142 0.000696 0.002624
# 4 0.002048 -0.016406 -0.000142 0.058902 -0.000436 -0.004724
# 5 0.000901 0.000159 0.000696 -0.000436 0.028603 -0.005741
# 6 -0.001060 -0.001765 0.002624 -0.004724 -0.005741 0.033483
#
#
# Mechanical properties :
#
#
# Convention : Reuss Voigt Hill
#
# Bulk Modulus (GPa) = 53.45519 69.26534 61.36026
# Shear Modulus (GPa) = 27.44980 34.41003 30.92992
#
# Velocity S-wave (km/s) = 3.55565 3.98100 3.77432
# Velocity P-wave (km/s) = 6.44025 7.28237 6.87422
#
# Compressibility (1/GPa) = 0.01870726
#
# Stress axis : x y z
#
# Youngs Moduli (GPa) = 117.74832 62.64582 80.89434
#
# Poissons Ratio (x) = 0.18547 0.25191
# Poissons Ratio (y) = 0.34860 0.24109
# Poissons Ratio (z) = 0.36667 0.18671
#
# Static dielectric constant tensor:
#      x y z
#    x 4.609990 -0.023220 -0.399590 
#    y -0.023220 3.803980 0.092840 
#    z -0.399590 0.092840 5.197620 
# 
# 
# High freq. dielectric constant tensor:
#      x y z
#    x 1.879210 -0.002520 -0.007120 
#    y -0.002520 1.839600 0.015730 
#    z -0.007120 0.015730 1.866790 
# 
# From -- ./inp_files/91110.got.cif
#   From: 2010.06.25/outbox.cif.g09.slc.cpg/sg2_46_cif.got.tgz:91110.got - 2010.06.27 13:26:56.
