data_PCOD8032013
_publ_section_title
;
Structure prediction by ZEFSAII (Michael W. Deem and Ramdas Pophale) SiO2 
 PCOD8032013
Probable space group: P -1
;
_chemical_formula_sum "Si O2"
_cell_formula_units_Z 12
_cell_length_a 4.862341
_cell_length_b 7.328442
_cell_length_c 17.833519
_cell_angle_alpha 114.825488
_cell_angle_beta 78.909541
_cell_angle_gamma 109.740294
_cell_volume 541.900790
_symmetry_space_group_name_H-M "P -1"
_symmetry_group_IT_number 2
_symmetry_cell_setting 'triclinic'
loop_
_space_group_symop_operation_xyz
x,y,z
-x,-y,-z
loop_
_atom_site_type_symbol
_atom_site_label
_atom_site_fract_x
_atom_site_fract_y
_atom_site_fract_z
Si Si1 0.147566 0.854305 0.695780
Si Si2 0.395524 0.119181 0.592253
Si Si3 0.002539 0.389790 0.659718
Si Si4 0.768824 0.441464 0.162780
Si Si5 0.374122 0.576617 0.092950
Si Si6 0.385796 0.040859 0.191283
O O1 0.214890 0.266408 0.590596
O O2 0.464845 0.917018 0.728070
O O3 0.032031 0.603132 0.649619
O O4 0.172444 0.953005 0.629148
O O5 0.666426 0.255415 0.650151
O O6 0.500000 0.000000 0.500000
O O7 0.096809 0.427152 0.747868
O O8 0.936694 0.935024 0.776419
O O9 0.043649 0.426716 0.095811
O O10 0.575002 0.567417 0.152386
O O11 0.567721 0.208267 0.150550
O O12 0.362496 0.812608 0.121259
O O13 0.500000 0.500000 0.000000
#
# Coordination Sequence:
#
# PCOD8032013 Si02
#       6
#     2   2   2   2   2   2
#     4  11  23  40  65  91 118 163 214 253 297 361
#     4  12  25  40  63  95 130 162 197 255 318 367
#     4  11  23  42  65  89 121 164 212 254 298 363
#     4  11  23  42  65  89 121 164 212 254 298 363
#     4  12  25  40  63  95 130 162 197 255 318 367
#     4  11  23  40  65  91 118 163 214 253 297 361
#
# _framework density 22.144276999999999
#
# number of rings (size 3 to 8) (size 9 to 14) (size 15 to 20)
#    0.000    0.667    0.000   11.000    0.000    2.667 
#    0.000    0.000    0.000    0.000    0.000    0.000 
#    0.000    0.000    0.000    0.000    0.000    0.000 
#
# Total GULP energy -148885.275273 kJ/mol
# GULP energy per Si atom -12407.106273 kJ/mol
# Density = 2.209388 g / cm^3
# Si number density = 22.144277 Si / 1000 Ang^3
#
#
#
# Elastic Constant Matrix: (Units=GPa)
#
#
# Indices 1 2 3 4 5 6 
#
# 1 120.5916 60.2607 19.6953 -0.2209 -20.2667 -1.5748
# 2 60.2607 165.2671 75.2008 9.1001 -20.9234 -0.5091
# 3 19.6953 75.2008 83.0384 5.7466 -29.5035 3.4804
# 4 -0.2209 9.1001 5.7466 21.5610 -3.7502 -10.5309
# 5 -20.2667 -20.9234 -29.5035 -3.7502 45.3988 1.5108
# 6 -1.5748 -0.5091 3.4804 -10.5309 1.5108 38.1078
#
#
#
# Elastic Compliance Matrix: (Units=1/GPa)
#
#
# Indices 1 2 3 4 5 6 
#
# 1 0.011202 -0.005282 0.003784 0.002502 0.005214 0.000531
# 2 -0.005282 0.012990 -0.011866 -0.002933 -0.004339 0.000400
# 3 0.003784 -0.011866 0.027030 -0.001426 0.013782 -0.003411
# 4 0.002502 -0.002933 -0.001426 0.056155 0.002958 0.015595
# 5 0.005214 -0.004339 0.013782 0.002958 0.031607 -0.001537
# 6 0.000531 0.000400 -0.003411 0.015595 -0.001537 0.030951
#
#
# Mechanical properties :
#
#
# Convention : Reuss Voigt Hill
#
# Bulk Modulus (GPa) = 40.82863 75.46786 58.14825
# Shear Modulus (GPa) = 24.41073 35.26287 29.83680
#
# Velocity S-wave (km/s) = 3.32377 3.99484 3.67465
# Velocity P-wave (km/s) = 5.76259 7.44529 6.65732
#
# Compressibility (1/GPa) = 0.02449262
#
# Stress axis : x y z
#
# Youngs Moduli (GPa) = 89.27036 76.98380 36.99639
#
# Poissons Ratio (x) = 0.40666 -0.14000
# Poissons Ratio (y) = 0.47156 0.43900
# Poissons Ratio (z) = -0.33781 0.91350
#
# Static dielectric constant tensor:
#      x y z
#    x 4.302510 -0.046730 -0.106380 
#    y -0.046730 4.246690 0.007790 
#    z -0.106380 0.007790 3.596070 
# 
# 
# High freq. dielectric constant tensor:
#      x y z
#    x 1.895550 -0.001530 -0.011250 
#    y -0.001530 1.886610 0.002980 
#    z -0.011250 0.002980 1.844380 
# 
# From -- ./inp_files/6583.got.cif
#   From: 2010.06.25/outbox.cif.g09.slc.cpg/sg2_4_cif.got.tgz:6583.got - 2010.06.27 13:26:56.
