data_PCOD8032982
_publ_section_title
;
Structure prediction by ZEFSAII (Michael W. Deem and Ramdas Pophale) SiO2 
 PCOD8032982
Probable space group: P -1
;
_chemical_formula_sum "Si O2"
_cell_formula_units_Z 14
_cell_length_a 12.294040
_cell_length_b 9.032874
_cell_length_c 14.801840
_cell_angle_alpha 53.095555
_cell_angle_beta 28.441318
_cell_angle_gamma 64.906503
_cell_volume 602.244786
_symmetry_space_group_name_H-M "P -1"
_symmetry_group_IT_number 2
_symmetry_cell_setting 'triclinic'
loop_
_space_group_symop_operation_xyz
x,y,z
-x,-y,-z
loop_
_atom_site_type_symbol
_atom_site_label
_atom_site_fract_x
_atom_site_fract_y
_atom_site_fract_z
Si Si1 0.795223 0.305558 0.013509
Si Si2 0.413616 0.470165 0.787640
Si Si3 0.740291 0.456647 0.312622
Si Si4 0.080962 0.228871 0.521071
Si Si5 0.081769 0.501398 0.574106
Si Si6 0.366135 0.056322 0.992841
Si Si7 0.427103 0.967789 0.342292
O O1 0.036433 0.383043 0.866768
O O2 0.854955 0.377267 0.840329
O O3 0.592041 0.388710 0.176031
O O4 0.671649 0.073243 0.181309
O O5 0.244312 0.517143 0.816554
O O6 0.676905 0.478430 0.551560
O O7 0.306317 0.256854 0.982759
O O8 0.500000 0.500000 0.500000
O O9 0.722681 0.232967 0.430260
O O10 0.165836 0.419283 0.450243
O O11 0.277837 0.124043 0.389313
O O12 0.969169 0.293863 0.487067
O O13 0.886354 0.095179 0.777223
O O14 0.514914 0.073185 0.786771
O O15 0.500000 0.000000 0.000000
#
# Coordination Sequence:
#
# PCOD8032982 Si02
#       7
#     2   2   2   2   2   2   2
#     4  12  26  46  77 105 138 198 239 291 365 424
#     4  12  25  49  71 103 149 185 237 301 362 416
#     4  12  26  50  72 104 149 185 241 307 353 416
#     4  11  25  43  70 108 146 181 239 294 350 433
#     4  11  23  44  70 105 146 183 232 299 353 423
#     4  12  25  43  71 107 145 187 233 295 362 422
#     4  12  27  48  75 109 141 194 243 288 358 434
#
# _framework density 23.246361
#
# number of rings (size 3 to 8) (size 9 to 14) (size 15 to 20)
#    0.000    0.286    7.143    1.286    2.000    2.286 
#    2.571    0.000    0.000    0.000    0.000    0.000 
#    0.000    0.000    0.000    0.000    0.000    0.000 
#
# Total GULP energy -173460.484422 kJ/mol
# GULP energy per Si atom -12390.034602 kJ/mol
# Density = 2.319345 g / cm^3
# Si number density = 23.246361 Si / 1000 Ang^3
#
#
#
# Elastic Constant Matrix: (Units=GPa)
#
#
# Indices 1 2 3 4 5 6 
#
# 1 103.7069 33.4676 22.5084 -11.6608 -0.9462 -1.0032
# 2 33.4676 89.9844 7.5438 -6.1807 -4.3821 1.0396
# 3 22.5084 7.5438 66.7403 -6.8841 -11.7356 -5.0184
# 4 -11.6608 -6.1807 -6.8841 39.4540 1.6107 2.5709
# 5 -0.9462 -4.3821 -11.7356 1.6107 40.5598 -1.4007
# 6 -1.0032 1.0396 -5.0184 2.5709 -1.4007 33.6190
#
#
#
# Elastic Compliance Matrix: (Units=1/GPa)
#
#
# Indices 1 2 3 4 5 6 
#
# 1 0.011979 -0.004053 -0.003590 0.002351 -0.001300 -0.000287
# 2 -0.004053 0.012728 0.000202 0.000811 0.001290 -0.000493
# 3 -0.003590 0.000202 0.017413 0.001637 0.005000 0.002569
# 4 0.002351 0.000811 0.001637 0.026589 -0.000501 -0.001765
# 5 -0.001300 0.001290 0.005000 -0.000501 0.026293 0.001801
# 6 -0.000287 -0.000493 0.002569 -0.001765 0.001801 0.030345
#
#
# Mechanical properties :
#
#
# Convention : Reuss Voigt Hill
#
# Bulk Modulus (GPa) = 36.71422 43.05236 39.88329
# Shear Modulus (GPa) = 33.48787 35.85402 34.67095
#
# Velocity S-wave (km/s) = 3.79959 3.93154 3.86613
# Velocity P-wave (km/s) = 5.92259 6.25856 6.09289
#
# Compressibility (1/GPa) = 0.02723740
#
# Stress axis : x y z
#
# Youngs Moduli (GPa) = 83.47711 78.56852 57.42989
#
# Poissons Ratio (x) = 0.31844 0.20616
# Poissons Ratio (y) = 0.33833 -0.01158
# Poissons Ratio (z) = 0.29966 -0.01584
#
# Static dielectric constant tensor:
#      x y z
#    x 4.428790 -0.108680 0.001890 
#    y -0.108680 4.283420 -0.104320 
#    z 0.001890 -0.104320 4.395580 
# 
# 
# High freq. dielectric constant tensor:
#      x y z
#    x 1.919520 0.010240 -0.006020 
#    y 0.010240 1.919880 0.003530 
#    z -0.006020 0.003530 1.929940 
# 
# From -- ./inp_files/224132.got.cif
#   From: 2010.06.25/outbox.cif.g09.slc.cpg/sg2_113_cif.got.tgz:224132.got - 2010.06.27 13:26:56.
