data_PCOD8032932
_publ_section_title
;
Structure prediction by ZEFSAII (Michael W. Deem and Ramdas Pophale) SiO2 
 PCOD8032932
Probable space group: P -1
;
_chemical_formula_sum "Si O2"
_cell_formula_units_Z 16
_cell_length_a 9.456918
_cell_length_b 26.813038
_cell_length_c 12.166313
_cell_angle_alpha 152.670483
_cell_angle_beta 149.151515
_cell_angle_gamma 40.078314
_cell_volume 726.218317
_symmetry_space_group_name_H-M "P -1"
_symmetry_group_IT_number 2
_symmetry_cell_setting 'triclinic'
loop_
_space_group_symop_operation_xyz
x,y,z
-x,-y,-z
loop_
_atom_site_type_symbol
_atom_site_label
_atom_site_fract_x
_atom_site_fract_y
_atom_site_fract_z
Si Si1 0.835036 0.902704 0.747204
Si Si2 0.312881 0.752305 0.824772
Si Si3 0.031863 0.678156 0.896961
Si Si4 0.604327 0.527316 0.242390
Si Si5 0.064747 0.234193 0.752439
Si Si6 0.791630 0.004126 0.142481
Si Si7 0.836646 0.404289 0.756144
Si Si8 0.756431 0.163367 0.825798
O O1 0.557993 0.874415 0.442395
O O2 0.061047 0.808454 0.702165
O O3 0.734318 0.931456 0.856917
O O4 0.000000 0.000000 0.000000
O O5 0.329531 0.640261 0.548864
O O6 0.615550 0.805197 0.118475
O O7 0.209618 0.753672 0.885854
O O8 0.744713 0.647129 0.583375
O O9 0.205900 0.570371 0.782971
O O10 0.992421 0.705850 0.052738
O O11 0.183293 0.776499 0.130217
O O12 0.353543 0.527643 0.157300
O O13 0.500000 0.500000 0.000000
O O14 0.875756 0.127275 0.410831
O O15 0.001433 0.314453 0.764617
O O16 0.043415 0.942549 0.251927
O O17 0.500000 0.000000 0.000000
O O18 0.000000 0.500000 0.000000
#
# Coordination Sequence:
#
# PCOD8032932 Si02
#       8
#     2   2   2   2   2   2   2   2
#     4  11  23  44  68  98 138 185 229 282 343 403
#     4  11  25  44  68 100 138 182 230 285 344 406
#     4  11  26  44  70 101 139 183 230 284 348 410
#     4  11  25  47  69  99 140 183 229 288 348 406
#     4  12  25  47  69 104 141 181 232 288 345 415
#     4  11  26  43  71 105 141 181 229 282 345 414
#     4  12  28  44  73 103 138 183 234 288 348 412
#     4  11  26  44  71 104 140 184 232 282 341 419
#
# _framework density 22.031942000000001
#
# number of rings (size 3 to 8) (size 9 to 14) (size 15 to 20)
#    0.000    0.750    2.500    3.750    7.000    6.500 
#    0.000    0.000    0.000    0.000    0.000    0.000 
#    0.000    0.000    0.000    0.000    0.000    0.000 
#
# Total GULP energy -198213.489634 kJ/mol
# GULP energy per Si atom -12388.343102 kJ/mol
# Density = 2.198180 g / cm^3
# Si number density = 22.031942 Si / 1000 Ang^3
#
#
#
# Elastic Constant Matrix: (Units=GPa)
#
#
# Indices 1 2 3 4 5 6 
#
# 1 147.3754 53.4434 58.6781 0.7649 7.5194 -10.0434
# 2 53.4434 103.3806 39.8923 -2.7710 12.1282 -3.5954
# 3 58.6781 39.8923 131.0369 -0.4717 6.8242 6.3131
# 4 0.7649 -2.7710 -0.4717 33.3469 -3.2596 6.7098
# 5 7.5194 12.1282 6.8242 -3.2596 47.8440 3.4541
# 6 -10.0434 -3.5954 6.3131 6.7098 3.4541 45.0867
#
#
#
# Elastic Compliance Matrix: (Units=1/GPa)
#
#
# Indices 1 2 3 4 5 6 
#
# 1 0.009600 -0.003581 -0.003313 -0.001108 -0.000385 0.002511
# 2 -0.003581 0.012671 -0.002158 0.000760 -0.002332 0.000580
# 3 -0.003313 -0.002158 0.009895 0.000498 -0.000139 -0.002359
# 4 -0.001108 0.000760 0.000498 0.031347 0.002415 -0.005106
# 5 -0.000385 -0.002332 -0.000139 0.002415 0.021903 -0.002290
# 6 0.002511 0.000580 -0.002359 -0.005106 -0.002290 0.024051
#
#
# Mechanical properties :
#
#
# Convention : Reuss Voigt Hill
#
# Bulk Modulus (GPa) = 71.11907 76.20226 73.66066
# Shear Modulus (GPa) = 37.80504 40.57411 39.18958
#
# Velocity S-wave (km/s) = 4.14686 4.29605 4.22211
# Velocity P-wave (km/s) = 7.43496 7.69872 7.56799
#
# Compressibility (1/GPa) = 0.01406093
#
# Stress axis : x y z
#
# Youngs Moduli (GPa) = 104.16780 78.92011 101.06372
#
# Poissons Ratio (x) = 0.28264 0.33487
# Poissons Ratio (y) = 0.37306 0.21805
# Poissons Ratio (z) = 0.34515 0.17028
#
# Static dielectric constant tensor:
#      x y z
#    x 3.558280 -0.334880 0.251050 
#    y -0.334880 4.028600 -0.041890 
#    z 0.251050 -0.041890 3.886290 
# 
# 
# High freq. dielectric constant tensor:
#      x y z
#    x 1.888790 -0.017480 -0.011180 
#    y -0.017480 1.861630 -0.005490 
#    z -0.011180 -0.005490 1.878730 
# 
# From -- ./inp_files/107071.got.cif
#   From: 2010.06.25/outbox.cif.g09.slc.cpg/sg2_54_cif.got.tgz:107071.got - 2010.06.27 13:26:56.
