data_PCOD8032259
_publ_section_title
;
Structure prediction by ZEFSAII (Michael W. Deem and Ramdas Pophale) SiO2 
 PCOD8032259
Probable space group: P -1
;
_chemical_formula_sum "Si O2"
_cell_formula_units_Z 16
_cell_length_a 11.383564
_cell_length_b 5.068557
_cell_length_c 21.292543
_cell_angle_alpha 70.061782
_cell_angle_beta 145.512764
_cell_angle_gamma 96.656896
_cell_volume 621.660369
_symmetry_space_group_name_H-M "P -1"
_symmetry_group_IT_number 2
_symmetry_cell_setting 'triclinic'
loop_
_space_group_symop_operation_xyz
x,y,z
-x,-y,-z
loop_
_atom_site_type_symbol
_atom_site_label
_atom_site_fract_x
_atom_site_fract_y
_atom_site_fract_z
Si Si1 0.126138 0.166810 0.596040
Si Si2 0.308280 0.988568 0.058641
Si Si3 0.910673 0.788517 0.592667
Si Si4 0.510227 0.860110 0.333394
Si Si5 0.256800 0.401353 0.117613
Si Si6 0.930497 0.929653 0.725042
Si Si7 0.247704 0.160878 0.791516
Si Si8 0.139163 0.678607 0.225142
O O1 0.364289 0.107483 0.677784
O O2 0.163531 0.103567 0.691300
O O3 0.000000 0.500000 0.500000
O O4 0.974725 0.942308 0.543263
O O5 0.343933 0.682317 0.136548
O O6 0.490839 0.922190 0.088916
O O7 0.328115 0.235402 0.095895
O O8 0.071555 0.077270 0.915171
O O9 0.684076 0.739747 0.475566
O O10 0.838585 0.983267 0.608617
O O11 0.111159 0.499011 0.722344
O O12 0.353582 0.650231 0.278859
O O13 0.348193 0.198776 0.236271
O O14 0.000000 0.500000 0.000000
O O15 0.913914 0.625927 0.769652
O O16 0.801740 0.200915 0.691341
O O17 0.180914 0.943328 0.829258
#
# Coordination Sequence:
#
# PCOD8032259 Si02
#       8
#     2   2   2   2   2   2   2   2
#     4  11  23  41  72 113 148 186 241 296 372 443
#     4  12  27  46  76 109 148 191 248 304 367 431
#     4  11  25  48  74 108 150 191 247 304 368 427
#     4  12  26  44  76 113 148 195 234 301 376 449
#     4  12  26  46  70 110 157 190 233 294 371 452
#     4  11  27  53  71 104 149 193 258 303 351 430
#     4  11  24  47  75 105 147 195 242 312 362 420
#     4  12  28  49  73 107 145 201 249 296 364 433
#
# _framework density 25.737528000000001
#
# number of rings (size 3 to 8) (size 9 to 14) (size 15 to 20)
#    0.000    0.500    5.000    2.250    3.500    3.000 
#    0.000    0.000    0.000    0.000    0.000    0.000 
#    0.000    0.000    0.000    0.000    0.000    0.000 
#
# Total GULP energy -198220.701020 kJ/mol
# GULP energy per Si atom -12388.793814 kJ/mol
# Density = 2.567895 g / cm^3
# Si number density = 25.737528 Si / 1000 Ang^3
#
#
#
# Elastic Constant Matrix: (Units=GPa)
#
#
# Indices 1 2 3 4 5 6 
#
# 1 109.4762 53.1676 23.3445 8.3843 12.5837 24.7627
# 2 53.1676 156.3941 21.6678 -4.9343 20.0302 35.1972
# 3 23.3445 21.6678 100.2178 6.7595 26.5015 8.6224
# 4 8.3843 -4.9343 6.7595 14.9210 13.3453 10.4603
# 5 12.5837 20.0302 26.5015 13.3453 32.0523 5.5336
# 6 24.7627 35.1972 8.6224 10.4603 5.5336 50.4351
#
#
#
# Elastic Compliance Matrix: (Units=1/GPa)
#
#
# Indices 1 2 3 4 5 6 
#
# 1 0.012378 -0.004772 -0.002340 -0.011561 0.004956 -0.000493
# 2 -0.004772 0.014378 0.002390 0.034304 -0.021144 -0.012894
# 3 -0.002340 0.002390 0.013965 0.013951 -0.017255 -0.003907
# 4 -0.011561 0.034304 0.013951 0.211604 -0.107430 -0.052749
# 5 0.004956 -0.021144 -0.017255 -0.107430 0.096814 0.026932
# 6 -0.000493 -0.012894 -0.003907 -0.052749 0.026932 0.037721
#
#
# Mechanical properties :
#
#
# Convention : Reuss Voigt Hill
#
# Bulk Modulus (GPa) = 31.97332 62.49423 47.23377
# Shear Modulus (GPa) = 12.29318 37.34222 24.81770
#
# Velocity S-wave (km/s) = 2.18786 3.81318 3.10862
# Velocity P-wave (km/s) = 4.33960 6.61220 5.59255
#
# Compressibility (1/GPa) = 0.03127608
#
# Stress axis : x y z
#
# Youngs Moduli (GPa) = 80.78605 69.55265 71.60904
#
# Poissons Ratio (x) = 0.33194 0.16756
# Poissons Ratio (y) = 0.38555 -0.17115
# Poissons Ratio (z) = 0.18903 -0.16624
#
# Static dielectric constant tensor:
#      x y z
#    x 5.289630 -0.268020 0.542150 
#    y -0.268020 5.210330 -0.374580 
#    z 0.542150 -0.374580 5.197180 
# 
# 
# High freq. dielectric constant tensor:
#      x y z
#    x 2.048640 0.012260 0.001850 
#    y 0.012260 2.032670 0.013880 
#    z 0.001850 0.013880 2.018020 
# 
# From -- ./inp_files/609146.got.cif
#   From: 2010.06.25/outbox.cif.g09.slc.cpg/sg2_305_cif.got.tgz:609146.got - 2010.06.27 13:26:56.
