data_PCOD8032758
_publ_section_title
;
Structure prediction by ZEFSAII (Michael W. Deem and Ramdas Pophale) SiO2 
 PCOD8032758
Probable space group: P -1
;
_chemical_formula_sum "Si O2"
_cell_formula_units_Z 16
_cell_length_a 22.536694
_cell_length_b 13.516748
_cell_length_c 18.684066
_cell_angle_alpha 27.549210
_cell_angle_beta 17.303737
_cell_angle_gamma 26.902437
_cell_volume 739.328548
_symmetry_space_group_name_H-M "P -1"
_symmetry_group_IT_number 2
_symmetry_cell_setting 'triclinic'
loop_
_space_group_symop_operation_xyz
x,y,z
-x,-y,-z
loop_
_atom_site_type_symbol
_atom_site_label
_atom_site_fract_x
_atom_site_fract_y
_atom_site_fract_z
Si Si1 0.295573 0.326629 0.062227
Si Si2 0.813175 0.505660 0.263385
Si Si3 0.073925 0.281150 0.606378
Si Si4 0.002737 0.628999 0.104791
Si Si5 0.293276 0.187217 0.555484
Si Si6 0.366323 0.856665 0.329963
Si Si7 0.659224 0.269100 0.159553
Si Si8 0.628303 0.190867 0.483563
O O1 0.070063 0.447518 0.208392
O O2 0.437757 0.221490 0.898000
O O3 0.381952 0.495284 0.901361
O O4 0.270491 0.129052 0.268454
O O5 0.804181 0.252270 0.432527
O O6 0.589520 0.698899 0.379233
O O7 0.000000 0.500000 0.000000
O O8 0.876740 0.545613 0.244002
O O9 0.170360 0.335436 0.535252
O O10 0.000000 0.500000 0.500000
O O11 0.259545 0.077148 0.486585
O O12 0.874731 0.207624 0.904869
O O13 0.203913 0.684428 0.808188
O O14 0.835176 0.828069 0.213839
O O15 0.480022 0.285877 0.295732
O O16 0.353270 0.914727 0.646606
O O17 0.437148 0.765118 0.386518
#
# Coordination Sequence:
#
# PCOD8032758 Si02
#       8
#     2   2   2   2   2   2   2   2
#     4  11  23  43  71  96 139 182 225 281 353 409
#     4  12  25  43  71 104 135 181 239 288 338 404
#     4  12  26  45  70 102 145 186 221 285 358 413
#     4  12  23  42  72 101 135 181 230 288 342 413
#     4  11  25  41  73 105 133 177 238 281 341 417
#     4  11  24  44  67  99 136 183 227 286 347 406
#     4  11  23  45  71 102 136 179 231 287 339 418
#     4  12  25  44  71  99 141 183 234 284 346 411
#
# _framework density 21.641259000000002
#
# number of rings (size 3 to 8) (size 9 to 14) (size 15 to 20)
#    0.000    0.500    5.000    3.750    3.500    1.000 
#    0.000    3.750    0.000    0.000    0.000    0.000 
#    0.000    0.000    0.000    0.000    0.000    0.000 
#
# Total GULP energy -198277.527688 kJ/mol
# GULP energy per Si atom -12392.345480 kJ/mol
# Density = 2.159200 g / cm^3
# Si number density = 21.641259 Si / 1000 Ang^3
#
#
#
# Elastic Constant Matrix: (Units=GPa)
#
#
# Indices 1 2 3 4 5 6 
#
# 1 154.5564 49.6260 65.6191 -17.5438 -26.6306 -6.7428
# 2 49.6260 111.2252 53.0377 -23.3896 -15.3217 0.4130
# 3 65.6191 53.0377 94.7407 5.6817 -24.9422 -10.8439
# 4 -17.5438 -23.3896 5.6817 37.7153 3.7372 6.6910
# 5 -26.6306 -15.3217 -24.9422 3.7372 35.6992 7.4802
# 6 -6.7428 0.4130 -10.8439 6.6910 7.4802 35.6760
#
#
#
# Elastic Compliance Matrix: (Units=1/GPa)
#
#
# Indices 1 2 3 4 5 6 
#
# 1 0.010632 0.000706 -0.007722 0.006670 0.002589 -0.002140
# 2 0.000706 0.017155 -0.011757 0.013876 -0.000491 -0.006138
# 3 -0.007722 -0.011757 0.026508 -0.017121 0.007764 0.008317
# 4 0.006670 0.013876 -0.017121 0.043159 -0.003131 -0.011542
# 5 0.002589 -0.000491 0.007764 -0.003131 0.036360 -0.004182
# 6 -0.002140 -0.006138 0.008317 -0.011542 -0.004182 0.033266
#
#
# Mechanical properties :
#
#
# Convention : Reuss Voigt Hill
#
# Bulk Modulus (GPa) = 59.70623 77.45421 68.58022
# Shear Modulus (GPa) = 23.78567 34.63407 29.20987
#
# Velocity S-wave (km/s) = 3.31885 4.00481 3.67785
# Velocity P-wave (km/s) = 6.50656 7.56653 7.05648
#
# Compressibility (1/GPa) = 0.01674867
#
# Stress axis : x y z
#
# Youngs Moduli (GPa) = 94.05634 58.29158 37.72434
#
# Poissons Ratio (x) = -0.04114 0.29132
# Poissons Ratio (y) = -0.06639 0.44351
# Poissons Ratio (z) = 0.72634 0.68532
#
# Static dielectric constant tensor:
#      x y z
#    x 4.036730 0.002010 0.041820 
#    y 0.002010 4.567910 0.072150 
#    z 0.041820 0.072150 3.813350 
# 
# 
# High freq. dielectric constant tensor:
#      x y z
#    x 1.859640 0.011310 0.001660 
#    y 0.011310 1.861640 0.008830 
#    z 0.001660 0.008830 1.844460 
# 
# From -- ./inp_files/577899.got.cif
#   From: 2010.06.25/outbox.cif.g09.slc.cpg/sg2_289_cif.got.tgz:577899.got - 2010.06.27 13:26:56.
