data_PCOD8032987
_publ_section_title
;
Structure prediction by ZEFSAII (Michael W. Deem and Ramdas Pophale) SiO2 
 PCOD8032987
Probable space group: P -1
;
_chemical_formula_sum "Si O2"
_cell_formula_units_Z 16
_cell_length_a 16.319429
_cell_length_b 5.331390
_cell_length_c 13.032322
_cell_angle_alpha 88.020804
_cell_angle_beta 131.317772
_cell_angle_gamma 64.460492
_cell_volume 677.828861
_symmetry_space_group_name_H-M "P -1"
_symmetry_group_IT_number 2
_symmetry_cell_setting 'triclinic'
loop_
_space_group_symop_operation_xyz
x,y,z
-x,-y,-z
loop_
_atom_site_type_symbol
_atom_site_label
_atom_site_fract_x
_atom_site_fract_y
_atom_site_fract_z
Si Si1 0.457303 0.590059 0.280224
Si Si2 0.897290 0.296651 0.480148
Si Si3 0.223682 0.398414 0.825179
Si Si4 0.373933 0.196565 0.314239
Si Si5 0.232423 0.831423 0.453900
Si Si6 0.090879 0.728446 0.162239
Si Si7 0.015145 0.505780 0.274315
Si Si8 0.390384 0.666067 0.995293
O O1 0.377536 0.464279 0.261620
O O2 0.612373 0.375404 0.453143
O O3 0.466774 0.535502 0.167953
O O4 0.384584 0.952170 0.245953
O O5 0.813856 0.583420 0.326547
O O6 0.785918 0.295165 0.453544
O O7 0.999326 0.294295 0.642213
O O8 0.000000 0.000000 0.500000
O O9 0.094884 0.561149 0.795622
O O10 0.284424 0.587386 0.894543
O O11 0.323362 0.032077 0.937118
O O12 0.221643 0.391677 0.232868
O O13 0.500000 0.000000 0.500000
O O14 0.142321 0.852580 0.286494
O O15 0.172936 0.192442 0.416340
O O16 0.991747 0.670646 0.142204
O O17 0.000000 0.000000 0.000000
O O18 0.500000 0.500000 0.000000
#
# Coordination Sequence:
#
# PCOD8032987 Si02
#       8
#     2   2   2   2   2   2   2   2
#     4  12  28  48  80 107 151 203 256 310 377 461
#     4  11  23  44  70 112 152 199 244 310 382 462
#     4  12  26  46  77 108 157 197 248 312 383 447
#     4  12  26  52  79 110 150 200 260 314 387 455
#     4  11  25  45  76 111 146 196 256 310 381 461
#     4  11  28  49  77 111 152 197 252 330 387 452
#     4  11  26  44  78 110 149 195 256 310 390 463
#     4  12  29  50  73 112 154 202 251 309 376 456
#
# _framework density 23.604776999999999
#
# number of rings (size 3 to 8) (size 9 to 14) (size 15 to 20)
#    0.000    0.500    2.500    4.125   10.500    1.500 
#    0.000    0.000    0.000    0.000    0.000    0.000 
#    0.000    0.000    0.000    0.000    0.000    0.000 
#
# Total GULP energy -198389.673525 kJ/mol
# GULP energy per Si atom -12399.354595 kJ/mol
# Density = 2.355105 g / cm^3
# Si number density = 23.604777 Si / 1000 Ang^3
#
#
#
# Elastic Constant Matrix: (Units=GPa)
#
#
# Indices 1 2 3 4 5 6 
#
# 1 135.8812 49.9854 60.8161 17.0955 -13.4047 3.5613
# 2 49.9854 115.9519 22.6175 -2.5814 1.0862 -10.9952
# 3 60.8161 22.6175 115.4049 -7.8069 -23.2718 -8.0114
# 4 17.0955 -2.5814 -7.8069 33.2217 -2.1428 -3.2278
# 5 -13.4047 1.0862 -23.2718 -2.1428 40.0364 -5.4502
# 6 3.5613 -10.9952 -8.0114 -3.2278 -5.4502 43.0160
#
#
#
# Elastic Compliance Matrix: (Units=1/GPa)
#
#
# Indices 1 2 3 4 5 6 
#
# 1 0.013875 -0.005189 -0.007421 -0.009786 -0.000688 -0.004679
# 2 -0.005189 0.011125 0.000923 0.004055 -0.000789 0.003649
# 3 -0.007421 0.000923 0.014771 0.008327 0.007222 0.005141
# 4 -0.009786 0.004055 0.008327 0.038359 0.004437 0.006838
# 5 -0.000688 -0.000789 0.007222 0.004437 0.029929 0.005325
# 6 -0.004679 0.003649 0.005141 0.006838 0.005325 0.026713
#
#
# Mechanical properties :
#
#
# Convention : Reuss Voigt Hill
#
# Bulk Modulus (GPa) = 60.98298 70.45290 65.71794
# Shear Modulus (GPa) = 30.56016 38.84276 34.70146
#
# Velocity S-wave (km/s) = 3.60204 4.06093 3.83835
# Velocity P-wave (km/s) = 6.57196 7.20416 6.89531
#
# Compressibility (1/GPa) = 0.01639802
#
# Stress axis : x y z
#
# Youngs Moduli (GPa) = 72.06988 89.88794 67.69900
#
# Poissons Ratio (x) = 0.46644 0.50236
# Poissons Ratio (y) = 0.37398 -0.06247
# Poissons Ratio (z) = 0.53479 -0.08295
#
# Static dielectric constant tensor:
#      x y z
#    x 4.799260 -0.543780 -0.514200 
#    y -0.543780 5.680650 0.739390 
#    z -0.514200 0.739390 5.288010 
# 
# 
# High freq. dielectric constant tensor:
#      x y z
#    x 1.951580 -0.003010 -0.012300 
#    y -0.003010 1.945870 -0.001870 
#    z -0.012300 -0.001870 1.932940 
# 
# From -- ./inp_files/459529.got.cif
#   From: 2010.06.25/outbox.cif.g09.slc.cpg/sg2_230_cif.got.tgz:459529.got - 2010.06.27 13:26:56.
