data_PCOD8032171
_publ_section_title
;
Structure prediction by ZEFSAII (Michael W. Deem and Ramdas Pophale) SiO2 
 PCOD8032171
Probable space group: P -1
;
_chemical_formula_sum "Si O2"
_cell_formula_units_Z 16
_cell_length_a 10.704044
_cell_length_b 13.790836
_cell_length_c 13.835340
_cell_angle_alpha 136.204511
_cell_angle_beta 147.730223
_cell_angle_gamma 44.266367
_cell_volume 723.082331
_symmetry_space_group_name_H-M "P -1"
_symmetry_group_IT_number 2
_symmetry_cell_setting 'triclinic'
loop_
_space_group_symop_operation_xyz
x,y,z
-x,-y,-z
loop_
_atom_site_type_symbol
_atom_site_label
_atom_site_fract_x
_atom_site_fract_y
_atom_site_fract_z
Si Si1 0.625441 0.238036 0.545079
Si Si2 0.794961 0.571403 0.283339
Si Si3 0.615411 0.171539 0.276935
Si Si4 0.094524 0.933765 0.912128
Si Si5 0.871150 0.892980 0.124690
Si Si6 0.648783 0.839154 0.513990
Si Si7 0.654409 0.442619 0.389807
Si Si8 0.456160 0.643372 0.946078
O O1 0.649757 0.146271 0.396049
O O2 0.444379 0.185309 0.458679
O O3 0.505885 0.406828 0.560649
O O4 0.884789 0.217346 0.752143
O O5 0.630630 0.710323 0.337067
O O6 0.737006 0.425252 0.176391
O O7 0.082427 0.545430 0.463297
O O8 0.715449 0.597302 0.137722
O O9 0.687734 0.316337 0.399717
O O10 0.801557 0.035654 0.248740
O O11 0.339685 0.187485 0.073225
O O12 0.363286 0.820616 0.014598
O O13 0.930932 0.833410 0.695101
O O14 0.084854 0.064004 0.925184
O O15 0.000000 0.000000 0.000000
O O16 0.500000 0.000000 0.500000
O O17 0.504925 0.410800 0.177186
#
# Coordination Sequence:
#
# PCOD8032171 Si02
#       8
#     2   2   2   2   2   2   2   2
#     4  12  26  43  71 100 133 178 229 280 334 404
#     4  11  24  42  68 102 139 179 217 276 353 409
#     4  11  26  48  67  95 134 184 233 279 331 391
#     4  12  23  41  69 102 138 172 221 283 342 406
#     4  11  25  47  68  96 139 175 229 281 333 399
#     4  12  22  40  67 103 139 168 222 279 340 409
#     4  12  24  46  70  98 139 178 226 280 334 403
#     4  11  23  41  67  99 137 178 216 272 347 406
#
# _framework density 22.127493999999999
#
# number of rings (size 3 to 8) (size 9 to 14) (size 15 to 20)
#    0.000    0.500    5.000    3.375    0.000    2.500 
#    0.000    0.000    0.000    0.000    0.000    0.000 
#    0.000    0.000    0.000    0.000    0.000    0.000 
#
# Total GULP energy -198492.985503 kJ/mol
# GULP energy per Si atom -12405.811594 kJ/mol
# Density = 2.207713 g / cm^3
# Si number density = 22.127494 Si / 1000 Ang^3
#
#
#
# Elastic Constant Matrix: (Units=GPa)
#
#
# Indices 1 2 3 4 5 6 
#
# 1 95.8218 14.0138 19.0459 0.3521 -17.5748 0.1695
# 2 14.0138 98.1538 20.3712 -4.5647 -3.9871 -2.4881
# 3 19.0459 20.3712 56.1780 -5.8740 -13.9223 0.9818
# 4 0.3521 -4.5647 -5.8740 31.8320 0.5207 -0.4336
# 5 -17.5748 -3.9871 -13.9223 0.5207 42.0558 1.9934
# 6 0.1695 -2.4881 0.9818 -0.4336 1.9934 31.2985
#
#
#
# Elastic Compliance Matrix: (Units=1/GPa)
#
#
# Indices 1 2 3 4 5 6 
#
# 1 0.011864 -0.001009 -0.002755 -0.000854 0.003976 -0.000323
# 2 -0.001009 0.011163 -0.003796 0.000937 -0.000682 0.001068
# 3 -0.002755 -0.003796 0.021919 0.003419 0.005764 -0.001294
# 4 -0.000854 0.000937 0.003419 0.032188 0.000447 0.000389
# 5 0.003976 -0.000682 0.005764 0.000447 0.027372 -0.001994
# 6 -0.000323 0.001068 -0.001294 0.000389 -0.001994 0.032210
#
#
# Mechanical properties :
#
#
# Convention : Reuss Voigt Hill
#
# Bulk Modulus (GPa) = 33.52481 39.66837 36.59659
# Shear Modulus (GPa) = 30.90678 34.15211 32.52944
#
# Velocity S-wave (km/s) = 3.74138 3.93291 3.83834
# Velocity P-wave (km/s) = 5.81786 6.21207 6.01819
#
# Compressibility (1/GPa) = 0.02982866
#
# Stress axis : x y z
#
# Youngs Moduli (GPa) = 84.28815 89.58329 45.62148
#
# Poissons Ratio (x) = 0.09035 0.12568
# Poissons Ratio (y) = 0.08501 0.17316
# Poissons Ratio (z) = 0.23219 0.34002
#
# Static dielectric constant tensor:
#      x y z
#    x 3.945110 0.047230 -0.172870 
#    y 0.047230 4.040070 0.017680 
#    z -0.172870 0.017680 4.430220 
# 
# 
# High freq. dielectric constant tensor:
#      x y z
#    x 1.869200 0.005020 -0.010470 
#    y 0.005020 1.877210 -0.000510 
#    z -0.010470 -0.000510 1.871730 
# 
# From -- ./inp_files/521812.got.cif
#   From: 2010.06.25/outbox.cif.g09.slc.cpg/sg2_261_cif.got.tgz:521812.got - 2010.06.27 13:26:56.
