data_PCOD8032216
_publ_section_title
;
Structure prediction by ZEFSAII (Michael W. Deem and Ramdas Pophale) SiO2 
 PCOD8032216
Probable space group: P -1
;
_chemical_formula_sum "Si O2"
_cell_formula_units_Z 14
_cell_length_a 13.985364
_cell_length_b 11.941309
_cell_length_c 11.787900
_cell_angle_alpha 99.475051
_cell_angle_beta 20.503192
_cell_angle_gamma 106.276478
_cell_volume 633.212013
_symmetry_space_group_name_H-M "P -1"
_symmetry_group_IT_number 2
_symmetry_cell_setting 'triclinic'
loop_
_space_group_symop_operation_xyz
x,y,z
-x,-y,-z
loop_
_atom_site_type_symbol
_atom_site_label
_atom_site_fract_x
_atom_site_fract_y
_atom_site_fract_z
Si Si1 0.428684 0.943254 0.942878
Si Si2 0.341263 0.861448 0.676301
Si Si3 0.702097 0.803609 0.460233
Si Si4 0.774027 0.681863 0.903242
Si Si5 0.941450 0.692957 0.472190
Si Si6 0.581531 0.411643 0.123560
Si Si7 0.645432 0.181871 0.601353
O O1 0.647372 0.878277 0.642275
O O2 0.448801 0.047705 0.845349
O O3 0.103440 0.838015 0.289896
O O4 0.500000 0.000000 0.000000
O O5 0.527062 0.811747 0.544622
O O6 0.316727 0.798466 0.571839
O O7 0.500000 0.000000 0.500000
O O8 0.041753 0.850595 0.066118
O O9 0.606565 0.660541 0.572346
O O10 0.927702 0.664847 0.615239
O O11 0.024616 0.782215 0.713941
O O12 0.648789 0.554337 0.087967
O O13 0.512681 0.727307 0.168358
O O14 0.611864 0.643709 0.782591
O O15 0.117940 0.613630 0.212386
#
# Coordination Sequence:
#
# PCOD8032216 Si02
#       7
#     2   2   2   2   2   2   2
#     4  11  24  43  68 107 142 169 213 283 349 399
#     4  12  25  45  70  96 134 177 229 268 330 401
#     4  11  25  45  70  98 131 179 226 276 322 397
#     4  12  25  44  65  99 140 178 221 277 329 401
#     4  11  23  41  69  97 137 183 220 267 333 410
#     4  11  24  44  68  97 133 181 232 265 327 399
#     4  12  27  42  68 102 137 176 222 276 345 389
#
# _framework density 22.109497999999999
#
# number of rings (size 3 to 8) (size 9 to 14) (size 15 to 20)
#    0.000    0.571    2.857    5.571    4.000    1.714 
#    0.000    4.286    0.000    0.000    0.000    0.000 
#    0.000    0.000    0.000    0.000    0.000    0.000 
#
# Total GULP energy -173590.659978 kJ/mol
# GULP energy per Si atom -12399.332856 kJ/mol
# Density = 2.205918 g / cm^3
# Si number density = 22.109498 Si / 1000 Ang^3
#
#
#
# Elastic Constant Matrix: (Units=GPa)
#
#
# Indices 1 2 3 4 5 6 
#
# 1 122.9263 11.0111 37.5848 2.4707 -0.4531 -8.3924
# 2 11.0111 99.7540 33.6794 -25.7836 5.9621 -30.5629
# 3 37.5848 33.6794 116.8062 -5.3967 9.5260 -11.2002
# 4 2.4707 -25.7836 -5.3967 37.3051 -3.8930 9.0882
# 5 -0.4531 5.9621 9.5260 -3.8930 39.0824 -3.5393
# 6 -8.3924 -30.5629 -11.2002 9.0882 -3.5393 36.6898
#
#
#
# Elastic Compliance Matrix: (Units=1/GPa)
#
#
# Indices 1 2 3 4 5 6 
#
# 1 0.009171 0.000125 -0.002951 -0.001275 0.000833 0.001697
# 2 0.000125 0.016623 -0.003423 0.008374 0.000109 0.010767
# 3 -0.002951 -0.003423 0.010612 -0.000791 -0.002205 -0.000303
# 4 -0.001275 0.008374 -0.000791 0.033162 0.002061 -0.001573
# 5 0.000833 0.000109 -0.002205 0.002061 0.026472 0.001651
# 6 0.001697 0.010767 -0.000303 -0.001573 0.001651 0.037069
#
#
# Mechanical properties :
#
#
# Convention : Reuss Voigt Hill
#
# Bulk Modulus (GPa) = 41.82750 56.00412 48.91581
# Shear Modulus (GPa) = 32.55706 39.76287 36.15997
#
# Velocity S-wave (km/s) = 3.84153 4.24542 4.04851
# Velocity P-wave (km/s) = 6.21578 7.02970 6.63523
#
# Compressibility (1/GPa) = 0.02390772
#
# Stress axis : x y z
#
# Youngs Moduli (GPa) = 109.04457 60.15619 94.23494
#
# Poissons Ratio (x) = -0.00750 0.27808
# Poissons Ratio (y) = -0.01359 0.32254
# Poissons Ratio (z) = 0.32178 0.20590
#
# Static dielectric constant tensor:
#      x y z
#    x 3.463500 -0.173820 -0.115000 
#    y -0.173820 3.935410 -0.208420 
#    z -0.115000 -0.208420 4.040420 
# 
# 
# High freq. dielectric constant tensor:
#      x y z
#    x 1.876580 -0.015840 0.003520 
#    y -0.015840 1.861620 -0.009410 
#    z 0.003520 -0.009410 1.883410 
# 
# From -- ./inp_files/366903.got.cif
#   From: 2010.06.25/outbox.cif.g09.slc.cpg/sg2_184_cif.got.tgz:366903.got - 2010.06.27 13:26:56.
