data_PCOD8032809
_publ_section_title
;
Structure prediction by ZEFSAII (Michael W. Deem and Ramdas Pophale) SiO2 
 PCOD8032809
Probable space group: P -1
;
_chemical_formula_sum "Si O2"
_cell_formula_units_Z 12
_cell_length_a 8.919293
_cell_length_b 15.054600
_cell_length_c 6.635977
_cell_angle_alpha 121.270211
_cell_angle_beta 120.882189
_cell_angle_gamma 44.923537
_cell_volume 521.906151
_symmetry_space_group_name_H-M "P -1"
_symmetry_group_IT_number 2
_symmetry_cell_setting 'triclinic'
loop_
_space_group_symop_operation_xyz
x,y,z
-x,-y,-z
loop_
_atom_site_type_symbol
_atom_site_label
_atom_site_fract_x
_atom_site_fract_y
_atom_site_fract_z
Si Si1 0.524842 0.831242 0.335929
Si Si2 0.582959 0.362227 0.488515
Si Si3 0.158750 0.840771 0.920159
Si Si4 0.350634 0.062119 0.773380
Si Si5 0.183714 0.367175 0.371282
Si Si6 0.944719 0.263210 0.928954
O O1 0.605296 0.842545 0.187463
O O2 0.724644 0.732012 0.498123
O O3 0.379209 0.967079 0.510500
O O4 0.372847 0.787356 0.137727
O O5 0.500000 0.500000 0.500000
O O6 0.757507 0.233540 0.324244
O O7 0.371782 0.366437 0.390749
O O8 0.704281 0.350698 0.766732
O O9 0.047827 0.784698 0.895121
O O10 0.000000 0.000000 0.000000
O O11 0.099804 0.136064 0.749119
O O12 0.500000 0.000000 0.000000
O O13 0.000000 0.500000 0.500000
O O14 0.061444 0.334411 0.092604
#
# Coordination Sequence:
#
# PCOD8032809 Si02
#       6
#     2   2   2   2   2   2
#     4  11  25  44  72 108 151 187 247 303 363 443
#     4  12  30  52  75 110 148 197 252 304 370 444
#     4  12  27  46  76 113 150 192 246 306 371 437
#     4  11  23  43  73 110 148 192 240 300 372 438
#     4  12  28  49  76 107 147 199 248 303 370 437
#     4  12  27  47  78 107 150 190 247 307 368 439
#
# _framework density 22.992639
#
# number of rings (size 3 to 8) (size 9 to 14) (size 15 to 20)
#    0.000    0.333    3.333    4.000   11.667    3.333 
#    0.000    0.000    0.000    0.000    0.000    0.000 
#    0.000    0.000    0.000    0.000    0.000    0.000 
#
# Total GULP energy -148746.837043 kJ/mol
# GULP energy per Si atom -12395.569754 kJ/mol
# Density = 2.294031 g / cm^3
# Si number density = 22.992639 Si / 1000 Ang^3
#
#
#
# Elastic Constant Matrix: (Units=GPa)
#
#
# Indices 1 2 3 4 5 6 
#
# 1 167.3208 53.3649 55.6850 3.1098 -5.0128 6.0586
# 2 53.3649 118.6949 31.5083 10.3898 -9.2169 2.9761
# 3 55.6850 31.5083 105.1549 -1.0434 11.8097 3.2025
# 4 3.1098 10.3898 -1.0434 30.6465 -5.5469 -9.1881
# 5 -5.0128 -9.2169 11.8097 -5.5469 50.8844 1.8162
# 6 6.0586 2.9761 3.2025 -9.1881 1.8162 41.0954
#
#
#
# Elastic Compliance Matrix: (Units=1/GPa)
#
#
# Indices 1 2 3 4 5 6 
#
# 1 0.008057 -0.002541 -0.003615 -0.000103 0.001190 -0.000798
# 2 -0.002541 0.010568 -0.002024 -0.003389 0.001803 -0.001070
# 3 -0.003615 -0.002024 0.012433 0.000857 -0.003517 0.000058
# 4 -0.000103 -0.003389 0.000857 0.036831 0.002896 0.008301
# 5 0.001190 0.001803 -0.003517 0.002896 0.021240 -0.000323
# 6 -0.000798 -0.001070 0.000058 0.008301 -0.000323 0.026394
#
#
# Mechanical properties :
#
#
# Convention : Reuss Voigt Hill
#
# Bulk Modulus (GPa) = 68.04726 74.69855 71.37291
# Shear Modulus (GPa) = 36.55422 41.23276 38.89349
#
# Velocity S-wave (km/s) = 3.99158 4.23933 4.11732
# Velocity P-wave (km/s) = 7.13464 7.51806 7.32886
#
# Compressibility (1/GPa) = 0.01469567
#
# Stress axis : x y z
#
# Youngs Moduli (GPa) = 124.12111 94.62274 80.43359
#
# Poissons Ratio (x) = 0.24045 0.29079
# Poissons Ratio (y) = 0.31541 0.16283
# Poissons Ratio (z) = 0.44874 0.19156
#
# Static dielectric constant tensor:
#      x y z
#    x 3.184370 -1.871960 -2.175780 
#    y -1.871960 1.376900 -3.419180 
#    z -2.175780 -3.419180 -0.368980 
# 
# 
# High freq. dielectric constant tensor:
#      x y z
#    x 1.925290 -0.004390 0.000870 
#    y -0.004390 1.907130 -0.001590 
#    z 0.000870 -0.001590 1.919190 
# 
# From -- ./inp_files/28647.got.cif
#   From: 2010.06.25/outbox.cif.g09.slc.cpg/sg2_15_cif.got.tgz:28647.got - 2010.06.27 13:26:56.
