data_PCOD8032217
_publ_section_title
;
Structure prediction by ZEFSAII (Michael W. Deem and Ramdas Pophale) SiO2 
 PCOD8032217
Probable space group: P -1
;
_chemical_formula_sum "Si O2"
_cell_formula_units_Z 16
_cell_length_a 18.624314
_cell_length_b 8.521157
_cell_length_c 12.519264
_cell_angle_alpha 49.167569
_cell_angle_beta 29.803807
_cell_angle_gamma 47.931176
_cell_volume 718.798218
_symmetry_space_group_name_H-M "P -1"
_symmetry_group_IT_number 2
_symmetry_cell_setting 'triclinic'
loop_
_space_group_symop_operation_xyz
x,y,z
-x,-y,-z
loop_
_atom_site_type_symbol
_atom_site_label
_atom_site_fract_x
_atom_site_fract_y
_atom_site_fract_z
Si Si1 0.157808 0.927569 0.271983
Si Si2 0.824263 0.963843 0.043062
Si Si3 0.348716 0.383242 0.548662
Si Si4 0.157944 0.795936 0.722333
Si Si5 0.646702 0.534008 0.741029
Si Si6 0.356598 0.199937 0.992736
Si Si7 0.676845 0.331954 0.219788
Si Si8 0.329020 0.097292 0.307926
O O1 0.214153 0.669895 0.322046
O O2 0.000000 0.000000 0.500000
O O3 0.143764 0.013367 0.132139
O O4 0.272458 0.028626 0.140708
O O5 0.701182 0.834804 0.279607
O O6 0.757299 0.200886 0.071809
O O7 0.980794 0.838699 0.953058
O O8 0.214924 0.576611 0.680265
O O9 0.382901 0.432800 0.361139
O O10 0.498785 0.357213 0.436186
O O11 0.248371 0.792482 0.716723
O O12 0.185186 0.000959 0.531901
O O13 0.683992 0.745653 0.644442
O O14 0.500000 0.500000 0.000000
O O15 0.289911 0.435079 0.923965
O O16 0.528449 0.111602 0.773867
O O17 0.342378 0.229099 0.125643
#
# Coordination Sequence:
#
# PCOD8032217 Si02
#       8
#     2   2   2   2   2   2   2   2
#     4  12  26  44  70 103 141 182 227 280 349 412
#     4  12  27  46  69 102 144 181 229 286 346 408
#     4  12  25  45  71 104 136 184 232 283 344 410
#     4  12  26  46  69 100 140 184 228 283 346 410
#     4  12  24  43  71 103 139 178 230 287 339 406
#     4  11  23  42  68  98 135 177 225 280 339 405
#     4  12  26  44  71 102 136 181 234 282 340 409
#     4  11  23  41  69  98 134 177 226 279 340 402
#
# _framework density 22.259377000000001
#
# number of rings (size 3 to 8) (size 9 to 14) (size 15 to 20)
#    0.000    0.250    2.500    7.500    1.750    2.000 
#    0.000    2.500    0.000    0.000    0.000    0.000 
#    0.000    0.000    0.000    0.000    0.000    0.000 
#
# Total GULP energy -198540.106437 kJ/mol
# GULP energy per Si atom -12408.756652 kJ/mol
# Density = 2.220871 g / cm^3
# Si number density = 22.259377 Si / 1000 Ang^3
#
#
#
# Elastic Constant Matrix: (Units=GPa)
#
#
# Indices 1 2 3 4 5 6 
#
# 1 86.3991 21.0147 24.8757 -4.3355 0.6554 -6.1817
# 2 21.0147 108.7631 25.2903 0.8557 7.2239 2.8624
# 3 24.8757 25.2903 92.8305 0.9426 10.4293 -6.8751
# 4 -4.3355 0.8557 0.9426 33.8140 -0.9516 -1.1543
# 5 0.6554 7.2239 10.4293 -0.9516 29.3835 -0.0489
# 6 -6.1817 2.8624 -6.8751 -1.1543 -0.0489 39.3672
#
#
#
# Elastic Compliance Matrix: (Units=1/GPa)
#
#
# Indices 1 2 3 4 5 6 
#
# 1 0.013137 -0.001985 -0.003020 0.001916 0.001332 0.001738
# 2 -0.001985 0.010239 -0.002166 -0.000551 -0.001724 -0.001453
# 3 -0.003020 -0.002166 0.012762 -0.000735 -0.003951 0.001886
# 4 0.001916 -0.000551 -0.000735 0.029928 0.001325 0.001092
# 5 0.001332 -0.001724 -0.003951 0.001325 0.035872 -0.000272
# 6 0.001738 -0.001453 0.001886 0.001092 -0.000272 0.026141
#
#
# Mechanical properties :
#
#
# Convention : Reuss Voigt Hill
#
# Bulk Modulus (GPa) = 45.87890 47.81714 46.84802
# Shear Modulus (GPa) = 33.40327 34.96708 34.18518
#
# Velocity S-wave (km/s) = 3.87801 3.96775 3.92314
# Velocity P-wave (km/s) = 6.38026 6.52067 6.45085
#
# Compressibility (1/GPa) = 0.02179651
#
# Stress axis : x y z
#
# Youngs Moduli (GPa) = 76.12164 97.67009 78.35457
#
# Poissons Ratio (x) = 0.19391 0.23661
# Poissons Ratio (y) = 0.15113 0.16968
# Poissons Ratio (z) = 0.22987 0.21151
#
# Static dielectric constant tensor:
#      x y z
#    x 4.060010 0.085730 0.049780 
#    y 0.085730 4.418550 0.092050 
#    z 0.049780 0.092050 3.951610 
# 
# 
# High freq. dielectric constant tensor:
#      x y z
#    x 1.883610 0.008010 0.005920 
#    y 0.008010 1.888360 -0.000510 
#    z 0.005920 -0.000510 1.882740 
# 
# From -- ./inp_files/333825.got.cif
#   From: 2010.06.25/outbox.cif.g09.slc.cpg/sg2_167_cif.got.tgz:333825.got - 2010.06.27 13:26:56.
