data_PCOD8032640
_publ_section_title
;
Structure prediction by ZEFSAII (Michael W. Deem and Ramdas Pophale) SiO2 
 PCOD8032640
Probable space group: P -1
;
_chemical_formula_sum "Si O2"
_cell_formula_units_Z 14
_cell_length_a 15.012348
_cell_length_b 14.011351
_cell_length_c 6.646687
_cell_angle_alpha 93.046441
_cell_angle_beta 102.652279
_cell_angle_gamma 27.781837
_cell_volume 604.665980
_symmetry_space_group_name_H-M "P -1"
_symmetry_group_IT_number 2
_symmetry_cell_setting 'triclinic'
loop_
_space_group_symop_operation_xyz
x,y,z
-x,-y,-z
loop_
_atom_site_type_symbol
_atom_site_label
_atom_site_fract_x
_atom_site_fract_y
_atom_site_fract_z
Si Si1 0.328253 0.598108 0.668248
Si Si2 0.301181 0.810739 0.435068
Si Si3 0.059840 0.379883 0.323896
Si Si4 0.736998 0.663965 0.857726
Si Si5 0.912894 0.179963 0.058280
Si Si6 0.697224 0.000281 0.355650
Si Si7 0.090527 0.678859 0.293706
O O1 0.256220 0.766919 0.561190
O O2 0.565162 0.356040 0.702739
O O3 0.299159 0.631988 0.898782
O O4 0.190597 0.639004 0.526838
O O5 0.406168 0.804352 0.589798
O O6 0.086343 0.055698 0.281291
O O7 0.214238 0.283770 0.229388
O O8 0.000000 0.500000 0.500000
O O9 0.172050 0.178949 0.431577
O O10 0.852595 0.547810 0.116562
O O11 0.492151 0.886615 0.805101
O O12 0.805139 0.520046 0.716136
O O13 0.867876 0.294586 0.873655
O O14 0.000000 0.000000 0.000000
O O15 0.848080 0.887437 0.234308
#
# Coordination Sequence:
#
# PCOD8032640 Si02
#       7
#     2   2   2   2   2   2   2
#     4  11  24  44  66  95 148 185 225 290 338 401
#     4  11  23  43  68  99 137 189 233 281 349 405
#     4  11  25  51  74 101 145 176 227 301 355 424
#     4  11  26  47  74 106 135 182 234 287 361 425
#     4  12  24  40  65  96 138 189 235 281 338 406
#     4  12  24  46  75 104 141 185 235 291 351 418
#     4  12  24  44  67 103 140 179 238 285 339 419
#
# _framework density 23.153279999999999
#
# number of rings (size 3 to 8) (size 9 to 14) (size 15 to 20)
#    0.000    0.571    5.714    2.571    0.000    2.286 
#    5.143    0.000    0.000    0.000    0.000    0.000 
#    0.000    0.000    0.000    0.000    0.000    0.000 
#
# Total GULP energy -173616.480867 kJ/mol
# GULP energy per Si atom -12401.177205 kJ/mol
# Density = 2.310058 g / cm^3
# Si number density = 23.153280 Si / 1000 Ang^3
#
#
#
# Elastic Constant Matrix: (Units=GPa)
#
#
# Indices 1 2 3 4 5 6 
#
# 1 107.7627 35.7362 36.0125 8.4963 -8.5956 -2.6747
# 2 35.7362 86.6699 27.8962 15.7555 -19.7185 -3.2967
# 3 36.0125 27.8962 86.4457 10.5853 -14.5730 0.0166
# 4 8.4963 15.7555 10.5853 37.1137 -7.2988 -2.8204
# 5 -8.5956 -19.7185 -14.5730 -7.2988 34.6392 8.7977
# 6 -2.6747 -3.2967 0.0166 -2.8204 8.7977 41.1867
#
#
#
# Elastic Compliance Matrix: (Units=1/GPa)
#
#
# Indices 1 2 3 4 5 6 
#
# 1 0.011767 -0.003808 -0.003835 -0.000141 -0.001063 0.000678
# 2 -0.003808 0.015962 -0.001945 -0.004096 0.006629 -0.000665
# 3 -0.003835 -0.001945 0.014706 -0.001790 0.004109 -0.001411
# 4 -0.000141 -0.004096 -0.001790 0.029879 0.002899 0.001090
# 5 -0.001063 0.006629 0.004109 0.002899 0.036533 -0.007145
# 6 0.000678 -0.000665 -0.001411 0.001090 -0.007145 0.025872
#
#
# Mechanical properties :
#
#
# Convention : Reuss Voigt Hill
#
# Bulk Modulus (GPa) = 42.99727 53.35204 48.17465
# Shear Modulus (GPa) = 30.93133 34.67014 32.80074
#
# Velocity S-wave (km/s) = 3.65901 3.87385 3.76796
# Velocity P-wave (km/s) = 6.03839 6.56520 6.30730
#
# Compressibility (1/GPa) = 0.02325729
#
# Stress axis : x y z
#
# Youngs Moduli (GPa) = 84.98115 62.64963 68.00126
#
# Poissons Ratio (x) = 0.23857 0.26082
# Poissons Ratio (y) = 0.32360 0.13228
# Poissons Ratio (z) = 0.32594 0.12187
#
# Static dielectric constant tensor:
#      x y z
#    x 4.162640 -0.306580 0.206040 
#    y -0.306580 4.018520 0.031610 
#    z 0.206040 0.031610 4.163370 
# 
# 
# High freq. dielectric constant tensor:
#      x y z
#    x 1.932000 -0.004820 0.004420 
#    y -0.004820 1.919520 0.007640 
#    z 0.004420 0.007640 1.904840 
# 
# From -- ./inp_files/52596.got.cif
#   From: 2010.06.25/outbox.cif.g09.slc.cpg/sg2_27_cif.got.tgz:52596.got - 2010.06.27 13:26:56.
