data_PCOD8032796
_publ_section_title
;
Structure prediction by ZEFSAII (Michael W. Deem and Ramdas Pophale) SiO2 
 PCOD8032796
Probable space group: P -1
;
_chemical_formula_sum "Si O2"
_cell_formula_units_Z 16
_cell_length_a 11.834411
_cell_length_b 14.871341
_cell_length_c 9.265969
_cell_angle_alpha 151.158557
_cell_angle_beta 71.952628
_cell_angle_gamma 101.349550
_cell_volume 737.996293
_symmetry_space_group_name_H-M "P -1"
_symmetry_group_IT_number 2
_symmetry_cell_setting 'triclinic'
loop_
_space_group_symop_operation_xyz
x,y,z
-x,-y,-z
loop_
_atom_site_type_symbol
_atom_site_label
_atom_site_fract_x
_atom_site_fract_y
_atom_site_fract_z
Si Si1 0.925049 0.866838 0.924334
Si Si2 0.592495 0.361505 0.865074
Si Si3 0.651194 0.984591 0.132652
Si Si4 0.041686 0.502658 0.766024
Si Si5 0.201025 0.401658 0.836073
Si Si6 0.294481 0.987590 0.168738
Si Si7 0.951415 0.117513 0.822193
Si Si8 0.474392 0.701387 0.871157
O O1 0.977844 0.652930 0.561341
O O2 0.937260 0.895475 0.130451
O O3 0.788657 0.908882 0.995021
O O4 0.000000 0.000000 0.000000
O O5 0.608440 0.161107 0.499019
O O6 0.500000 0.500000 0.000000
O O7 0.720608 0.434371 0.931503
O O8 0.538188 0.337185 0.009348
O O9 0.632092 0.042457 0.052970
O O10 0.584799 0.811303 0.955222
O O11 0.139778 0.419170 0.728164
O O12 0.097597 0.667909 0.899467
O O13 0.908504 0.587058 0.993464
O O14 0.291194 0.201489 0.529345
O O15 0.156033 0.962912 0.168283
O O16 0.355571 0.834816 0.045338
O O17 0.000000 0.000000 0.500000
O O18 0.500000 0.500000 0.500000
#
# Coordination Sequence:
#
# PCOD8032796 Si02
#       8
#     2   2   2   2   2   2   2   2
#     4  12  25  46  70 105 148 185 234 292 359 423
#     4  12  27  47  71 104 142 181 239 299 361 420
#     4  12  26  46  73 103 142 187 239 296 356 423
#     4  11  24  43  68 105 143 187 238 281 354 425
#     4  11  23  43  73 101 140 189 232 291 352 421
#     4  12  24  47  73 101 143 187 241 294 357 422
#     4  12  26  43  70 111 143 188 235 293 354 430
#     4  12  28  49  75 103 138 188 241 297 359 429
#
# _framework density 21.680326999999998
#
# number of rings (size 3 to 8) (size 9 to 14) (size 15 to 20)
#    0.000    0.250    3.750    4.875    7.000    1.000 
#    0.000    0.000    0.000    0.000    0.000    0.000 
#    0.000    0.000    0.000    0.000    0.000    0.000 
#
# Total GULP energy -198468.075198 kJ/mol
# GULP energy per Si atom -12404.254700 kJ/mol
# Density = 2.163098 g / cm^3
# Si number density = 21.680327 Si / 1000 Ang^3
#
#
#
# Elastic Constant Matrix: (Units=GPa)
#
#
# Indices 1 2 3 4 5 6 
#
# 1 110.7634 44.2572 37.1052 -0.5932 12.2113 10.8122
# 2 44.2572 140.8139 64.2947 -2.2384 10.5831 -1.8853
# 3 37.1052 64.2947 178.1775 6.9546 19.4998 -2.4139
# 4 -0.5932 -2.2384 6.9546 42.8400 0.9540 8.8550
# 5 12.2113 10.5831 19.4998 0.9540 33.1213 6.7841
# 6 10.8122 -1.8853 -2.4139 8.8550 6.7841 43.2454
#
#
#
# Elastic Compliance Matrix: (Units=1/GPa)
#
#
# Indices 1 2 3 4 5 6 
#
# 1 0.011030 -0.002828 -0.001134 0.000812 -0.001945 -0.002806
# 2 -0.002828 0.009297 -0.002724 0.000715 -0.000529 0.000897
# 3 -0.001134 -0.002724 0.007264 -0.001554 -0.003229 0.001395
# 4 0.000812 0.000715 -0.001554 0.024753 0.000790 -0.005451
# 5 -0.001945 -0.000529 -0.003229 0.000790 0.034025 -0.005217
# 6 -0.002806 0.000897 0.001395 -0.005451 -0.005217 0.025877
#
#
# Mechanical properties :
#
#
# Convention : Reuss Voigt Hill
#
# Bulk Modulus (GPa) = 70.31597 80.11879 75.21738
# Shear Modulus (GPa) = 38.35614 42.78119 40.56866
#
# Velocity S-wave (km/s) = 4.21071 4.44697 4.33045
# Velocity P-wave (km/s) = 7.49290 7.96255 7.73130
#
# Compressibility (1/GPa) = 0.01422152
#
# Stress axis : x y z
#
# Youngs Moduli (GPa) = 90.65797 107.56009 137.65906
#
# Poissons Ratio (x) = 0.30415 0.15605
# Poissons Ratio (y) = 0.25636 0.37496
# Poissons Ratio (z) = 0.10277 0.29298
#
# Static dielectric constant tensor:
#      x y z
#    x 3.638430 0.131940 -0.350390 
#    y 0.131940 4.171580 -0.015350 
#    z -0.350390 -0.015350 3.988950 
# 
# 
# High freq. dielectric constant tensor:
#      x y z
#    x 1.859480 0.003330 0.007780 
#    y 0.003330 1.864860 0.005400 
#    z 0.007780 0.005400 1.867770 
# 
# From -- ./inp_files/274818.got.cif
#   From: 2010.06.25/outbox.cif.g09.slc.cpg/sg2_138_cif.got.tgz:274818.got - 2010.06.27 13:26:56.
