data_PCOD8032194
_publ_section_title
;
Structure prediction by ZEFSAII (Michael W. Deem and Ramdas Pophale) SiO2 
 PCOD8032194
Probable space group: P -1
;
_chemical_formula_sum "Si O2"
_cell_formula_units_Z 16
_cell_length_a 9.353124
_cell_length_b 12.909819
_cell_length_c 22.285025
_cell_angle_alpha 154.092178
_cell_angle_beta 38.271878
_cell_angle_gamma 130.622755
_cell_volume 712.966397
_symmetry_space_group_name_H-M "P -1"
_symmetry_group_IT_number 2
_symmetry_cell_setting 'triclinic'
loop_
_space_group_symop_operation_xyz
x,y,z
-x,-y,-z
loop_
_atom_site_type_symbol
_atom_site_label
_atom_site_fract_x
_atom_site_fract_y
_atom_site_fract_z
Si Si1 0.694942 0.141024 0.531001
Si Si2 0.473364 0.576876 0.617876
Si Si3 0.155231 0.697840 0.557859
Si Si4 0.492798 0.910475 0.151084
Si Si5 0.986725 0.228236 0.932964
Si Si6 0.090511 0.869359 0.341070
Si Si7 0.640034 0.511272 0.101738
Si Si8 0.006481 0.349235 0.118968
O O1 0.751631 0.288213 0.532261
O O2 0.606504 0.328553 0.711435
O O3 0.500000 0.000000 0.500000
O O4 0.921808 0.955616 0.384645
O O5 0.500000 0.500000 0.500000
O O6 0.631635 0.378720 0.505117
O O7 0.199722 0.601601 0.738440
O O8 0.562262 0.828792 0.727332
O O9 0.000000 0.500000 0.500000
O O10 0.002598 0.955708 0.763033
O O11 0.349365 0.920910 0.266799
O O12 0.404011 0.715439 0.038354
O O13 0.773576 0.852136 0.036298
O O14 0.235631 0.312331 0.887281
O O15 0.791902 0.417517 0.060858
O O16 0.907948 0.246906 0.037887
O O17 0.109401 0.586214 0.195348
O O18 0.000000 0.000000 0.500000
#
# Coordination Sequence:
#
# PCOD8032194 Si02
#       8
#     2   2   2   2   2   2   2   2
#     4  12  24  42  69 102 141 184 231 283 349 413
#     4  12  27  49  71 101 144 188 234 287 354 421
#     4  12  26  45  72 103 141 186 234 288 348 421
#     4  12  26  46  69 102 140 184 237 289 345 416
#     4  11  23  42  68 100 139 179 227 284 350 407
#     4  12  25  42  69 105 140 180 233 289 344 413
#     4  11  23  41  69 100 139 181 225 287 345 410
#     4  12  26  44  71 103 139 186 232 288 355 412
#
# _framework density 22.44145
#
# number of rings (size 3 to 8) (size 9 to 14) (size 15 to 20)
#    0.000    0.250    2.500    7.500    1.750    2.000 
#    0.000    2.500    0.000    0.000    0.000    0.000 
#    0.000    0.000    0.000    0.000    0.000    0.000 
#
# Total GULP energy -198500.368498 kJ/mol
# GULP energy per Si atom -12406.273031 kJ/mol
# Density = 2.239037 g / cm^3
# Si number density = 22.441450 Si / 1000 Ang^3
#
#
#
# Elastic Constant Matrix: (Units=GPa)
#
#
# Indices 1 2 3 4 5 6 
#
# 1 88.4134 17.8495 14.0466 -11.0172 1.2649 -8.6652
# 2 17.8495 122.5304 28.6606 -5.2268 -0.2461 -0.3411
# 3 14.0466 28.6606 102.0450 -8.8571 3.7024 -4.3762
# 4 -11.0172 -5.2268 -8.8571 54.2640 2.7442 5.3685
# 5 1.2649 -0.2461 3.7024 2.7442 36.5229 -1.6738
# 6 -8.6652 -0.3411 -4.3762 5.3685 -1.6738 35.4053
#
#
#
# Elastic Compliance Matrix: (Units=1/GPa)
#
#
# Indices 1 2 3 4 5 6 
#
# 1 0.012262 -0.001466 -0.000984 0.001954 -0.000365 0.002552
# 2 -0.001466 0.008926 -0.002322 0.000225 0.000303 -0.000580
# 3 -0.000984 -0.002322 0.010777 0.001312 -0.001135 0.000816
# 4 0.001954 0.000225 0.001312 0.019386 -0.001765 -0.002380
# 5 -0.000365 0.000303 -0.001135 -0.001765 0.027704 0.001351
# 6 0.002552 -0.000580 0.000816 -0.002380 0.001351 0.029389
#
#
# Mechanical properties :
#
#
# Convention : Reuss Voigt Hill
#
# Bulk Modulus (GPa) = 44.59933 48.23358 46.41645
# Shear Modulus (GPa) = 39.85284 42.06725 40.96004
#
# Velocity S-wave (km/s) = 4.21867 4.33429 4.27687
# Velocity P-wave (km/s) = 6.60653 6.82552 6.71692
#
# Compressibility (1/GPa) = 0.02242186
#
# Stress axis : x y z
#
# Youngs Moduli (GPa) = 81.55549 112.02620 92.78881
#
# Poissons Ratio (x) = 0.16427 0.09128
# Poissons Ratio (y) = 0.11959 0.21542
# Poissons Ratio (z) = 0.08023 0.26008
#
# Static dielectric constant tensor:
#      x y z
#    x 4.223990 -0.145070 -0.120710 
#    y -0.145070 4.089970 0.006690 
#    z -0.120710 0.006690 4.369210 
# 
# 
# High freq. dielectric constant tensor:
#      x y z
#    x 1.887830 -0.007620 0.000530 
#    y -0.007620 1.888970 0.002710 
#    z 0.000530 0.002710 1.903350 
# 
# From -- ./inp_files/589691.got.cif
#   From: 2010.06.25/outbox.cif.g09.slc.cpg/sg2_295_cif.got.tgz:589691.got - 2010.06.27 13:26:56.
