data_PCOD8032542
_publ_section_title
;
Structure prediction by ZEFSAII (Michael W. Deem and Ramdas Pophale) SiO2 
 PCOD8032542
Probable space group: P -1
;
_chemical_formula_sum "Si O2"
_cell_formula_units_Z 16
_cell_length_a 14.920303
_cell_length_b 15.631149
_cell_length_c 15.278597
_cell_angle_alpha 153.591667
_cell_angle_beta 29.553515
_cell_angle_gamma 134.346921
_cell_volume 727.700245
_symmetry_space_group_name_H-M "P -1"
_symmetry_group_IT_number 2
_symmetry_cell_setting 'triclinic'
loop_
_space_group_symop_operation_xyz
x,y,z
-x,-y,-z
loop_
_atom_site_type_symbol
_atom_site_label
_atom_site_fract_x
_atom_site_fract_y
_atom_site_fract_z
Si Si1 0.822793 0.427241 0.393101
Si Si2 0.632721 0.089557 0.414980
Si Si3 0.651921 0.084771 0.697864
Si Si4 0.089316 0.157390 0.604424
Si Si5 0.419792 0.451769 0.796221
Si Si6 0.224796 0.180448 0.110281
Si Si7 0.086806 0.983852 0.745823
Si Si8 0.004647 0.483886 0.114329
O O1 0.608966 0.421257 0.546743
O O2 0.814478 0.577277 0.620428
O O3 0.897106 0.510630 0.321885
O O4 0.964940 0.202442 0.094855
O O5 0.494187 0.292085 0.667100
O O6 0.763176 0.153589 0.434375
O O7 0.500000 0.000000 0.500000
O O8 0.779955 0.900844 0.058624
O O9 0.807269 0.960976 0.377855
O O10 0.708956 0.993308 0.662547
O O11 0.650073 0.314659 0.895086
O O12 0.448264 0.053025 0.831022
O O13 0.106184 0.296059 0.636286
O O14 0.969251 0.309681 0.924223
O O15 0.000000 0.000000 0.500000
O O16 0.240077 0.425156 0.871466
O O17 0.063908 0.126856 0.255121
#
# Coordination Sequence:
#
# PCOD8032542 Si02
#       8
#     2   2   2   2   2   2   2   2
#     4  11  25  43  70 101 135 182 228 276 341 405
#     4  12  24  44  69 102 139 185 232 281 337 402
#     4  11  23  47  70  97 139 182 227 283 344 407
#     4  11  23  42  75 103 133 178 230 278 345 414
#     4  11  24  45  69  99 140 182 228 277 342 405
#     4  11  25  44  67 100 136 182 228 281 334 403
#     4  12  24  44  70  95 142 184 225 283 338 400
#     4  11  23  45  72 100 139 181 218 284 347 405
#
# _framework density 21.987075999999998
#
# number of rings (size 3 to 8) (size 9 to 14) (size 15 to 20)
#    0.000    0.750    5.000    2.625    0.000    1.000 
#    2.250    6.250    0.000    0.000    0.000    0.000 
#    0.000    0.000    0.000    0.000    0.000    0.000 
#
# Total GULP energy -198271.955830 kJ/mol
# GULP energy per Si atom -12391.997239 kJ/mol
# Density = 2.193703 g / cm^3
# Si number density = 21.987076 Si / 1000 Ang^3
#
#
#
# Elastic Constant Matrix: (Units=GPa)
#
#
# Indices 1 2 3 4 5 6 
#
# 1 117.2200 62.5274 36.7626 -0.9624 -17.0638 8.8129
# 2 62.5274 123.3742 48.0394 2.2857 -15.1156 11.0396
# 3 36.7626 48.0394 94.9521 3.7192 -13.0819 3.4516
# 4 -0.9624 2.2857 3.7192 41.7236 5.2838 -10.0646
# 5 -17.0638 -15.1156 -13.0819 5.2838 33.8409 2.8836
# 6 8.8129 11.0396 3.4516 -10.0646 2.8836 36.6046
#
#
#
# Elastic Compliance Matrix: (Units=1/GPa)
#
#
# Indices 1 2 3 4 5 6 
#
# 1 0.012380 -0.005039 -0.001700 -0.000117 0.003490 -0.001608
# 2 -0.005039 0.012771 -0.004073 -0.001386 0.002044 -0.002797
# 3 -0.001700 -0.004073 0.013715 -0.001473 0.002880 -0.000287
# 4 -0.000117 -0.001386 -0.001473 0.027005 -0.006188 0.008498
# 5 0.003490 0.002044 0.002880 -0.006188 0.034828 -0.006173
# 6 -0.001608 -0.002797 -0.000287 0.008498 -0.006173 0.031399
#
#
# Mechanical properties :
#
#
# Convention : Reuss Voigt Hill
#
# Bulk Modulus (GPa) = 57.99439 70.02279 64.00859
# Shear Modulus (GPa) = 31.35372 34.98163 33.16767
#
# Velocity S-wave (km/s) = 3.78035 3.99307 3.88816
# Velocity P-wave (km/s) = 6.74452 7.29218 7.02369
#
# Compressibility (1/GPa) = 0.01724305
#
# Stress axis : x y z
#
# Youngs Moduli (GPa) = 80.77697 78.29968 72.91046
#
# Poissons Ratio (x) = 0.39453 0.12395
# Poissons Ratio (y) = 0.40701 0.29697
# Poissons Ratio (z) = 0.13732 0.31892
#
# Static dielectric constant tensor:
#      x y z
#    x 4.381240 0.027380 -0.234340 
#    y 0.027380 4.104900 0.123210 
#    z -0.234340 0.123210 4.236760 
# 
# 
# High freq. dielectric constant tensor:
#      x y z
#    x 1.860270 0.013310 -0.003020 
#    y 0.013310 1.870210 0.011800 
#    z -0.003020 0.011800 1.868950 
# 
# From -- ./inp_files/534496.got.cif
#   From: 2010.06.25/outbox.cif.g09.slc.cpg/sg2_268_cif.got.tgz:534496.got - 2010.06.27 13:26:56.
