data_PCOD8032653
_publ_section_title
;
Structure prediction by ZEFSAII (Michael W. Deem and Ramdas Pophale) SiO2 
 PCOD8032653
Probable space group: P -1
;
_chemical_formula_sum "Si O2"
_cell_formula_units_Z 16
_cell_length_a 9.030045
_cell_length_b 9.122626
_cell_length_c 8.627875
_cell_angle_alpha 100.363781
_cell_angle_beta 100.091659
_cell_angle_gamma 76.267288
_cell_volume 672.600606
_symmetry_space_group_name_H-M "P -1"
_symmetry_group_IT_number 2
_symmetry_cell_setting 'triclinic'
loop_
_space_group_symop_operation_xyz
x,y,z
-x,-y,-z
loop_
_atom_site_type_symbol
_atom_site_label
_atom_site_fract_x
_atom_site_fract_y
_atom_site_fract_z
Si Si1 0.491464 0.322692 0.957998
Si Si2 0.680487 0.190114 0.696891
Si Si3 0.403144 0.381208 0.514941
Si Si4 0.699854 0.706705 0.835252
Si Si5 0.895175 0.386373 0.852601
Si Si6 0.971372 0.841717 0.903242
Si Si7 0.801834 0.659351 0.283530
Si Si8 0.096855 0.094167 0.432695
O O1 0.637997 0.222338 0.878247
O O2 0.333962 0.284696 0.852413
O O3 0.500000 0.500000 0.000000
O O4 0.473673 0.261123 0.118062
O O5 0.524690 0.239131 0.580973
O O6 0.804397 0.294568 0.701870
O O7 0.756421 0.016670 0.642325
O O8 0.500000 0.500000 0.500000
O O9 0.310651 0.318246 0.352967
O O10 0.272011 0.449967 0.632936
O O11 0.791972 0.840237 0.902863
O O12 0.793257 0.550864 0.904437
O O13 0.043873 0.418008 0.793669
O O14 0.928057 0.296454 0.005134
O O15 0.003427 0.824154 0.718769
O O16 0.000000 0.000000 0.000000
O O17 0.837376 0.795831 0.420691
O O18 0.000000 0.000000 0.500000
#
# Coordination Sequence:
#
# PCOD8032653 Si02
#       8
#     2   2   2   2   2   2   2   2
#     4  11  23  43  69 101 143 190 234 295 357 426
#     4  11  24  45  73  99 145 190 234 295 365 419
#     4  11  23  45  68 102 146 186 238 291 357 433
#     4  12  24  45  72 107 148 189 242 297 358 434
#     4  12  23  46  76 107 142 192 241 301 363 419
#     4  12  25  45  73 106 145 186 243 301 357 426
#     4  11  24  43  73 103 143 190 235 302 354 426
#     4  12  25  49  72 104 145 185 239 300 362 430
#
# _framework density 23.788262
#
# number of rings (size 3 to 8) (size 9 to 14) (size 15 to 20)
#    0.000    0.500    7.500    1.125    0.000    2.500 
#    4.500    0.625    0.000    0.000    0.000    0.000 
#    0.000    0.000    0.000    0.000    0.000    0.000 
#
# Total GULP energy -198211.585839 kJ/mol
# GULP energy per Si atom -12388.224115 kJ/mol
# Density = 2.373412 g / cm^3
# Si number density = 23.788262 Si / 1000 Ang^3
#
#
#
# Elastic Constant Matrix: (Units=GPa)
#
#
# Indices 1 2 3 4 5 6 
#
# 1 111.0127 23.1799 32.1076 -13.6230 -4.4491 15.7353
# 2 23.1799 74.9791 33.6319 -2.7686 3.0677 6.6855
# 3 32.1076 33.6319 102.4033 -16.1316 -1.0895 -0.4453
# 4 -13.6230 -2.7686 -16.1316 40.6195 16.6245 -0.6128
# 5 -4.4491 3.0677 -1.0895 16.6245 52.7684 7.7369
# 6 15.7353 6.6855 -0.4453 -0.6128 7.7369 43.1049
#
#
#
# Elastic Compliance Matrix: (Units=1/GPa)
#
#
# Indices 1 2 3 4 5 6 
#
# 1 0.010968 -0.001886 -0.002489 0.002146 0.000873 -0.003863
# 2 -0.001886 0.016288 -0.004978 -0.001310 -0.000530 -0.001812
# 3 -0.002489 -0.004978 0.012892 0.004551 -0.001400 0.002130
# 4 0.002146 -0.001310 0.004551 0.031038 -0.009668 0.001644
# 5 0.000873 -0.000530 -0.001400 -0.009668 0.022727 -0.004468
# 6 -0.003863 -0.001812 0.002130 0.001644 -0.004468 0.025738
#
#
# Mechanical properties :
#
#
# Convention : Reuss Voigt Hill
#
# Bulk Modulus (GPa) = 46.63852 51.80376 49.22114
# Shear Modulus (GPa) = 34.36340 40.59694 37.48017
#
# Velocity S-wave (km/s) = 3.80485 4.13558 3.97366
# Velocity P-wave (km/s) = 6.24105 6.68044 6.46448
#
# Compressibility (1/GPa) = 0.02144150
#
# Stress axis : x y z
#
# Youngs Moduli (GPa) = 91.17822 61.39510 77.56891
#
# Poissons Ratio (x) = 0.11581 0.19305
# Poissons Ratio (y) = 0.17199 0.38612
# Poissons Ratio (z) = 0.22692 0.30561
#
# Static dielectric constant tensor:
#      x y z
#    x 4.851550 0.328520 0.008680 
#    y 0.328520 3.995580 -0.143210 
#    z 0.008680 -0.143210 4.897190 
# 
# 
# High freq. dielectric constant tensor:
#      x y z
#    x 1.962410 0.030830 0.000240 
#    y 0.030830 1.904850 0.001300 
#    z 0.000240 0.001300 1.965980 
# 
# From -- ./inp_files/180331.got.cif
#   From: 2010.06.25/outbox.cif.g09.slc.cpg/sg2_91_cif.got.tgz:180331.got - 2010.06.27 13:26:56.
