data_PCOD8032475
_publ_section_title
;
Structure prediction by ZEFSAII (Michael W. Deem and Ramdas Pophale) SiO2 
 PCOD8032475
Probable space group: P -1
;
_chemical_formula_sum "Si O2"
_cell_formula_units_Z 14
_cell_length_a 5.381933
_cell_length_b 8.797337
_cell_length_c 12.329293
_cell_angle_alpha 100.712811
_cell_angle_beta 69.601557
_cell_angle_gamma 92.366699
_cell_volume 537.433868
_symmetry_space_group_name_H-M "P -1"
_symmetry_group_IT_number 2
_symmetry_cell_setting 'triclinic'
loop_
_space_group_symop_operation_xyz
x,y,z
-x,-y,-z
loop_
_atom_site_type_symbol
_atom_site_label
_atom_site_fract_x
_atom_site_fract_y
_atom_site_fract_z
Si Si1 0.404049 0.774283 0.936457
Si Si2 0.179181 0.292361 0.770714
Si Si3 0.946225 0.034835 0.635901
Si Si4 0.982307 0.607134 0.844717
Si Si5 0.011915 0.695946 0.624846
Si Si6 0.528849 0.912685 0.151125
Si Si7 0.605964 0.467815 0.598798
O O1 0.700512 0.697404 0.889015
O O2 0.173266 0.661713 0.920074
O O3 0.379694 0.920101 0.878322
O O4 0.346180 0.836885 0.075486
O O5 0.124413 0.173289 0.667119
O O6 0.226769 0.201899 0.865948
O O7 0.430541 0.389795 0.706754
O O8 0.943456 0.422195 0.843551
O O9 0.639423 0.076147 0.710837
O O10 0.009656 0.878357 0.672058
O O11 0.000000 0.000000 0.500000
O O12 0.141863 0.624704 0.707016
O O13 0.152817 0.654773 0.483248
O O14 0.716123 0.625901 0.654644
O O15 0.500000 0.500000 0.500000
#
# Coordination Sequence:
#
# PCOD8032475 Si02
#       7
#     2   2   2   2   2   2   2
#     4  11  28  52  82 111 152 211 260 320 388 465
#     4  12  28  44  76 113 158 193 265 320 390 457
#     4  12  27  46  73 111 154 201 252 326 388 461
#     4  12  26  48  80 112 151 203 258 318 389 455
#     4  11  24  43  73 104 155 204 262 304 393 461
#     4  11  28  49  78 111 154 199 264 317 389 463
#     4  11  23  42  71 109 151 210 252 319 379 471
#
# _framework density 26.049717999999999
#
# number of rings (size 3 to 8) (size 9 to 14) (size 15 to 20)
#    0.000    0.571    2.857    3.429    8.000    6.857 
#    0.000    0.000    0.000    0.000    0.000    0.000 
#    0.000    0.000    0.000    0.000    0.000    0.000 
#
# Total GULP energy -173558.917207 kJ/mol
# GULP energy per Si atom -12397.065515 kJ/mol
# Density = 2.599043 g / cm^3
# Si number density = 26.049718 Si / 1000 Ang^3
#
#
#
# Elastic Constant Matrix: (Units=GPa)
#
#
# Indices 1 2 3 4 5 6 
#
# 1 83.2814 56.0369 16.9174 5.8339 27.3749 -7.2420
# 2 56.0369 199.5267 30.0526 15.8916 19.1137 -14.5378
# 3 16.9174 30.0526 108.5542 7.3894 19.5785 -5.3785
# 4 5.8339 15.8916 7.3894 34.9746 5.2348 16.1232
# 5 27.3749 19.1137 19.5785 5.2348 40.8678 5.4256
# 6 -7.2420 -14.5378 -5.3785 16.1232 5.4256 46.7214
#
#
#
# Elastic Compliance Matrix: (Units=1/GPa)
#
#
# Indices 1 2 3 4 5 6 
#
# 1 0.018571 -0.003850 0.000450 -0.001393 -0.011142 0.003507
# 2 -0.003850 0.006685 -0.000889 -0.003379 -0.000027 0.002550
# 3 0.000450 -0.000889 0.010554 -0.002245 -0.004967 0.002359
# 4 -0.001393 -0.003379 -0.002245 0.037421 0.000723 -0.014523
# 5 -0.011142 -0.000027 -0.004967 0.000723 0.035113 -0.006634
# 6 0.003507 0.002550 0.002359 -0.014523 -0.006634 0.028794
#
#
# Mechanical properties :
#
#
# Convention : Reuss Voigt Hill
#
# Bulk Modulus (GPa) = 36.72325 66.37513 51.54919
# Shear Modulus (GPa) = 32.30111 43.73643 38.01877
#
# Velocity S-wave (km/s) = 3.52515 4.10196 3.82445
# Velocity P-wave (km/s) = 5.54048 6.92605 6.27165
#
# Compressibility (1/GPa) = 0.02723070
#
# Stress axis : x y z
#
# Youngs Moduli (GPa) = 53.84633 149.59949 94.75394
#
# Poissons Ratio (x) = 0.57591 -0.04261
# Poissons Ratio (y) = 0.20729 0.08427
# Poissons Ratio (z) = -0.02421 0.13305
#
# Static dielectric constant tensor:
#      x y z
#    x 4.564220 -0.295900 -0.242370 
#    y -0.295900 5.176200 0.374970 
#    z -0.242370 0.374970 5.227810 
# 
# 
# High freq. dielectric constant tensor:
#      x y z
#    x 2.030990 -0.009910 0.000960 
#    y -0.009910 2.060490 0.007350 
#    z 0.000960 0.007350 2.058380 
# 
# From -- ./inp_files/28371.got.cif
#   From: 2010.06.25/outbox.cif.g09.slc.cpg/sg2_15_cif.got.tgz:28371.got - 2010.06.27 13:26:56.
