data_PCOD8032080
_publ_section_title
;
Structure prediction by ZEFSAII (Michael W. Deem and Ramdas Pophale) SiO2 
 PCOD8032080
Probable space group: P -1
;
_chemical_formula_sum "Si O2"
_cell_formula_units_Z 16
_cell_length_a 19.694213
_cell_length_b 12.587900
_cell_length_c 17.526577
_cell_angle_alpha 29.906967
_cell_angle_beta 20.056681
_cell_angle_gamma 40.675106
_cell_volume 702.215115
_symmetry_space_group_name_H-M "P -1"
_symmetry_group_IT_number 2
_symmetry_cell_setting 'triclinic'
loop_
_space_group_symop_operation_xyz
x,y,z
-x,-y,-z
loop_
_atom_site_type_symbol
_atom_site_label
_atom_site_fract_x
_atom_site_fract_y
_atom_site_fract_z
Si Si1 0.609809 0.179750 0.336284
Si Si2 0.773588 0.997619 0.914799
Si Si3 0.783505 0.676246 0.806710
Si Si4 0.297359 0.332987 0.668513
Si Si5 0.147190 0.366576 0.458603
Si Si6 0.521626 0.315611 0.994529
Si Si7 0.407258 0.177337 0.948196
Si Si8 0.025732 0.930271 0.930670
O O1 0.453411 0.226058 0.531090
O O2 0.739406 0.070798 0.322275
O O3 0.500000 0.000000 0.500000
O O4 0.763877 0.411478 0.991332
O O5 0.784675 0.798482 0.083536
O O6 0.708375 0.906583 0.956336
O O7 0.006533 0.185314 0.547249
O O8 0.596307 0.101084 0.068006
O O9 0.560990 0.693791 0.998644
O O10 0.774923 0.772323 0.840692
O O11 0.398376 0.596363 0.415168
O O12 0.121433 0.302459 0.806790
O O13 0.320607 0.342618 0.232452
O O14 0.000000 0.500000 0.500000
O O15 0.988206 0.120642 0.797586
O O16 0.271825 0.471564 0.339179
O O17 0.500000 0.000000 0.000000
O O18 0.000000 0.000000 0.000000
#
# Coordination Sequence:
#
# PCOD8032080 Si02
#       8
#     2   2   2   2   2   2   2   2
#     4  11  24  43  67 100 147 182 231 279 349 415
#     4  12  25  46  74 100 141 179 242 292 351 414
#     4  11  25  42  74 104 133 186 234 293 351 415
#     4  11  26  46  69 103 139 185 227 292 354 410
#     4  11  25  42  64 103 143 183 225 281 346 417
#     4  11  23  40  70  97 141 180 228 280 347 409
#     4  11  25  49  74  99 139 182 235 297 360 411
#     4  12  25  39  68  97 137 180 227 275 338 415
#
# _framework density 22.785042000000001
#
# number of rings (size 3 to 8) (size 9 to 14) (size 15 to 20)
#    0.000    0.750    2.500    4.500    7.000    2.000 
#    0.000    1.250    0.000    0.000    0.000    0.000 
#    0.000    0.000    0.000    0.000    0.000    0.000 
#
# Total GULP energy -198260.046096 kJ/mol
# GULP energy per Si atom -12391.252881 kJ/mol
# Density = 2.273318 g / cm^3
# Si number density = 22.785042 Si / 1000 Ang^3
#
#
#
# Elastic Constant Matrix: (Units=GPa)
#
#
# Indices 1 2 3 4 5 6 
#
# 1 117.6428 34.1653 48.2766 -3.5390 -21.8017 -9.8208
# 2 34.1653 111.2645 46.1549 -2.9792 -6.8678 -11.2362
# 3 48.2766 46.1549 131.1288 -12.5583 -1.5835 -7.7834
# 4 -3.5390 -2.9792 -12.5583 39.7861 -4.8019 -2.2067
# 5 -21.8017 -6.8678 -1.5835 -4.8019 46.9887 -3.1940
# 6 -9.8208 -11.2362 -7.7834 -2.2067 -3.1940 34.9995
#
#
#
# Elastic Compliance Matrix: (Units=1/GPa)
#
#
# Indices 1 2 3 4 5 6 
#
# 1 0.011560 -0.001525 -0.003450 0.000598 0.005256 0.002504
# 2 -0.001525 0.011090 -0.003186 -0.000055 0.000971 0.002509
# 3 -0.003450 -0.003186 0.010262 0.002538 -0.001439 0.000320
# 4 0.000598 -0.000055 0.002538 0.026525 0.003248 0.002684
# 5 0.005256 0.000971 -0.001439 0.003248 0.024411 0.003899
# 6 0.002504 0.002509 0.000320 0.002684 0.003899 0.030676
#
#
# Mechanical properties :
#
#
# Convention : Reuss Voigt Hill
#
# Bulk Modulus (GPa) = 60.28029 68.58107 64.43068
# Shear Modulus (GPa) = 36.66329 39.78416 38.22372
#
# Velocity S-wave (km/s) = 4.01570 4.18313 4.10027
# Velocity P-wave (km/s) = 6.92926 7.31409 7.12428
#
# Compressibility (1/GPa) = 0.01658917
#
# Stress axis : x y z
#
# Youngs Moduli (GPa) = 86.50553 90.17513 97.44401
#
# Poissons Ratio (x) = 0.13755 0.33614
# Poissons Ratio (y) = 0.13195 0.31049
# Poissons Ratio (z) = 0.29841 0.28733
#
# Static dielectric constant tensor:
#      x y z
#    x 1.417130 1.750920 -0.967150 
#    y 1.750920 3.173040 0.329410 
#    z -0.967150 0.329410 4.008000 
# 
# 
# High freq. dielectric constant tensor:
#      x y z
#    x 1.916310 0.002930 -0.012800 
#    y 0.002930 1.901300 -0.002640 
#    z -0.012800 -0.002640 1.899350 
# 
# From -- ./inp_files/577908.got.cif
#   From: 2010.06.25/outbox.cif.g09.slc.cpg/sg2_289_cif.got.tgz:577908.got - 2010.06.27 13:26:56.
