data_PCOD8032191
_publ_section_title
;
Structure prediction by ZEFSAII (Michael W. Deem and Ramdas Pophale) SiO2 
 PCOD8032191
Probable space group: P -1
;
_chemical_formula_sum "Si O2"
_cell_formula_units_Z 16
_cell_length_a 14.630203
_cell_length_b 14.534196
_cell_length_c 12.424692
_cell_angle_alpha 117.809282
_cell_angle_beta 42.067401
_cell_angle_gamma 150.964409
_cell_volume 711.035149
_symmetry_space_group_name_H-M "P -1"
_symmetry_group_IT_number 2
_symmetry_cell_setting 'triclinic'
loop_
_space_group_symop_operation_xyz
x,y,z
-x,-y,-z
loop_
_atom_site_type_symbol
_atom_site_label
_atom_site_fract_x
_atom_site_fract_y
_atom_site_fract_z
Si Si1 0.611967 0.233077 0.493701
Si Si2 0.597642 0.473022 0.286998
Si Si3 0.008577 0.105758 0.714455
Si Si4 0.957091 0.284536 0.319536
Si Si5 0.461929 0.382771 0.125028
Si Si6 0.699823 0.335361 0.223834
Si Si7 0.187577 0.421092 0.418721
Si Si8 0.295290 0.951158 0.199137
O O1 0.879116 0.345342 0.373945
O O2 0.676323 0.286329 0.340283
O O3 0.593816 0.330876 0.624500
O O4 0.287823 0.961387 0.647874
O O5 0.241237 0.246999 0.490610
O O6 0.799657 0.713921 0.256857
O O7 0.625372 0.453643 0.129857
O O8 0.707352 0.465137 0.275758
O O9 0.752540 0.007652 0.839460
O O10 0.846738 0.890211 0.778578
O O11 0.951206 0.281460 0.452676
O O12 0.294191 0.474110 0.101624
O O13 0.383456 0.451015 0.242168
O O14 0.428005 0.105284 0.266926
O O15 0.000000 0.500000 0.000000
O O16 0.014196 0.302860 0.620176
O O17 0.500000 0.000000 0.000000
#
# Coordination Sequence:
#
# PCOD8032191 Si02
#       8
#     2   2   2   2   2   2   2   2
#     4  11  26  47  70  95 138 180 232 287 341 405
#     4  11  23  41  68  99 142 176 219 280 351 408
#     4  11  24  42  65 103 141 178 219 281 350 411
#     4  11  27  48  68  95 135 187 233 286 338 404
#     4  12  25  43  71 101 139 182 230 283 341 415
#     4  12  23  42  69 102 138 176 223 285 347 411
#     4  12  25  46  70 100 135 177 234 284 342 407
#     4  12  24  42  71 105 140 179 226 282 353 416
#
# _framework density 22.502405
#
# number of rings (size 3 to 8) (size 9 to 14) (size 15 to 20)
#    0.000    0.500    3.750    4.875    3.500    1.500 
#    0.000    0.000    0.000    0.000    0.000    0.000 
#    0.000    0.000    0.000    0.000    0.000    0.000 
#
# Total GULP energy -198429.556644 kJ/mol
# GULP energy per Si atom -12401.847290 kJ/mol
# Density = 2.245119 g / cm^3
# Si number density = 22.502405 Si / 1000 Ang^3
#
#
#
# Elastic Constant Matrix: (Units=GPa)
#
#
# Indices 1 2 3 4 5 6 
#
# 1 104.4383 24.9837 29.0160 3.3112 -12.9178 -9.9560
# 2 24.9837 148.4533 40.3689 -2.0010 -9.9600 -18.6310
# 3 29.0160 40.3689 97.2594 -0.5305 -15.3506 -12.1147
# 4 3.3112 -2.0010 -0.5305 26.8599 -2.3408 -5.1132
# 5 -12.9178 -9.9600 -15.3506 -2.3408 34.8013 6.4986
# 6 -9.9560 -18.6310 -12.1147 -5.1132 6.4986 33.8355
#
#
#
# Elastic Compliance Matrix: (Units=1/GPa)
#
#
# Indices 1 2 3 4 5 6 
#
# 1 0.010893 -0.000887 -0.002343 -0.001003 0.002454 0.001255
# 2 -0.000887 0.008056 -0.002605 0.001328 0.000284 0.003388
# 3 -0.002343 -0.002605 0.012906 0.001047 0.003788 0.001928
# 4 -0.001003 0.001328 0.001047 0.038841 0.001903 0.006315
# 5 0.002454 0.000284 0.003788 0.001903 0.032210 -0.003664
# 6 0.001255 0.003388 0.001928 0.006315 -0.003664 0.034138
#
#
# Mechanical properties :
#
#
# Convention : Reuss Voigt Hill
#
# Bulk Modulus (GPa) = 49.54511 59.87646 54.71078
# Shear Modulus (GPa) = 32.16600 36.15148 34.15874
#
# Velocity S-wave (km/s) = 3.78490 4.01254 3.90038
# Velocity P-wave (km/s) = 6.41609 6.93787 6.68207
#
# Compressibility (1/GPa) = 0.02018363
#
# Stress axis : x y z
#
# Youngs Moduli (GPa) = 91.79935 124.13106 77.48479
#
# Poissons Ratio (x) = 0.11016 0.18158
# Poissons Ratio (y) = 0.08146 0.20184
# Poissons Ratio (z) = 0.21512 0.32335
#
# Static dielectric constant tensor:
#      x y z
#    x 3.971180 -0.059240 -0.016240 
#    y -0.059240 4.174090 -0.022200 
#    z -0.016240 -0.022200 3.745320 
# 
# 
# High freq. dielectric constant tensor:
#      x y z
#    x 1.895120 0.001120 -0.005110 
#    y 0.001120 1.901760 0.003400 
#    z -0.005110 0.003400 1.871780 
# 
# From -- ./inp_files/455795.got.cif
#   From: 2010.06.25/outbox.cif.g09.slc.cpg/sg2_228_cif.got.tgz:455795.got - 2010.06.27 13:26:56.
