data_PCOD8032338
_publ_section_title
;
Structure prediction by ZEFSAII (Michael W. Deem and Ramdas Pophale) SiO2 
 PCOD8032338
Probable space group: P -1
;
_chemical_formula_sum "Si O2"
_cell_formula_units_Z 16
_cell_length_a 18.219384
_cell_length_b 6.678241
_cell_length_c 19.119169
_cell_angle_alpha 137.792094
_cell_angle_beta 152.475158
_cell_angle_gamma 49.462105
_cell_volume 722.069076
_symmetry_space_group_name_H-M "P -1"
_symmetry_group_IT_number 2
_symmetry_cell_setting 'triclinic'
loop_
_space_group_symop_operation_xyz
x,y,z
-x,-y,-z
loop_
_atom_site_type_symbol
_atom_site_label
_atom_site_fract_x
_atom_site_fract_y
_atom_site_fract_z
Si Si1 0.051379 0.140415 0.150605
Si Si2 0.580412 0.730748 0.403452
Si Si3 0.938908 0.800424 0.236500
Si Si4 0.685490 0.231178 0.701971
Si Si5 0.540642 0.201604 0.833787
Si Si6 0.654516 0.832542 0.112527
Si Si7 0.847296 0.833873 0.010671
Si Si8 0.262240 0.873651 0.598502
O O1 0.986618 0.463559 0.183606
O O2 0.241258 0.089998 0.294827
O O3 0.992944 0.956486 0.120931
O O4 0.000000 0.000000 0.000000
O O5 0.442412 0.649707 0.321363
O O6 0.518559 0.679080 0.259928
O O7 0.718365 0.486860 0.471486
O O8 0.618406 0.092789 0.535924
O O9 0.784480 0.839129 0.162829
O O10 0.893013 0.911098 0.149283
O O11 0.095719 0.961952 0.443823
O O12 0.822159 0.485281 0.878875
O O13 0.403048 0.027423 0.713476
O O14 0.602617 0.496278 0.003412
O O15 0.685871 0.985513 0.890205
O O16 0.737689 0.989558 0.289055
O O17 0.500000 0.000000 0.000000
#
# Coordination Sequence:
#
# PCOD8032338 Si02
#       8
#     2   2   2   2   2   2   2   2
#     4  12  24  41  69  99 146 187 232 283 340 413
#     4  11  24  44  68 103 142 184 234 286 349 415
#     4  12  27  46  71 107 144 182 232 296 353 412
#     4  11  23  42  67 102 143 187 229 280 345 415
#     4  12  25  46  75 103 138 183 240 290 347 424
#     4  12  25  51  78  97 137 189 236 292 358 421
#     4  12  25  44  71 104 144 186 241 279 345 429
#     4  12  26  46  73 106 141 180 235 300 353 409
#
# _framework density 22.158543999999999
#
# number of rings (size 3 to 8) (size 9 to 14) (size 15 to 20)
#    0.000    0.250    6.250    3.375    1.750    0.500 
#    0.000    1.250    0.000    0.000    0.000    0.000 
#    0.000    0.000    0.000    0.000    0.000    0.000 
#
# Total GULP energy -198268.238684 kJ/mol
# GULP energy per Si atom -12391.764918 kJ/mol
# Density = 2.210811 g / cm^3
# Si number density = 22.158544 Si / 1000 Ang^3
#
#
#
# Elastic Constant Matrix: (Units=GPa)
#
#
# Indices 1 2 3 4 5 6 
#
# 1 60.3981 14.3599 6.4283 -14.4712 -5.7305 -8.1348
# 2 14.3599 68.3331 3.9367 -13.5637 1.6794 -8.8988
# 3 6.4283 3.9367 72.5713 -9.8364 -7.1388 2.1688
# 4 -14.4712 -13.5637 -9.8364 37.8417 -10.5986 1.3484
# 5 -5.7305 1.6794 -7.1388 -10.5986 37.1586 -6.3075
# 6 -8.1348 -8.8988 2.1688 1.3484 -6.3075 35.9042
#
#
#
# Elastic Compliance Matrix: (Units=1/GPa)
#
#
# Indices 1 2 3 4 5 6 
#
# 1 0.020433 -0.002078 -0.000015 0.008729 0.006571 0.004942
# 2 -0.002078 0.016571 0.000001 0.005313 0.001061 0.003623
# 3 -0.000015 0.000001 0.014896 0.005068 0.004246 -0.000347
# 4 0.008729 0.005313 0.005068 0.036534 0.013167 0.003930
# 5 0.006571 0.001061 0.004246 0.013167 0.033621 0.006907
# 6 0.004942 0.003623 -0.000347 0.003930 0.006907 0.030956
#
#
# Mechanical properties :
#
#
# Convention : Reuss Voigt Hill
#
# Bulk Modulus (GPa) = 20.95740 27.86136 24.40938
# Shear Modulus (GPa) = 28.88494 33.95274 31.41884
#
# Velocity S-wave (km/s) = 3.61440 3.91866 3.76960
# Velocity P-wave (km/s) = 5.18623 5.75113 5.47597
#
# Compressibility (1/GPa) = 0.04771584
#
# Stress axis : x y z
#
# Youngs Moduli (GPa) = 48.94022 60.34542 67.13294
#
# Poissons Ratio (x) = 0.12541 0.00103
# Poissons Ratio (y) = 0.10171 -0.00010
# Poissons Ratio (z) = 0.00075 -0.00009
#
# Static dielectric constant tensor:
#      x y z
#    x 3.983540 -0.123410 -0.134640 
#    y -0.123410 4.096590 0.031000 
#    z -0.134640 0.031000 4.249690 
# 
# 
# High freq. dielectric constant tensor:
#      x y z
#    x 1.876220 -0.018740 -0.007020 
#    y -0.018740 1.873810 -0.005890 
#    z -0.007020 -0.005890 1.892240 
# 
# From -- ./inp_files/81382.got.cif
#   From: 2010.06.25/outbox.cif.g09.slc.cpg/sg2_41_cif.got.tgz:81382.got - 2010.06.27 13:26:56.
