data_PCOD8032825
_publ_section_title
;
Structure prediction by ZEFSAII (Michael W. Deem and Ramdas Pophale) SiO2 
 PCOD8032825
Probable space group: P -1
;
_chemical_formula_sum "Si O2"
_cell_formula_units_Z 14
_cell_length_a 7.696359
_cell_length_b 11.360438
_cell_length_c 12.040455
_cell_angle_alpha 120.109148
_cell_angle_beta 121.422618
_cell_angle_gamma 39.515042
_cell_volume 561.935749
_symmetry_space_group_name_H-M "P -1"
_symmetry_group_IT_number 2
_symmetry_cell_setting 'triclinic'
loop_
_space_group_symop_operation_xyz
x,y,z
-x,-y,-z
loop_
_atom_site_type_symbol
_atom_site_label
_atom_site_fract_x
_atom_site_fract_y
_atom_site_fract_z
Si Si1 0.945256 0.849632 0.014807
Si Si2 0.108650 0.126122 0.392240
Si Si3 0.828042 0.446096 0.885720
Si Si4 0.434266 0.783979 0.048420
Si Si5 0.485698 0.379539 0.358151
Si Si6 0.659327 0.756096 0.331263
Si Si7 0.093357 0.333862 0.282400
O O1 0.973490 0.709012 0.875552
O O2 0.998605 0.767562 0.118089
O O3 0.171284 0.863178 0.073582
O O4 0.645153 0.064400 0.999369
O O5 0.163699 0.191707 0.551005
O O6 0.153655 0.196553 0.331417
O O7 0.798005 0.203268 0.330049
O O8 0.350377 0.899126 0.354377
O O9 0.741559 0.476298 0.743582
O O10 0.544299 0.596792 0.936105
O O11 0.000000 0.500000 0.000000
O O12 0.653436 0.753344 0.192879
O O13 0.500000 0.500000 0.500000
O O14 0.370389 0.300630 0.346397
O O15 0.822123 0.547335 0.330315
#
# Coordination Sequence:
#
# PCOD8032825 Si02
#       7
#     2   2   2   2   2   2   2
#     4  11  24  43  71 103 138 184 244 296 361 426
#     4  11  26  46  72 108 147 192 241 298 367 429
#     4  12  25  45  70 103 144 187 235 299 367 426
#     4  11  24  43  74 103 138 189 246 297 358 439
#     4  12  27  47  75 111 145 188 248 298 360 446
#     4  11  23  43  74 106 145 191 244 296 360 438
#     4  12  23  49  73 102 147 194 235 305 362 426
#
# _framework density 24.913879000000001
#
# number of rings (size 3 to 8) (size 9 to 14) (size 15 to 20)
#    0.000    0.571    5.714    1.714    4.000    0.571 
#    0.000    4.286    0.000    0.000    0.000    0.000 
#    0.000    0.000    0.000    0.000    0.000    0.000 
#
# Total GULP energy -173603.607082 kJ/mol
# GULP energy per Si atom -12400.257649 kJ/mol
# Density = 2.485717 g / cm^3
# Si number density = 24.913879 Si / 1000 Ang^3
#
#
#
# Elastic Constant Matrix: (Units=GPa)
#
#
# Indices 1 2 3 4 5 6 
#
# 1 114.8286 37.5312 11.8308 -16.9557 11.5376 -4.4240
# 2 37.5312 100.0580 9.0072 -12.1918 7.3220 -4.4535
# 3 11.8308 9.0072 119.9910 -12.8306 14.3991 2.2347
# 4 -16.9557 -12.1918 -12.8306 37.3580 1.4113 1.2006
# 5 11.5376 7.3220 14.3991 1.4113 29.6759 -4.7121
# 6 -4.4240 -4.4535 2.2347 1.2006 -4.7121 33.5862
#
#
#
# Elastic Compliance Matrix: (Units=1/GPa)
#
#
# Indices 1 2 3 4 5 6 
#
# 1 0.010721 -0.003273 0.000023 0.003927 -0.003504 0.000345
# 2 -0.003273 0.011663 -0.000140 0.002303 -0.001515 0.000830
# 3 0.000023 -0.000140 0.009319 0.003396 -0.004886 -0.001443
# 4 0.003927 0.002303 0.003396 0.030713 -0.005403 -0.001259
# 5 -0.003504 -0.001515 -0.004886 -0.005403 0.038905 0.005314
# 6 0.000345 0.000830 -0.001443 -0.001259 0.005314 0.030816
#
#
# Mechanical properties :
#
#
# Convention : Reuss Voigt Hill
#
# Bulk Modulus (GPa) = 40.12673 50.17957 45.15315
# Shear Modulus (GPa) = 33.96142 38.55791 36.25967
#
# Velocity S-wave (km/s) = 3.69610 3.93828 3.81911
# Velocity P-wave (km/s) = 5.86140 6.39258 6.13274
#
# Compressibility (1/GPa) = 0.02492104
#
# Stress axis : x y z
#
# Youngs Moduli (GPa) = 93.27184 85.74106 107.31223
#
# Poissons Ratio (x) = 0.28066 -0.00242
# Poissons Ratio (y) = 0.30531 0.01504
# Poissons Ratio (z) = -0.00210 0.01202
#
# Static dielectric constant tensor:
#      x y z
#    x 4.480200 -0.584650 -0.026240 
#    y -0.584650 5.452030 0.174520 
#    z -0.026240 0.174520 4.769700 
# 
# 
# High freq. dielectric constant tensor:
#      x y z
#    x 1.970260 -0.015070 0.011440 
#    y -0.015070 2.001320 -0.007040 
#    z 0.011440 -0.007040 2.003920 
# 
# From -- ./inp_files/391126.got.cif
#   From: 2010.06.25/outbox.cif.g09.slc.cpg/sg2_196_cif.got.tgz:391126.got - 2010.06.27 13:26:56.
