data_PCOD8032828
_publ_section_title
;
Structure prediction by ZEFSAII (Michael W. Deem and Ramdas Pophale) SiO2 
 PCOD8032828
Probable space group: P -1
;
_chemical_formula_sum "Si O2"
_cell_formula_units_Z 16
_cell_length_a 13.470838
_cell_length_b 11.745754
_cell_length_c 5.082084
_cell_angle_alpha 89.130118
_cell_angle_beta 70.815166
_cell_angle_gamma 56.159907
_cell_volume 616.197129
_symmetry_space_group_name_H-M "P -1"
_symmetry_group_IT_number 2
_symmetry_cell_setting 'triclinic'
loop_
_space_group_symop_operation_xyz
x,y,z
-x,-y,-z
loop_
_atom_site_type_symbol
_atom_site_label
_atom_site_fract_x
_atom_site_fract_y
_atom_site_fract_z
Si Si1 0.923519 0.236147 0.852984
Si Si2 0.074692 0.508242 0.191849
Si Si3 0.666102 0.614915 0.733539
Si Si4 0.181751 0.077126 0.423415
Si Si5 0.181108 0.225529 0.918843
Si Si6 0.242069 0.669471 0.514248
Si Si7 0.413214 0.766623 0.266638
Si Si8 0.575673 0.838022 0.413263
O O1 0.980958 0.330438 0.845882
O O2 0.813048 0.288288 0.733809
O O3 0.055032 0.088969 0.648464
O O4 0.867788 0.229756 0.179467
O O5 0.221252 0.450214 0.145494
O O6 0.084659 0.398986 0.962846
O O7 0.000000 0.500000 0.500000
O O8 0.704486 0.492846 0.488223
O O9 0.652894 0.746945 0.607652
O O10 0.525277 0.667349 0.964974
O O11 0.135165 0.171366 0.194293
O O12 0.293533 0.917456 0.249690
O O13 0.225676 0.135415 0.613839
O O14 0.315107 0.202431 0.900786
O O15 0.358814 0.684698 0.438817
O O16 0.477991 0.798345 0.438227
O O17 0.500000 0.000000 0.500000
#
# Coordination Sequence:
#
# PCOD8032828 Si02
#       8
#     2   2   2   2   2   2   2   2
#     4  11  26  49  71 111 142 191 249 306 363 432
#     4  11  23  43  74 108 145 192 237 300 370 430
#     4  11  26  48  70 108 147 193 245 307 359 437
#     4  12  27  44  74 104 149 193 240 299 372 435
#     4  12  24  43  67 109 148 186 232 295 367 448
#     4  11  28  50  77 102 144 194 257 304 359 420
#     4  12  28  46  74 105 144 201 245 302 362 435
#     4  12  25  43  71 108 149 186 234 296 369 443
#
# _framework density 25.965713000000001
#
# number of rings (size 3 to 8) (size 9 to 14) (size 15 to 20)
#    0.000    0.500    3.750    3.375    5.250    4.000 
#    0.000    0.000    0.000    0.000    0.000    0.000 
#    0.000    0.000    0.000    0.000    0.000    0.000 
#
# Total GULP energy -198301.056686 kJ/mol
# GULP energy per Si atom -12393.816043 kJ/mol
# Density = 2.590661 g / cm^3
# Si number density = 25.965713 Si / 1000 Ang^3
#
#
#
# Elastic Constant Matrix: (Units=GPa)
#
#
# Indices 1 2 3 4 5 6 
#
# 1 96.7974 7.8818 26.9060 7.2230 -18.4979 19.0151
# 2 7.8818 86.1650 5.7093 9.5068 -6.1391 -8.7665
# 3 26.9060 5.7093 115.2765 2.9738 -26.4180 0.5524
# 4 7.2230 9.5068 2.9738 37.6172 -8.4986 -11.0653
# 5 -18.4979 -6.1391 -26.4180 -8.4986 52.0952 4.1854
# 6 19.0151 -8.7665 0.5524 -11.0653 4.1854 35.3305
#
#
#
# Elastic Compliance Matrix: (Units=1/GPa)
#
#
# Indices 1 2 3 4 5 6 
#
# 1 0.013954 -0.001381 -0.002168 -0.004114 0.003789 -0.009557
# 2 -0.001381 0.012291 -0.000183 -0.001818 0.000312 0.003190
# 3 -0.002168 -0.000183 0.010186 0.000873 0.004460 0.000707
# 4 -0.004114 -0.001818 0.000873 0.031788 0.003042 0.011345
# 5 0.003789 0.000312 0.004460 0.003042 0.023647 -0.003880
# 6 -0.009557 0.003190 0.000707 0.011345 -0.003880 0.038241
#
#
# Mechanical properties :
#
#
# Convention : Reuss Voigt Hill
#
# Bulk Modulus (GPa) = 34.52256 42.13700 38.32978
# Shear Modulus (GPa) = 33.96063 42.19138 38.07600
#
# Velocity S-wave (km/s) = 3.62042 4.03536 3.83351
# Velocity P-wave (km/s) = 5.54985 6.16242 5.86414
#
# Compressibility (1/GPa) = 0.02896657
#
# Stress axis : x y z
#
# Youngs Moduli (GPa) = 71.66181 81.35731 98.17356
#
# Poissons Ratio (x) = 0.11237 0.21287
# Poissons Ratio (y) = 0.09898 0.01799
# Poissons Ratio (z) = 0.15538 0.01490
#
# Static dielectric constant tensor:
#      x y z
#    x 4.958260 0.058480 -0.112190 
#    y 0.058480 4.879570 0.482060 
#    z -0.112190 0.482060 4.566170 
# 
# 
# High freq. dielectric constant tensor:
#      x y z
#    x 2.066710 -0.010240 -0.014780 
#    y -0.010240 2.038650 0.023730 
#    z -0.014780 0.023730 2.037040 
# 
# From -- ./inp_files/94886.got.cif
#   From: 2010.06.25/outbox.cif.g09.slc.cpg/sg2_48_cif.got.tgz:94886.got - 2010.06.27 13:26:56.
