data_PCOD8032612
_publ_section_title
;
Structure prediction by ZEFSAII (Michael W. Deem and Ramdas Pophale) SiO2 
 PCOD8032612
Probable space group: P -1
;
_chemical_formula_sum "Si O2"
_cell_formula_units_Z 16
_cell_length_a 19.167938
_cell_length_b 19.022333
_cell_length_c 6.539494
_cell_angle_alpha 44.517062
_cell_angle_beta 125.115604
_cell_angle_gamma 153.232046
_cell_volume 738.556996
_symmetry_space_group_name_H-M "P -1"
_symmetry_group_IT_number 2
_symmetry_cell_setting 'triclinic'
loop_
_space_group_symop_operation_xyz
x,y,z
-x,-y,-z
loop_
_atom_site_type_symbol
_atom_site_label
_atom_site_fract_x
_atom_site_fract_y
_atom_site_fract_z
Si Si1 0.235246 0.586797 0.979527
Si Si2 0.888736 0.694744 0.316835
Si Si3 0.842735 0.292963 0.241687
Si Si4 0.245031 0.102254 0.094935
Si Si5 0.539506 0.774648 0.125168
Si Si6 0.737761 0.031072 0.271768
Si Si7 0.610990 0.559656 0.229667
Si Si8 0.001004 0.675790 0.202627
O O1 0.141270 0.418700 0.323475
O O2 0.394555 0.691063 0.950887
O O3 0.276763 0.733996 0.852557
O O4 0.127049 0.512232 0.757732
O O5 0.752174 0.641496 0.184513
O O6 0.894282 0.649173 0.199498
O O7 0.055910 0.915094 0.169867
O O8 0.761796 0.145624 0.234943
O O9 0.888165 0.276918 0.555034
O O10 0.000000 0.500000 0.000000
O O11 0.301526 0.110829 0.385294
O O12 0.312931 0.096329 0.044708
O O13 0.312774 0.281214 0.822633
O O14 0.486351 0.611388 0.438416
O O15 0.589071 0.895209 0.149677
O O16 0.890336 0.162854 0.116303
O O17 0.500000 0.500000 0.000000
#
# Coordination Sequence:
#
# PCOD8032612 Si02
#       8
#     2   2   2   2   2   2   2   2
#     4  11  25  41  67 103 133 173 224 270 333 389
#     4  11  23  43  68 100 131 175 221 271 327 393
#     4  12  22  41  69 101 133 175 223 274 324 392
#     4  12  22  47  65  95 134 176 223 270 330 396
#     4  11  26  45  67  98 137 177 214 279 338 388
#     4  12  23  42  69  94 137 175 222 275 322 391
#     4  11  25  43  69  99 134 171 220 277 333 395
#     4  12  21  41  71  97 131 176 223 273 323 390
#
# _framework density 21.663867
#
# number of rings (size 3 to 8) (size 9 to 14) (size 15 to 20)
#    0.000    0.500    7.500    1.125    1.750    0.500 
#    0.000    3.750    0.000    0.000    0.000    0.000 
#    0.000    0.000    0.000    0.000    0.000    0.000 
#
# Total GULP energy -198303.780465 kJ/mol
# GULP energy per Si atom -12393.986279 kJ/mol
# Density = 2.161456 g / cm^3
# Si number density = 21.663867 Si / 1000 Ang^3
#
#
#
# Elastic Constant Matrix: (Units=GPa)
#
#
# Indices 1 2 3 4 5 6 
#
# 1 136.4318 49.5973 50.1403 6.6803 7.6324 -1.6924
# 2 49.5973 107.4581 42.0615 3.8786 2.3661 -9.7712
# 3 50.1403 42.0615 83.1691 6.5520 2.8397 -0.2782
# 4 6.6803 3.8786 6.5520 29.7085 -1.8073 2.2065
# 5 7.6324 2.3661 2.8397 -1.8073 26.2271 -0.5406
# 6 -1.6924 -9.7712 -0.2782 2.2065 -0.5406 44.7140
#
#
#
# Elastic Compliance Matrix: (Units=1/GPa)
#
#
# Indices 1 2 3 4 5 6 
#
# 1 0.010223 -0.002871 -0.004551 -0.001042 -0.002300 -0.000245
# 2 -0.002871 0.012705 -0.004681 -0.000163 0.000239 0.002649
# 3 -0.004551 -0.004681 0.017309 -0.002128 -0.000294 -0.000986
# 4 -0.001042 -0.000163 -0.002128 0.034693 0.002903 -0.001765
# 5 -0.002300 0.000239 -0.000294 0.002903 0.039014 0.000292
# 6 -0.000245 0.002649 -0.000986 -0.001765 0.000292 0.023019
#
#
# Mechanical properties :
#
#
# Convention : Reuss Voigt Hill
#
# Bulk Modulus (GPa) = 62.38126 67.85079 65.11603
# Shear Modulus (GPa) = 30.02796 32.48060 31.25428
#
# Velocity S-wave (km/s) = 3.72706 3.87628 3.80240
# Velocity P-wave (km/s) = 6.88323 7.17090 7.02854
#
# Compressibility (1/GPa) = 0.01603045
#
# Stress axis : x y z
#
# Youngs Moduli (GPa) = 97.82280 78.71082 57.77274
#
# Poissons Ratio (x) = 0.22596 0.26294
# Poissons Ratio (y) = 0.28083 0.27043
# Poissons Ratio (z) = 0.44522 0.36844
#
# Static dielectric constant tensor:
#      x y z
#    x 4.096810 -0.130680 0.026650 
#    y -0.130680 4.013100 -0.039440 
#    z 0.026650 -0.039440 4.025190 
# 
# 
# High freq. dielectric constant tensor:
#      x y z
#    x 1.852290 -0.007700 -0.006510 
#    y -0.007700 1.858610 -0.005600 
#    z -0.006510 -0.005600 1.847890 
# 
# From -- ./inp_files/89955.got.cif
#   From: 2010.06.25/outbox.cif.g09.slc.cpg/sg2_45_cif.got.tgz:89955.got - 2010.06.27 13:26:56.
