data_PCOD8032732
_publ_section_title
;
Structure prediction by ZEFSAII (Michael W. Deem and Ramdas Pophale) SiO2 
 PCOD8032732
Probable space group: P -1
;
_chemical_formula_sum "Si O2"
_cell_formula_units_Z 12
_cell_length_a 5.207436
_cell_length_b 18.527102
_cell_length_c 9.291811
_cell_angle_alpha 138.087379
_cell_angle_beta 115.973979
_cell_angle_gamma 81.217707
_cell_volume 515.460565
_symmetry_space_group_name_H-M "P -1"
_symmetry_group_IT_number 2
_symmetry_cell_setting 'triclinic'
loop_
_space_group_symop_operation_xyz
x,y,z
-x,-y,-z
loop_
_atom_site_type_symbol
_atom_site_label
_atom_site_fract_x
_atom_site_fract_y
_atom_site_fract_z
Si Si1 0.222803 0.085108 0.786948
Si Si2 0.742566 0.667902 0.893260
Si Si3 0.104921 0.628796 0.158773
Si Si4 0.885201 0.084002 0.997606
Si Si5 0.266831 0.467483 0.582056
Si Si6 0.203976 0.306926 0.566686
O O1 0.524398 0.049069 0.837888
O O2 0.036673 0.086489 0.885649
O O3 0.305761 0.209541 0.921268
O O4 0.000000 0.000000 0.500000
O O5 0.533321 0.580972 0.825269
O O6 0.670211 0.627139 0.650231
O O7 0.054323 0.656054 0.018145
O O8 0.453372 0.690486 0.356266
O O9 0.925166 0.697509 0.311754
O O10 0.000000 0.500000 0.000000
O O11 0.989955 0.205764 0.274969
O O12 0.000000 0.000000 0.000000
O O13 0.187831 0.422059 0.655913
O O14 0.000000 0.500000 0.500000
#
# Coordination Sequence:
#
# PCOD8032732 Si02
#       6
#     2   2   2   2   2   2
#     4  12  28  50  75 110 142 187 242 304 360 420
#     4  11  26  42  71 103 145 182 239 291 356 423
#     4  12  26  44  68 108 143 189 230 292 353 423
#     4  12  28  51  76 104 141 191 244 294 362 433
#     4  11  23  43  71 100 139 191 228 291 357 426
#     4  12  26  45  71 100 146 183 240 286 357 428
#
# _framework density 23.280151
#
# number of rings (size 3 to 8) (size 9 to 14) (size 15 to 20)
#    0.000    0.333    3.333    4.500    9.333    0.000 
#    0.000    0.000    0.000    0.000    0.000    0.000 
#    0.000    0.000    0.000    0.000    0.000    0.000 
#
# Total GULP energy -148748.908109 kJ/mol
# GULP energy per Si atom -12395.742342 kJ/mol
# Density = 2.322716 g / cm^3
# Si number density = 23.280151 Si / 1000 Ang^3
#
#
#
# Elastic Constant Matrix: (Units=GPa)
#
#
# Indices 1 2 3 4 5 6 
#
# 1 131.6713 14.8796 49.8041 -7.4779 10.1452 -10.1495
# 2 14.8796 112.4778 30.6859 0.3738 5.9114 -18.8894
# 3 49.8041 30.6859 136.8264 0.1750 14.4595 -0.2912
# 4 -7.4779 0.3738 0.1750 39.1631 -4.1391 0.2414
# 5 10.1452 5.9114 14.4595 -4.1391 39.2739 -14.0000
# 6 -10.1495 -18.8894 -0.2912 0.2414 -14.0000 40.7717
#
#
#
# Elastic Compliance Matrix: (Units=1/GPa)
#
#
# Indices 1 2 3 4 5 6 
#
# 1 0.009122 0.000072 -0.003316 0.001724 -0.000177 0.002210
# 2 0.000072 0.010366 -0.002466 0.000019 0.001188 0.005211
# 3 -0.003316 -0.002466 0.009427 -0.000997 -0.003445 -0.003078
# 4 0.001724 0.000019 -0.000997 0.026194 0.003165 0.001363
# 5 -0.000177 0.001188 -0.003445 0.003165 0.030876 0.011065
# 6 0.002210 0.005211 -0.003078 0.001363 0.011065 0.031261
#
#
# Mechanical properties :
#
#
# Convention : Reuss Voigt Hill
#
# Bulk Modulus (GPa) = 57.14836 63.52383 60.33610
# Shear Modulus (GPa) = 37.17577 42.88216 40.02896
#
# Velocity S-wave (km/s) = 4.00044 4.29651 4.15112
# Velocity P-wave (km/s) = 6.77786 7.20828 6.99638
#
# Compressibility (1/GPa) = 0.01749831
#
# Stress axis : x y z
#
# Youngs Moduli (GPa) = 109.61968 96.46576 106.07643
#
# Poissons Ratio (x) = -0.00699 0.35170
# Poissons Ratio (y) = -0.00794 0.26156
# Poissons Ratio (z) = 0.36345 0.23786
#
# Static dielectric constant tensor:
#      x y z
#    x 7.682320 1.049330 -3.320910 
#    y 1.049330 4.554540 -0.930380 
#    z -3.320910 -0.930380 7.470970 
# 
# 
# High freq. dielectric constant tensor:
#      x y z
#    x 1.927050 -0.003520 0.005160 
#    y -0.003520 1.926640 -0.015200 
#    z 0.005160 -0.015200 1.933220 
# 
# From -- ./inp_files/29653.got.cif
#   From: 2010.06.25/outbox.cif.g09.slc.cpg/sg2_15_cif.got.tgz:29653.got - 2010.06.27 13:26:56.
