data_PCOD8032499
_publ_section_title
;
Structure prediction by ZEFSAII (Michael W. Deem and Ramdas Pophale) SiO2 
 PCOD8032499
Probable space group: P -1
;
_chemical_formula_sum "Si O2"
_cell_formula_units_Z 14
_cell_length_a 16.200677
_cell_length_b 13.702148
_cell_length_c 11.618259
_cell_angle_alpha 160.125878
_cell_angle_beta 43.216586
_cell_angle_gamma 135.649728
_cell_volume 595.462240
_symmetry_space_group_name_H-M "P -1"
_symmetry_group_IT_number 2
_symmetry_cell_setting 'triclinic'
loop_
_space_group_symop_operation_xyz
x,y,z
-x,-y,-z
loop_
_atom_site_type_symbol
_atom_site_label
_atom_site_fract_x
_atom_site_fract_y
_atom_site_fract_z
Si Si1 0.718538 0.902352 0.752194
Si Si2 0.330995 0.327713 0.690336
Si Si3 0.825331 0.619719 0.632072
Si Si4 0.611148 0.467010 0.546495
Si Si5 0.887674 0.247532 0.344913
Si Si6 0.806897 0.149257 0.575671
Si Si7 0.958114 0.700028 0.364205
O O1 0.694178 0.909972 0.649172
O O2 0.635174 0.612100 0.558363
O O3 0.862176 0.900958 0.632830
O O4 0.666541 0.166203 0.158881
O O5 0.471772 0.431597 0.684372
O O6 0.277400 0.160366 0.674399
O O7 0.263334 0.597515 0.022457
O O8 0.690031 0.674966 0.790749
O O9 0.800337 0.362803 0.465975
O O10 0.894621 0.515996 0.332734
O O11 0.907046 0.916439 0.924439
O O12 0.833583 0.235262 0.512641
O O13 0.000000 0.500000 0.500000
O O14 0.923682 0.109384 0.491444
O O15 0.000000 0.500000 0.000000
#
# Coordination Sequence:
#
# PCOD8032499 Si02
#       7
#     2   2   2   2   2   2   2
#     4  11  23  42  72  99 144 192 228 278 348 425
#     4  12  25  44  68 103 145 185 232 288 342 416
#     4  11  25  45  73  99 136 184 233 288 337 414
#     4  11  24  46  69 103 138 188 241 277 340 419
#     4  12  25  48  71 100 136 186 239 279 342 419
#     4  12  27  43  71 104 142 185 230 288 358 406
#     4  11  24  44  68 110 145 172 222 290 366 412
#
# _framework density 23.511147000000001
#
# number of rings (size 3 to 8) (size 9 to 14) (size 15 to 20)
#    0.000    0.571    2.857    5.571    4.000    2.857 
#    0.000    4.286    0.000    0.000    0.000    0.000 
#    0.000    0.000    0.000    0.000    0.000    0.000 
#
# Total GULP energy -173531.413119 kJ/mol
# GULP energy per Si atom -12395.100937 kJ/mol
# Density = 2.345763 g / cm^3
# Si number density = 23.511147 Si / 1000 Ang^3
#
#
#
# Elastic Constant Matrix: (Units=GPa)
#
#
# Indices 1 2 3 4 5 6 
#
# 1 78.0004 67.6837 20.9673 -10.6389 3.7086 4.3115
# 2 67.6837 154.1310 34.6441 5.2164 -2.8234 10.7068
# 3 20.9673 34.6441 76.3273 6.1472 -6.2943 -1.0588
# 4 -10.6389 5.2164 6.1472 30.1341 -8.4758 -6.2706
# 5 3.7086 -2.8234 -6.2943 -8.4758 36.3265 -4.0568
# 6 4.3115 10.7068 -1.0588 -6.2706 -4.0568 44.2124
#
#
#
# Elastic Compliance Matrix: (Units=1/GPa)
#
#
# Indices 1 2 3 4 5 6 
#
# 1 0.024094 -0.010444 -0.002822 0.010924 -0.001037 0.001566
# 2 -0.010444 0.011942 -0.002118 -0.005916 -0.000062 -0.002769
# 3 -0.002822 -0.002118 0.015268 -0.002933 0.002189 0.000939
# 4 0.010924 -0.005916 -0.002933 0.042580 0.008648 0.007130
# 5 -0.001037 -0.000062 0.002189 0.008648 0.030495 0.004193
# 6 0.001566 -0.002769 0.000939 0.007130 0.004193 0.024554
#
#
# Mechanical properties :
#
#
# Convention : Reuss Voigt Hill
#
# Bulk Modulus (GPa) = 48.69582 61.67208 55.18395
# Shear Modulus (GPa) = 26.80299 34.47884 30.64092
#
# Velocity S-wave (km/s) = 3.38007 3.83363 3.61397
# Velocity P-wave (km/s) = 5.99916 6.77374 6.39818
#
# Compressibility (1/GPa) = 0.02053564
#
# Stress axis : x y z
#
# Youngs Moduli (GPa) = 41.50384 83.74010 65.49643
#
# Poissons Ratio (x) = 0.87456 0.18483
# Poissons Ratio (y) = 0.43345 0.13875
# Poissons Ratio (z) = 0.11713 0.17739
#
# Static dielectric constant tensor:
#      x y z
#    x 4.767550 -0.234910 -0.100790 
#    y -0.234910 4.620830 0.271600 
#    z -0.100790 0.271600 4.204240 
# 
# 
# High freq. dielectric constant tensor:
#      x y z
#    x 1.942680 -0.008690 -0.002520 
#    y -0.008690 1.935220 0.011830 
#    z -0.002520 0.011830 1.915470 
# 
# From -- ./inp_files/455343.got.cif
#   From: 2010.06.25/outbox.cif.g09.slc.cpg/sg2_228_cif.got.tgz:455343.got - 2010.06.27 13:26:56.
