data_PCOD8032962
_publ_section_title
;
Structure prediction by ZEFSAII (Michael W. Deem and Ramdas Pophale) SiO2 
 PCOD8032962
Probable space group: P -1
;
_chemical_formula_sum "Si O2"
_cell_formula_units_Z 16
_cell_length_a 9.827512
_cell_length_b 9.022680
_cell_length_c 12.973671
_cell_angle_alpha 54.241025
_cell_angle_beta 125.124575
_cell_angle_gamma 106.906035
_cell_volume 761.734405
_symmetry_space_group_name_H-M "P -1"
_symmetry_group_IT_number 2
_symmetry_cell_setting 'triclinic'
loop_
_space_group_symop_operation_xyz
x,y,z
-x,-y,-z
loop_
_atom_site_type_symbol
_atom_site_label
_atom_site_fract_x
_atom_site_fract_y
_atom_site_fract_z
Si Si1 0.870422 0.017376 0.846017
Si Si2 0.527670 0.208018 0.675957
Si Si3 0.674479 0.397566 0.098497
Si Si4 0.361306 0.981740 0.860090
Si Si5 0.060783 0.228497 0.689811
Si Si6 0.838306 0.619972 0.915975
Si Si7 0.460247 0.414493 0.358399
Si Si8 0.214062 0.593380 0.635911
O O1 0.874297 0.831091 0.858299
O O2 0.689447 0.069663 0.792110
O O3 0.922430 0.184705 0.730688
O O4 0.000000 0.000000 0.000000
O O5 0.394764 0.096042 0.725058
O O6 0.456294 0.265561 0.508992
O O7 0.567280 0.384135 0.687931
O O8 0.748587 0.326243 0.268579
O O9 0.647973 0.230983 0.079006
O O10 0.500000 0.500000 0.000000
O O11 0.790210 0.539815 0.037854
O O12 0.178027 0.047432 0.792949
O O13 0.500000 0.000000 0.000000
O O14 0.181948 0.379919 0.720333
O O15 0.957652 0.298255 0.516536
O O16 0.690888 0.612250 0.772666
O O17 0.000000 0.500000 0.000000
O O18 0.634953 0.384557 0.386515
#
# Coordination Sequence:
#
# PCOD8032962 Si02
#       8
#     2   2   2   2   2   2   2   2
#     4  12  24  42  66  99 132 169 223 270 323 398
#     4  11  24  41  69  99 126 181 214 266 337 387
#     4  12  24  42  69  95 132 179 219 266 334 388
#     4  12  24  42  67  99 134 169 220 273 322 394
#     4  11  24  43  68  95 133 176 216 268 329 385
#     4  12  26  44  68  99 135 174 216 279 332 384
#     4  11  23  45  68  96 139 168 219 273 330 394
#     4  11  23  44  69  96 136 173 219 272 323 398
#
# _framework density 21.004698000000001
#
# number of rings (size 3 to 8) (size 9 to 14) (size 15 to 20)
#    0.000    0.500    3.750    5.250    0.000    3.000 
#    0.000    0.000    0.000    0.000    0.000    0.000 
#    0.000    0.000    0.000    0.000    0.000    0.000 
#
# Total GULP energy -198492.395335 kJ/mol
# GULP energy per Si atom -12405.774708 kJ/mol
# Density = 2.095689 g / cm^3
# Si number density = 21.004698 Si / 1000 Ang^3
#
#
#
# Elastic Constant Matrix: (Units=GPa)
#
#
# Indices 1 2 3 4 5 6 
#
# 1 99.2332 17.2838 27.6041 1.0169 0.9823 -3.2213
# 2 17.2838 83.5894 40.5578 11.4941 14.1255 -4.8822
# 3 27.6041 40.5578 105.6065 11.0990 1.4841 -5.1412
# 4 1.0169 11.4941 11.0990 35.1626 -1.4876 -0.3677
# 5 0.9823 14.1255 1.4841 -1.4876 50.9472 -12.5776
# 6 -3.2213 -4.8822 -5.1412 -0.3677 -12.5776 36.6560
#
#
#
# Elastic Compliance Matrix: (Units=1/GPa)
#
#
# Indices 1 2 3 4 5 6 
#
# 1 0.010984 -0.001222 -0.002471 0.000884 0.000371 0.000592
# 2 -0.001222 0.016094 -0.005423 -0.003705 -0.004461 -0.000292
# 3 -0.002471 -0.005423 0.012451 -0.002011 0.001447 0.001283
# 4 0.000884 -0.003705 -0.002011 0.030349 0.002030 0.000303
# 5 0.000371 -0.004461 0.001447 0.002030 0.022716 0.007456
# 6 0.000592 -0.000292 0.001283 0.000303 0.007456 0.030035
#
#
# Mechanical properties :
#
#
# Convention : Reuss Voigt Hill
#
# Bulk Modulus (GPa) = 46.95648 51.03561 48.99605
# Shear Modulus (GPa) = 33.79290 38.08538 35.93914
#
# Velocity S-wave (km/s) = 4.01537 4.26277 4.14092
# Velocity P-wave (km/s) = 6.62581 6.96981 6.79998
#
# Compressibility (1/GPa) = 0.02129631
#
# Stress axis : x y z
#
# Youngs Moduli (GPa) = 91.04186 62.13648 80.31227
#
# Poissons Ratio (x) = 0.07592 0.19846
# Poissons Ratio (y) = 0.11123 0.43557
# Poissons Ratio (z) = 0.22497 0.33699
#
# Static dielectric constant tensor:
#      x y z
#    x 3.929070 -0.039090 -0.062020 
#    y -0.039090 4.613100 0.009550 
#    z -0.062020 0.009550 4.032020 
# 
# 
# High freq. dielectric constant tensor:
#      x y z
#    x 1.837030 -0.001590 -0.001780 
#    y -0.001590 1.823090 -0.003470 
#    z -0.001780 -0.003470 1.838490 
# 
# From -- ./inp_files/185070.got.cif
#   From: 2010.06.25/outbox.cif.g09.slc.cpg/sg2_93_cif.got.tgz:185070.got - 2010.06.27 13:26:56.
