data_PCOD8032343
_publ_section_title
;
Structure prediction by ZEFSAII (Michael W. Deem and Ramdas Pophale) SiO2 
 PCOD8032343
Probable space group: P -1
;
_chemical_formula_sum "Si O2"
_cell_formula_units_Z 16
_cell_length_a 4.982596
_cell_length_b 6.670843
_cell_length_c 23.478361
_cell_angle_alpha 118.944902
_cell_angle_beta 98.463402
_cell_angle_gamma 84.761244
_cell_volume 675.277734
_symmetry_space_group_name_H-M "P -1"
_symmetry_group_IT_number 2
_symmetry_cell_setting 'triclinic'
loop_
_space_group_symop_operation_xyz
x,y,z
-x,-y,-z
loop_
_atom_site_type_symbol
_atom_site_label
_atom_site_fract_x
_atom_site_fract_y
_atom_site_fract_z
Si Si1 0.414459 0.776249 0.932021
Si Si2 0.082358 0.879877 0.311035
Si Si3 0.721861 0.998419 0.458774
Si Si4 0.060353 0.488405 0.065794
Si Si5 0.502115 0.425026 0.665325
Si Si6 0.137681 0.924340 0.193555
Si Si7 0.419571 0.825551 0.629474
Si Si8 0.624570 0.201285 0.200929
O O1 0.624890 0.572762 0.924520
O O2 0.420279 0.813288 0.869864
O O3 0.119839 0.696987 0.932544
O O4 0.500000 0.000000 0.000000
O O5 0.276316 0.091313 0.357475
O O6 0.774712 0.978057 0.320142
O O7 0.186749 0.675263 0.329430
O O8 0.138376 0.796381 0.236711
O O9 0.695451 0.216614 0.444497
O O10 0.500000 0.000000 0.500000
O O11 0.695252 0.782620 0.385106
O O12 0.000000 0.000000 0.500000
O O13 0.015665 0.746122 0.121003
O O14 0.000000 0.500000 0.000000
O O15 0.459792 0.596586 0.635206
O O16 0.419351 0.544384 0.739236
O O17 0.432659 0.017832 0.200282
O O18 0.935659 0.143326 0.217418
#
# Coordination Sequence:
#
# PCOD8032343 Si02
#       8
#     2   2   2   2   2   2   2   2
#     4  12  25  45  68 101 141 186 241 290 352 432
#     4  11  23  42  67 104 139 177 231 292 352 421
#     4  11  26  46  69 103 140 184 234 292 355 434
#     4  12  25  43  66  96 135 189 233 294 362 412
#     4  11  25  45  75 101 142 188 234 297 360 422
#     4  12  23  43  67 100 143 177 234 299 358 425
#     4  11  24  45  70 104 138 179 235 285 355 425
#     4  12  25  43  70 106 137 187 239 294 362 423
#
# _framework density 23.693951999999999
#
# number of rings (size 3 to 8) (size 9 to 14) (size 15 to 20)
#    0.000    0.500    2.500    6.000    0.000    9.000 
#    0.000    0.000    0.000    0.000    0.000    0.000 
#    0.000    0.000    0.000    0.000    0.000    0.000 
#
# Total GULP energy -198310.487104 kJ/mol
# GULP energy per Si atom -12394.405444 kJ/mol
# Density = 2.364002 g / cm^3
# Si number density = 23.693952 Si / 1000 Ang^3
#
#
#
# Elastic Constant Matrix: (Units=GPa)
#
#
# Indices 1 2 3 4 5 6 
#
# 1 87.9284 25.0412 24.9232 -6.9658 -2.6113 -5.3774
# 2 25.0412 134.6852 38.8401 -28.7141 -4.8837 -17.2145
# 3 24.9232 38.8401 134.8468 -22.5274 7.2599 12.6185
# 4 -6.9658 -28.7141 -22.5274 58.9526 5.6474 5.7457
# 5 -2.6113 -4.8837 7.2599 5.6474 34.5870 -8.3687
# 6 -5.3774 -17.2145 12.6185 5.7457 -8.3687 36.1775
#
#
#
# Elastic Compliance Matrix: (Units=1/GPa)
#
#
# Indices 1 2 3 4 5 6 
#
# 1 0.012611 -0.001370 -0.002372 -0.000525 0.001968 0.002588
# 2 -0.001370 0.009917 -0.002829 0.002760 0.002823 0.005717
# 3 -0.002372 -0.002829 0.010143 0.003363 -0.004929 -0.006911
# 4 -0.000525 0.002760 0.003363 0.020398 -0.004720 -0.004269
# 5 0.001968 0.002823 -0.004929 -0.004720 0.034171 0.012009
# 6 0.002588 0.005717 -0.006911 -0.004269 0.012009 0.036613
#
#
# Mechanical properties :
#
#
# Convention : Reuss Voigt Hill
#
# Bulk Modulus (GPa) = 51.20843 59.45215 55.33029
# Shear Modulus (GPa) = 34.84222 43.85381 39.34802
#
# Velocity S-wave (km/s) = 3.83888 4.30681 4.07956
# Velocity P-wave (km/s) = 6.42719 7.06241 6.75227
#
# Compressibility (1/GPa) = 0.01952804
#
# Stress axis : x y z
#
# Youngs Moduli (GPa) = 79.29808 100.84073 98.59009
#
# Poissons Ratio (x) = 0.13818 0.23385
# Poissons Ratio (y) = 0.10866 0.27891
# Poissons Ratio (z) = 0.18809 0.28527
#
# Static dielectric constant tensor:
#      x y z
#    x 4.222270 -0.115700 -0.079750 
#    y -0.115700 4.539300 -0.269000 
#    z -0.079750 -0.269000 4.500750 
# 
# 
# High freq. dielectric constant tensor:
#      x y z
#    x 1.947820 -0.008580 0.000280 
#    y -0.008580 1.944050 -0.022120 
#    z 0.000280 -0.022120 1.948520 
# 
# From -- ./inp_files/603444.got.cif
#   From: 2010.06.25/outbox.cif.g09.slc.cpg/sg2_302_cif.got.tgz:603444.got - 2010.06.27 13:26:56.
