data_PCOD8032064
_publ_section_title
;
Structure prediction by ZEFSAII (Michael W. Deem and Ramdas Pophale) SiO2 
 PCOD8032064
Probable space group: P -1
;
_chemical_formula_sum "Si O2"
_cell_formula_units_Z 16
_cell_length_a 14.561712
_cell_length_b 15.293405
_cell_length_c 9.240651
_cell_angle_alpha 59.951547
_cell_angle_beta 80.310940
_cell_angle_gamma 30.482301
_cell_volume 723.246121
_symmetry_space_group_name_H-M "P -1"
_symmetry_group_IT_number 2
_symmetry_cell_setting 'triclinic'
loop_
_space_group_symop_operation_xyz
x,y,z
-x,-y,-z
loop_
_atom_site_type_symbol
_atom_site_label
_atom_site_fract_x
_atom_site_fract_y
_atom_site_fract_z
Si Si1 0.507704 0.814530 0.256692
Si Si2 0.334224 0.940058 0.504360
Si Si3 0.903025 0.712803 0.188445
Si Si4 0.780367 0.422997 0.884478
Si Si5 0.974284 0.141312 0.345539
Si Si6 0.602127 0.518060 0.341563
Si Si7 0.979418 0.627574 0.559823
Si Si8 0.760459 0.276534 0.785674
O O1 0.466312 0.741010 0.272862
O O2 0.761481 0.594953 0.335091
O O3 0.453024 0.879960 0.387529
O O4 0.340935 0.053064 0.016102
O O5 0.211203 0.962398 0.455945
O O6 0.152940 0.190200 0.424194
O O7 0.534052 0.712193 0.753245
O O8 0.037178 0.475932 0.325906
O O9 0.043026 0.662512 0.116238
O O10 0.862838 0.774019 0.318218
O O11 0.721928 0.421450 0.753516
O O12 0.886606 0.240543 0.122486
O O13 0.784978 0.382296 0.294976
O O14 0.000000 0.000000 0.500000
O O15 0.744033 0.309613 0.590473
O O16 0.428654 0.620174 0.210984
O O17 0.000000 0.000000 0.000000
#
# Coordination Sequence:
#
# PCOD8032064 Si02
#       8
#     2   2   2   2   2   2   2   2
#     4  12  23  48  70 103 144 180 232 293 348 413
#     4  12  26  45  73 101 148 184 232 295 344 425
#     4  11  25  47  75 104 142 180 235 293 348 424
#     4  12  25  46  68 105 145 186 232 292 354 408
#     4  12  27  45  66 104 142 184 243 287 341 422
#     4  11  24  41  67  99 136 183 235 281 345 416
#     4  11  26  48  73 110 135 186 236 284 360 418
#     4  11  23  40  69  97 134 190 231 285 353 406
#
# _framework density 22.122484
#
# number of rings (size 3 to 8) (size 9 to 14) (size 15 to 20)
#    0.000    0.500    5.000    2.625    3.500    4.000 
#    0.000    0.000    0.000    0.000    0.000    0.000 
#    0.000    0.000    0.000    0.000    0.000    0.000 
#
# Total GULP energy -198447.595648 kJ/mol
# GULP energy per Si atom -12402.974728 kJ/mol
# Density = 2.207213 g / cm^3
# Si number density = 22.122484 Si / 1000 Ang^3
#
#
#
# Elastic Constant Matrix: (Units=GPa)
#
#
# Indices 1 2 3 4 5 6 
#
# 1 92.9737 39.5288 36.8261 4.3590 2.7590 -2.1679
# 2 39.5288 125.1279 38.9487 -5.8225 3.7365 -6.2571
# 3 36.8261 38.9487 153.7012 -8.6073 -0.6239 -7.7224
# 4 4.3590 -5.8225 -8.6073 27.0764 -2.6389 1.5483
# 5 2.7590 3.7365 -0.6239 -2.6389 28.0874 0.1892
# 6 -2.1679 -6.2571 -7.7224 1.5483 0.1892 28.9526
#
#
#
# Elastic Compliance Matrix: (Units=1/GPa)
#
#
# Indices 1 2 3 4 5 6 
#
# 1 0.013526 -0.003632 -0.002555 -0.003880 -0.001265 -0.000238
# 2 -0.003632 0.009771 -0.001424 0.002079 -0.000788 0.001354
# 3 -0.002555 -0.001424 0.007696 0.002553 0.000842 0.001412
# 4 -0.003880 0.002079 0.002553 0.039265 0.003859 -0.001285
# 5 -0.001265 -0.000788 0.000842 0.003859 0.036217 -0.000484
# 6 -0.000238 0.001354 0.001412 -0.001285 -0.000484 0.035262
#
#
# Mechanical properties :
#
#
# Convention : Reuss Voigt Hill
#
# Bulk Modulus (GPa) = 63.41122 66.93445 65.17283
# Shear Modulus (GPa) = 30.82284 33.92323 32.37303
#
# Velocity S-wave (km/s) = 3.73672 3.92015 3.82953
# Velocity P-wave (km/s) = 6.88065 7.12826 7.00555
#
# Compressibility (1/GPa) = 0.01577008
#
# Stress axis : x y z
#
# Youngs Moduli (GPa) = 73.93217 102.34709 129.92961
#
# Poissons Ratio (x) = 0.37177 0.33193
# Poissons Ratio (y) = 0.26855 0.18507
# Poissons Ratio (z) = 0.18887 0.14578
#
# Static dielectric constant tensor:
#      x y z
#    x 4.032050 0.046500 0.061640 
#    y 0.046500 4.044720 -0.060910 
#    z 0.061640 -0.060910 4.094630 
# 
# 
# High freq. dielectric constant tensor:
#      x y z
#    x 1.871760 -0.003670 0.005970 
#    y -0.003670 1.867580 -0.009400 
#    z 0.005970 -0.009400 1.884100 
# 
# From -- ./inp_files/314916.got.cif
#   From: 2010.06.25/outbox.cif.g09.slc.cpg/sg2_158_cif.got.tgz:314916.got - 2010.06.27 13:26:56.
