data_PCOD8032657
_publ_section_title
;
Structure prediction by ZEFSAII (Michael W. Deem and Ramdas Pophale) SiO2 
 PCOD8032657
Probable space group: P -1
;
_chemical_formula_sum "Si O2"
_cell_formula_units_Z 16
_cell_length_a 11.990449
_cell_length_b 17.928788
_cell_length_c 9.022755
_cell_angle_alpha 45.598700
_cell_angle_beta 133.297086
_cell_angle_gamma 149.242200
_cell_volume 689.491192
_symmetry_space_group_name_H-M "P -1"
_symmetry_group_IT_number 2
_symmetry_cell_setting 'triclinic'
loop_
_space_group_symop_operation_xyz
x,y,z
-x,-y,-z
loop_
_atom_site_type_symbol
_atom_site_label
_atom_site_fract_x
_atom_site_fract_y
_atom_site_fract_z
Si Si1 0.078270 0.652250 0.310791
Si Si2 0.725675 0.653548 0.064553
Si Si3 0.842625 0.940967 0.647615
Si Si4 0.487682 0.884300 0.567980
Si Si5 0.043879 0.384422 0.077196
Si Si6 0.675192 0.828089 0.337793
Si Si7 0.674689 0.280466 0.057127
Si Si8 0.543031 0.540476 0.650570
O O1 0.323399 0.799921 0.394099
O O2 0.000000 0.500000 0.500000
O O3 0.919892 0.665771 0.205142
O O4 0.084622 0.647531 0.145585
O O5 0.650534 0.619972 0.215446
O O6 0.500000 0.500000 0.000000
O O7 0.795213 0.799267 0.857928
O O8 0.732593 0.968104 0.623243
O O9 0.746876 0.921440 0.424079
O O10 0.107272 0.093851 0.670791
O O11 0.401385 0.763114 0.782645
O O12 0.500000 0.000000 0.500000
O O13 0.198832 0.362592 0.210056
O O14 0.845706 0.271945 0.175420
O O15 0.205681 0.548679 0.074556
O O16 0.532746 0.658799 0.503440
O O17 0.527180 0.825385 0.097857
O O18 0.500000 0.500000 0.500000
#
# Coordination Sequence:
#
# PCOD8032657 Si02
#       8
#     2   2   2   2   2   2   2   2
#     4  12  25  44  74 103 141 186 238 298 354 426
#     4  12  24  44  74 107 137 185 249 293 352 432
#     4  11  26  50  73 102 147 192 245 292 364 443
#     4  12  29  48  69 105 144 193 237 296 365 433
#     4  11  23  43  69 103 139 182 232 296 351 424
#     4  11  25  45  74 104 143 193 234 300 364 424
#     4  11  25  43  68 104 143 180 235 294 363 419
#     4  12  25  41  70 106 142 182 238 298 354 417
#
# _framework density 23.20552
#
# number of rings (size 3 to 8) (size 9 to 14) (size 15 to 20)
#    0.000    0.500    5.000    2.250    7.000    0.500 
#    0.000    1.250    0.000    0.000    0.000    0.000 
#    0.000    0.000    0.000    0.000    0.000    0.000 
#
# Total GULP energy -198308.712923 kJ/mol
# GULP energy per Si atom -12394.294558 kJ/mol
# Density = 2.315270 g / cm^3
# Si number density = 23.205520 Si / 1000 Ang^3
#
#
#
# Elastic Constant Matrix: (Units=GPa)
#
#
# Indices 1 2 3 4 5 6 
#
# 1 141.5110 17.7517 29.7612 0.6354 -2.4042 25.2582
# 2 17.7517 75.6103 23.1729 6.3866 -0.9765 4.7671
# 3 29.7612 23.1729 92.9850 11.9194 -11.3450 8.2870
# 4 0.6354 6.3866 11.9194 35.1146 -4.3702 -0.0078
# 5 -2.4042 -0.9765 -11.3450 -4.3702 47.6670 -2.6893
# 6 25.2582 4.7671 8.2870 -0.0078 -2.6893 41.5507
#
#
#
# Elastic Compliance Matrix: (Units=1/GPa)
#
#
# Indices 1 2 3 4 5 6 
#
# 1 0.008474 -0.001104 -0.002158 0.000741 -0.000301 -0.004614
# 2 -0.001104 0.014598 -0.003116 -0.001661 -0.000675 -0.000426
# 3 -0.002158 -0.003116 0.013053 -0.003505 0.002569 -0.000769
# 4 0.000741 -0.001661 -0.003505 0.030202 0.001970 0.000572
# 5 -0.000301 -0.000675 0.002569 0.001970 0.021807 0.001160
# 6 -0.004614 -0.000426 -0.000769 0.000572 0.001160 0.027149
#
#
# Mechanical properties :
#
#
# Convention : Reuss Voigt Hill
#
# Bulk Modulus (GPa) = 42.79012 50.16419 46.47715
# Shear Modulus (GPa) = 36.81101 40.82782 38.81941
#
# Velocity S-wave (km/s) = 3.98716 4.19907 4.09449
# Velocity P-wave (km/s) = 6.29891 6.72115 6.51345
#
# Compressibility (1/GPa) = 0.02336988
#
# Stress axis : x y z
#
# Youngs Moduli (GPa) = 118.00981 68.50067 76.61135
#
# Poissons Ratio (x) = 0.07561 0.16530
# Poissons Ratio (y) = 0.13026 0.23873
# Poissons Ratio (z) = 0.25463 0.21346
#
# Static dielectric constant tensor:
#      x y z
#    x 4.620340 -0.000940 -0.390320 
#    y -0.000940 3.743100 0.270070 
#    z -0.390320 0.270070 4.498670 
# 
# 
# High freq. dielectric constant tensor:
#      x y z
#    x 1.932890 0.009070 -0.010820 
#    y 0.009070 1.907490 0.012180 
#    z -0.010820 0.012180 1.922400 
# 
# From -- ./inp_files/279129.got.cif
#   From: 2010.06.25/outbox.cif.g09.slc.cpg/sg2_140_cif.got.tgz:279129.got - 2010.06.27 13:26:56.
