data_PCOD8032651
_publ_section_title
;
Structure prediction by ZEFSAII (Michael W. Deem and Ramdas Pophale) SiO2 
 PCOD8032651
Probable space group: P -1
;
_chemical_formula_sum "Si O2"
_cell_formula_units_Z 14
_cell_length_a 5.789858
_cell_length_b 15.205089
_cell_length_c 9.492527
_cell_angle_alpha 113.070589
_cell_angle_beta 64.662499
_cell_angle_gamma 123.366579
_cell_volume 617.086703
_symmetry_space_group_name_H-M "P -1"
_symmetry_group_IT_number 2
_symmetry_cell_setting 'triclinic'
loop_
_space_group_symop_operation_xyz
x,y,z
-x,-y,-z
loop_
_atom_site_type_symbol
_atom_site_label
_atom_site_fract_x
_atom_site_fract_y
_atom_site_fract_z
Si Si1 0.770726 0.041282 0.625286
Si Si2 0.587479 0.312405 0.663932
Si Si3 0.020978 0.210320 0.880852
Si Si4 0.309760 0.498507 0.411274
Si Si5 0.158678 0.624205 0.072753
Si Si6 0.766335 0.716710 0.835214
Si Si7 0.805056 0.159895 0.417810
O O1 0.791310 0.094317 0.807775
O O2 0.840253 0.137577 0.556982
O O3 0.446299 0.948001 0.649876
O O4 0.000000 0.000000 0.500000
O O5 0.492222 0.389812 0.649570
O O6 0.807777 0.379912 0.771219
O O7 0.729903 0.259247 0.489341
O O8 0.319805 0.216225 0.751160
O O9 0.027725 0.316256 0.877818
O O10 0.008561 0.220202 0.058241
O O11 0.500000 0.500000 0.500000
O O12 0.250377 0.398000 0.265381
O O13 0.000000 0.500000 0.500000
O O14 0.449800 0.693201 0.950171
O O15 0.000000 0.500000 0.000000
O O16 0.894057 0.799503 0.721502
#
# Coordination Sequence:
#
# PCOD8032651 Si02
#       7
#     2   2   2   2   2   2   2
#     4  11  24  44  75 100 134 189 246 300 368 444
#     4  11  23  43  69 101 138 189 238 298 361 444
#     4  11  24  44  70 101 139 188 239 299 371 437
#     4  12  28  43  71 111 150 193 246 305 368 442
#     4  11  24  43  70  98 146 189 236 288 366 444
#     4  11  27  43  68 109 145 186 238 306 369 428
#     4  11  24  44  70 104 137 180 249 303 366 433
#
# _framework density 22.687251
#
# number of rings (size 3 to 8) (size 9 to 14) (size 15 to 20)
#    0.000    0.857    4.286    1.714    8.000    4.000 
#    0.000    1.429    0.000    0.000    0.000    0.000 
#    0.000    0.000    0.000    0.000    0.000    0.000 
#
# Total GULP energy -173466.444609 kJ/mol
# GULP energy per Si atom -12390.460329 kJ/mol
# Density = 2.263561 g / cm^3
# Si number density = 22.687251 Si / 1000 Ang^3
#
#
#
# Elastic Constant Matrix: (Units=GPa)
#
#
# Indices 1 2 3 4 5 6 
#
# 1 73.0382 17.0581 29.4656 -0.6627 10.3422 -0.1934
# 2 17.0581 112.0221 51.2771 3.5652 8.9631 7.6509
# 3 29.4656 51.2771 119.5231 12.9393 18.7710 11.0023
# 4 -0.6627 3.5652 12.9393 51.4723 8.5415 -0.9828
# 5 10.3422 8.9631 18.7710 8.5415 36.8965 0.1779
# 6 -0.1934 7.6509 11.0023 -0.9828 0.1779 33.2509
#
#
#
# Elastic Compliance Matrix: (Units=1/GPa)
#
#
# Indices 1 2 3 4 5 6 
#
# 1 0.015661 -0.000751 -0.003397 0.001610 -0.002858 0.001451
# 2 -0.000751 0.011191 -0.004512 0.000378 -0.000295 -0.001074
# 3 -0.003397 -0.004512 0.012240 -0.002263 -0.003640 -0.003079
# 4 0.001610 0.000378 -0.002263 0.020712 -0.004193 0.001306
# 5 -0.002858 -0.000295 -0.003640 -0.004193 0.030794 0.000967
# 6 0.001451 -0.001074 -0.003079 0.001306 0.000967 0.031382
#
#
# Mechanical properties :
#
#
# Convention : Reuss Voigt Hill
#
# Bulk Modulus (GPa) = 45.93249 55.57611 50.75430
# Shear Modulus (GPa) = 34.11632 38.10945 36.11288
#
# Velocity S-wave (km/s) = 3.88205 4.10295 3.99403
# Velocity P-wave (km/s) = 6.35481 6.85532 6.60981
#
# Compressibility (1/GPa) = 0.02177108
#
# Stress axis : x y z
#
# Youngs Moduli (GPa) = 63.85398 89.35470 81.70067
#
# Poissons Ratio (x) = 0.06712 0.27757
# Poissons Ratio (y) = 0.04797 0.36862
# Poissons Ratio (z) = 0.21694 0.40315
#
# Static dielectric constant tensor:
#      x y z
#    x 4.238410 0.052860 0.086930 
#    y 0.052860 4.088640 0.039960 
#    z 0.086930 0.039960 4.205790 
# 
# 
# High freq. dielectric constant tensor:
#      x y z
#    x 1.893480 0.009040 -0.000410 
#    y 0.009040 1.898890 0.010530 
#    z -0.000410 0.010530 1.901080 
# 
# From -- ./inp_files/36825.got.cif
#   From: 2010.06.25/outbox.cif.g09.slc.cpg/sg2_19_cif.got.tgz:36825.got - 2010.06.27 13:26:56.
