data_PCOD8032863
_publ_section_title
;
Structure prediction by ZEFSAII (Michael W. Deem and Ramdas Pophale) SiO2 
 PCOD8032863
Probable space group: P -1
;
_chemical_formula_sum "Si O2"
_cell_formula_units_Z 16
_cell_length_a 19.189300
_cell_length_b 11.784295
_cell_length_c 9.512454
_cell_angle_alpha 136.733782
_cell_angle_beta 136.443222
_cell_angle_gamma 30.910252
_cell_volume 726.202522
_symmetry_space_group_name_H-M "P -1"
_symmetry_group_IT_number 2
_symmetry_cell_setting 'triclinic'
loop_
_space_group_symop_operation_xyz
x,y,z
-x,-y,-z
loop_
_atom_site_type_symbol
_atom_site_label
_atom_site_fract_x
_atom_site_fract_y
_atom_site_fract_z
Si Si1 0.857571 0.517579 0.718709
Si Si2 0.405506 0.967847 0.263465
Si Si3 0.373556 0.021553 0.800962
Si Si4 0.371640 0.813868 0.349182
Si Si5 0.141209 0.843922 0.658299
Si Si6 0.073620 0.495399 0.882662
Si Si7 0.918159 0.968105 0.948294
Si Si8 0.595777 0.272202 0.186643
O O1 0.794094 0.415805 0.482590
O O2 0.979548 0.437695 0.716292
O O3 0.734255 0.793653 0.793015
O O4 0.917883 0.425382 0.881292
O O5 0.365641 0.879051 0.239575
O O6 0.500000 0.000000 0.500000
O O7 0.476714 0.779897 0.071871
O O8 0.389050 0.954007 0.599906
O O9 0.382864 0.838988 0.733444
O O10 0.225989 0.279293 0.848029
O O11 0.500000 0.000000 0.000000
O O12 0.497734 0.541490 0.311477
O O13 0.221556 0.899229 0.230148
O O14 0.252244 0.845913 0.757609
O O15 0.111743 0.918891 0.843029
O O16 0.000000 0.000000 0.500000
O O17 0.001427 0.700366 0.849880
O O18 0.000000 0.000000 0.000000
#
# Coordination Sequence:
#
# PCOD8032863 Si02
#       8
#     2   2   2   2   2   2   2   2
#     4  11  23  43  78 104 137 185 248 303 344 426
#     4  12  24  45  73 109 139 187 238 299 360 419
#     4  12  29  47  74 103 142 198 241 291 365 433
#     4  12  28  47  68 107 151 183 237 302 364 421
#     4  12  25  44  78 107 137 191 243 291 358 430
#     4  11  24  49  71 101 145 187 247 295 351 432
#     4  12  29  47  71 109 150 188 233 300 373 423
#     4  12  26  49  73 103 147 190 246 293 352 441
#
# _framework density 22.032420999999999
#
# number of rings (size 3 to 8) (size 9 to 14) (size 15 to 20)
#    0.000    0.250    5.000    3.000    8.750    1.500 
#    0.000    0.000    0.000    0.000    0.000    0.000 
#    0.000    0.000    0.000    0.000    0.000    0.000 
#
# Total GULP energy -198470.460154 kJ/mol
# GULP energy per Si atom -12404.403760 kJ/mol
# Density = 2.198227 g / cm^3
# Si number density = 22.032421 Si / 1000 Ang^3
#
#
#
# Elastic Constant Matrix: (Units=GPa)
#
#
# Indices 1 2 3 4 5 6 
#
# 1 88.2245 43.8426 3.7497 0.2807 3.8466 4.6469
# 2 43.8426 99.9405 34.5451 1.9503 -2.2384 -6.2640
# 3 3.7497 34.5451 103.9575 2.9891 6.5666 -8.3675
# 4 0.2807 1.9503 2.9891 36.8499 -0.4916 3.2408
# 5 3.8466 -2.2384 6.5666 -0.4916 35.4250 -4.0828
# 6 4.6469 -6.2640 -8.3675 3.2408 -4.0828 38.3261
#
#
#
# Elastic Compliance Matrix: (Units=1/GPa)
#
#
# Indices 1 2 3 4 5 6 
#
# 1 0.015338 -0.007651 0.001915 0.000361 -0.002848 -0.003026
# 2 -0.007651 0.015252 -0.004743 -0.000566 0.002983 0.002751
# 3 0.001915 -0.004743 0.011411 -0.000836 -0.002486 0.001290
# 4 0.000361 -0.000566 -0.000836 0.027465 0.000159 -0.002624
# 5 -0.002848 0.002983 -0.002486 0.000159 0.029584 0.003428
# 6 -0.003026 0.002751 0.001290 -0.002624 0.003428 0.027777
#
#
# Mechanical properties :
#
#
# Convention : Reuss Voigt Hill
#
# Bulk Modulus (GPa) = 47.52090 50.71078 49.11584
# Shear Modulus (GPa) = 32.29981 36.11922 34.20952
#
# Velocity S-wave (km/s) = 3.83301 4.05330 3.94469
# Velocity P-wave (km/s) = 6.41909 6.70612 6.56418
#
# Compressibility (1/GPa) = 0.02104337
#
# Stress axis : x y z
#
# Youngs Moduli (GPa) = 65.19843 65.56503 87.63308
#
# Poissons Ratio (x) = 0.50163 -0.16783
# Poissons Ratio (y) = 0.49883 0.41565
# Poissons Ratio (z) = -0.12486 0.31098
#
# Static dielectric constant tensor:
#      x y z
#    x 4.154220 0.082560 0.055230 
#    y 0.082560 4.081500 -0.015740 
#    z 0.055230 -0.015740 4.090180 
# 
# 
# High freq. dielectric constant tensor:
#      x y z
#    x 1.873760 0.006160 0.006020 
#    y 0.006160 1.875500 0.000900 
#    z 0.006020 0.000900 1.875660 
# 
# From -- ./inp_files/262960.got.cif
#   From: 2010.06.25/outbox.cif.g09.slc.cpg/sg2_132_cif.got.tgz:262960.got - 2010.06.27 13:26:56.
