data_PCOD8032284
_publ_section_title
;
Structure prediction by ZEFSAII (Michael W. Deem and Ramdas Pophale) SiO2 
 PCOD8032284
Probable space group: P -1
;
_chemical_formula_sum "Si O2"
_cell_formula_units_Z 16
_cell_length_a 11.322353
_cell_length_b 14.118578
_cell_length_c 9.216667
_cell_angle_alpha 149.976400
_cell_angle_beta 102.728174
_cell_angle_gamma 86.161957
_cell_volume 695.549523
_symmetry_space_group_name_H-M "P -1"
_symmetry_group_IT_number 2
_symmetry_cell_setting 'triclinic'
loop_
_space_group_symop_operation_xyz
x,y,z
-x,-y,-z
loop_
_atom_site_type_symbol
_atom_site_label
_atom_site_fract_x
_atom_site_fract_y
_atom_site_fract_z
Si Si1 0.238547 0.746155 0.808143
Si Si2 0.861984 0.941628 0.951442
Si Si3 0.133316 0.711488 0.046727
Si Si4 0.533001 0.738409 0.243477
Si Si5 0.295737 0.428196 0.750811
Si Si6 0.496266 0.015528 0.848360
Si Si7 0.292664 0.083617 0.710375
Si Si8 0.856621 0.686691 0.886043
O O1 0.210847 0.514674 0.474505
O O2 0.173320 0.781308 0.986877
O O3 0.386874 0.817992 0.955805
O O4 0.188878 0.863003 0.819775
O O5 0.757485 0.769287 0.616205
O O6 0.875713 0.871172 0.025558
O O7 0.000000 0.000000 0.000000
O O8 0.184530 0.887892 0.403587
O O9 0.179100 0.524191 0.865756
O O10 0.984542 0.657742 0.947286
O O11 0.641407 0.624785 0.154563
O O12 0.602190 0.905538 0.372025
O O13 0.492732 0.819232 0.492593
O O14 0.412705 0.597705 0.941340
O O15 0.367029 0.076574 0.870077
O O16 0.500000 0.000000 0.000000
O O17 0.229004 0.265777 0.943484
#
# Coordination Sequence:
#
# PCOD8032284 Si02
#       8
#     2   2   2   2   2   2   2   2
#     4  12  24  45  74 105 148 186 245 293 369 423
#     4  12  23  43  73 107 144 193 238 298 357 427
#     4  12  22  46  73 100 143 196 238 293 355 442
#     4  11  24  46  72 103 145 187 236 297 371 432
#     4  11  23  41  76 104 138 187 247 289 365 433
#     4  12  25  44  77 107 142 185 243 305 358 432
#     4  12  26  47  72 103 146 193 233 301 368 425
#     4  12  28  45  69 109 147 190 247 296 355 429
#
# _framework density 23.003395000000001
#
# number of rings (size 3 to 8) (size 9 to 14) (size 15 to 20)
#    0.000    0.250    6.250    3.375    0.000    2.500 
#    2.250    0.625    0.000    0.000    0.000    0.000 
#    0.000    0.000    0.000    0.000    0.000    0.000 
#
# Total GULP energy -198312.596995 kJ/mol
# GULP energy per Si atom -12394.537312 kJ/mol
# Density = 2.295104 g / cm^3
# Si number density = 23.003395 Si / 1000 Ang^3
#
#
#
# Elastic Constant Matrix: (Units=GPa)
#
#
# Indices 1 2 3 4 5 6 
#
# 1 112.2698 15.1411 52.3180 -4.7212 -3.0237 -16.1030
# 2 15.1411 67.0350 28.4315 8.0606 -15.3272 -15.9251
# 3 52.3180 28.4315 94.4367 1.4374 8.1669 3.9208
# 4 -4.7212 8.0606 1.4374 28.6017 -0.0151 -0.6233
# 5 -3.0237 -15.3272 8.1669 -0.0151 37.8372 3.2301
# 6 -16.1030 -15.9251 3.9208 -0.6233 3.2301 42.4468
#
#
#
# Elastic Compliance Matrix: (Units=1/GPa)
#
#
# Indices 1 2 3 4 5 6 
#
# 1 0.014074 0.003116 -0.009391 0.002074 0.003807 0.007116
# 2 0.003116 0.024381 -0.010404 -0.005603 0.011487 0.010334
# 3 -0.009391 -0.010404 0.020020 0.000182 -0.008546 -0.008662
# 4 0.002074 -0.005603 0.000182 0.036860 -0.002074 -0.000633
# 5 0.003807 0.011487 -0.008546 -0.002074 0.032888 0.004010
# 6 0.007116 0.010334 -0.008662 -0.000633 0.004010 0.030621
#
#
# Mechanical properties :
#
#
# Convention : Reuss Voigt Hill
#
# Bulk Modulus (GPa) = 39.81348 51.72474 45.76911
# Shear Modulus (GPa) = 24.92834 33.63385 29.28110
#
# Velocity S-wave (km/s) = 3.29550 3.82792 3.57165
# Velocity P-wave (km/s) = 5.64142 6.48628 6.07855
#
# Compressibility (1/GPa) = 0.02511712
#
# Stress axis : x y z
#
# Youngs Moduli (GPa) = 71.05468 41.01487 49.95009
#
# Poissons Ratio (x) = -0.12780 0.46909
# Poissons Ratio (y) = -0.22141 0.51967
# Poissons Ratio (z) = 0.66729 0.42671
#
# Static dielectric constant tensor:
#      x y z
#    x 4.412000 -0.207640 0.191130 
#    y -0.207640 4.148360 0.083750 
#    z 0.191130 0.083750 4.063460 
# 
# 
# High freq. dielectric constant tensor:
#      x y z
#    x 1.917960 -0.024570 0.018180 
#    y -0.024570 1.906350 0.007840 
#    z 0.018180 0.007840 1.904930 
# 
# From -- ./inp_files/274928.got.cif
#   From: 2010.06.25/outbox.cif.g09.slc.cpg/sg2_138_cif.got.tgz:274928.got - 2010.06.27 13:26:56.
