data_PCOD8032106
_publ_section_title
;
Structure prediction by ZEFSAII (Michael W. Deem and Ramdas Pophale) SiO2 
 PCOD8032106
Probable space group: P -1
;
_chemical_formula_sum "Si O2"
_cell_formula_units_Z 16
_cell_length_a 24.677219
_cell_length_b 9.401934
_cell_length_c 9.401932
_cell_angle_alpha 149.789658
_cell_angle_beta 134.878794
_cell_angle_gamma 45.121200
_cell_volume 749.151406
_symmetry_space_group_name_H-M "P -1"
_symmetry_group_IT_number 2
_symmetry_cell_setting 'triclinic'
loop_
_space_group_symop_operation_xyz
x,y,z
-x,-y,-z
loop_
_atom_site_type_symbol
_atom_site_label
_atom_site_fract_x
_atom_site_fract_y
_atom_site_fract_z
Si Si1 0.454117 0.759355 0.732370
Si Si2 0.713102 0.302509 0.665882
Si Si3 0.426623 0.693626 0.946080
Si Si4 0.679712 0.675273 0.642839
Si Si5 0.786898 0.665882 0.302510
Si Si6 0.926623 0.053922 0.306376
Si Si7 0.820288 0.642841 0.675274
Si Si8 0.954117 0.267630 0.240645
O O1 0.500000 0.500000 0.500000
O O2 0.363062 0.828037 0.571535
O O3 0.458800 0.667387 0.824157
O O4 0.500000 0.000000 0.000000
O O5 0.711579 0.515392 0.712239
O O6 0.781053 0.991255 0.509190
O O7 0.718947 0.509190 0.991256
O O8 0.393347 0.034277 0.220823
O O9 0.500000 0.500000 0.000000
O O10 0.353765 0.549529 0.706177
O O11 0.750000 0.756581 0.756581
O O12 0.788420 0.712240 0.515393
O O13 0.863062 0.428465 0.171963
O O14 0.853765 0.293825 0.450473
O O15 0.958801 0.175843 0.332614
O O16 0.000000 0.000000 0.500000
O O17 0.893347 0.779179 0.965724
O O18 0.000000 0.500000 0.500000
O O19 0.000000 0.000000 0.000000
#
# Coordination Sequence:
#
# PCOD8032106 Si02
#       8
#     2   2   2   2   2   2   2   2
#     4  11  23  41  63  91 126 164 207 259 310 368
#     4  11  23  41  64  93 125 162 209 260 310 370
#     4  11  24  43  63  92 127 164 208 257 307 371
#     4  11  24  43  64  92 127 164 207 258 310 369
#     4  11  23  41  64  93 125 162 209 260 310 370
#     4  11  24  43  63  92 127 164 208 257 307 371
#     4  11  24  43  64  92 127 164 207 258 310 369
#     4  11  23  41  63  91 126 164 207 259 310 368
#
# _framework density 21.357496999999999
#
# number of rings (size 3 to 8) (size 9 to 14) (size 15 to 20)
#    0.000    1.000    0.000    9.000    0.000    6.000 
#    0.000    0.000    0.000    0.000    0.000    0.000 
#    0.000    0.000    0.000    0.000    0.000    0.000 
#
# Total GULP energy -198272.677466 kJ/mol
# GULP energy per Si atom -12392.042342 kJ/mol
# Density = 2.130889 g / cm^3
# Si number density = 21.357497 Si / 1000 Ang^3
#
#
#
# Elastic Constant Matrix: (Units=GPa)
#
#
# Indices 1 2 3 4 5 6 
#
# 1 127.4277 45.6524 47.2596 0.6622 0.6805 -1.8954
# 2 45.6524 149.2334 56.2878 4.5710 -9.5829 -2.9824
# 3 47.2596 56.2878 157.2991 -1.2473 8.4386 6.1706
# 4 0.6622 4.5710 -1.2473 49.6215 -11.8029 -3.1310
# 5 0.6805 -9.5829 8.4386 -11.8029 43.6585 11.9611
# 6 -1.8954 -2.9824 6.1706 -3.1310 11.9611 14.6321
#
#
#
# Elastic Compliance Matrix: (Units=1/GPa)
#
#
# Indices 1 2 3 4 5 6 
#
# 1 0.009426 -0.002085 -0.002134 -0.000041 -0.000857 0.002388
# 2 -0.002085 0.008456 -0.002544 -0.000268 0.002102 0.000751
# 3 -0.002134 -0.002544 0.008100 -0.000026 -0.001215 -0.003224
# 4 -0.000041 -0.000268 -0.000026 0.021551 0.005828 -0.000202
# 5 -0.000857 0.002102 -0.001215 0.005828 0.031727 -0.023858
# 6 0.002388 0.000751 -0.003224 -0.000202 -0.023858 0.089625
#
#
# Mechanical properties :
#
#
# Convention : Reuss Voigt Hill
#
# Bulk Modulus (GPa) = 80.27488 81.37331 80.82410
# Shear Modulus (GPa) = 26.80055 40.56643 33.68349
#
# Velocity S-wave (km/s) = 3.54624 4.36294 3.97561
# Velocity P-wave (km/s) = 7.37805 7.97268 7.68112
#
# Compressibility (1/GPa) = 0.01245720
#
# Stress axis : x y z
#
# Youngs Moduli (GPa) = 106.08654 118.25315 123.45285
#
# Poissons Ratio (x) = 0.24653 0.26346
# Poissons Ratio (y) = 0.22117 0.31407
# Poissons Ratio (z) = 0.22640 0.30084
#
# Static dielectric constant tensor:
#      x y z
#    x 4.174810 -0.056110 0.020140 
#    y -0.056110 4.032400 0.060570 
#    z 0.020140 0.060570 4.179400 
# 
# 
# High freq. dielectric constant tensor:
#      x y z
#    x 1.830640 -0.006810 0.002440 
#    y -0.006810 1.846810 0.006920 
#    z 0.002440 0.006920 1.863600 
# 
# From -- ./inp_files/226244.got.cif
#   From: 2010.06.25/outbox.cif.g09.slc.cpg/sg2_114_cif.got.tgz:226244.got - 2010.06.27 13:26:56.
