data_PCOD8032596
_publ_section_title
;
Structure prediction by ZEFSAII (Michael W. Deem and Ramdas Pophale) SiO2 
 PCOD8032596
Probable space group: P -1
;
_chemical_formula_sum "Si O2"
_cell_formula_units_Z 14
_cell_length_a 9.405511
_cell_length_b 6.777766
_cell_length_c 19.834053
_cell_angle_alpha 129.912418
_cell_angle_beta 43.950592
_cell_angle_gamma 130.693191
_cell_volume 628.719227
_symmetry_space_group_name_H-M "P -1"
_symmetry_group_IT_number 2
_symmetry_cell_setting 'triclinic'
loop_
_space_group_symop_operation_xyz
x,y,z
-x,-y,-z
loop_
_atom_site_type_symbol
_atom_site_label
_atom_site_fract_x
_atom_site_fract_y
_atom_site_fract_z
Si Si1 0.186128 0.876477 0.392573
Si Si2 0.605257 0.375770 0.994377
Si Si3 0.499687 0.303548 0.275923
Si Si4 0.035352 0.720258 0.732879
Si Si5 0.352456 0.175993 0.158221
Si Si6 0.522353 0.895661 0.396375
Si Si7 0.946984 0.247329 0.105902
O O1 0.302500 0.830717 0.411772
O O2 0.075695 0.588924 0.327231
O O3 0.370465 0.100777 0.334337
O O4 0.000000 0.000000 0.500000
O O5 0.867625 0.489490 0.931782
O O6 0.538723 0.054803 0.931620
O O7 0.500000 0.500000 0.000000
O O8 0.504907 0.421275 0.110601
O O9 0.345558 0.275223 0.257923
O O10 0.576764 0.624941 0.337675
O O11 0.706186 0.229077 0.163901
O O12 0.032468 0.719352 0.813814
O O13 0.897518 0.909721 0.799894
O O14 0.282038 0.867257 0.655817
O O15 0.500000 0.000000 0.500000
O O16 0.000000 0.000000 0.000000
#
# Coordination Sequence:
#
# PCOD8032596 Si02
#       7
#     2   2   2   2   2   2   2
#     4  12  29  51  80 110 150 197 252 319 389 449
#     4  11  23  43  67 101 146 195 247 297 364 430
#     4  12  27  48  75 110 151 195 253 311 377 452
#     4  12  26  50  76 109 154 198 250 311 379 450
#     4  11  25  42  73 102 141 198 247 300 363 445
#     4  12  29  50  78 114 150 191 255 319 387 455
#     4  12  27  43  75 107 156 201 246 306 370 441
#
# _framework density 22.267493999999999
#
# number of rings (size 3 to 8) (size 9 to 14) (size 15 to 20)
#    0.000    0.286    4.286    3.429   10.000    2.857 
#    0.000    0.000    0.000    0.000    0.000    0.000 
#    0.000    0.000    0.000    0.000    0.000    0.000 
#
# Total GULP energy -173530.336802 kJ/mol
# GULP energy per Si atom -12395.024057 kJ/mol
# Density = 2.221681 g / cm^3
# Si number density = 22.267494 Si / 1000 Ang^3
#
#
#
# Elastic Constant Matrix: (Units=GPa)
#
#
# Indices 1 2 3 4 5 6 
#
# 1 108.8815 35.0343 44.7752 -2.1665 0.7420 -2.6569
# 2 35.0343 117.2162 48.1964 5.8138 -0.0902 3.4646
# 3 44.7752 48.1964 129.7247 3.7226 0.7108 1.6372
# 4 -2.1665 5.8138 3.7226 39.0182 3.1174 -5.5722
# 5 0.7420 -0.0902 0.7108 3.1174 55.2985 -0.6181
# 6 -2.6569 3.4646 1.6372 -5.5722 -0.6181 35.2819
#
#
#
# Elastic Compliance Matrix: (Units=1/GPa)
#
#
# Indices 1 2 3 4 5 6 
#
# 1 0.011239 -0.002190 -0.003125 0.001468 -0.000181 0.001435
# 2 -0.002190 0.010585 -0.003115 -0.001602 0.000162 -0.001310
# 3 -0.003125 -0.003115 0.009972 -0.000729 -0.000056 -0.000508
# 4 0.001468 -0.001602 -0.000729 0.026780 -0.001472 0.004505
# 5 -0.000181 0.000162 -0.000056 -0.001472 0.018171 0.000059
# 6 0.001435 -0.001310 -0.000508 0.004505 0.000059 0.029316
#
#
# Mechanical properties :
#
#
# Convention : Reuss Voigt Hill
#
# Bulk Modulus (GPa) = 66.94932 67.98157 67.46544
# Shear Modulus (GPa) = 39.09245 41.10750 40.09997
#
# Velocity S-wave (km/s) = 4.19451 4.30126 4.24822
# Velocity P-wave (km/s) = 7.32051 7.43395 7.37744
#
# Compressibility (1/GPa) = 0.01493667
#
# Stress axis : x y z
#
# Youngs Moduli (GPa) = 88.97238 94.47426 100.27798
#
# Poissons Ratio (x) = 0.20687 0.31337
# Poissons Ratio (y) = 0.19483 0.31238
# Poissons Ratio (z) = 0.27804 0.29431
#
# Static dielectric constant tensor:
#      x y z
#    x 4.179520 -0.094920 -0.116300 
#    y -0.094920 2.956730 -0.265460 
#    z -0.116300 -0.265460 4.153910 
# 
# 
# High freq. dielectric constant tensor:
#      x y z
#    x 1.888500 -0.005180 -0.001140 
#    y -0.005180 1.883180 -0.002720 
#    z -0.001140 -0.002720 1.893520 
# 
# From -- ./inp_files/106186.got.cif
#   From: 2010.06.25/outbox.cif.g09.slc.cpg/sg2_54_cif.got.tgz:106186.got - 2010.06.27 13:26:56.
