data_PCOD8032347
_publ_section_title
;
Structure prediction by ZEFSAII (Michael W. Deem and Ramdas Pophale) SiO2 
 PCOD8032347
Probable space group: P -1
;
_chemical_formula_sum "Si O2"
_cell_formula_units_Z 14
_cell_length_a 14.624573
_cell_length_b 10.384659
_cell_length_c 14.056471
_cell_angle_alpha 41.564058
_cell_angle_beta 28.975435
_cell_angle_gamma 60.268904
_cell_volume 596.728959
_symmetry_space_group_name_H-M "P -1"
_symmetry_group_IT_number 2
_symmetry_cell_setting 'triclinic'
loop_
_space_group_symop_operation_xyz
x,y,z
-x,-y,-z
loop_
_atom_site_type_symbol
_atom_site_label
_atom_site_fract_x
_atom_site_fract_y
_atom_site_fract_z
Si Si1 0.620147 0.806624 0.696624
Si Si2 0.670793 0.986978 0.746011
Si Si3 0.687251 0.719317 0.255340
Si Si4 0.221933 0.962492 0.177083
Si Si5 0.846619 0.565505 0.658553
Si Si6 0.412959 0.841242 0.576447
Si Si7 0.964829 0.500183 0.143735
O O1 0.755157 0.688632 0.601521
O O2 0.690149 0.840574 0.725646
O O3 0.691488 0.048768 0.458005
O O4 0.364819 0.653364 0.988429
O O5 0.742508 0.919118 0.817188
O O6 0.811852 0.252521 0.457495
O O7 0.418277 0.913022 0.013254
O O8 0.500000 0.500000 0.500000
O O9 0.599105 0.813134 0.368549
O O10 0.858476 0.655882 0.179344
O O11 0.793431 0.896519 0.974985
O O12 0.996582 0.729763 0.514564
O O13 0.000000 0.500000 0.500000
O O14 0.500000 0.000000 0.500000
O O15 0.200844 0.603123 0.924164
O O16 0.000000 0.500000 0.000000
#
# Coordination Sequence:
#
# PCOD8032347 Si02
#       7
#     2   2   2   2   2   2   2
#     4  11  23  46  64  98 137 175 226 275 337 416
#     4  11  23  43  68 107 131 173 237 276 339 411
#     4  12  22  47  74 100 136 186 232 285 351 409
#     4  11  23  42  71  98 137 172 226 289 334 402
#     4  11  23  42  67  91 134 183 213 273 348 396
#     4  12  27  46  69 103 142 179 234 288 345 415
#     4  12  23  45  75  99 138 186 230 288 344 412
#
# _framework density 23.461238999999999
#
# number of rings (size 3 to 8) (size 9 to 14) (size 15 to 20)
#    0.000    0.571    7.143    0.857    2.000    1.143 
#    7.714    0.000    0.000    0.000    0.000    0.000 
#    0.000    0.000    0.000    0.000    0.000    0.000 
#
# Total GULP energy -173492.324766 kJ/mol
# GULP energy per Si atom -12392.308912 kJ/mol
# Density = 2.340784 g / cm^3
# Si number density = 23.461239 Si / 1000 Ang^3
#
#
#
# Elastic Constant Matrix: (Units=GPa)
#
#
# Indices 1 2 3 4 5 6 
#
# 1 82.2860 29.2106 49.6932 2.2556 -13.6023 23.3766
# 2 29.2106 125.8598 39.9558 19.8599 -3.4022 -0.3909
# 3 49.6932 39.9558 115.9487 -0.1197 -26.9743 4.1395
# 4 2.2556 19.8599 -0.1197 35.7126 3.0885 -8.3675
# 5 -13.6023 -3.4022 -26.9743 3.0885 35.7995 -4.7046
# 6 23.3766 -0.3909 4.1395 -8.3675 -4.7046 39.5162
#
#
#
# Elastic Compliance Matrix: (Units=1/GPa)
#
#
# Indices 1 2 3 4 5 6 
#
# 1 0.021330 -0.001957 -0.007881 -0.003251 0.000628 -0.012425
# 2 -0.001957 0.010168 -0.003047 -0.005344 -0.001578 0.000258
# 3 -0.007881 -0.003047 0.014811 0.002609 0.008257 0.004616
# 4 -0.003251 -0.005344 0.002609 0.033304 -0.001538 0.008466
# 5 0.000628 -0.001578 0.008257 -0.001538 0.034712 0.002555
# 6 -0.012425 0.000258 0.004616 0.008466 0.002555 0.034272
#
#
# Mechanical properties :
#
#
# Convention : Reuss Voigt Hill
#
# Bulk Modulus (GPa) = 48.68798 62.42377 55.55588
# Shear Modulus (GPa) = 27.59183 35.88801 31.73992
#
# Velocity S-wave (km/s) = 3.43309 3.91535 3.68212
# Velocity P-wave (km/s) = 6.04255 6.86330 6.46596
#
# Compressibility (1/GPa) = 0.02053895
#
# Stress axis : x y z
#
# Youngs Moduli (GPa) = 46.88339 98.34429 67.51795
#
# Poissons Ratio (x) = 0.19248 0.53208
# Poissons Ratio (y) = 0.09176 0.20573
# Poissons Ratio (z) = 0.36947 0.29966
#
# Static dielectric constant tensor:
#      x y z
#    x 4.261280 0.041260 -0.313920 
#    y 0.041260 4.767080 -0.092930 
#    z -0.313920 -0.092930 4.760040 
# 
# 
# High freq. dielectric constant tensor:
#      x y z
#    x 1.907980 -0.003640 -0.026640 
#    y -0.003640 1.936870 -0.000310 
#    z -0.026640 -0.000310 1.942890 
# 
# From -- ./inp_files/532319.got.cif
#   From: 2010.06.25/outbox.cif.g09.slc.cpg/sg2_267_cif.got.tgz:532319.got - 2010.06.27 13:26:56.
