data_PCOD8032630
_publ_section_title
;
Structure prediction by ZEFSAII (Michael W. Deem and Ramdas Pophale) SiO2 
 PCOD8032630
Probable space group: P -1
;
_chemical_formula_sum "Si O2"
_cell_formula_units_Z 16
_cell_length_a 9.293033
_cell_length_b 20.805800
_cell_length_c 9.316376
_cell_angle_alpha 61.857459
_cell_angle_beta 57.479805
_cell_angle_gamma 31.020187
_cell_volume 782.485690
_symmetry_space_group_name_H-M "P -1"
_symmetry_group_IT_number 2
_symmetry_cell_setting 'triclinic'
loop_
_space_group_symop_operation_xyz
x,y,z
-x,-y,-z
loop_
_atom_site_type_symbol
_atom_site_label
_atom_site_fract_x
_atom_site_fract_y
_atom_site_fract_z
Si Si1 0.606607 0.380066 0.076945
Si Si2 0.336154 0.766216 0.283959
Si Si3 0.226241 0.126233 0.599150
Si Si4 0.806362 0.891919 0.032582
Si Si5 0.698460 0.622943 0.963179
Si Si6 0.343315 0.369731 0.459776
Si Si7 0.996903 0.015783 0.153526
Si Si8 0.383093 0.230736 0.373278
O O1 0.514299 0.375821 0.281885
O O2 0.500000 0.500000 0.000000
O O3 0.434932 0.399906 0.021262
O O4 0.960106 0.249404 0.002517
O O5 0.471783 0.723793 0.099006
O O6 0.563819 0.660970 0.391745
O O7 0.063688 0.806197 0.385948
O O8 0.237395 0.883381 0.245106
O O9 0.266929 0.092215 0.778936
O O10 0.187657 0.226979 0.504366
O O11 0.500000 0.000000 0.500000
O O12 0.965641 0.913444 0.900472
O O13 0.500000 0.000000 0.000000
O O14 0.761440 0.667867 0.775771
O O15 0.000000 0.500000 0.000000
O O16 0.419364 0.264394 0.464395
O O17 0.000000 0.500000 0.500000
O O18 0.692517 0.094299 0.297473
O O19 0.000000 0.000000 0.000000
#
# Coordination Sequence:
#
# PCOD8032630 Si02
#       8
#     2   2   2   2   2   2   2   2
#     4  11  25  49  68  96 142 181 227 281 341 413
#     4  12  24  42  73 100 138 175 226 285 343 401
#     4  12  25  42  66 107 137 170 225 285 342 404
#     4  12  27  44  70 103 140 182 229 280 344 413
#     4  11  23  46  70  95 127 187 231 271 342 412
#     4  11  27  46  68 101 134 180 232 280 340 405
#     4  12  20  45  70  97 134 180 221 279 341 410
#     4  11  23  43  68  95 142 170 224 280 338 407
#
# _framework density 20.447659999999999
#
# number of rings (size 3 to 8) (size 9 to 14) (size 15 to 20)
#    0.000    0.500    7.500    1.500    5.250    2.500 
#    0.000    1.875    0.000    0.000    0.000    0.000 
#    0.000    0.000    0.000    0.000    0.000    0.000 
#
# Total GULP energy -198421.946847 kJ/mol
# GULP energy per Si atom -12401.371678 kJ/mol
# Density = 2.040112 g / cm^3
# Si number density = 20.447660 Si / 1000 Ang^3
#
#
#
# Elastic Constant Matrix: (Units=GPa)
#
#
# Indices 1 2 3 4 5 6 
#
# 1 92.6966 47.1791 46.3300 -19.7427 -3.0208 0.3940
# 2 47.1791 128.8223 32.9557 -10.8106 -2.9840 -6.7830
# 3 46.3300 32.9557 101.0113 -10.0285 1.4973 0.7185
# 4 -19.7427 -10.8106 -10.0285 39.1459 0.6367 -1.1887
# 5 -3.0208 -2.9840 1.4973 0.6367 38.4698 -10.9469
# 6 0.3940 -6.7830 0.7185 -1.1887 -10.9469 44.1093
#
#
#
# Elastic Compliance Matrix: (Units=1/GPa)
#
#
# Indices 1 2 3 4 5 6 
#
# 1 0.017240 -0.004287 -0.005930 0.005966 0.001071 -0.000290
# 2 -0.004287 0.009787 -0.001228 0.000265 0.000982 0.001814
# 3 -0.005930 -0.001228 0.013045 0.000012 -0.001257 -0.000660
# 4 0.005966 0.000265 0.000012 0.028651 0.000248 0.000821
# 5 0.001071 0.000982 -0.001257 0.000248 0.028242 0.007178
# 6 -0.000290 0.001814 -0.000660 0.000821 0.007178 0.024767
#
#
# Mechanical properties :
#
#
# Convention : Reuss Voigt Hill
#
# Bulk Modulus (GPa) = 58.19961 63.93997 61.06979
# Shear Modulus (GPa) = 33.25546 37.41602 35.33574
#
# Velocity S-wave (km/s) = 4.03720 4.28231 4.16156
# Velocity P-wave (km/s) = 7.08918 7.46919 7.28167
#
# Compressibility (1/GPa) = 0.01718225
#
# Stress axis : x y z
#
# Youngs Moduli (GPa) = 58.00315 102.17307 76.65654
#
# Poissons Ratio (x) = 0.43799 0.45461
# Poissons Ratio (y) = 0.24864 0.09415
# Poissons Ratio (z) = 0.34399 0.12548
#
# Static dielectric constant tensor:
#      x y z
#    x 3.897780 -0.010240 -0.100120 
#    y -0.010240 3.939500 0.216110 
#    z -0.100120 0.216110 4.021710 
# 
# 
# High freq. dielectric constant tensor:
#      x y z
#    x 1.793320 0.005500 -0.002180 
#    y 0.005500 1.814410 0.004190 
#    z -0.002180 0.004190 1.811780 
# 
# From -- ./inp_files/177379.got.cif
#   From: 2010.06.25/outbox.cif.g09.slc.cpg/sg2_89_cif.got.tgz:177379.got - 2010.06.27 13:26:56.
