data_PCOD8032865
_publ_section_title
;
Structure prediction by ZEFSAII (Michael W. Deem and Ramdas Pophale) SiO2 
 PCOD8032865
Probable space group: P -1
;
_chemical_formula_sum "Si O2"
_cell_formula_units_Z 14
_cell_length_a 12.771182
_cell_length_b 8.551952
_cell_length_c 8.802291
_cell_angle_alpha 132.203274
_cell_angle_beta 121.703399
_cell_angle_gamma 76.153712
_cell_volume 595.942172
_symmetry_space_group_name_H-M "P -1"
_symmetry_group_IT_number 2
_symmetry_cell_setting 'triclinic'
loop_
_space_group_symop_operation_xyz
x,y,z
-x,-y,-z
loop_
_atom_site_type_symbol
_atom_site_label
_atom_site_fract_x
_atom_site_fract_y
_atom_site_fract_z
Si Si1 0.373635 0.928533 0.264220
Si Si2 0.663590 0.011235 0.079142
Si Si3 0.978895 0.766081 0.901431
Si Si4 0.737157 0.684897 0.498644
Si Si5 0.193365 0.510731 0.876538
Si Si6 0.462416 0.630027 0.699184
Si Si7 0.907458 0.856484 0.222818
O O1 0.500000 0.000000 0.500000
O O2 0.273790 0.066682 0.339487
O O3 0.387433 0.957941 0.111015
O O4 0.320698 0.682417 0.107416
O O5 0.638547 0.209012 0.295614
O O6 0.809682 0.001344 0.181077
O O7 0.589270 0.788769 0.951277
O O8 0.839659 0.639904 0.670522
O O9 0.079573 0.631569 0.827957
O O10 0.989866 0.788694 0.105574
O O11 0.000000 0.000000 0.000000
O O12 0.788174 0.645725 0.347783
O O13 0.600394 0.541549 0.335349
O O14 0.165404 0.363986 0.906514
O O15 0.500000 0.500000 0.500000
O O16 0.000000 0.000000 0.500000
#
# Coordination Sequence:
#
# PCOD8032865 Si02
#       7
#     2   2   2   2   2   2   2
#     4  12  27  48  77 109 149 196 252 305 368 450
#     4  11  25  50  71 109 151 191 249 305 370 442
#     4  12  24  50  78 107 150 195 249 307 373 441
#     4  12  25  46  80 108 148 200 248 305 379 437
#     4  12  28  48  72 115 149 196 248 312 370 445
#     4  11  23  43  78 106 141 200 246 303 370 439
#     4  12  28  49  77 113 151 196 250 308 372 449
#
# _framework density 23.492211999999999
#
# number of rings (size 3 to 8) (size 9 to 14) (size 15 to 20)
#    0.000    0.286    5.714    1.714    4.000    4.000 
#    2.571    0.000    0.000    0.000    0.000    0.000 
#    0.000    0.000    0.000    0.000    0.000    0.000 
#
# Total GULP energy -173582.004957 kJ/mol
# GULP energy per Si atom -12398.714640 kJ/mol
# Density = 2.343874 g / cm^3
# Si number density = 23.492212 Si / 1000 Ang^3
#
#
#
# Elastic Constant Matrix: (Units=GPa)
#
#
# Indices 1 2 3 4 5 6 
#
# 1 125.5501 33.7487 39.3026 -0.6913 -24.7008 -0.6436
# 2 33.7487 86.1686 37.5007 5.9179 -6.1808 12.6623
# 3 39.3026 37.5007 114.4928 -0.7052 -3.0261 3.9376
# 4 -0.6913 5.9179 -0.7052 42.7721 -9.2479 2.0770
# 5 -24.7008 -6.1808 -3.0261 -9.2479 54.4496 7.0714
# 6 -0.6436 12.6623 3.9376 2.0770 7.0714 55.3667
#
#
#
# Elastic Compliance Matrix: (Units=1/GPa)
#
#
# Indices 1 2 3 4 5 6 
#
# 1 0.010399 -0.002795 -0.002538 0.001463 0.004467 0.000315
# 2 -0.002795 0.014994 -0.003847 -0.001966 0.000296 -0.003152
# 3 -0.002538 -0.003847 0.010838 0.000460 -0.000931 0.000181
# 4 0.001463 -0.001966 0.000460 0.024779 0.004819 -0.001111
# 5 0.004467 0.000296 -0.000931 0.004819 0.021567 -0.002885
# 6 0.000315 -0.003152 0.000181 -0.001111 -0.002885 0.019183
#
#
# Mechanical properties :
#
#
# Convention : Reuss Voigt Hill
#
# Bulk Modulus (GPa) = 55.96083 60.81283 58.38683
# Shear Modulus (GPa) = 39.65837 44.89499 42.27668
#
# Velocity S-wave (km/s) = 4.11317 4.37631 4.24678
# Velocity P-wave (km/s) = 6.81397 7.17486 6.99675
#
# Compressibility (1/GPa) = 0.01786964
#
# Stress axis : x y z
#
# Youngs Moduli (GPa) = 96.16086 66.69526 92.27089
#
# Poissons Ratio (x) = 0.18640 0.23420
# Poissons Ratio (y) = 0.26874 0.35501
# Poissons Ratio (z) = 0.24408 0.25661
#
# Static dielectric constant tensor:
#      x y z
#    x 4.541600 -0.092850 -0.011340 
#    y -0.092850 4.214770 0.322950 
#    z -0.011340 0.322950 4.296840 
# 
# 
# High freq. dielectric constant tensor:
#      x y z
#    x 1.954940 -0.004350 -0.001940 
#    y -0.004350 1.919070 0.025930 
#    z -0.001940 0.025930 1.928550 
# 
# From -- ./inp_files/246204.got.cif
#   From: 2010.06.25/outbox.cif.g09.slc.cpg/sg2_124_cif.got.tgz:246204.got - 2010.06.27 13:26:56.
