data_PCOD8032617
_publ_section_title
;
Structure prediction by ZEFSAII (Michael W. Deem and Ramdas Pophale) SiO2 
 PCOD8032617
Probable space group: P -1
;
_chemical_formula_sum "Si O2"
_cell_formula_units_Z 16
_cell_length_a 14.781171
_cell_length_b 14.233759
_cell_length_c 9.161636
_cell_angle_alpha 96.490104
_cell_angle_beta 47.332965
_cell_angle_gamma 135.375474
_cell_volume 696.018039
_symmetry_space_group_name_H-M "P -1"
_symmetry_group_IT_number 2
_symmetry_cell_setting 'triclinic'
loop_
_space_group_symop_operation_xyz
x,y,z
-x,-y,-z
loop_
_atom_site_type_symbol
_atom_site_label
_atom_site_fract_x
_atom_site_fract_y
_atom_site_fract_z
Si Si1 0.385056 0.381609 0.305359
Si Si2 0.629189 0.395521 0.211819
Si Si3 0.304862 0.240993 0.078080
Si Si4 0.094142 0.279895 0.852058
Si Si5 0.801848 0.331518 0.875522
Si Si6 0.645563 0.288066 0.727690
Si Si7 0.600571 0.034644 0.240490
Si Si8 0.926825 0.023655 0.206217
O O1 0.607204 0.457826 0.116502
O O2 0.483212 0.548687 0.179805
O O3 0.227430 0.288587 0.610027
O O4 0.225973 0.226389 0.322329
O O5 0.725596 0.510648 0.274504
O O6 0.367435 0.169256 0.485807
O O7 0.822188 0.443815 0.961606
O O8 0.425536 0.217909 0.945383
O O9 0.057259 0.080437 0.224053
O O10 0.862873 0.158796 0.990555
O O11 0.015851 0.185297 0.078584
O O12 0.652420 0.249197 0.875050
O O13 0.085133 0.486143 0.565269
O O14 0.639533 0.148488 0.110397
O O15 0.593091 0.168256 0.651928
O O16 0.500000 0.000000 0.500000
O O17 0.000000 0.000000 0.000000
#
# Coordination Sequence:
#
# PCOD8032617 Si02
#       8
#     2   2   2   2   2   2   2   2
#     4  11  23  43  68 102 142 178 226 279 347 408
#     4  12  24  44  71 100 142 182 225 282 344 408
#     4  11  24  44  71 106 137 181 229 282 344 416
#     4  12  25  45  69 101 143 184 224 285 344 413
#     4  11  26  48  74 101 136 187 235 289 346 406
#     4  11  25  49  74  99 139 183 235 289 346 409
#     4  12  27  47  72 104 137 182 240 289 342 413
#     4  12  24  40  68 100 140 180 224 273 347 411
#
# _framework density 22.987909999999999
#
# number of rings (size 3 to 8) (size 9 to 14) (size 15 to 20)
#    0.000    0.500    3.750    4.500    0.000    5.500 
#    0.000    0.000    0.000    0.000    0.000    0.000 
#    0.000    0.000    0.000    0.000    0.000    0.000 
#
# Total GULP energy -198465.596638 kJ/mol
# GULP energy per Si atom -12404.099790 kJ/mol
# Density = 2.293559 g / cm^3
# Si number density = 22.987910 Si / 1000 Ang^3
#
#
#
# Elastic Constant Matrix: (Units=GPa)
#
#
# Indices 1 2 3 4 5 6 
#
# 1 103.7555 30.1721 36.3077 -4.8737 8.9462 -2.8448
# 2 30.1721 134.5241 35.4962 4.9567 8.7191 10.2894
# 3 36.3077 35.4962 90.4105 1.9326 9.7941 2.5307
# 4 -4.8737 4.9567 1.9326 32.7910 2.5045 -1.5151
# 5 8.9462 8.7191 9.7941 2.5045 41.0121 0.7365
# 6 -2.8448 10.2894 2.5307 -1.5151 0.7365 36.5979
#
#
#
# Elastic Compliance Matrix: (Units=1/GPa)
#
#
# Indices 1 2 3 4 5 6 
#
# 1 0.011837 -0.001730 -0.004022 0.002451 -0.001436 0.001815
# 2 -0.001730 0.008794 -0.002576 -0.001492 -0.000741 -0.002476
# 3 -0.004022 -0.002576 0.013921 -0.000914 -0.001834 -0.000552
# 4 0.002451 -0.001492 -0.000914 0.031382 -0.001952 0.002012
# 5 -0.001436 -0.000741 -0.001834 -0.001952 0.025418 -0.000369
# 6 0.001815 -0.002476 -0.000552 0.002012 -0.000369 0.028290
#
#
# Mechanical properties :
#
#
# Convention : Reuss Voigt Hill
#
# Bulk Modulus (GPa) = 55.88000 59.18244 57.53122
# Shear Modulus (GPa) = 35.14601 37.19445 36.17023
#
# Velocity S-wave (km/s) = 3.91435 4.02680 3.97097
# Velocity P-wave (km/s) = 6.69258 6.88630 6.79013
#
# Compressibility (1/GPa) = 0.01789549
#
# Stress axis : x y z
#
# Youngs Moduli (GPa) = 84.47860 113.71692 71.83344
#
# Poissons Ratio (x) = 0.19670 0.28893
# Poissons Ratio (y) = 0.14612 0.18507
# Poissons Ratio (z) = 0.33979 0.29298
#
# Static dielectric constant tensor:
#      x y z
#    x 4.395490 0.041300 0.184360 
#    y 0.041300 4.268910 -0.023770 
#    z 0.184360 -0.023770 4.256320 
# 
# 
# High freq. dielectric constant tensor:
#      x y z
#    x 1.919460 0.000840 0.005470 
#    y 0.000840 1.919870 0.001640 
#    z 0.005470 0.001640 1.902260 
# 
# From -- ./inp_files/315389.got.cif
#   From: 2010.06.25/outbox.cif.g09.slc.cpg/sg2_158_cif.got.tgz:315389.got - 2010.06.27 13:26:56.
