data_PCOD8032517
_publ_section_title
;
Structure prediction by ZEFSAII (Michael W. Deem and Ramdas Pophale) SiO2 
 PCOD8032517
Probable space group: P -1
;
_chemical_formula_sum "Si O2"
_cell_formula_units_Z 14
_cell_length_a 11.111860
_cell_length_b 11.486308
_cell_length_c 11.158199
_cell_angle_alpha 50.197003
_cell_angle_beta 144.087346
_cell_angle_gamma 130.202218
_cell_volume 615.731694
_symmetry_space_group_name_H-M "P -1"
_symmetry_group_IT_number 2
_symmetry_cell_setting 'triclinic'
loop_
_space_group_symop_operation_xyz
x,y,z
-x,-y,-z
loop_
_atom_site_type_symbol
_atom_site_label
_atom_site_fract_x
_atom_site_fract_y
_atom_site_fract_z
Si Si1 0.575791 0.713105 0.481328
Si Si2 0.238580 0.671780 0.819468
Si Si3 0.887359 0.848201 0.433054
Si Si4 0.021839 0.377185 0.699432
Si Si5 0.247246 0.551279 0.150200
Si Si6 0.373908 0.898911 0.356361
Si Si7 0.292984 0.156197 0.966617
O O1 0.712069 0.743454 0.449115
O O2 0.338107 0.624613 0.302683
O O3 0.666607 0.598941 0.714033
O O4 0.559798 0.863259 0.446139
O O5 0.059476 0.759513 0.589360
O O6 0.145539 0.485901 0.835723
O O7 0.306185 0.680590 0.007338
O O8 0.455053 0.758119 0.867263
O O9 0.774934 0.890216 0.195140
O O10 0.000000 0.000000 0.500000
O O11 0.789182 0.265342 0.622928
O O12 0.000000 0.500000 0.500000
O O13 0.162954 0.268840 0.838705
O O14 0.000000 0.500000 0.000000
O O15 0.500000 0.000000 0.500000
O O16 0.242803 0.996010 0.109946
#
# Coordination Sequence:
#
# PCOD8032517 Si02
#       7
#     2   2   2   2   2   2   2
#     4  11  26  45  71 109 150 184 249 303 367 446
#     4  12  25  46  77 112 144 199 255 305 375 440
#     4  12  27  45  77 111 153 195 246 305 379 456
#     4  12  27  49  78 107 149 197 258 310 364 448
#     4  11  23  42  73 108 142 189 239 310 368 427
#     4  12  30  50  76 110 154 203 251 307 383 451
#     4  12  28  51  76 110 155 199 249 312 382 440
#
# _framework density 22.737176000000002
#
# number of rings (size 3 to 8) (size 9 to 14) (size 15 to 20)
#    0.000    0.286    4.286    3.429   10.000    2.286 
#    0.000    0.000    0.000    0.000    0.000    0.000 
#    0.000    0.000    0.000    0.000    0.000    0.000 
#
# Total GULP energy -173625.808374 kJ/mol
# GULP energy per Si atom -12401.843455 kJ/mol
# Density = 2.268543 g / cm^3
# Si number density = 22.737176 Si / 1000 Ang^3
#
#
#
# Elastic Constant Matrix: (Units=GPa)
#
#
# Indices 1 2 3 4 5 6 
#
# 1 89.6134 31.0843 40.8331 0.1163 7.4031 -4.5624
# 2 31.0843 121.1661 44.7259 6.4051 -2.9616 -7.8495
# 3 40.8331 44.7259 138.1535 -5.5263 -6.2203 -1.0496
# 4 0.1163 6.4051 -5.5263 46.1105 4.2344 -0.7561
# 5 7.4031 -2.9616 -6.2203 4.2344 42.5501 -6.0392
# 6 -4.5624 -7.8495 -1.0496 -0.7561 -6.0392 49.9252
#
#
#
# Elastic Compliance Matrix: (Units=1/GPa)
#
#
# Indices 1 2 3 4 5 6 
#
# 1 0.013812 -0.002319 -0.003458 0.000158 -0.003020 0.000462
# 2 -0.002319 0.010007 -0.002565 -0.001770 0.001102 0.001414
# 3 -0.003458 -0.002565 0.009213 0.001318 0.001594 -0.000313
# 4 0.000158 -0.001770 0.001318 0.022290 -0.002200 -0.000165
# 5 -0.003020 0.001102 0.001594 -0.002200 0.024970 0.002918
# 6 0.000462 0.001414 -0.000313 -0.000165 0.002918 0.020638
#
#
# Mechanical properties :
#
#
# Convention : Reuss Voigt Hill
#
# Bulk Modulus (GPa) = 61.16781 64.69107 62.92944
# Shear Modulus (GPa) = 40.63008 43.20315 41.91662
#
# Velocity S-wave (km/s) = 4.23181 4.36376 4.29829
# Velocity P-wave (km/s) = 7.13009 7.34188 7.23676
#
# Compressibility (1/GPa) = 0.01634847
#
# Stress axis : x y z
#
# Youngs Moduli (GPa) = 72.40186 99.93154 108.54676
#
# Poissons Ratio (x) = 0.23177 0.37531
# Poissons Ratio (y) = 0.16792 0.27837
# Poissons Ratio (z) = 0.25033 0.25628
#
# Static dielectric constant tensor:
#      x y z
#    x -2.439400 -5.103060 2.547650 
#    y -5.103060 0.398910 2.004800 
#    z 2.547650 2.004800 3.269560 
# 
# 
# High freq. dielectric constant tensor:
#      x y z
#    x 1.903980 0.001320 0.000110 
#    y 0.001320 1.901300 0.000940 
#    z 0.000110 0.000940 1.913680 
# 
# From -- ./inp_files/107412.got.cif
#   From: 2010.06.25/outbox.cif.g09.slc.cpg/sg2_54_cif.got.tgz:107412.got - 2010.06.27 13:26:56.
