data_PCOD8032821
_publ_section_title
;
Structure prediction by ZEFSAII (Michael W. Deem and Ramdas Pophale) SiO2 
 PCOD8032821
Probable space group: P -1
;
_chemical_formula_sum "Si O2"
_cell_formula_units_Z 16
_cell_length_a 17.788813
_cell_length_b 12.162247
_cell_length_c 9.021771
_cell_angle_alpha 51.183783
_cell_angle_beta 31.449929
_cell_angle_gamma 47.140845
_cell_volume 740.964706
_symmetry_space_group_name_H-M "P -1"
_symmetry_group_IT_number 2
_symmetry_cell_setting 'triclinic'
loop_
_space_group_symop_operation_xyz
x,y,z
-x,-y,-z
loop_
_atom_site_type_symbol
_atom_site_label
_atom_site_fract_x
_atom_site_fract_y
_atom_site_fract_z
Si Si1 0.345330 0.143553 0.124468
Si Si2 0.508828 0.643794 0.445333
Si Si3 0.186936 0.830334 0.937008
Si Si4 0.903064 0.821867 0.249930
Si Si5 0.366386 0.495223 0.334250
Si Si6 0.188190 0.806449 0.284252
Si Si7 0.173012 0.103867 0.169029
Si Si8 0.126581 0.362318 0.816946
O O1 0.248409 0.182598 0.406723
O O2 0.235314 0.103051 0.228834
O O3 0.381869 0.289512 0.887295
O O4 0.500000 0.000000 0.000000
O O5 0.500000 0.500000 0.500000
O O6 0.338576 0.772245 0.629047
O O7 0.577888 0.593580 0.533257
O O8 0.128541 0.011239 0.902773
O O9 0.235246 0.753433 0.081182
O O10 0.053861 0.777142 0.137845
O O11 0.942767 0.699152 0.153955
O O12 0.260744 0.670049 0.393348
O O13 0.262447 0.417678 0.486326
O O14 0.500000 0.500000 0.000000
O O15 0.006704 0.861400 0.554395
O O16 0.254124 0.937022 0.105418
O O17 0.209912 0.225374 0.904193
O O18 0.000000 0.500000 0.000000
#
# Coordination Sequence:
#
# PCOD8032821 Si02
#       8
#     2   2   2   2   2   2   2   2
#     4  12  26  47  70 108 144 186 239 290 359 433
#     4  12  29  46  69 103 150 189 231 300 368 421
#     4  11  23  47  71 109 143 185 242 292 359 424
#     4  11  26  44  78 106 144 188 240 299 351 430
#     4  12  27  45  69 102 144 183 234 293 358 423
#     4  11  23  43  74 104 140 184 238 287 357 416
#     4  11  24  44  73 103 140 185 236 295 343 427
#     4  12  26  47  72 108 141 186 244 294 353 420
#
# _framework density 21.59347
#
# number of rings (size 3 to 8) (size 9 to 14) (size 15 to 20)
#    0.000    0.500    7.500    0.000    5.250    0.000 
#    0.000    4.375    0.000    0.000    0.000    0.000 
#    0.000    0.000    0.000    0.000    0.000    0.000 
#
# Total GULP energy -198428.612861 kJ/mol
# GULP energy per Si atom -12401.788304 kJ/mol
# Density = 2.154432 g / cm^3
# Si number density = 21.593470 Si / 1000 Ang^3
#
#
#
# Elastic Constant Matrix: (Units=GPa)
#
#
# Indices 1 2 3 4 5 6 
#
# 1 84.7848 55.0788 33.0069 0.6398 -1.6746 12.5813
# 2 55.0788 127.3039 37.6411 -12.6409 -10.7280 14.1254
# 3 33.0069 37.6411 124.9842 -10.0940 -4.6909 9.1213
# 4 0.6398 -12.6409 -10.0940 37.0302 -0.9211 3.9770
# 5 -1.6746 -10.7280 -4.6909 -0.9211 33.7370 -2.8290
# 6 12.5813 14.1254 9.1213 3.9770 -2.8290 40.9367
#
#
#
# Elastic Compliance Matrix: (Units=1/GPa)
#
#
# Indices 1 2 3 4 5 6 
#
# 1 0.017822 -0.007158 -0.002733 -0.003309 -0.002048 -0.002219
# 2 -0.007158 0.012219 -0.001179 0.004264 0.003320 -0.001938
# 3 -0.002733 -0.001179 0.009369 0.002326 0.000771 -0.001013
# 4 -0.003309 0.004264 0.002326 0.029600 0.002012 -0.003709
# 5 -0.002048 0.003320 0.000771 0.002012 0.030862 0.001249
# 6 -0.002219 -0.001938 -0.001013 -0.003709 0.001249 0.026451
#
#
# Mechanical properties :
#
#
# Convention : Reuss Voigt Hill
#
# Bulk Modulus (GPa) = 57.90477 65.39181 61.64829
# Shear Modulus (GPa) = 32.42115 36.43053 34.42584
#
# Velocity S-wave (km/s) = 3.87904 4.11190 3.99716
# Velocity P-wave (km/s) = 6.85103 7.27272 7.06503
#
# Compressibility (1/GPa) = 0.01726973
#
# Stress axis : x y z
#
# Youngs Moduli (GPa) = 56.10974 81.83960 106.73820
#
# Poissons Ratio (x) = 0.58578 0.29173
# Poissons Ratio (y) = 0.40162 0.12587
# Poissons Ratio (z) = 0.15336 0.09651
#
# Static dielectric constant tensor:
#      x y z
#    x 4.116440 -0.003350 -0.043700 
#    y -0.003350 3.923820 -0.181440 
#    z -0.043700 -0.181440 4.030050 
# 
# 
# High freq. dielectric constant tensor:
#      x y z
#    x 1.849830 -0.003370 -0.004740 
#    y -0.003370 1.852780 -0.010450 
#    z -0.004740 -0.010450 1.857620 
# 
# From -- ./inp_files/206463.got.cif
#   From: 2010.06.25/outbox.cif.g09.slc.cpg/sg2_104_cif.got.tgz:206463.got - 2010.06.27 13:26:56.
