data_PCOD8032179
_publ_section_title
;
Structure prediction by ZEFSAII (Michael W. Deem and Ramdas Pophale) SiO2 
 PCOD8032179
Probable space group: P -1
;
_chemical_formula_sum "Si O2"
_cell_formula_units_Z 12
_cell_length_a 15.644564
_cell_length_b 10.280121
_cell_length_c 12.934357
_cell_angle_alpha 34.711247
_cell_angle_beta 154.049834
_cell_angle_gamma 136.077440
_cell_volume 516.859593
_symmetry_space_group_name_H-M "P -1"
_symmetry_group_IT_number 2
_symmetry_cell_setting 'triclinic'
loop_
_space_group_symop_operation_xyz
x,y,z
-x,-y,-z
loop_
_atom_site_type_symbol
_atom_site_label
_atom_site_fract_x
_atom_site_fract_y
_atom_site_fract_z
Si Si1 0.570640 0.222540 0.306741
Si Si2 0.396928 0.416165 0.719012
Si Si3 0.198265 0.125926 0.850036
Si Si4 0.113496 0.635825 0.117871
Si Si5 0.785721 0.384245 0.239876
Si Si6 0.131277 0.180037 0.074306
O O1 0.601673 0.346533 0.368354
O O2 0.662196 0.383205 0.213770
O O3 0.666332 0.961209 0.581933
O O4 0.341257 0.192746 0.054449
O O5 0.265933 0.229579 0.748585
O O6 0.302758 0.476363 0.466559
O O7 0.625351 0.313466 0.025235
O O8 0.973838 0.212384 0.572599
O O9 0.197410 0.854837 0.012863
O O10 0.000000 0.500000 0.000000
O O11 0.968402 0.698504 0.014065
O O12 0.847457 0.633753 0.113795
O O13 0.000000 0.000000 0.000000
#
# Coordination Sequence:
#
# PCOD8032179 Si02
#       6
#     2   2   2   2   2   2
#     4  11  24  39  70 108 135 172 221 282 345 392
#     4  11  25  42  68 105 135 179 222 279 340 397
#     4  11  23  43  69  98 138 175 222 280 339 397
#     4  12  27  47  68  97 139 186 226 273 334 405
#     4  11  23  41  68 105 138 168 222 284 337 401
#     4  12  24  41  71 101 136 180 224 276 342 389
#
# _framework density 23.217137000000001
#
# number of rings (size 3 to 8) (size 9 to 14) (size 15 to 20)
#    0.000    0.667    5.000    3.000    4.667    5.333 
#    0.000    4.167    0.000    0.000    0.000    0.000 
#    0.000    0.000    0.000    0.000    0.000    0.000 
#
# Total GULP energy -148774.988468 kJ/mol
# GULP energy per Si atom -12397.915706 kJ/mol
# Density = 2.316429 g / cm^3
# Si number density = 23.217137 Si / 1000 Ang^3
#
#
#
# Elastic Constant Matrix: (Units=GPa)
#
#
# Indices 1 2 3 4 5 6 
#
# 1 68.0174 54.6093 36.8068 7.3765 1.1177 10.5785
# 2 54.6093 140.1115 52.1036 19.9251 -19.0398 10.7749
# 3 36.8068 52.1036 172.0417 35.8485 -4.3926 2.9807
# 4 7.3765 19.9251 35.8485 42.8962 11.4905 -6.9155
# 5 1.1177 -19.0398 -4.3926 11.4905 40.6940 4.5434
# 6 10.5785 10.7749 2.9807 -6.9155 4.5434 34.6486
#
#
#
# Elastic Compliance Matrix: (Units=1/GPa)
#
#
# Indices 1 2 3 4 5 6 
#
# 1 0.024107 -0.009465 -0.003319 0.004350 -0.006406 -0.002423
# 2 -0.009465 0.013532 -0.000184 -0.007609 0.009169 -0.004024
# 3 -0.003319 -0.000184 0.008198 -0.007268 0.003109 -0.001493
# 4 0.004350 -0.007609 -0.007268 0.038481 -0.016616 0.011523
# 5 -0.006406 0.009169 0.003109 -0.016616 0.035081 -0.009079
# 6 -0.002423 -0.004024 -0.001493 0.011523 -0.009079 0.034471
#
#
# Mechanical properties :
#
#
# Convention : Reuss Voigt Hill
#
# Bulk Modulus (GPa) = 50.24610 74.13447 62.19028
# Shear Modulus (GPa) = 26.81824 39.42447 33.12136
#
# Velocity S-wave (km/s) = 3.40237 4.12524 3.78112
# Velocity P-wave (km/s) = 6.09292 7.39530 6.77547
#
# Compressibility (1/GPa) = 0.01990204
#
# Stress axis : x y z
#
# Youngs Moduli (GPa) = 41.48093 73.89912 121.97815
#
# Poissons Ratio (x) = 0.69942 0.40487
# Poissons Ratio (y) = 0.39260 0.02245
# Poissons Ratio (z) = 0.13768 0.01360
#
# Static dielectric constant tensor:
#      x y z
#    x 3.786220 0.631230 -0.166010 
#    y 0.631230 3.948790 0.130120 
#    z -0.166010 0.130120 4.953960 
# 
# 
# High freq. dielectric constant tensor:
#      x y z
#    x 1.897130 0.046330 -0.007900 
#    y 0.046330 1.894990 0.004590 
#    z -0.007900 0.004590 1.955730 
# 
# From -- ./inp_files/271676.got.cif
#   From: 2010.06.25/outbox.cif.g09.slc.cpg/sg2_136_cif.got.tgz:271676.got - 2010.06.27 13:26:56.
