data_PCOD8032811
_publ_section_title
;
Structure prediction by ZEFSAII (Michael W. Deem and Ramdas Pophale) SiO2 
 PCOD8032811
Probable space group: P -1
;
_chemical_formula_sum "Si O2"
_cell_formula_units_Z 14
_cell_length_a 14.022590
_cell_length_b 16.959186
_cell_length_c 9.389951
_cell_angle_alpha 51.097571
_cell_angle_beta 47.212496
_cell_angle_gamma 22.034549
_cell_volume 614.802317
_symmetry_space_group_name_H-M "P -1"
_symmetry_group_IT_number 2
_symmetry_cell_setting 'triclinic'
loop_
_space_group_symop_operation_xyz
x,y,z
-x,-y,-z
loop_
_atom_site_type_symbol
_atom_site_label
_atom_site_fract_x
_atom_site_fract_y
_atom_site_fract_z
Si Si1 0.040296 0.389702 0.267383
Si Si2 0.175444 0.879619 0.660073
Si Si3 0.654475 0.609304 0.667282
Si Si4 0.610076 0.312751 0.636158
Si Si5 0.497718 0.894334 0.692870
Si Si6 0.053911 0.742904 0.034081
Si Si7 0.934512 0.403635 0.062281
O O1 0.874842 0.459710 0.489019
O O2 0.012654 0.328830 0.233346
O O3 0.353256 0.190453 0.212386
O O4 0.943487 0.568773 0.122602
O O5 0.353486 0.810938 0.679010
O O6 0.316724 0.797494 0.457044
O O7 0.180847 0.757183 0.827344
O O8 0.876596 0.133593 0.670058
O O9 0.671344 0.699032 0.642014
O O10 0.719061 0.471199 0.862691
O O11 0.500000 0.500000 0.500000
O O12 0.389220 0.395190 0.849132
O O13 0.500000 0.000000 0.500000
O O14 0.197912 0.057848 0.836078
O O15 0.936523 0.758826 0.000999
#
# Coordination Sequence:
#
# PCOD8032811 Si02
#       7
#     2   2   2   2   2   2   2
#     4  11  23  44  71 100 137 185 231 284 345 404
#     4  11  26  42  73 107 130 185 234 279 352 415
#     4  12  25  47  70 100 148 182 228 287 346 411
#     4  11  23  47  71  98 144 174 227 296 346 404
#     4  12  25  43  68 100 140 185 233 278 344 413
#     4  12  25  45  71 103 143 181 231 288 343 413
#     4  11  23  43  73  99 136 180 228 294 339 403
#
# _framework density 22.771547999999999
#
# number of rings (size 3 to 8) (size 9 to 14) (size 15 to 20)
#    0.000    0.571    5.714    2.571    0.000    3.429 
#    0.000    0.000    0.000    0.000    0.000    0.000 
#    0.000    0.000    0.000    0.000    0.000    0.000 
#
# Total GULP energy -173581.134664 kJ/mol
# GULP energy per Si atom -12398.652476 kJ/mol
# Density = 2.271972 g / cm^3
# Si number density = 22.771548 Si / 1000 Ang^3
#
#
#
# Elastic Constant Matrix: (Units=GPa)
#
#
# Indices 1 2 3 4 5 6 
#
# 1 93.2722 32.8828 19.2792 -10.2430 17.3325 -19.3679
# 2 32.8828 94.9462 20.5192 -18.6357 14.2194 -14.3428
# 3 19.2792 20.5192 91.6093 -4.6120 2.9276 4.9070
# 4 -10.2430 -18.6357 -4.6120 38.5590 0.9863 2.7881
# 5 17.3325 14.2194 2.9276 0.9863 37.9011 -4.6339
# 6 -19.3679 -14.3428 4.9070 2.7881 -4.6339 34.9661
#
#
#
# Elastic Compliance Matrix: (Units=1/GPa)
#
#
# Indices 1 2 3 4 5 6 
#
# 1 0.014612 -0.002346 -0.002650 0.002070 -0.004832 0.006698
# 2 -0.002346 0.014152 -0.002478 0.005733 -0.003717 0.003903
# 3 -0.002650 -0.002478 0.012217 -0.000162 0.000701 -0.004093
# 4 0.002070 0.005733 -0.000162 0.029282 -0.003763 0.000687
# 5 -0.004832 -0.003717 0.000701 -0.003763 0.030030 -0.000020
# 6 0.006698 0.003903 -0.004093 0.000687 -0.000020 0.034427
#
#
# Mechanical properties :
#
#
# Convention : Reuss Voigt Hill
#
# Bulk Modulus (GPa) = 38.41144 47.24334 42.82739
# Shear Modulus (GPa) = 31.57642 36.09501 33.83571
#
# Velocity S-wave (km/s) = 3.72783 3.98564 3.85889
# Velocity P-wave (km/s) = 5.95262 6.47859 6.22117
#
# Compressibility (1/GPa) = 0.02603391
#
# Stress axis : x y z
#
# Youngs Moduli (GPa) = 68.43556 70.66208 81.85192
#
# Poissons Ratio (x) = 0.16579 0.21689
# Poissons Ratio (y) = 0.16056 0.20281
# Poissons Ratio (z) = 0.18134 0.17508
#
# Static dielectric constant tensor:
#      x y z
#    x 4.191540 -0.270380 0.187990 
#    y -0.270380 4.311280 0.251600 
#    z 0.187990 0.251600 4.356640 
# 
# 
# High freq. dielectric constant tensor:
#      x y z
#    x 1.897640 -0.008910 0.007550 
#    y -0.008910 1.886550 0.002600 
#    z 0.007550 0.002600 1.912320 
# 
# From -- ./inp_files/28467.got.cif
#   From: 2010.06.25/outbox.cif.g09.slc.cpg/sg2_15_cif.got.tgz:28467.got - 2010.06.27 13:26:56.
