data_PCOD8032380
_publ_section_title
;
Structure prediction by ZEFSAII (Michael W. Deem and Ramdas Pophale) SiO2 
 PCOD8032380
Probable space group: P -1
;
_chemical_formula_sum "Si O2"
_cell_formula_units_Z 16
_cell_length_a 21.926590
_cell_length_b 5.152744
_cell_length_c 9.530143
_cell_angle_alpha 64.662441
_cell_angle_beta 131.079325
_cell_angle_gamma 113.978147
_cell_volume 721.076322
_symmetry_space_group_name_H-M "P -1"
_symmetry_group_IT_number 2
_symmetry_cell_setting 'triclinic'
loop_
_space_group_symop_operation_xyz
x,y,z
-x,-y,-z
loop_
_atom_site_type_symbol
_atom_site_label
_atom_site_fract_x
_atom_site_fract_y
_atom_site_fract_z
Si Si1 0.361314 0.553691 0.198990
Si Si2 0.377592 0.550047 0.715239
Si Si3 0.037747 0.395665 0.720550
Si Si4 0.198748 0.245797 0.575540
Si Si5 0.025751 0.283186 0.202868
Si Si6 0.524805 0.306514 0.901099
Si Si7 0.200927 0.585832 0.786291
Si Si8 0.593448 0.058173 0.571549
O O1 0.443622 0.711589 0.205126
O O2 0.359020 0.674327 0.324348
O O3 0.361594 0.212195 0.271355
O O4 0.287829 0.638919 0.980023
O O5 0.285002 0.373867 0.599996
O O6 0.441816 0.432288 0.737764
O O7 0.388544 0.870027 0.584110
O O8 0.404650 0.527204 0.923955
O O9 0.135489 0.438221 0.837106
O O10 0.000000 0.500000 0.500000
O O11 0.017310 0.634094 0.741982
O O12 0.004917 0.061388 0.796253
O O13 0.124892 0.342341 0.353203
O O14 0.198493 0.367253 0.703569
O O15 0.183462 0.895388 0.633644
O O16 0.000000 0.500000 0.000000
O O17 0.500000 0.000000 0.000000
O O18 0.500000 0.000000 0.500000
#
# Coordination Sequence:
#
# PCOD8032380 Si02
#       8
#     2   2   2   2   2   2   2   2
#     4  12  26  44  68  99 135 176 229 287 337 398
#     4  11  26  40  68  98 134 181 228 279 350 403
#     4  12  23  46  75 103 133 196 233 275 353 425
#     4  12  24  44  68 105 138 180 229 297 345 408
#     4  12  26  45  73 107 148 182 231 292 356 425
#     4  11  23  42  68  95 129 182 231 275 328 418
#     4  12  25  43  74 103 137 174 243 290 333 414
#     4  12  26  46  67  97 139 185 223 283 347 411
#
# _framework density 22.189053000000001
#
# number of rings (size 3 to 8) (size 9 to 14) (size 15 to 20)
#    0.000    0.250    5.000    4.125    3.500    2.000 
#    0.000    0.000    0.000    0.000    0.000    0.000 
#    0.000    0.000    0.000    0.000    0.000    0.000 
#
# Total GULP energy -198345.785285 kJ/mol
# GULP energy per Si atom -12396.611580 kJ/mol
# Density = 2.213855 g / cm^3
# Si number density = 22.189053 Si / 1000 Ang^3
#
#
#
# Elastic Constant Matrix: (Units=GPa)
#
#
# Indices 1 2 3 4 5 6 
#
# 1 101.1559 25.9078 29.6147 3.7613 10.6610 12.7494
# 2 25.9078 93.4789 13.8794 -11.9053 9.2589 4.4873
# 3 29.6147 13.8794 97.0563 -18.5365 17.6138 2.0393
# 4 3.7613 -11.9053 -18.5365 33.9487 5.0566 -1.0911
# 5 10.6610 9.2589 17.6138 5.0566 37.0343 4.6213
# 6 12.7494 4.4873 2.0393 -1.0911 4.6213 46.1290
#
#
#
# Elastic Compliance Matrix: (Units=1/GPa)
#
#
# Indices 1 2 3 4 5 6 
#
# 1 0.012558 -0.003374 -0.004323 -0.005089 0.000367 -0.003109
# 2 -0.003374 0.012565 0.000967 0.005826 -0.003444 0.000150
# 3 -0.004323 0.000967 0.014743 0.010041 -0.007561 0.001444
# 4 -0.005089 0.005826 0.010041 0.039172 -0.010411 0.002365
# 5 0.000367 -0.003444 -0.007561 -0.010411 0.033149 -0.002999
# 6 -0.003109 0.000150 0.001444 0.002365 -0.002999 0.022816
#
#
# Mechanical properties :
#
#
# Convention : Reuss Voigt Hill
#
# Bulk Modulus (GPa) = 37.86763 47.83277 42.85020
# Shear Modulus (GPa) = 31.79373 38.24167 35.01770
#
# Velocity S-wave (km/s) = 3.78942 4.15595 3.97691
# Velocity P-wave (km/s) = 6.02073 6.68079 6.35933
#
# Compressibility (1/GPa) = 0.02640778
#
# Stress axis : x y z
#
# Youngs Moduli (GPa) = 79.63263 79.58598 67.82736
#
# Poissons Ratio (x) = 0.26851 0.29319
# Poissons Ratio (y) = 0.26867 -0.06561
# Poissons Ratio (z) = 0.34421 -0.07698
#
# Static dielectric constant tensor:
#      x y z
#    x 4.033010 0.045560 0.376500 
#    y 0.045560 4.052440 -0.097490 
#    z 0.376500 -0.097490 3.511750 
# 
# 
# High freq. dielectric constant tensor:
#      x y z
#    x 1.879640 -0.005250 0.006560 
#    y -0.005250 1.878930 -0.006360 
#    z 0.006560 -0.006360 1.879910 
# 
# From -- ./inp_files/340204.got.cif
#   From: 2010.06.25/outbox.cif.g09.slc.cpg/sg2_171_cif.got.tgz:340204.got - 2010.06.27 13:26:56.
