data_PCOD8032997
_publ_section_title
;
Structure prediction by ZEFSAII (Michael W. Deem and Ramdas Pophale) SiO2 
 PCOD8032997
Probable space group: P -1
;
_chemical_formula_sum "Si O2"
_cell_formula_units_Z 16
_cell_length_a 12.163921
_cell_length_b 8.393592
_cell_length_c 11.135839
_cell_angle_alpha 112.706182
_cell_angle_beta 84.702711
_cell_angle_gamma 50.425245
_cell_volume 711.113743
_symmetry_space_group_name_H-M "P -1"
_symmetry_group_IT_number 2
_symmetry_cell_setting 'triclinic'
loop_
_space_group_symop_operation_xyz
x,y,z
-x,-y,-z
loop_
_atom_site_type_symbol
_atom_site_label
_atom_site_fract_x
_atom_site_fract_y
_atom_site_fract_z
Si Si1 0.816583 0.444024 0.798078
Si Si2 0.418369 0.432933 0.335446
Si Si3 0.874556 0.120095 0.377779
Si Si4 0.891906 0.492146 0.440709
Si Si5 0.750710 0.526690 0.091876
Si Si6 0.038314 0.347171 0.128112
Si Si7 0.531422 0.937447 0.618371
Si Si8 0.246819 0.812837 0.850556
O O1 0.674013 0.583827 0.756378
O O2 0.865775 0.585750 0.849663
O O3 0.748398 0.456494 0.936515
O O4 0.975407 0.153572 0.658209
O O5 0.292641 0.719370 0.484728
O O6 0.490755 0.233567 0.379495
O O7 0.562420 0.373302 0.241416
O O8 0.909821 0.282598 0.433989
O O9 0.851384 0.081824 0.233160
O O10 0.717466 0.773247 0.566932
O O11 0.000000 0.500000 0.500000
O O12 0.932056 0.432852 0.280676
O O13 0.780673 0.335744 0.123810
O O14 0.899389 0.495395 0.081403
O O15 0.579374 0.811666 0.217805
O O16 0.174765 0.046542 0.007560
O O17 0.500000 0.000000 0.500000
#
# Coordination Sequence:
#
# PCOD8032997 Si02
#       8
#     2   2   2   2   2   2   2   2
#     4  12  27  43  71 102 142 183 230 284 349 406
#     4  11  27  46  66 105 140 178 228 291 346 403
#     4  11  23  46  69  99 137 181 232 280 344 414
#     4  11  24  43  71 102 139 179 225 288 348 404
#     4  12  24  43  70 102 136 184 236 278 341 411
#     4  12  23  43  69 102 137 179 234 283 338 410
#     4  11  23  44  70  97 137 176 229 280 339 411
#     4  12  25  44  74 100 138 182 234 288 334 412
#
# _framework density 22.499915999999999
#
# number of rings (size 3 to 8) (size 9 to 14) (size 15 to 20)
#    0.000    0.500    3.750    5.250    1.750    5.500 
#    0.000    0.000    0.000    0.000    0.000    0.000 
#    0.000    0.000    0.000    0.000    0.000    0.000 
#
# Total GULP energy -198422.547124 kJ/mol
# GULP energy per Si atom -12401.409195 kJ/mol
# Density = 2.244871 g / cm^3
# Si number density = 22.499916 Si / 1000 Ang^3
#
#
#
# Elastic Constant Matrix: (Units=GPa)
#
#
# Indices 1 2 3 4 5 6 
#
# 1 113.2794 29.6033 17.3074 5.8486 8.5397 -4.8981
# 2 29.6033 79.5512 22.1811 7.6266 6.4700 -5.9631
# 3 17.3074 22.1811 117.5972 19.5063 -7.8240 -0.3100
# 4 5.8486 7.6266 19.5063 50.3243 0.3580 -0.3527
# 5 8.5397 6.4700 -7.8240 0.3580 35.7191 -1.4686
# 6 -4.8981 -5.9631 -0.3100 -0.3527 -1.4686 16.4421
#
#
#
# Elastic Compliance Matrix: (Units=1/GPa)
#
#
# Indices 1 2 3 4 5 6 
#
# 1 0.010033 -0.003155 -0.000960 -0.000290 -0.001967 0.001645
# 2 -0.003155 0.014994 -0.002348 -0.000950 -0.002292 0.004229
# 3 -0.000960 -0.002348 0.009831 -0.003369 0.002810 -0.000773
# 4 -0.000290 -0.000950 -0.003369 0.021359 -0.000715 -0.000100
# 5 -0.001967 -0.002292 0.002810 -0.000715 0.029556 0.001260
# 6 0.001645 0.004229 -0.000773 -0.000100 0.001260 0.062939
#
#
# Mechanical properties :
#
#
# Convention : Reuss Voigt Hill
#
# Bulk Modulus (GPa) = 45.59267 49.84571 47.71919
# Shear Modulus (GPa) = 29.59483 36.58617 33.09050
#
# Velocity S-wave (km/s) = 3.63068 4.03682 3.83912
# Velocity P-wave (km/s) = 6.15494 6.62795 6.39582
#
# Compressibility (1/GPa) = 0.02193335
#
# Stress axis : x y z
#
# Youngs Moduli (GPa) = 99.66857 66.69518 101.71464
#
# Poissons Ratio (x) = 0.21042 0.09764
# Poissons Ratio (y) = 0.31444 0.23879
# Poissons Ratio (z) = 0.09568 0.15657
#
# Static dielectric constant tensor:
#      x y z
#    x 4.006080 -0.124760 -0.199860 
#    y -0.124760 4.417440 -0.099020 
#    z -0.199860 -0.099020 4.231200 
# 
# 
# High freq. dielectric constant tensor:
#      x y z
#    x 1.884030 -0.003540 -0.009630 
#    y -0.003540 1.883510 -0.000460 
#    z -0.009630 -0.000460 1.912810 
# 
# From -- ./inp_files/185072.got.cif
#   From: 2010.06.25/outbox.cif.g09.slc.cpg/sg2_93_cif.got.tgz:185072.got - 2010.06.27 13:26:56.
