data_PCOD8032248
_publ_section_title
;
Structure prediction by ZEFSAII (Michael W. Deem and Ramdas Pophale) SiO2 
 PCOD8032248
Probable space group: P -1
;
_chemical_formula_sum "Si O2"
_cell_formula_units_Z 16
_cell_length_a 9.388057
_cell_length_b 14.845044
_cell_length_c 8.709369
_cell_angle_alpha 98.595926
_cell_angle_beta 86.777442
_cell_angle_gamma 37.776049
_cell_volume 704.069986
_symmetry_space_group_name_H-M "P -1"
_symmetry_group_IT_number 2
_symmetry_cell_setting 'triclinic'
loop_
_space_group_symop_operation_xyz
x,y,z
-x,-y,-z
loop_
_atom_site_type_symbol
_atom_site_label
_atom_site_fract_x
_atom_site_fract_y
_atom_site_fract_z
Si Si1 0.522681 0.764555 0.932264
Si Si2 0.291391 0.196402 0.848160
Si Si3 0.175941 0.822246 0.449925
Si Si4 0.364181 0.355662 0.433335
Si Si5 0.806471 0.884973 0.649759
Si Si6 0.361658 0.667438 0.065785
Si Si7 0.125742 0.114748 0.022454
Si Si8 0.098455 0.332631 0.584271
O O1 0.577569 0.734709 0.741758
O O2 0.266839 0.948781 0.009492
O O3 0.730039 0.716215 0.995339
O O4 0.521942 0.665087 0.982725
O O5 0.273344 0.104977 0.897795
O O6 0.084664 0.318031 0.763570
O O7 0.554406 0.071286 0.718394
O O8 0.394612 0.725282 0.531479
O O9 0.291266 0.732377 0.258851
O O10 0.008839 0.827459 0.518920
O O11 0.000000 0.000000 0.500000
O O12 0.228272 0.363304 0.568314
O O13 0.174235 0.530774 0.433124
O O14 0.743015 0.822556 0.556936
O O15 0.914264 0.813193 0.795166
O O16 0.126428 0.782660 0.006125
O O17 0.500000 0.500000 0.000000
#
# Coordination Sequence:
#
# PCOD8032248 Si02
#       8
#     2   2   2   2   2   2   2   2
#     4  11  23  45  69  96 140 182 235 280 348 415
#     4  11  23  43  72 103 135 179 238 284 346 412
#     4  12  25  46  73 100 137 185 237 286 343 416
#     4  11  25  42  67  97 139 182 222 279 352 409
#     4  11  23  41  71  97 135 175 230 285 339 407
#     4  12  28  44  69 105 145 183 234 289 354 416
#     4  11  23  44  71 102 137 185 231 287 347 418
#     4  11  24  41  63 101 139 176 224 283 344 411
#
# _framework density 22.725014000000002
#
# number of rings (size 3 to 8) (size 9 to 14) (size 15 to 20)
#    0.000    0.750    0.000    9.000    5.250    1.000 
#    0.000    0.000    0.000    0.000    0.000    0.000 
#    0.000    0.000    0.000    0.000    0.000    0.000 
#
# Total GULP energy -198415.894265 kJ/mol
# GULP energy per Si atom -12400.993392 kJ/mol
# Density = 2.267329 g / cm^3
# Si number density = 22.725014 Si / 1000 Ang^3
#
#
#
# Elastic Constant Matrix: (Units=GPa)
#
#
# Indices 1 2 3 4 5 6 
#
# 1 70.6208 31.1421 7.6196 -4.4138 -4.0660 13.8225
# 2 31.1421 106.7810 35.0070 -12.3048 6.7310 12.3842
# 3 7.6196 35.0070 117.0165 -12.7409 13.3276 8.3016
# 4 -4.4138 -12.3048 -12.7409 36.9702 -1.5271 3.4483
# 5 -4.0660 6.7310 13.3276 -1.5271 39.2102 -1.6896
# 6 13.8225 12.3842 8.3016 3.4483 -1.6896 36.8424
#
#
#
# Elastic Compliance Matrix: (Units=1/GPa)
#
#
# Indices 1 2 3 4 5 6 
#
# 1 0.017352 -0.004630 0.000497 0.001269 0.002256 -0.005081
# 2 -0.004630 0.012273 -0.002738 0.002717 -0.001641 -0.002101
# 3 0.000497 -0.002738 0.010090 0.002685 -0.002886 -0.001923
# 4 0.001269 0.002717 0.002685 0.029462 -0.000305 -0.004766
# 5 0.002256 -0.001641 -0.002886 -0.000305 0.027058 0.001625
# 6 -0.005081 -0.002101 -0.001923 -0.004766 0.001625 0.030709
#
#
# Mechanical properties :
#
#
# Convention : Reuss Voigt Hill
#
# Bulk Modulus (GPa) = 38.50285 49.10617 43.80451
# Shear Modulus (GPa) = 33.47942 37.31455 35.39699
#
# Velocity S-wave (km/s) = 3.84245 4.05656 3.95095
# Velocity P-wave (km/s) = 6.05521 6.60278 6.33491
#
# Compressibility (1/GPa) = 0.02597210
#
# Stress axis : x y z
#
# Youngs Moduli (GPa) = 57.63025 81.47802 99.10534
#
# Poissons Ratio (x) = 0.37726 -0.04926
# Poissons Ratio (y) = 0.26684 0.27140
# Poissons Ratio (z) = -0.02864 0.22313
#
# Static dielectric constant tensor:
#      x y z
#    x 4.083010 0.021580 0.118820 
#    y 0.021580 4.172390 -0.139970 
#    z 0.118820 -0.139970 4.309680 
# 
# 
# High freq. dielectric constant tensor:
#      x y z
#    x 1.899410 0.000730 0.007310 
#    y 0.000730 1.895960 -0.010230 
#    z 0.007310 -0.010230 1.911500 
# 
# From -- ./inp_files/207757.got.cif
#   From: 2010.06.25/outbox.cif.g09.slc.cpg/sg2_104_cif.got.tgz:207757.got - 2010.06.27 13:26:56.
