data_PCOD8032192
_publ_section_title
;
Structure prediction by ZEFSAII (Michael W. Deem and Ramdas Pophale) SiO2 
 PCOD8032192
Probable space group: P -1
;
_chemical_formula_sum "Si O2"
_cell_formula_units_Z 12
_cell_length_a 9.789980
_cell_length_b 10.873432
_cell_length_c 7.137273
_cell_angle_alpha 38.731302
_cell_angle_beta 102.199785
_cell_angle_gamma 92.913396
_cell_volume 456.480009
_symmetry_space_group_name_H-M "P -1"
_symmetry_group_IT_number 2
_symmetry_cell_setting 'triclinic'
loop_
_space_group_symop_operation_xyz
x,y,z
-x,-y,-z
loop_
_atom_site_type_symbol
_atom_site_label
_atom_site_fract_x
_atom_site_fract_y
_atom_site_fract_z
Si Si1 0.383062 0.863500 0.936319
Si Si2 0.352654 0.616909 0.892266
Si Si3 0.339746 0.973590 0.200534
Si Si4 0.074743 0.518841 0.792012
Si Si5 0.963949 0.807228 0.096025
Si Si6 0.086809 0.100939 0.551553
O O1 0.359802 0.660120 0.066868
O O2 0.530590 0.915340 0.846153
O O3 0.254565 0.047001 0.629686
O O4 0.381645 0.834140 0.194770
O O5 0.313498 0.836284 0.528688
O O6 0.231656 0.491983 0.957766
O O7 0.500000 0.500000 0.000000
O O8 0.197537 0.140456 0.932948
O O9 0.043781 0.300773 0.983554
O O10 0.066294 0.650485 0.443128
O O11 0.959328 0.654419 0.741675
O O12 0.040095 0.001865 0.853063
O O13 0.000000 0.000000 0.500000
#
# Coordination Sequence:
#
# PCOD8032192 Si02
#       6
#     2   2   2   2   2   2
#     4  11  24  41  69 101 129 179 224 272 339 395
#     4  12  25  44  66  97 140 177 223 276 335 398
#     4  11  23  45  70  95 136 180 219 276 337 393
#     4  11  23  41  69 100 125 178 225 266 333 398
#     4  11  23  43  72  95 134 177 220 275 334 395
#     4  12  22  42  67  98 138 170 221 279 329 395
#
# _framework density 26.288117
#
# number of rings (size 3 to 8) (size 9 to 14) (size 15 to 20)
#    0.000    0.667    5.000    3.000    0.000    2.667 
#    3.000    0.000    0.000    0.000    0.000    0.000 
#    0.000    0.000    0.000    0.000    0.000    0.000 
#
# Total GULP energy -148872.907539 kJ/mol
# GULP energy per Si atom -12406.075628 kJ/mol
# Density = 2.622828 g / cm^3
# Si number density = 26.288117 Si / 1000 Ang^3
#
#
#
# Elastic Constant Matrix: (Units=GPa)
#
#
# Indices 1 2 3 4 5 6 
#
# 1 164.2121 51.7087 37.7427 -7.3395 33.5022 15.0329
# 2 51.7087 177.6467 20.2429 -6.8061 17.0106 4.5726
# 3 37.7427 20.2429 72.9935 -22.3157 7.0758 12.5340
# 4 -7.3395 -6.8061 -22.3157 43.5711 -2.1274 4.2941
# 5 33.5022 17.0106 7.0758 -2.1274 46.9703 2.4900
# 6 15.0329 4.5726 12.5340 4.2941 2.4900 50.4716
#
#
#
# Elastic Compliance Matrix: (Units=1/GPa)
#
#
# Indices 1 2 3 4 5 6 
#
# 1 0.008471 -0.001596 -0.003474 -0.000722 -0.004909 -0.001212
# 2 -0.001596 0.006285 -0.000760 0.000262 -0.001018 0.000123
# 3 -0.003474 -0.000760 0.019411 0.009713 0.000511 -0.004569
# 4 -0.000722 0.000262 0.009713 0.028328 0.000487 -0.004655
# 5 -0.004909 -0.001018 0.000511 0.000487 0.025097 0.000148
# 6 -0.001212 0.000123 -0.004569 -0.004655 0.000148 0.021686
#
#
# Mechanical properties :
#
#
# Convention : Reuss Voigt Hill
#
# Bulk Modulus (GPa) = 44.43139 70.47120 57.45130
# Shear Modulus (GPa) = 38.92830 48.54646 43.73738
#
# Velocity S-wave (km/s) = 3.85233 4.30200 4.08336
# Velocity P-wave (km/s) = 6.06017 7.17925 6.64332
#
# Compressibility (1/GPa) = 0.02250661
#
# Stress axis : x y z
#
# Youngs Moduli (GPa) = 118.04886 159.11684 51.51596
#
# Poissons Ratio (x) = 0.25399 0.17898
# Poissons Ratio (y) = 0.18843 0.03915
# Poissons Ratio (z) = 0.41012 0.12091
#
# Static dielectric constant tensor:
#      x y z
#    x 5.041300 0.084380 -0.206100 
#    y 0.084380 5.581270 0.345480 
#    z -0.206100 0.345480 5.071950 
# 
# 
# High freq. dielectric constant tensor:
#      x y z
#    x 2.054900 -0.007160 0.001460 
#    y -0.007160 2.101570 0.022830 
#    z 0.001460 0.022830 2.050590 
# 
# From -- ./inp_files/165720.got.cif
#   From: 2010.06.25/outbox.cif.g09.slc.cpg/sg2_83_cif.got.tgz:165720.got - 2010.06.27 13:26:56.
