data_PCOD8032942
_publ_section_title
;
Structure prediction by ZEFSAII (Michael W. Deem and Ramdas Pophale) SiO2 
 PCOD8032942
Probable space group: P -1
;
_chemical_formula_sum "Si O2"
_cell_formula_units_Z 16
_cell_length_a 9.555675
_cell_length_b 14.446390
_cell_length_c 13.840044
_cell_angle_alpha 115.125287
_cell_angle_beta 153.049524
_cell_angle_gamma 75.670364
_cell_volume 742.953148
_symmetry_space_group_name_H-M "P -1"
_symmetry_group_IT_number 2
_symmetry_cell_setting 'triclinic'
loop_
_space_group_symop_operation_xyz
x,y,z
-x,-y,-z
loop_
_atom_site_type_symbol
_atom_site_label
_atom_site_fract_x
_atom_site_fract_y
_atom_site_fract_z
Si Si1 0.272774 0.238466 0.462510
Si Si2 0.098869 0.610199 0.169832
Si Si3 0.628850 0.816120 0.292450
Si Si4 0.392725 0.904784 0.815045
Si Si5 0.178902 0.952871 0.011590
Si Si6 0.773402 0.465082 0.593549
Si Si7 0.760020 0.348985 0.166353
Si Si8 0.475914 0.314351 0.171205
O O1 0.524495 0.321457 0.583332
O O2 0.448584 0.233959 0.670264
O O3 0.971499 0.281029 0.312310
O O4 0.114891 0.120396 0.267905
O O5 0.030377 0.578197 0.225456
O O6 0.000000 0.500000 0.000000
O O7 0.897678 0.689447 0.052208
O O8 0.402602 0.890428 0.170586
O O9 0.011410 0.879023 0.546861
O O10 0.537375 0.722758 0.114132
O O11 0.490721 0.803807 0.870589
O O12 0.587888 0.944868 0.855522
O O13 0.500000 0.000000 0.000000
O O14 0.000000 0.000000 0.000000
O O15 0.500000 0.500000 0.500000
O O16 0.634789 0.368332 0.391414
O O17 0.022565 0.558403 0.727191
O O18 0.620858 0.385903 0.195472
#
# Coordination Sequence:
#
# PCOD8032942 Si02
#       8
#     2   2   2   2   2   2   2   2
#     4  11  23  44  69 102 140 182 236 289 353 416
#     4  12  26  44  71 106 144 188 230 286 358 419
#     4  11  24  45  75  95 139 194 227 292 362 413
#     4  12  25  51  70 100 145 186 238 293 353 410
#     4  11  27  42  69 105 136 180 238 299 349 416
#     4  12  25  46  72 102 148 188 227 295 355 421
#     4  11  24  46  71 104 139 179 241 286 348 426
#     4  12  28  44  73 108 139 189 240 291 346 428
#
# _framework density 21.535678000000001
#
# number of rings (size 3 to 8) (size 9 to 14) (size 15 to 20)
#    0.000    0.500    5.000    2.250    5.250    2.000 
#    0.000    0.000    0.000    0.000    0.000    0.000 
#    0.000    0.000    0.000    0.000    0.000    0.000 
#
# Total GULP energy -198375.444937 kJ/mol
# GULP energy per Si atom -12398.465309 kJ/mol
# Density = 2.148666 g / cm^3
# Si number density = 21.535678 Si / 1000 Ang^3
#
#
#
# Elastic Constant Matrix: (Units=GPa)
#
#
# Indices 1 2 3 4 5 6 
#
# 1 131.8847 48.4724 43.2407 3.5449 -16.1108 7.9175
# 2 48.4724 101.6596 52.3042 0.8315 -7.2449 1.8639
# 3 43.2407 52.3042 126.2321 -5.2638 -14.2440 -6.5567
# 4 3.5449 0.8315 -5.2638 32.9079 8.7411 0.2662
# 5 -16.1108 -7.2449 -14.2440 8.7411 39.4042 -3.2330
# 6 7.9175 1.8639 -6.5567 0.2662 -3.2330 42.3940
#
#
#
# Elastic Compliance Matrix: (Units=1/GPa)
#
#
# Indices 1 2 3 4 5 6 
#
# 1 0.010027 -0.003600 -0.001768 -0.002086 0.003119 -0.001737
# 2 -0.003600 0.013929 -0.004658 -0.000564 -0.000527 -0.000697
# 3 -0.001768 -0.004658 0.010893 0.001438 0.002235 0.002381
# 4 -0.002086 -0.000564 0.001438 0.032917 -0.007752 -0.000161
# 5 0.003119 -0.000527 0.002235 -0.007752 0.029253 0.002066
# 6 -0.001737 -0.000697 0.002381 -0.000161 0.002066 0.024470
#
#
# Mechanical properties :
#
#
# Convention : Reuss Voigt Hill
#
# Bulk Modulus (GPa) = 67.57772 71.97898 69.77835
# Shear Modulus (GPa) = 34.13572 37.32518 35.73045
#
# Velocity S-wave (km/s) = 3.98562 4.16766 4.07766
# Velocity P-wave (km/s) = 7.25450 7.52695 7.39198
#
# Compressibility (1/GPa) = 0.01479778
#
# Stress axis : x y z
#
# Youngs Moduli (GPa) = 99.73551 71.79052 91.79896
#
# Poissons Ratio (x) = 0.25843 0.16233
# Poissons Ratio (y) = 0.35903 0.42757
# Poissons Ratio (z) = 0.17636 0.33438
#
# Static dielectric constant tensor:
#      x y z
#    x 6.979970 6.722000 6.021810 
#    y 6.722000 16.991380 12.643130 
#    z 6.021810 12.643130 16.214030 
# 
# 
# High freq. dielectric constant tensor:
#      x y z
#    x 1.864130 0.007280 -0.003040 
#    y 0.007280 1.844420 -0.005430 
#    z -0.003040 -0.005430 1.857420 
# 
# From -- ./inp_files/399367.got.cif
#   From: 2010.06.25/outbox.cif.g09.slc.cpg/sg2_200_cif.got.tgz:399367.got - 2010.06.27 13:26:56.
