data_PCOD8032899
_publ_section_title
;
Structure prediction by ZEFSAII (Michael W. Deem and Ramdas Pophale) SiO2 
 PCOD8032899
Probable space group: P -1
;
_chemical_formula_sum "Si O2"
_cell_formula_units_Z 16
_cell_length_a 16.221109
_cell_length_b 6.573320
_cell_length_c 9.186224
_cell_angle_alpha 128.167748
_cell_angle_beta 109.990920
_cell_angle_gamma 68.792109
_cell_volume 708.513209
_symmetry_space_group_name_H-M "P -1"
_symmetry_group_IT_number 2
_symmetry_cell_setting 'triclinic'
loop_
_space_group_symop_operation_xyz
x,y,z
-x,-y,-z
loop_
_atom_site_type_symbol
_atom_site_label
_atom_site_fract_x
_atom_site_fract_y
_atom_site_fract_z
Si Si1 0.539619 0.218618 0.208657
Si Si2 0.559855 0.188948 0.547946
Si Si3 0.840598 0.684520 0.148815
Si Si4 0.812178 0.496657 0.356813
Si Si5 0.913540 0.088709 0.885188
Si Si6 0.272752 0.071645 0.298455
Si Si7 0.036560 0.924187 0.642688
Si Si8 0.707558 0.054824 0.059260
O O1 0.562245 0.135568 0.352838
O O2 0.476072 0.506914 0.296492
O O3 0.627330 0.237975 0.178868
O O4 0.500000 0.000000 0.000000
O O5 0.500000 0.000000 0.500000
O O6 0.661476 0.126587 0.643391
O O7 0.828975 0.688303 0.319145
O O8 0.899347 0.874361 0.196325
O O9 0.744239 0.796929 0.067160
O O10 0.888022 0.401064 0.996055
O O11 0.745598 0.645133 0.506628
O O12 0.774117 0.255748 0.157446
O O13 0.907683 0.374850 0.436213
O O14 0.945600 0.964472 0.696138
O O15 0.823880 0.989606 0.825511
O O16 0.000000 0.000000 0.000000
O O17 0.320362 0.061840 0.163990
O O18 0.000000 0.000000 0.500000
#
# Coordination Sequence:
#
# PCOD8032899 Si02
#       8
#     2   2   2   2   2   2   2   2
#     4  11  26  46  78 106 148 185 233 292 365 438
#     4  11  26  50  74 113 146 186 237 295 359 433
#     4  11  23  44  67  91 141 180 236 295 348 417
#     4  11  24  46  65  98 138 181 239 293 349 417
#     4  12  24  44  67  99 139 190 240 291 353 416
#     4  12  26  43  75 101 142 189 232 294 355 418
#     4  11  25  39  64  95 129 184 238 291 356 408
#     4  11  25  45  67 105 134 184 231 288 351 423
#
# _framework density 22.582502000000002
#
# number of rings (size 3 to 8) (size 9 to 14) (size 15 to 20)
#    0.000    0.750    2.500    4.125    5.250    6.000 
#    0.000    0.000    0.000    0.000    0.000    0.000 
#    0.000    0.000    0.000    0.000    0.000    0.000 
#
# Total GULP energy -198274.355680 kJ/mol
# GULP energy per Si atom -12392.147230 kJ/mol
# Density = 2.253110 g / cm^3
# Si number density = 22.582502 Si / 1000 Ang^3
#
#
#
# Elastic Constant Matrix: (Units=GPa)
#
#
# Indices 1 2 3 4 5 6 
#
# 1 85.3920 36.0053 38.1332 -7.2553 -12.7207 -14.5672
# 2 36.0053 141.0664 72.7709 -9.6402 -8.5999 -23.4089
# 3 38.1332 72.7709 149.8806 -11.7612 -29.2868 -20.6358
# 4 -7.2553 -9.6402 -11.7612 44.0088 -1.5962 -1.5863
# 5 -12.7207 -8.5999 -29.2868 -1.5962 50.5066 1.6211
# 6 -14.5672 -23.4089 -20.6358 -1.5863 1.6211 38.4334
#
#
#
# Elastic Compliance Matrix: (Units=1/GPa)
#
#
# Indices 1 2 3 4 5 6 
#
# 1 0.014335 -0.002011 -0.001642 0.001685 0.002263 0.003301
# 2 -0.002011 0.010314 -0.004216 0.000876 -0.001275 0.003346
# 3 -0.001642 -0.004216 0.010586 0.001901 0.004992 0.002362
# 4 0.001685 0.000876 0.001901 0.023896 0.002332 0.003081
# 5 0.002263 -0.001275 0.004992 0.002332 0.023060 0.001885
# 6 0.003301 0.003346 0.002362 0.003081 0.001885 0.030624
#
#
# Mechanical properties :
#
#
# Convention : Reuss Voigt Hill
#
# Bulk Modulus (GPa) = 51.28576 74.46198 62.87387
# Shear Modulus (GPa) = 37.02242 41.88506 39.45374
#
# Velocity S-wave (km/s) = 4.05338 4.31136 4.18436
# Velocity P-wave (km/s) = 6.68328 7.60452 7.15873
#
# Compressibility (1/GPa) = 0.01949859
#
# Stress axis : x y z
#
# Youngs Moduli (GPa) = 69.75779 96.95194 94.46133
#
# Poissons Ratio (x) = 0.19497 0.15509
# Poissons Ratio (y) = 0.14028 0.39824
# Poissons Ratio (z) = 0.11453 0.40874
#
# Static dielectric constant tensor:
#      x y z
#    x 3.754360 -0.178210 -0.246340 
#    y -0.178210 4.168940 -0.017370 
#    z -0.246340 -0.017370 4.033880 
# 
# 
# High freq. dielectric constant tensor:
#      x y z
#    x 1.895530 -0.011730 -0.011560 
#    y -0.011730 1.898390 -0.004240 
#    z -0.011560 -0.004240 1.900740 
# 
# From -- ./inp_files/324143.got.cif
#   From: 2010.06.25/outbox.cif.g09.slc.cpg/sg2_163_cif.got.tgz:324143.got - 2010.06.27 13:26:56.
