data_PCOD8032247
_publ_section_title
;
Structure prediction by ZEFSAII (Michael W. Deem and Ramdas Pophale) SiO2 
 PCOD8032247
Probable space group: P -1
;
_chemical_formula_sum "Si O2"
_cell_formula_units_Z 14
_cell_length_a 9.104541
_cell_length_b 9.715614
_cell_length_c 22.104902
_cell_angle_alpha 46.295927
_cell_angle_beta 37.132155
_cell_angle_gamma 74.242162
_cell_volume 655.677221
_symmetry_space_group_name_H-M "P -1"
_symmetry_group_IT_number 2
_symmetry_cell_setting 'triclinic'
loop_
_space_group_symop_operation_xyz
x,y,z
-x,-y,-z
loop_
_atom_site_type_symbol
_atom_site_label
_atom_site_fract_x
_atom_site_fract_y
_atom_site_fract_z
Si Si1 0.748751 0.166407 0.448970
Si Si2 0.531576 0.122642 0.255337
Si Si3 0.437067 0.608209 0.043333
Si Si4 0.372369 0.248688 0.469191
Si Si5 0.338850 0.244523 0.834257
Si Si6 0.685707 0.051374 0.752972
Si Si7 0.233749 0.346187 0.963146
O O1 0.515327 0.220650 0.490251
O O2 0.104628 0.405462 0.245766
O O3 0.706763 0.108258 0.551746
O O4 0.662001 0.928458 0.516500
O O5 0.590598 0.363880 0.186852
O O6 0.366738 0.051710 0.266116
O O7 0.860263 0.175751 0.126852
O O8 0.709948 0.719457 0.970018
O O9 0.500000 0.500000 0.000000
O O10 0.450716 0.827264 0.945031
O O11 0.615621 0.528328 0.280647
O O12 0.043051 0.183074 0.614605
O O13 0.615559 0.240213 0.723211
O O14 0.367358 0.278802 0.886855
O O15 0.000000 0.000000 0.000000
#
# Coordination Sequence:
#
# PCOD8032247 Si02
#       7
#     2   2   2   2   2   2   2
#     4  11  24  41  71 105 138 169 235 290 339 397
#     4  11  23  41  71 105 131 179 231 286 336 408
#     4  12  24  43  71 106 134 176 230 288 338 403
#     4  11  24  42  69  99 137 185 224 284 343 401
#     4  12  25  46  68 102 142 187 226 277 347 413
#     4  12  25  45  72 100 144 180 229 279 345 416
#     4  11  24  41  71 100 141 176 232 281 343 399
#
# _framework density 21.351970999999999
#
# number of rings (size 3 to 8) (size 9 to 14) (size 15 to 20)
#    0.000    0.571    5.714    2.143    4.000    1.714 
#    0.000    0.714    0.000    0.000    0.000    0.000 
#    0.000    0.000    0.000    0.000    0.000    0.000 
#
# Total GULP energy -173681.625812 kJ/mol
# GULP energy per Si atom -12405.830415 kJ/mol
# Density = 2.130337 g / cm^3
# Si number density = 21.351971 Si / 1000 Ang^3
#
#
#
# Elastic Constant Matrix: (Units=GPa)
#
#
# Indices 1 2 3 4 5 6 
#
# 1 121.1184 25.1220 48.2003 7.8675 9.5864 -3.7415
# 2 25.1220 84.2521 25.7610 4.9985 -2.3311 -6.1527
# 3 48.2003 25.7610 123.2849 5.1709 15.0049 1.3466
# 4 7.8675 4.9985 5.1709 29.8991 -5.9835 2.1597
# 5 9.5864 -2.3311 15.0049 -5.9835 44.1579 5.7844
# 6 -3.7415 -6.1527 1.3466 2.1597 5.7844 35.3699
#
#
#
# Elastic Compliance Matrix: (Units=1/GPa)
#
#
# Indices 1 2 3 4 5 6 
#
# 1 0.010295 -0.001862 -0.003353 -0.002246 -0.001669 0.001303
# 2 -0.001862 0.013362 -0.002208 -0.001225 0.001425 0.002053
# 3 -0.003353 -0.002208 0.010295 -0.001079 -0.002957 -0.000581
# 4 -0.002246 -0.001225 -0.001079 0.035915 0.006128 -0.003605
# 5 -0.001669 0.001425 -0.002957 0.006128 0.025490 -0.004359
# 6 0.001303 0.002053 -0.000581 -0.003605 -0.004359 0.029723
#
#
# Mechanical properties :
#
#
# Convention : Reuss Voigt Hill
#
# Bulk Modulus (GPa) = 52.34277 58.53577 55.43927
# Shear Modulus (GPa) = 34.17753 37.19019 35.68386
#
# Velocity S-wave (km/s) = 4.00518 4.17798 4.09249
# Velocity P-wave (km/s) = 6.77909 7.12378 6.95357
#
# Compressibility (1/GPa) = 0.01910484
#
# Stress axis : x y z
#
# Youngs Moduli (GPa) = 97.13257 74.84055 97.13382
#
# Poissons Ratio (x) = 0.13938 0.32567
# Poissons Ratio (y) = 0.18090 0.21451
# Poissons Ratio (z) = 0.32567 0.16528
#
# Static dielectric constant tensor:
#      x y z
#    x 4.077640 -0.145920 0.101680 
#    y -0.145920 3.815380 0.009700 
#    z 0.101680 0.009700 3.944050 
# 
# 
# High freq. dielectric constant tensor:
#      x y z
#    x 1.849830 -0.008350 0.004250 
#    y -0.008350 1.823820 0.003100 
#    z 0.004250 0.003100 1.845460 
# 
# From -- ./inp_files/158173.got.cif
#   From: 2010.06.25/outbox.cif.g09.slc.cpg/sg2_80_cif.got.tgz:158173.got - 2010.06.27 13:26:56.
