data_PCOD8032792
_publ_section_title
;
Structure prediction by ZEFSAII (Michael W. Deem and Ramdas Pophale) SiO2 
 PCOD8032792
Probable space group: P -1
;
_chemical_formula_sum "Si O2"
_cell_formula_units_Z 16
_cell_length_a 6.432449
_cell_length_b 26.022444
_cell_length_c 11.300712
_cell_angle_alpha 149.251312
_cell_angle_beta 46.912360
_cell_angle_gamma 119.692990
_cell_volume 684.656471
_symmetry_space_group_name_H-M "P -1"
_symmetry_group_IT_number 2
_symmetry_cell_setting 'triclinic'
loop_
_space_group_symop_operation_xyz
x,y,z
-x,-y,-z
loop_
_atom_site_type_symbol
_atom_site_label
_atom_site_fract_x
_atom_site_fract_y
_atom_site_fract_z
Si Si1 0.894794 0.714879 0.022365
Si Si2 0.324150 0.884031 0.958616
Si Si3 0.117884 0.834739 0.369846
Si Si4 0.743262 0.721532 0.630635
Si Si5 0.681563 0.334760 0.852619
Si Si6 0.253659 0.164015 0.907779
Si Si7 0.750754 0.006339 0.015918
Si Si8 0.451416 0.545963 0.481056
O O1 0.850332 0.740025 0.950554
O O2 0.108214 0.600945 0.714807
O O3 0.579188 0.710779 0.191850
O O4 0.017807 0.802706 0.216649
O O5 0.507134 0.775803 0.729043
O O6 0.471837 0.976594 0.129618
O O7 0.974211 0.908791 0.173527
O O8 0.340238 0.886433 0.810879
O O9 0.197007 0.727366 0.198704
O O10 0.863879 0.916804 0.696611
O O11 0.400109 0.886106 0.349716
O O12 0.783029 0.802256 0.874814
O O13 0.636268 0.630537 0.555141
O O14 0.060247 0.675349 0.361235
O O15 0.550389 0.455725 0.168422
O O16 0.000000 0.000000 0.000000
O O17 0.500000 0.500000 0.500000
#
# Coordination Sequence:
#
# PCOD8032792 Si02
#       8
#     2   2   2   2   2   2   2   2
#     4  11  23  45  70  99 139 191 232 281 352 404
#     4  11  24  43  72 101 141 180 222 288 354 407
#     4  11  23  46  70 101 140 180 233 289 347 415
#     4  12  24  45  66 106 146 179 238 290 346 402
#     4  11  25  39  71 102 139 187 234 288 341 416
#     4  11  23  43  72  99 138 189 227 289 341 417
#     4  11  26  46  73 106 139 180 229 288 356 423
#     4  12  22  46  69  99 146 186 236 288 342 410
#
# _framework density 23.369384
#
# number of rings (size 3 to 8) (size 9 to 14) (size 15 to 20)
#    0.000    0.750    5.000    2.250    1.750    3.500 
#    0.000    4.375    0.000    0.000    0.000    0.000 
#    0.000    0.000    0.000    0.000    0.000    0.000 
#
# Total GULP energy -198250.619888 kJ/mol
# GULP energy per Si atom -12390.663743 kJ/mol
# Density = 2.331619 g / cm^3
# Si number density = 23.369384 Si / 1000 Ang^3
#
#
#
# Elastic Constant Matrix: (Units=GPa)
#
#
# Indices 1 2 3 4 5 6 
#
# 1 150.0884 58.6632 24.3223 -2.0782 -12.5191 3.9506
# 2 58.6632 146.9910 13.3536 -1.6884 -17.0717 12.0965
# 3 24.3223 13.3536 79.6055 -11.5679 -5.7557 -8.9741
# 4 -2.0782 -1.6884 -11.5679 23.7950 0.0045 -2.1900
# 5 -12.5191 -17.0717 -5.7557 0.0045 29.7562 -0.0522
# 6 3.9506 12.0965 -8.9741 -2.1900 -0.0522 46.9876
#
#
#
# Elastic Compliance Matrix: (Units=1/GPa)
#
#
# Indices 1 2 3 4 5 6 
#
# 1 0.008256 -0.002923 -0.002045 -0.000514 0.001400 -0.000355
# 2 -0.002923 0.008606 -0.000538 -0.000098 0.003600 -0.002073
# 3 -0.002045 -0.000538 0.014859 0.007328 0.001710 0.003492
# 4 -0.000514 -0.000098 0.007328 0.045868 0.001145 0.003607
# 5 0.001400 0.003600 0.001710 0.001145 0.036590 -0.000624
# 6 -0.000355 -0.002073 0.003492 0.003607 -0.000624 0.022680
#
#
# Mechanical properties :
#
#
# Convention : Reuss Voigt Hill
#
# Bulk Modulus (GPa) = 48.29095 63.26255 55.77675
# Shear Modulus (GPa) = 32.30476 38.79748 35.55112
#
# Velocity S-wave (km/s) = 3.72204 4.07896 3.90458
# Velocity P-wave (km/s) = 6.25943 7.02234 6.65183
#
# Compressibility (1/GPa) = 0.02070781
#
# Stress axis : x y z
#
# Youngs Moduli (GPa) = 121.12783 116.19512 67.29771
#
# Poissons Ratio (x) = 0.33965 0.13766
# Poissons Ratio (y) = 0.35407 0.03622
# Poissons Ratio (z) = 0.24776 0.06253
#
# Static dielectric constant tensor:
#      x y z
#    x 4.523990 0.109520 -0.220960 
#    y 0.109520 4.602010 -0.061000 
#    z -0.220960 -0.061000 4.157530 
# 
# 
# High freq. dielectric constant tensor:
#      x y z
#    x 1.944520 0.008760 -0.024410 
#    y 0.008760 1.940970 -0.006750 
#    z -0.024410 -0.006750 1.896490 
# 
# From -- ./inp_files/49288.got.cif
#   From: 2010.06.25/outbox.cif.g09.slc.cpg/sg2_25_cif.got.tgz:49288.got - 2010.06.27 13:26:56.
