data_PCOD8032272
_publ_section_title
;
Structure prediction by ZEFSAII (Michael W. Deem and Ramdas Pophale) SiO2 
 PCOD8032272
Probable space group: P -1
;
_chemical_formula_sum "Si O2"
_cell_formula_units_Z 16
_cell_length_a 9.950890
_cell_length_b 12.344379
_cell_length_c 8.598096
_cell_angle_alpha 129.753369
_cell_angle_beta 56.699297
_cell_angle_gamma 106.974996
_cell_volume 675.778607
_symmetry_space_group_name_H-M "P -1"
_symmetry_group_IT_number 2
_symmetry_cell_setting 'triclinic'
loop_
_space_group_symop_operation_xyz
x,y,z
-x,-y,-z
loop_
_atom_site_type_symbol
_atom_site_label
_atom_site_fract_x
_atom_site_fract_y
_atom_site_fract_z
Si Si1 0.128078 0.147842 0.494425
Si Si2 0.131641 0.085287 0.077538
Si Si3 0.158316 0.420309 0.888031
Si Si4 0.984859 0.634431 0.742793
Si Si5 0.624399 0.094501 0.421664
Si Si6 0.230734 0.870684 0.327190
Si Si7 0.357450 0.640110 0.540615
Si Si8 0.571465 0.379543 0.169199
O O1 0.132099 0.088822 0.264932
O O2 0.206746 0.290262 0.619391
O O3 0.936152 0.177021 0.683124
O O4 0.234574 0.033177 0.424536
O O5 0.114969 0.244961 0.179157
O O6 0.304379 0.007310 0.853051
O O7 0.000000 0.000000 0.000000
O O8 0.296449 0.522222 0.884571
O O9 0.000000 0.500000 0.000000
O O10 0.124515 0.378709 0.048148
O O11 0.164733 0.674439 0.705382
O O12 0.000000 0.500000 0.500000
O O13 0.762854 0.131728 0.491290
O O14 0.563656 0.246891 0.520548
O O15 0.500000 0.000000 0.500000
O O16 0.389399 0.771839 0.078327
O O17 0.405832 0.474128 0.308187
O O18 0.431977 0.654239 0.677246
#
# Coordination Sequence:
#
# PCOD8032272 Si02
#       8
#     2   2   2   2   2   2   2   2
#     4  11  23  41  74 103 137 177 240 294 345 418
#     4  12  24  45  72 101 137 185 236 293 354 412
#     4  12  23  42  72 107 140 181 242 288 347 426
#     4  12  26  43  73 108 141 182 238 294 348 421
#     4  12  28  47  69 105 144 188 234 295 357 428
#     4  11  23  43  70 103 134 184 232 287 360 408
#     4  11  25  48  69  98 150 183 236 287 362 414
#     4  11  26  45  73 101 144 192 227 293 356 421
#
# _framework density 23.676393000000001
#
# number of rings (size 3 to 8) (size 9 to 14) (size 15 to 20)
#    0.000    0.500    5.000    2.250    7.000    1.500 
#    2.250    1.250    0.000    0.000    0.000    0.000 
#    0.000    0.000    0.000    0.000    0.000    0.000 
#
# Total GULP energy -198281.381336 kJ/mol
# GULP energy per Si atom -12392.586333 kJ/mol
# Density = 2.362250 g / cm^3
# Si number density = 23.676393 Si / 1000 Ang^3
#
#
#
# Elastic Constant Matrix: (Units=GPa)
#
#
# Indices 1 2 3 4 5 6 
#
# 1 39.6325 28.9653 14.3862 1.8792 0.8154 -13.3793
# 2 28.9653 140.3606 30.8476 3.1272 0.4773 -22.5063
# 3 14.3862 30.8476 138.8004 12.9703 5.4517 -20.4247
# 4 1.8792 3.1272 12.9703 48.0567 -6.6000 -7.1233
# 5 0.8154 0.4773 5.4517 -6.6000 39.4056 3.5076
# 6 -13.3793 -22.5063 -20.4247 -7.1233 3.5076 45.8702
#
#
#
# Elastic Compliance Matrix: (Units=1/GPa)
#
#
# Indices 1 2 3 4 5 6 
#
# 1 0.031619 -0.005271 -0.001173 0.000215 -0.000946 0.006219
# 2 -0.005271 0.008823 -0.001094 0.000274 -0.000009 0.002348
# 3 -0.001173 -0.001094 0.008197 -0.001937 -0.001652 0.002596
# 4 0.000215 0.000274 -0.001937 0.022191 0.003755 0.002493
# 5 -0.000946 -0.000009 -0.001652 0.003755 0.026473 -0.002457
# 6 0.006219 0.002348 0.002596 0.002493 -0.002457 0.026498
#
#
# Mechanical properties :
#
#
# Convention : Reuss Voigt Hill
#
# Bulk Modulus (GPa) = 29.79618 51.91019 40.85319
# Shear Modulus (GPa) = 33.31846 42.97280 38.14563
#
# Velocity S-wave (km/s) = 3.75539 4.26491 4.01824
# Velocity P-wave (km/s) = 5.60500 6.79890 6.23062
#
# Compressibility (1/GPa) = 0.03356135
#
# Stress axis : x y z
#
# Youngs Moduli (GPa) = 31.62630 113.33764 121.98966
#
# Poissons Ratio (x) = 0.59746 0.14315
# Poissons Ratio (y) = 0.16672 0.13350
# Poissons Ratio (z) = 0.03711 0.12403
#
# Static dielectric constant tensor:
#      x y z
#    x 5.060760 -0.375970 -0.436270 
#    y -0.375970 4.489320 0.192330 
#    z -0.436270 0.192330 4.593340 
# 
# 
# High freq. dielectric constant tensor:
#      x y z
#    x 1.923240 -0.016930 -0.006550 
#    y -0.016930 1.949520 0.008900 
#    z -0.006550 0.008900 1.952900 
# 
# From -- ./inp_files/260525.got.cif
#   From: 2010.06.25/outbox.cif.g09.slc.cpg/sg2_131_cif.got.tgz:260525.got - 2010.06.27 13:26:56.
