data_PCOD8032181
_publ_section_title
;
Structure prediction by ZEFSAII (Michael W. Deem and Ramdas Pophale) SiO2 
 PCOD8032181
Probable space group: P -1
;
_chemical_formula_sum "Si O2"
_cell_formula_units_Z 16
_cell_length_a 12.208062
_cell_length_b 5.460543
_cell_length_c 12.061834
_cell_angle_alpha 101.671438
_cell_angle_beta 62.121216
_cell_angle_gamma 100.141731
_cell_volume 692.965579
_symmetry_space_group_name_H-M "P -1"
_symmetry_group_IT_number 2
_symmetry_cell_setting 'triclinic'
loop_
_space_group_symop_operation_xyz
x,y,z
-x,-y,-z
loop_
_atom_site_type_symbol
_atom_site_label
_atom_site_fract_x
_atom_site_fract_y
_atom_site_fract_z
Si Si1 0.144384 0.079682 0.418673
Si Si2 0.262703 0.642530 0.455298
Si Si3 0.271666 0.610586 0.696339
Si Si4 0.461378 0.448324 0.735764
Si Si5 0.560695 0.279903 0.015953
Si Si6 0.193665 0.920075 0.139340
Si Si7 0.249453 0.067520 0.892256
Si Si8 0.052928 0.310305 0.873853
O O1 0.211334 0.868845 0.433676
O O2 0.182530 0.074817 0.271397
O O3 0.182825 0.368952 0.463371
O O4 0.000000 0.000000 0.500000
O O5 0.270982 0.735261 0.587549
O O6 0.400071 0.624379 0.344389
O O7 0.404390 0.498630 0.645553
O O8 0.153073 0.409228 0.743282
O O9 0.258792 0.784775 0.824853
O O10 0.458355 0.685121 0.840615
O O11 0.373865 0.224680 0.810566
O O12 0.500000 0.500000 0.000000
O O13 0.707474 0.289861 0.913414
O O14 0.500000 0.000000 0.000000
O O15 0.056821 0.807078 0.161920
O O16 0.243374 0.100564 0.031016
O O17 0.119585 0.123779 0.904034
O O18 0.000000 0.500000 0.000000
#
# Coordination Sequence:
#
# PCOD8032181 Si02
#       8
#     2   2   2   2   2   2   2   2
#     4  12  30  52  73 108 147 201 250 299 360 438
#     4  12  29  50  77 105 147 202 247 298 364 439
#     4  11  25  45  73 105 148 187 242 308 365 438
#     4  11  25  46  71 112 145 186 248 294 377 435
#     4  12  25  44  68 101 144 185 232 297 351 425
#     4  12  24  46  75 105 145 193 242 303 371 438
#     4  11  24  43  73 111 144 187 236 315 372 430
#     4  11  23  41  68 113 144 184 243 303 378 432
#
# _framework density 23.089171
#
# number of rings (size 3 to 8) (size 9 to 14) (size 15 to 20)
#    0.000    0.500    2.500    4.875    7.000    2.500 
#    0.000    0.000    0.000    0.000    0.000    0.000 
#    0.000    0.000    0.000    0.000    0.000    0.000 
#
# Total GULP energy -198286.869990 kJ/mol
# GULP energy per Si atom -12392.929374 kJ/mol
# Density = 2.303662 g / cm^3
# Si number density = 23.089171 Si / 1000 Ang^3
#
#
#
# Elastic Constant Matrix: (Units=GPa)
#
#
# Indices 1 2 3 4 5 6 
#
# 1 151.6546 47.2126 41.2334 -16.3773 -13.1381 -5.9170
# 2 47.2126 103.5614 11.0212 -11.3805 7.1501 -5.4593
# 3 41.2334 11.0212 118.2965 -6.3287 15.8577 -8.4511
# 4 -16.3773 -11.3805 -6.3287 23.8208 -3.4790 -0.7456
# 5 -13.1381 7.1501 15.8577 -3.4790 50.5419 -1.7765
# 6 -5.9170 -5.4593 -8.4511 -0.7456 -1.7765 29.6037
#
#
#
# Elastic Compliance Matrix: (Units=1/GPa)
#
#
# Indices 1 2 3 4 5 6 
#
# 1 0.009558 -0.003776 -0.003277 0.004558 0.004383 0.000657
# 2 -0.003776 0.011882 0.000839 0.002964 -0.002666 0.001591
# 3 -0.003277 0.000839 0.010239 0.000340 -0.004083 0.002186
# 4 0.004558 0.002964 0.000340 0.047301 0.004019 0.002987
# 5 0.004383 -0.002666 -0.004083 0.004019 0.022884 0.000694
# 6 0.000657 0.001591 0.002186 0.002987 0.000694 0.034945
#
#
# Mechanical properties :
#
#
# Convention : Reuss Voigt Hill
#
# Bulk Modulus (GPa) = 51.94517 63.60522 57.77519
# Shear Modulus (GPa) = 32.12278 39.06298 35.59288
#
# Velocity S-wave (km/s) = 3.73399 4.11765 3.93050
# Velocity P-wave (km/s) = 6.41379 7.08620 6.75836
#
# Compressibility (1/GPa) = 0.01925107
#
# Stress axis : x y z
#
# Youngs Moduli (GPa) = 104.62659 84.16231 97.66617
#
# Poissons Ratio (x) = 0.31778 0.32001
# Poissons Ratio (y) = 0.39505 -0.08191
# Poissons Ratio (z) = 0.34282 -0.07058
#
# Static dielectric constant tensor:
#      x y z
#    x 4.610370 -0.146120 -0.216280 
#    y -0.146120 4.169570 0.182440 
#    z -0.216280 0.182440 4.437220 
# 
# 
# High freq. dielectric constant tensor:
#      x y z
#    x 1.945160 -0.001390 -0.001840 
#    y -0.001390 1.904580 -0.001440 
#    z -0.001840 -0.001440 1.919360 
# 
# From -- ./inp_files/410445.got.cif
#   From: 2010.06.25/outbox.cif.g09.slc.cpg/sg2_206_cif.got.tgz:410445.got - 2010.06.27 13:26:56.
