data_PCOD8032990
_publ_section_title
;
Structure prediction by ZEFSAII (Michael W. Deem and Ramdas Pophale) SiO2 
 PCOD8032990
Probable space group: P -1
;
_chemical_formula_sum "Si O2"
_cell_formula_units_Z 14
_cell_length_a 14.629856
_cell_length_b 11.508516
_cell_length_c 11.764148
_cell_angle_alpha 74.257305
_cell_angle_beta 141.363863
_cell_angle_gamma 136.793832
_cell_volume 606.931348
_symmetry_space_group_name_H-M "P -1"
_symmetry_group_IT_number 2
_symmetry_cell_setting 'triclinic'
loop_
_space_group_symop_operation_xyz
x,y,z
-x,-y,-z
loop_
_atom_site_type_symbol
_atom_site_label
_atom_site_fract_x
_atom_site_fract_y
_atom_site_fract_z
Si Si1 0.331270 0.707788 0.239712
Si Si2 0.781041 0.954670 0.796595
Si Si3 0.600596 0.347287 0.281227
Si Si4 0.805818 0.554573 0.025400
Si Si5 0.741777 0.187294 0.427262
Si Si6 0.071139 0.845048 0.588006
Si Si7 0.365963 0.267671 0.853811
O O1 0.515816 0.764131 0.499243
O O2 0.476377 0.941307 0.303904
O O3 0.354140 0.648579 0.161772
O O4 0.000000 0.500000 0.000000
O O5 0.643558 0.860437 0.812366
O O6 0.984310 0.212733 0.905244
O O7 0.000000 0.000000 0.000000
O O8 0.687334 0.286992 0.315643
O O9 0.867966 0.610562 0.527729
O O10 0.514807 0.383579 0.090716
O O11 0.985672 0.610132 0.278979
O O12 0.562089 0.452214 0.888789
O O13 0.788091 0.138421 0.375363
O O14 0.913069 0.847602 0.375965
O O15 0.300939 0.076249 0.829101
#
# Coordination Sequence:
#
# PCOD8032990 Si02
#       7
#     2   2   2   2   2   2   2
#     4  11  24  45  70  96 141 186 231 275 344 418
#     4  11  27  44  71 102 139 183 232 287 342 409
#     4  12  25  42  67 102 139 171 228 289 345 403
#     4  11  23  44  70  96 134 185 229 278 345 408
#     4  11  24  42  68 101 135 181 227 284 343 414
#     4  11  24  42  65 100 136 176 226 279 352 408
#     4  11  25  41  71  97 131 181 228 284 342 412
#
# _framework density 23.066859000000001
#
# number of rings (size 3 to 8) (size 9 to 14) (size 15 to 20)
#    0.000    0.857    2.857    3.429    4.000    6.857 
#    0.000    0.000    0.000    0.000    0.000    0.000 
#    0.000    0.000    0.000    0.000    0.000    0.000 
#
# Total GULP energy -173501.824511 kJ/mol
# GULP energy per Si atom -12392.987465 kJ/mol
# Density = 2.301436 g / cm^3
# Si number density = 23.066859 Si / 1000 Ang^3
#
#
#
# Elastic Constant Matrix: (Units=GPa)
#
#
# Indices 1 2 3 4 5 6 
#
# 1 89.2508 6.0296 12.2120 12.5368 3.5080 3.8646
# 2 6.0296 75.9120 0.9829 23.7534 5.8162 8.8864
# 3 12.2120 0.9829 93.6073 5.3609 7.6800 -0.3519
# 4 12.5368 23.7534 5.3609 37.3865 -0.6199 1.8470
# 5 3.5080 5.8162 7.6800 -0.6199 36.5457 3.6417
# 6 3.8646 8.8864 -0.3519 1.8470 3.6417 41.5530
#
#
#
# Elastic Compliance Matrix: (Units=1/GPa)
#
#
# Indices 1 2 3 4 5 6 
#
# 1 0.012004 0.000553 -0.001259 -0.004163 -0.000949 -0.000977
# 2 0.000553 0.017147 0.000600 -0.011065 -0.002799 -0.002976
# 3 -0.001259 0.000600 0.011130 -0.001612 -0.002377 0.000363
# 4 -0.004163 -0.011065 -0.001612 0.035410 0.003010 0.000902
# 5 -0.000949 -0.002799 -0.002377 0.003010 0.028647 -0.001978
# 6 -0.000977 -0.002976 0.000363 0.000902 -0.001978 0.024929
#
#
# Mechanical properties :
#
#
# Convention : Reuss Voigt Hill
#
# Bulk Modulus (GPa) = 24.95829 33.02433 28.99131
# Shear Modulus (GPa) = 35.00535 39.06675 37.03605
#
# Velocity S-wave (km/s) = 3.89981 4.11984 4.01134
# Velocity P-wave (km/s) = 5.57867 6.08101 5.83524
#
# Compressibility (1/GPa) = 0.04006684
#
# Stress axis : x y z
#
# Youngs Moduli (GPa) = 83.30735 58.32066 89.85035
#
# Poissons Ratio (x) = -0.03223 0.11314
# Poissons Ratio (y) = -0.04604 -0.05391
# Poissons Ratio (z) = 0.10490 -0.03499
#
# Static dielectric constant tensor:
#      x y z
#    x 4.354660 0.110150 0.012400 
#    y 0.110150 4.543050 0.253220 
#    z 0.012400 0.253220 4.304640 
# 
# 
# High freq. dielectric constant tensor:
#      x y z
#    x 1.913870 -0.006100 0.006460 
#    y -0.006100 1.921640 0.018660 
#    z 0.006460 0.018660 1.914980 
# 
# From -- ./inp_files/417347.got.cif
#   From: 2010.06.25/outbox.cif.g09.slc.cpg/sg2_209_cif.got.tgz:417347.got - 2010.06.27 13:26:56.
