data_PCOD8032401
_publ_section_title
;
Structure prediction by ZEFSAII (Michael W. Deem and Ramdas Pophale) SiO2 
 PCOD8032401
Probable space group: P -1
;
_chemical_formula_sum "Si O2"
_cell_formula_units_Z 16
_cell_length_a 14.441672
_cell_length_b 9.073691
_cell_length_c 9.139029
_cell_angle_alpha 103.198654
_cell_angle_beta 140.893919
_cell_angle_gamma 65.440032
_cell_volume 677.710664
_symmetry_space_group_name_H-M "P -1"
_symmetry_group_IT_number 2
_symmetry_cell_setting 'triclinic'
loop_
_space_group_symop_operation_xyz
x,y,z
-x,-y,-z
loop_
_atom_site_type_symbol
_atom_site_label
_atom_site_fract_x
_atom_site_fract_y
_atom_site_fract_z
Si Si1 0.139287 0.708698 0.313456
Si Si2 0.813148 0.803308 0.443051
Si Si3 0.604402 0.975340 0.962732
Si Si4 0.317906 0.902105 0.465748
Si Si5 0.912566 0.194521 0.402898
Si Si6 0.214928 0.095430 0.118772
Si Si7 0.723907 0.644852 0.562806
Si Si8 0.560179 0.327684 0.945979
O O1 0.290696 0.740153 0.442441
O O2 0.143879 0.712200 0.494185
O O3 0.161524 0.523830 0.259081
O O4 0.974305 0.831664 0.071315
O O5 0.793183 0.665667 0.491815
O O6 0.973820 0.735058 0.529236
O O7 0.822742 0.946484 0.591871
O O8 0.661778 0.883828 0.166208
O O9 0.483387 0.908486 0.721682
O O10 0.751559 0.930665 0.018760
O O11 0.533628 0.171802 0.954482
O O12 0.294361 0.924831 0.266609
O O13 0.748790 0.254024 0.121510
O O14 0.000000 0.000000 0.500000
O O15 0.293947 0.212633 0.313054
O O16 0.549365 0.638545 0.325946
O O17 0.500000 0.500000 0.000000
#
# Coordination Sequence:
#
# PCOD8032401 Si02
#       8
#     2   2   2   2   2   2   2   2
#     4  12  23  45  68 100 144 182 230 295 352 407
#     4  11  23  42  69 104 131 186 235 281 344 418
#     4  12  23  44  74 100 143 181 237 285 345 422
#     4  11  24  40  72 102 135 183 243 283 344 417
#     4  12  22  40  70 104 135 177 235 289 339 408
#     4  11  24  47  71 100 137 194 232 283 344 432
#     4  11  27  45  71 100 146 185 231 287 360 413
#     4  12  24  42  69 105 143 180 223 297 352 399
#
# _framework density 23.608896999999999
#
# number of rings (size 3 to 8) (size 9 to 14) (size 15 to 20)
#    0.000    0.500    7.500    1.500    1.750    0.500 
#    0.000    0.625    2.750    0.000    0.000    0.000 
#    0.000    0.000    0.000    0.000    0.000    0.000 
#
# Total GULP energy -198279.033505 kJ/mol
# GULP energy per Si atom -12392.439594 kJ/mol
# Density = 2.355516 g / cm^3
# Si number density = 23.608897 Si / 1000 Ang^3
#
#
#
# Elastic Constant Matrix: (Units=GPa)
#
#
# Indices 1 2 3 4 5 6 
#
# 1 66.9526 45.4273 12.4114 -12.1531 -2.8065 13.3560
# 2 45.4273 114.4755 27.0671 -3.2425 4.7287 16.4708
# 3 12.4114 27.0671 92.9795 1.4055 13.5399 11.5013
# 4 -12.1531 -3.2425 1.4055 28.7959 -4.5310 -1.9996
# 5 -2.8065 4.7287 13.5399 -4.5310 45.1543 -1.2440
# 6 13.3560 16.4708 11.5013 -1.9996 -1.2440 26.3645
#
#
#
# Elastic Compliance Matrix: (Units=1/GPa)
#
#
# Indices 1 2 3 4 5 6 
#
# 1 0.023606 -0.008274 -0.000663 0.009190 0.003299 -0.005647
# 2 -0.008274 0.012962 -0.001990 -0.002417 -0.001608 -0.003297
# 3 -0.000663 -0.001990 0.012547 -0.002026 -0.003915 -0.004233
# 4 0.009190 -0.002417 -0.002026 0.039351 0.005408 0.000978
# 5 0.003299 -0.001608 -0.003915 0.005408 0.024308 0.002599
# 6 -0.005647 -0.003297 -0.004233 0.000978 0.002599 0.044894
#
#
# Mechanical properties :
#
#
# Convention : Reuss Voigt Hill
#
# Bulk Modulus (GPa) = 36.68374 49.35768 43.02071
# Shear Modulus (GPa) = 26.50968 32.69638 29.60303
#
# Velocity S-wave (km/s) = 3.35456 3.72549 3.54488
# Velocity P-wave (km/s) = 5.52955 6.28151 5.91749
#
# Compressibility (1/GPa) = 0.02726003
#
# Stress axis : x y z
#
# Youngs Moduli (GPa) = 42.36213 77.14943 79.69841
#
# Poissons Ratio (x) = 0.63835 0.05285
# Poissons Ratio (y) = 0.35051 0.15862
# Poissons Ratio (z) = 0.02809 0.15354
#
# Static dielectric constant tensor:
#      x y z
#    x 4.316740 0.036130 0.118090 
#    y 0.036130 4.161350 0.011400 
#    z 0.118090 0.011400 4.425990 
# 
# 
# High freq. dielectric constant tensor:
#      x y z
#    x 1.925080 0.006940 0.011990 
#    y 0.006940 1.916270 0.004240 
#    z 0.011990 0.004240 1.950200 
# 
# From -- ./inp_files/208335.got.cif
#   From: 2010.06.25/outbox.cif.g09.slc.cpg/sg2_105_cif.got.tgz:208335.got - 2010.06.27 13:26:56.
