data_PCOD8032052
_publ_section_title
;
Structure prediction by ZEFSAII (Michael W. Deem and Ramdas Pophale) SiO2 
 PCOD8032052
Probable space group: P -1
;
_chemical_formula_sum "Si O2"
_cell_formula_units_Z 16
_cell_length_a 14.942002
_cell_length_b 14.602534
_cell_length_c 14.959935
_cell_angle_alpha 39.433506
_cell_angle_beta 39.781448
_cell_angle_gamma 18.984878
_cell_volume 662.897901
_symmetry_space_group_name_H-M "P -1"
_symmetry_group_IT_number 2
_symmetry_cell_setting 'triclinic'
loop_
_space_group_symop_operation_xyz
x,y,z
-x,-y,-z
loop_
_atom_site_type_symbol
_atom_site_label
_atom_site_fract_x
_atom_site_fract_y
_atom_site_fract_z
Si Si1 0.704776 0.041775 0.831299
Si Si2 0.420983 0.543945 0.215363
Si Si3 0.899453 0.990980 0.163301
Si Si4 0.354388 0.571758 0.438328
Si Si5 0.153937 0.362360 0.282890
Si Si6 0.220940 0.505875 0.963586
Si Si7 0.217302 0.029279 0.369727
Si Si8 0.665530 0.906362 0.356176
O O1 0.601202 0.297208 0.699019
O O2 0.431553 0.218640 0.957688
O O3 0.763518 0.914698 0.786167
O O4 0.974768 0.793693 0.875313
O O5 0.581762 0.307926 0.195985
O O6 0.396161 0.476317 0.377213
O O7 0.585217 0.546963 0.098749
O O8 0.102844 0.846539 0.198395
O O9 0.886630 0.835888 0.261676
O O10 0.000000 0.000000 0.000000
O O11 0.059487 0.813738 0.526743
O O12 0.554353 0.299952 0.551773
O O13 0.229978 0.137757 0.354963
O O14 0.876003 0.600588 0.379772
O O15 0.429059 0.169415 0.269941
O O16 0.083931 0.532647 0.126647
O O17 0.500000 0.000000 0.500000
#
# Coordination Sequence:
#
# PCOD8032052 Si02
#       8
#     2   2   2   2   2   2   2   2
#     4  11  23  42  70 104 137 185 230 291 342 397
#     4  11  23  40  68  97 128 173 230 283 343 405
#     4  12  24  42  70  98 130 175 233 293 349 412
#     4  11  23  41  65  99 138 177 231 286 340 408
#     4  12  27  47  69 100 142 189 229 286 353 422
#     4  11  23  44  70 102 145 178 232 286 349 411
#     4  12  25  41  69  99 142 186 232 276 343 430
#     4  12  28  47  70 100 145 183 238 296 356 422
#
# _framework density 24.136448000000001
#
# number of rings (size 3 to 8) (size 9 to 14) (size 15 to 20)
#    0.000    0.500    0.000    9.750    5.250    1.000 
#    0.000    0.000    0.000    0.000    0.000    0.000 
#    0.000    0.000    0.000    0.000    0.000    0.000 
#
# Total GULP energy -198348.285046 kJ/mol
# GULP energy per Si atom -12396.767815 kJ/mol
# Density = 2.408151 g / cm^3
# Si number density = 24.136448 Si / 1000 Ang^3
#
#
#
# Elastic Constant Matrix: (Units=GPa)
#
#
# Indices 1 2 3 4 5 6 
#
# 1 79.4197 31.5419 42.9143 8.0538 22.1456 -1.3769
# 2 31.5419 163.4652 37.4723 15.8514 14.2637 -5.7780
# 3 42.9143 37.4723 94.9851 6.2836 15.5621 -6.7685
# 4 8.0538 15.8514 6.2836 39.3808 4.7131 13.2296
# 5 22.1456 14.2637 15.5621 4.7131 37.2058 0.6579
# 6 -1.3769 -5.7780 -6.7685 13.2296 0.6579 40.0661
#
#
#
# Elastic Compliance Matrix: (Units=1/GPa)
#
#
# Indices 1 2 3 4 5 6 
#
# 1 0.019079 -0.001329 -0.006728 -0.001316 -0.007864 -0.000109
# 2 -0.001329 0.007188 -0.001790 -0.002773 -0.000893 0.001619
# 3 -0.006728 -0.001790 0.014724 -0.000860 -0.001400 0.002305
# 4 -0.001316 -0.002773 -0.000860 0.030688 -0.001493 -0.010699
# 5 -0.007864 -0.000893 -0.001400 -0.001493 0.032687 -0.000679
# 6 -0.000109 0.001619 0.002305 -0.010699 -0.000679 0.029122
#
#
# Mechanical properties :
#
#
# Convention : Reuss Voigt Hill
#
# Bulk Modulus (GPa) = 46.95470 62.41413 54.68441
# Shear Modulus (GPa) = 31.19495 38.39331 34.79413
#
# Velocity S-wave (km/s) = 3.59895 3.99266 3.80091
# Velocity P-wave (km/s) = 6.06350 6.86805 6.47828
#
# Compressibility (1/GPa) = 0.02129712
#
# Stress axis : x y z
#
# Youngs Moduli (GPa) = 52.41382 139.11239 67.91502
#
# Poissons Ratio (x) = 0.18492 0.45692
# Poissons Ratio (y) = 0.06967 0.12158
# Poissons Ratio (z) = 0.35263 0.24904
#
# Static dielectric constant tensor:
#      x y z
#    x 4.283020 0.286200 0.368520 
#    y 0.286200 4.508960 0.339380 
#    z 0.368520 0.339380 4.303330 
# 
# 
# High freq. dielectric constant tensor:
#      x y z
#    x 1.962040 0.006280 0.021200 
#    y 0.006280 1.975280 0.014270 
#    z 0.021200 0.014270 1.955230 
# 
# From -- ./inp_files/534250.got.cif
#   From: 2010.06.25/outbox.cif.g09.slc.cpg/sg2_268_cif.got.tgz:534250.got - 2010.06.27 13:26:56.
