data_PCOD8032405
_publ_section_title
;
Structure prediction by ZEFSAII (Michael W. Deem and Ramdas Pophale) SiO2 
 PCOD8032405
Probable space group: P -1
;
_chemical_formula_sum "Si O2"
_cell_formula_units_Z 14
_cell_length_a 8.432040
_cell_length_b 14.709574
_cell_length_c 14.394529
_cell_angle_alpha 138.482016
_cell_angle_beta 33.791191
_cell_angle_gamma 137.291059
_cell_volume 626.773012
_symmetry_space_group_name_H-M "P -1"
_symmetry_group_IT_number 2
_symmetry_cell_setting 'triclinic'
loop_
_space_group_symop_operation_xyz
x,y,z
-x,-y,-z
loop_
_atom_site_type_symbol
_atom_site_label
_atom_site_fract_x
_atom_site_fract_y
_atom_site_fract_z
Si Si1 0.649673 0.631162 0.842214
Si Si2 0.745596 0.071090 0.703189
Si Si3 0.690890 0.320606 0.792861
Si Si4 0.285954 0.793958 0.666862
Si Si5 0.525806 0.679266 0.297860
Si Si6 0.799538 0.279814 0.993840
Si Si7 0.265603 0.588029 0.689605
O O1 0.707789 0.477455 0.684632
O O2 0.946864 0.760248 0.766633
O O3 0.586848 0.650637 0.996391
O O4 0.355821 0.631332 0.928390
O O5 0.799616 0.202332 0.704960
O O6 0.749835 0.123748 0.849208
O O7 0.415036 0.955842 0.766172
O O8 0.000000 0.000000 0.500000
O O9 0.564252 0.258832 0.706555
O O10 0.950427 0.470538 0.773004
O O11 0.512003 0.787887 0.469266
O O12 0.273531 0.672220 0.655176
O O13 0.845283 0.650931 0.116665
O O14 0.659273 0.289470 0.171543
O O15 0.500000 0.500000 0.500000
#
# Coordination Sequence:
#
# PCOD8032405 Si02
#       7
#     2   2   2   2   2   2   2
#     4  11  23  42  69 105 135 178 229 293 340 404
#     4  11  25  49  67 101 139 191 223 281 338 422
#     4  11  25  42  71  96 140 179 234 274 355 404
#     4  12  26  43  70  98 148 174 233 281 341 404
#     4  12  22  43  70 106 130 185 228 288 338 412
#     4  11  25  42  74  98 142 182 230 274 355 400
#     4  12  25  43  70 108 133 179 231 297 332 408
#
# _framework density 22.336635000000001
#
# number of rings (size 3 to 8) (size 9 to 14) (size 15 to 20)
#    0.000    0.571    4.286    3.857    6.000    3.429 
#    0.000    0.000    0.000    0.000    0.000    0.000 
#    0.000    0.000    0.000    0.000    0.000    0.000 
#
# Total GULP energy -173531.882305 kJ/mol
# GULP energy per Si atom -12395.134450 kJ/mol
# Density = 2.228580 g / cm^3
# Si number density = 22.336635 Si / 1000 Ang^3
#
#
#
# Elastic Constant Matrix: (Units=GPa)
#
#
# Indices 1 2 3 4 5 6 
#
# 1 125.7001 32.6447 46.0616 3.9959 14.6343 3.0864
# 2 32.6447 74.3966 9.6024 9.1009 5.7764 9.0631
# 3 46.0616 9.6024 120.3873 8.9130 22.2752 9.0913
# 4 3.9959 9.1009 8.9130 32.7801 5.4643 1.5946
# 5 14.6343 5.7764 22.2752 5.4643 39.8257 3.0320
# 6 3.0864 9.0631 9.0913 1.5946 3.0320 30.6343
#
#
#
# Elastic Compliance Matrix: (Units=1/GPa)
#
#
# Indices 1 2 3 4 5 6 
#
# 1 0.010496 -0.004328 -0.003580 0.001075 -0.001479 0.001376
# 2 -0.004328 0.016268 0.001079 -0.003985 -0.000488 -0.004441
# 3 -0.003580 0.001079 0.010742 -0.001926 -0.004386 -0.002612
# 4 0.001075 -0.003985 -0.001926 0.032530 -0.003224 0.000268
# 5 -0.001479 -0.000488 -0.004386 -0.003224 0.028701 -0.001078
# 6 0.001376 -0.004441 -0.002612 0.000268 -0.001078 0.034686
#
#
# Mechanical properties :
#
#
# Convention : Reuss Voigt Hill
#
# Bulk Modulus (GPa) = 41.93474 55.23348 48.58411
# Shear Modulus (GPa) = 32.25212 36.12638 34.18925
#
# Velocity S-wave (km/s) = 3.80401 4.02600 3.91658
# Velocity P-wave (km/s) = 6.17322 6.81124 6.50007
#
# Compressibility (1/GPa) = 0.02384658
#
# Stress axis : x y z
#
# Youngs Moduli (GPa) = 95.27865 61.47222 93.09519
#
# Poissons Ratio (x) = 0.26602 0.33332
# Poissons Ratio (y) = 0.41232 -0.10044
# Poissons Ratio (z) = 0.34114 -0.06632
#
# Static dielectric constant tensor:
#      x y z
#    x 4.193200 0.247120 0.164400 
#    y 0.247120 3.930030 0.025000 
#    z 0.164400 0.025000 4.210390 
# 
# 
# High freq. dielectric constant tensor:
#      x y z
#    x 1.889460 0.016010 0.003870 
#    y 0.016010 1.858140 0.003260 
#    z 0.003870 0.003260 1.891470 
# 
# From -- ./inp_files/180619.got.cif
#   From: 2010.06.25/outbox.cif.g09.slc.cpg/sg2_91_cif.got.tgz:180619.got - 2010.06.27 13:26:56.
