data_PCOD8032700
_publ_section_title
;
Structure prediction by ZEFSAII (Michael W. Deem and Ramdas Pophale) SiO2 
 PCOD8032700
Probable space group: P -1
;
_chemical_formula_sum "Si O2"
_cell_formula_units_Z 16
_cell_length_a 9.112617
_cell_length_b 15.406213
_cell_length_c 8.641076
_cell_angle_alpha 131.323782
_cell_angle_beta 103.069789
_cell_angle_gamma 109.030254
_cell_volume 674.514820
_symmetry_space_group_name_H-M "P -1"
_symmetry_group_IT_number 2
_symmetry_cell_setting 'triclinic'
loop_
_space_group_symop_operation_xyz
x,y,z
-x,-y,-z
loop_
_atom_site_type_symbol
_atom_site_label
_atom_site_fract_x
_atom_site_fract_y
_atom_site_fract_z
Si Si1 0.553059 0.901748 0.336063
Si Si2 0.113441 0.394800 0.260421
Si Si3 0.099578 0.947042 0.180319
Si Si4 0.272641 0.158876 0.178588
Si Si5 0.529917 0.470750 0.716843
Si Si6 0.001843 0.421817 0.580751
Si Si7 0.563492 0.142537 0.090803
Si Si8 0.635736 0.418014 0.986777
O O1 0.500000 0.000000 0.500000
O O2 0.767747 0.965365 0.531139
O O3 0.545011 0.912599 0.164155
O O4 0.389606 0.728135 0.145814
O O5 0.311681 0.441518 0.282290
O O6 0.025278 0.460292 0.223340
O O7 0.150223 0.479049 0.533999
O O8 0.948670 0.213138 0.023738
O O9 0.216312 0.043626 0.167732
O O10 0.895889 0.920911 0.090306
O O11 0.316440 0.314972 0.421904
O O12 0.483446 0.219976 0.239651
O O13 0.509602 0.580892 0.933259
O O14 0.594086 0.408288 0.785016
O O15 0.800024 0.258700 0.293172
O O16 0.133538 0.428114 0.754071
O O17 0.500000 0.000000 0.000000
#
# Coordination Sequence:
#
# PCOD8032700 Si02
#       8
#     2   2   2   2   2   2   2   2
#     4  12  25  46  72 103 149 188 236 301 357 431
#     4  11  23  43  70 104 136 188 240 299 355 429
#     4  11  25  44  72 101 146 190 236 289 374 419
#     4  11  24  48  70 101 145 191 237 302 356 435
#     4  11  25  46  72 104 149 187 244 305 358 426
#     4  11  23  44  69 103 142 184 246 293 365 429
#     4  12  27  45  73 105 141 191 245 297 363 434
#     4  11  26  45  73 105 145 192 243 298 364 430
#
# _framework density 23.720755
#
# number of rings (size 3 to 8) (size 9 to 14) (size 15 to 20)
#    0.000    0.750    2.500    5.250    1.750    4.000 
#    0.000    0.000    0.000    0.000    0.000    0.000 
#    0.000    0.000    0.000    0.000    0.000    0.000 
#
# Total GULP energy -198213.538776 kJ/mol
# GULP energy per Si atom -12388.346174 kJ/mol
# Density = 2.366677 g / cm^3
# Si number density = 23.720755 Si / 1000 Ang^3
#
#
#
# Elastic Constant Matrix: (Units=GPa)
#
#
# Indices 1 2 3 4 5 6 
#
# 1 78.2518 26.0606 43.6727 -4.8154 10.8293 8.6491
# 2 26.0606 114.2637 56.9458 3.7715 10.7171 -9.5795
# 3 43.6727 56.9458 130.3633 -6.0947 25.6141 -4.4084
# 4 -4.8154 3.7715 -6.0947 38.1523 -20.6547 4.6748
# 5 10.8293 10.7171 25.6141 -20.6547 49.7148 -2.3544
# 6 8.6491 -9.5795 -4.4084 4.6748 -2.3544 32.0625
#
#
#
# Elastic Compliance Matrix: (Units=1/GPa)
#
#
# Indices 1 2 3 4 5 6 
#
# 1 0.017032 -0.002027 -0.004906 0.002277 -0.000094 -0.006214
# 2 -0.002027 0.011900 -0.004336 -0.003151 -0.001015 0.003891
# 3 -0.004906 -0.004336 0.012108 -0.000895 -0.004536 0.001490
# 4 0.002277 -0.003151 -0.000895 0.035574 0.015152 -0.005753
# 5 -0.000094 -0.001015 -0.004536 0.015152 0.028939 -0.000986
# 6 -0.006214 0.003891 0.001490 -0.005753 -0.000986 0.034999
#
#
# Mechanical properties :
#
#
# Convention : Reuss Voigt Hill
#
# Bulk Modulus (GPa) = 54.04280 64.02634 59.03457
# Shear Modulus (GPa) = 29.54080 37.06591 33.30336
#
# Velocity S-wave (km/s) = 3.53279 3.95725 3.75103
# Velocity P-wave (km/s) = 6.28277 6.92316 6.61072
#
# Compressibility (1/GPa) = 0.01850385
#
# Stress axis : x y z
#
# Youngs Moduli (GPa) = 58.71277 84.03289 82.58990
#
# Poissons Ratio (x) = 0.17034 0.40516
# Poissons Ratio (y) = 0.11901 0.35807
# Poissons Ratio (z) = 0.28802 0.36433
#
# Static dielectric constant tensor:
#      x y z
#    x 4.782040 -0.098480 -0.096630 
#    y -0.098480 4.316270 -0.197320 
#    z -0.096630 -0.197320 4.493650 
# 
# 
# High freq. dielectric constant tensor:
#      x y z
#    x 1.942290 -0.020550 0.007960 
#    y -0.020550 1.937730 0.001250 
#    z 0.007960 0.001250 1.945710 
# 
# From -- ./inp_files/209068.got.cif
#   From: 2010.06.25/outbox.cif.g09.slc.cpg/sg2_105_cif.got.tgz:209068.got - 2010.06.27 13:26:56.
