data_PCOD8032986
_publ_section_title
;
Structure prediction by ZEFSAII (Michael W. Deem and Ramdas Pophale) SiO2 
 PCOD8032986
Probable space group: P -1
;
_chemical_formula_sum "Si O2"
_cell_formula_units_Z 16
_cell_length_a 11.669868
_cell_length_b 10.644321
_cell_length_c 11.277759
_cell_angle_alpha 73.838488
_cell_angle_beta 144.948648
_cell_angle_gamma 114.149737
_cell_volume 729.844822
_symmetry_space_group_name_H-M "P -1"
_symmetry_group_IT_number 2
_symmetry_cell_setting 'triclinic'
loop_
_space_group_symop_operation_xyz
x,y,z
-x,-y,-z
loop_
_atom_site_type_symbol
_atom_site_label
_atom_site_fract_x
_atom_site_fract_y
_atom_site_fract_z
Si Si1 0.787751 0.339787 0.752084
Si Si2 0.443368 0.787765 0.626364
Si Si3 0.226844 0.572366 0.029805
Si Si4 0.029677 0.769172 0.400567
Si Si5 0.626145 0.594414 0.977052
Si Si6 0.183180 0.956869 0.106485
Si Si7 0.280527 0.799324 0.825228
Si Si8 0.749188 0.952109 0.126597
O O1 0.611225 0.314674 0.506650
O O2 0.690079 0.374640 0.782338
O O3 0.853516 0.202075 0.852889
O O4 0.988255 0.470165 0.854978
O O5 0.538216 0.716593 0.830486
O O6 0.237456 0.825093 0.481263
O O7 0.605276 0.935633 0.687060
O O8 0.379369 0.497827 0.119654
O O9 0.241407 0.706949 0.932080
O O10 0.931556 0.886585 0.322143
O O11 0.107429 0.717341 0.602017
O O12 0.863247 0.650985 0.214275
O O13 0.500000 0.500000 0.000000
O O14 0.199425 0.971106 0.975243
O O15 0.000000 0.000000 0.000000
O O16 0.241434 0.941751 0.787613
O O17 0.517545 0.833730 0.964423
#
# Coordination Sequence:
#
# PCOD8032986 Si02
#       8
#     2   2   2   2   2   2   2   2
#     4  11  25  44  70  99 138 189 231 281 351 413
#     4  12  25  46  72 102 136 184 239 290 348 412
#     4  11  24  46  69  98 145 184 229 287 343 424
#     4  12  22  43  71 105 136 178 235 290 353 410
#     4  12  26  43  69 106 140 181 234 290 348 418
#     4  12  23  46  72 102 140 180 237 294 344 413
#     4  11  24  44  73 101 145 181 228 292 358 418
#     4  11  23  44  70 108 139 178 232 295 356 407
#
# _framework density 21.922467000000001
#
# number of rings (size 3 to 8) (size 9 to 14) (size 15 to 20)
#    0.000    0.500    5.000    3.750    1.750    1.500 
#    0.000    2.500    0.000    0.000    0.000    0.000 
#    0.000    0.000    0.000    0.000    0.000    0.000 
#
# Total GULP energy -198370.225401 kJ/mol
# GULP energy per Si atom -12398.139088 kJ/mol
# Density = 2.187257 g / cm^3
# Si number density = 21.922467 Si / 1000 Ang^3
#
#
#
# Elastic Constant Matrix: (Units=GPa)
#
#
# Indices 1 2 3 4 5 6 
#
# 1 152.7740 36.2483 56.7951 6.3050 4.1390 -5.9634
# 2 36.2483 88.8840 25.6838 1.2197 14.0366 0.3904
# 3 56.7951 25.6838 119.3686 8.6093 4.4509 -0.1340
# 4 6.3050 1.2197 8.6093 27.7703 -0.4907 -3.7354
# 5 4.1390 14.0366 4.4509 -0.4907 41.2814 0.5029
# 6 -5.9634 0.3904 -0.1340 -3.7354 0.5029 42.1774
#
#
#
# Elastic Compliance Matrix: (Units=1/GPa)
#
#
# Indices 1 2 3 4 5 6 
#
# 1 0.008491 -0.002514 -0.003469 -0.000580 0.000356 0.001157
# 2 -0.002514 0.013372 -0.001552 0.000337 -0.004118 -0.000405
# 3 -0.003469 -0.001552 0.010553 -0.002510 -0.000284 -0.000662
# 4 -0.000580 0.000337 -0.002510 0.037347 0.000619 0.003207
# 5 0.000356 -0.004118 -0.000284 0.000619 0.025629 -0.000163
# 6 0.001157 -0.000405 -0.000662 0.003207 -0.000163 0.024161
#
#
# Mechanical properties :
#
#
# Convention : Reuss Voigt Hill
#
# Bulk Modulus (GPa) = 57.65307 66.49787 62.07547
# Shear Modulus (GPa) = 35.61128 38.39912 37.00520
#
# Velocity S-wave (km/s) = 4.03478 4.18974 4.11299
# Velocity P-wave (km/s) = 6.93265 7.33514 7.13673
#
# Compressibility (1/GPa) = 0.01734513
#
# Stress axis : x y z
#
# Youngs Moduli (GPa) = 117.76785 74.78391 94.75982
#
# Poissons Ratio (x) = 0.18799 0.32876
# Poissons Ratio (y) = 0.29604 0.14710
# Poissons Ratio (z) = 0.40858 0.11609
#
# Static dielectric constant tensor:
#      x y z
#    x 4.296740 -0.008060 -0.023200 
#    y -0.008060 3.385280 -0.611500 
#    z -0.023200 -0.611500 2.947390 
# 
# 
# High freq. dielectric constant tensor:
#      x y z
#    x 1.888690 -0.005150 -0.010040 
#    y -0.005150 1.861830 0.006280 
#    z -0.010040 0.006280 1.853570 
# 
# From -- ./inp_files/427767.got.cif
#   From: 2010.06.25/outbox.cif.g09.slc.cpg/sg2_214_cif.got.tgz:427767.got - 2010.06.27 13:26:56.
