data_PCOD8032024
_publ_section_title
;
Structure prediction by ZEFSAII (Michael W. Deem and Ramdas Pophale) SiO2 
 PCOD8032024
Probable space group: P -1
;
_chemical_formula_sum "Si O2"
_cell_formula_units_Z 16
_cell_length_a 22.328106
_cell_length_b 6.945487
_cell_length_c 7.798393
_cell_angle_alpha 120.855631
_cell_angle_beta 55.884463
_cell_angle_gamma 86.858190
_cell_volume 753.172098
_symmetry_space_group_name_H-M "P -1"
_symmetry_group_IT_number 2
_symmetry_cell_setting 'triclinic'
loop_
_space_group_symop_operation_xyz
x,y,z
-x,-y,-z
loop_
_atom_site_type_symbol
_atom_site_label
_atom_site_fract_x
_atom_site_fract_y
_atom_site_fract_z
Si Si1 0.411882 0.573704 0.747954
Si Si2 0.481797 0.291680 0.845464
Si Si3 0.635558 0.873054 0.853209
Si Si4 0.638278 0.816853 0.436965
Si Si5 0.091177 0.101092 0.000074
Si Si6 0.174594 0.434204 0.993927
Si Si7 0.815423 0.447012 0.352423
Si Si8 0.085285 0.768001 0.587812
O O1 0.500000 0.500000 0.500000
O O2 0.421646 0.438484 0.853612
O O3 0.366316 0.447623 0.655750
O O4 0.360535 0.880997 0.963218
O O5 0.568316 0.041322 0.532785
O O6 0.500000 0.500000 0.000000
O O7 0.437362 0.175057 0.983227
O O8 0.620375 0.942234 0.709852
O O9 0.721170 0.621631 0.638041
O O10 0.729510 0.744780 0.192310
O O11 0.117662 0.313188 0.081275
O O12 0.165770 0.843470 0.844109
O O13 0.079574 0.034893 0.788899
O O14 0.006110 0.189874 0.280543
O O15 0.163782 0.468990 0.823232
O O16 0.137928 0.687224 0.289170
O O17 0.871635 0.443560 0.423090
#
# Coordination Sequence:
#
# PCOD8032024 Si02
#       8
#     2   2   2   2   2   2   2   2
#     4  12  25  42  63  90 125 165 221 260 304 390
#     4  12  24  40  68  87 124 174 202 262 324 357
#     4  11  24  44  61  89 132 161 208 271 307 371
#     4  11  25  43  61  97 121 166 220 252 320 376
#     4   9  21  45  63  94 132 162 208 267 311 390
#     4  11  23  40  66  93 131 164 209 267 318 377
#     4   9  23  41  61  99 122 165 216 251 321 379
#     4   9  21  44  64  94 130 162 213 259 314 391
#
# _framework density 21.243483000000001
#
# number of rings (size 3 to 8) (size 9 to 14) (size 15 to 20)
#    0.750    0.750    2.500    1.875    3.500    3.000 
#    6.750    0.000    0.000    0.000    0.000    0.000 
#    0.000    0.000    0.000    0.000    0.000    0.000 
#
# Total GULP energy -198238.342283 kJ/mol
# GULP energy per Si atom -12389.896393 kJ/mol
# Density = 2.119513 g / cm^3
# Si number density = 21.243483 Si / 1000 Ang^3
#
#
#
# Elastic Constant Matrix: (Units=GPa)
#
#
# Indices 1 2 3 4 5 6 
#
# 1 57.4549 10.9396 28.4172 6.5101 -11.1722 11.3889
# 2 10.9396 47.9675 19.3287 8.9415 2.8538 10.7681
# 3 28.4172 19.3287 113.8253 -3.6570 -5.3621 6.0954
# 4 6.5101 8.9415 -3.6570 32.6000 3.1453 0.7805
# 5 -11.1722 2.8538 -5.3621 3.1453 20.6950 5.2786
# 6 11.3889 10.7681 6.0954 0.7805 5.2786 36.0119
#
#
#
# Elastic Compliance Matrix: (Units=1/GPa)
#
#
# Indices 1 2 3 4 5 6 
#
# 1 0.025986 -0.001500 -0.005195 -0.006709 0.016237 -0.009125
# 2 -0.001500 0.025557 -0.003998 -0.006743 -0.002833 -0.005930
# 3 -0.005195 -0.003998 0.010807 0.003343 -0.000208 0.000967
# 4 -0.006709 -0.006743 0.003343 0.034930 -0.008157 0.004011
# 5 0.016237 -0.002833 -0.000208 -0.008157 0.062021 -0.013167
# 6 -0.009125 -0.005930 0.000967 0.004011 -0.013167 0.034107
#
#
# Mechanical properties :
#
#
# Convention : Reuss Voigt Hill
#
# Bulk Modulus (GPa) = 24.41142 37.40208 30.90675
# Shear Modulus (GPa) = 21.88672 28.56553 25.22613
#
# Velocity S-wave (km/s) = 3.21328 3.67096 3.44972
# Velocity P-wave (km/s) = 5.02823 5.96762 5.51795
#
# Compressibility (1/GPa) = 0.04096443
#
# Stress axis : x y z
#
# Youngs Moduli (GPa) = 38.48208 39.12796 92.53231
#
# Poissons Ratio (x) = 0.05870 0.48069
# Poissons Ratio (y) = 0.05773 0.36993
# Poissons Ratio (z) = 0.19991 0.15643
#
# Static dielectric constant tensor:
#      x y z
#    x 3.679460 0.003180 -0.031360 
#    y 0.003180 3.599600 0.199410 
#    z -0.031360 0.199410 3.915540 
# 
# 
# High freq. dielectric constant tensor:
#      x y z
#    x 1.828020 0.001760 -0.001070 
#    y 0.001760 1.808970 0.006020 
#    z -0.001070 0.006020 1.847800 
# 
# From -- ./inp_files/355926.got.cif
#   From: 2010.06.25/outbox.cif.g09.slc.cpg/sg2_178_cif.got.tgz:355926.got - 2010.06.27 13:26:56.
