data_PCOD8032159
_publ_section_title
;
Structure prediction by ZEFSAII (Michael W. Deem and Ramdas Pophale) SiO2 
 PCOD8032159
Probable space group: P -1
;
_chemical_formula_sum "Si O2"
_cell_formula_units_Z 16
_cell_length_a 14.391689
_cell_length_b 11.207412
_cell_length_c 9.741316
_cell_angle_alpha 66.754522
_cell_angle_beta 100.686647
_cell_angle_gamma 147.875307
_cell_volume 731.217919
_symmetry_space_group_name_H-M "P -1"
_symmetry_group_IT_number 2
_symmetry_cell_setting 'triclinic'
loop_
_space_group_symop_operation_xyz
x,y,z
-x,-y,-z
loop_
_atom_site_type_symbol
_atom_site_label
_atom_site_fract_x
_atom_site_fract_y
_atom_site_fract_z
Si Si1 0.368328 0.614032 0.711807
Si Si2 0.224784 0.922699 0.440268
Si Si3 0.180839 0.825759 0.168325
Si Si4 0.808619 0.661720 0.734546
Si Si5 0.073146 0.198343 0.595568
Si Si6 0.529426 0.398082 0.987013
Si Si7 0.207963 0.667730 0.742604
Si Si8 0.713910 0.264527 0.961822
O O1 0.353412 0.546418 0.895575
O O2 0.361186 0.763048 0.660477
O O3 0.198388 0.365625 0.686744
O O4 0.558118 0.788355 0.615122
O O5 0.208430 0.827583 0.335277
O O6 0.096287 0.899008 0.417399
O O7 0.167084 0.756915 0.618869
O O8 0.185320 0.697591 0.144324
O O9 0.975835 0.638323 0.173784
O O10 0.331942 0.104701 0.030510
O O11 0.798726 0.507954 0.868528
O O12 0.796842 0.636756 0.577767
O O13 0.992576 0.957266 0.691135
O O14 0.636316 0.536763 0.809218
O O15 0.500000 0.500000 0.000000
O O16 0.256914 0.760711 0.868807
O O17 0.500000 0.000000 0.000000
#
# Coordination Sequence:
#
# PCOD8032159 Si02
#       8
#     2   2   2   2   2   2   2   2
#     4  11  24  43  71 105 135 187 234 281 360 408
#     4  11  24  45  69 107 142 179 239 288 344 419
#     4  11  23  41  67 104 139 182 230 287 351 404
#     4  11  24  46  69  99 143 181 232 289 346 412
#     4  11  26  46  73 102 140 188 231 292 345 415
#     4  11  24  46  72 102 141 182 233 292 342 421
#     4  12  24  41  67 107 140 184 237 284 354 417
#     4  12  24  43  66 100 141 184 231 286 349 413
#
# _framework density 21.881302000000002
#
# number of rings (size 3 to 8) (size 9 to 14) (size 15 to 20)
#    0.000    0.750    3.750    4.125    3.500    1.500 
#    0.000    6.875    0.000    0.000    0.000    0.000 
#    0.000    0.000    0.000    0.000    0.000    0.000 
#
# Total GULP energy -198340.165979 kJ/mol
# GULP energy per Si atom -12396.260374 kJ/mol
# Density = 2.183150 g / cm^3
# Si number density = 21.881302 Si / 1000 Ang^3
#
#
#
# Elastic Constant Matrix: (Units=GPa)
#
#
# Indices 1 2 3 4 5 6 
#
# 1 110.8499 42.0218 29.4465 -6.3003 -15.4783 -5.3405
# 2 42.0218 125.5412 55.4102 4.3585 5.7844 7.5249
# 3 29.4465 55.4102 114.5189 -7.7812 -20.1095 1.2845
# 4 -6.3003 4.3585 -7.7812 30.2739 0.0027 -3.8449
# 5 -15.4783 5.7844 -20.1095 0.0027 36.0936 -0.2815
# 6 -5.3405 7.5249 1.2845 -3.8449 -0.2815 39.2282
#
#
#
# Elastic Compliance Matrix: (Units=1/GPa)
#
#
# Indices 1 2 3 4 5 6 
#
# 1 0.011925 -0.004846 0.000594 0.003705 0.006244 0.002942
# 2 -0.004846 0.013454 -0.007011 -0.005201 -0.008168 -0.003579
# 3 0.000594 -0.007011 0.013890 0.004895 0.009129 0.001516
# 4 0.003705 -0.005201 0.004895 0.036438 0.005185 0.004950
# 5 0.006244 -0.008168 0.009129 0.005185 0.036801 0.002890
# 6 0.002942 -0.003579 0.001516 0.004950 0.002890 0.027035
#
#
# Mechanical properties :
#
#
# Convention : Reuss Voigt Hill
#
# Bulk Modulus (GPa) = 59.73045 67.18520 63.45783
# Shear Modulus (GPa) = 29.82403 36.05459 32.93931
#
# Velocity S-wave (km/s) = 3.69588 4.06363 3.88411
# Velocity P-wave (km/s) = 6.75051 7.26557 7.01277
#
# Compressibility (1/GPa) = 0.01674188
#
# Stress axis : x y z
#
# Youngs Moduli (GPa) = 83.85896 74.32964 71.99243
#
# Poissons Ratio (x) = 0.36022 -0.04275
# Poissons Ratio (y) = 0.40640 0.50474
# Poissons Ratio (z) = -0.04980 0.52112
#
# Static dielectric constant tensor:
#      x y z
#    x 3.495240 0.107120 0.004770 
#    y 0.107120 4.132500 0.013130 
#    z 0.004770 0.013130 4.222720 
# 
# 
# High freq. dielectric constant tensor:
#      x y z
#    x 1.862210 -0.001490 -0.020110 
#    y -0.001490 1.863520 -0.004210 
#    z -0.020110 -0.004210 1.864190 
# 
# From -- ./inp_files/307069.got.cif
#   From: 2010.06.25/outbox.cif.g09.slc.cpg/sg2_154_cif.got.tgz:307069.got - 2010.06.27 13:26:56.
