data_PCOD8032610
_publ_section_title
;
Structure prediction by ZEFSAII (Michael W. Deem and Ramdas Pophale) SiO2 
 PCOD8032610
Probable space group: P -1
;
_chemical_formula_sum "Si O2"
_cell_formula_units_Z 16
_cell_length_a 8.645768
_cell_length_b 13.616952
_cell_length_c 15.750912
_cell_angle_alpha 27.053721
_cell_angle_beta 104.318332
_cell_angle_gamma 90.542217
_cell_volume 717.664470
_symmetry_space_group_name_H-M "P -1"
_symmetry_group_IT_number 2
_symmetry_cell_setting 'triclinic'
loop_
_space_group_symop_operation_xyz
x,y,z
-x,-y,-z
loop_
_atom_site_type_symbol
_atom_site_label
_atom_site_fract_x
_atom_site_fract_y
_atom_site_fract_z
Si Si1 0.104028 0.112835 0.288810
Si Si2 0.139358 0.422226 0.203683
Si Si3 0.521329 0.303176 0.814505
Si Si4 0.480206 0.799679 0.493990
Si Si5 0.146599 0.547325 0.530382
Si Si6 0.906578 0.368988 0.348960
Si Si7 0.199782 0.889451 0.147516
Si Si8 0.412240 0.127686 0.078520
O O1 0.096296 0.254838 0.263932
O O2 0.301545 0.006879 0.355123
O O3 0.066675 0.891177 0.480662
O O4 0.949825 0.299811 0.058718
O O5 0.354460 0.310349 0.332203
O O6 0.055725 0.424933 0.282306
O O7 0.447969 0.579969 0.625686
O O8 0.340957 0.297965 0.756380
O O9 0.675712 0.249415 0.809299
O O10 0.571271 0.114065 0.046564
O O11 0.517483 0.937330 0.314097
O O12 0.062281 0.656232 0.526361
O O13 0.210171 0.716740 0.358130
O O14 0.000000 0.500000 0.500000
O O15 0.706524 0.588383 0.126129
O O16 0.260363 0.078645 0.047770
O O17 0.000000 0.000000 0.000000
#
# Coordination Sequence:
#
# PCOD8032610 Si02
#       8
#     2   2   2   2   2   2   2   2
#     4  11  23  51  69 103 144 176 237 296 350 421
#     4  11  27  41  78 105 132 188 233 292 359 423
#     4  11  25  44  66  97 142 187 235 290 350 411
#     4  12  24  44  73  99 143 180 232 289 362 419
#     4  11  24  42  67  98 136 186 233 285 342 419
#     4  11  23  46  69  97 146 183 227 289 356 404
#     4  12  25  41  67  99 139 188 240 290 346 415
#     4  11  23  43  67  98 139 192 226 296 348 416
#
# _framework density 22.294540999999999
#
# number of rings (size 3 to 8) (size 9 to 14) (size 15 to 20)
#    0.000    0.750    5.000    3.000    3.500    2.000 
#    0.000    0.625    0.000    0.000    0.000    0.000 
#    0.000    0.000    0.000    0.000    0.000    0.000 
#
# Total GULP energy -198338.679062 kJ/mol
# GULP energy per Si atom -12396.167441 kJ/mol
# Density = 2.224380 g / cm^3
# Si number density = 22.294541 Si / 1000 Ang^3
#
#
#
# Elastic Constant Matrix: (Units=GPa)
#
#
# Indices 1 2 3 4 5 6 
#
# 1 76.3117 37.5695 46.0796 12.8193 4.2672 -5.9492
# 2 37.5695 58.8728 27.5071 5.8498 3.5796 -3.7222
# 3 46.0796 27.5071 123.1186 11.0488 -6.0727 5.5884
# 4 12.8193 5.8498 11.0488 36.4591 0.4429 -0.9063
# 5 4.2672 3.5796 -6.0727 0.4429 46.7876 9.1749
# 6 -5.9492 -3.7222 5.5884 -0.9063 9.1749 39.1052
#
#
#
# Elastic Compliance Matrix: (Units=1/GPa)
#
#
# Indices 1 2 3 4 5 6 
#
# 1 0.023671 -0.011316 -0.006250 -0.004480 -0.002842 0.003980
# 2 -0.011316 0.025025 -0.001518 0.000469 -0.001319 0.001198
# 3 -0.006250 -0.001518 0.011188 -0.001068 0.002811 -0.003378
# 4 -0.004480 0.000469 -0.001068 0.029258 -0.000085 0.000214
# 5 -0.002842 -0.001319 0.002811 -0.000085 0.023362 -0.006443
# 6 0.003980 0.001198 -0.003378 0.000214 -0.006443 0.028291
#
#
# Mechanical properties :
#
#
# Convention : Reuss Voigt Hill
#
# Bulk Modulus (GPa) = 46.04493 53.40172 49.72332
# Shear Modulus (GPa) = 26.85273 34.28016 30.56644
#
# Velocity S-wave (km/s) = 3.47429 3.92548 3.70676
# Velocity P-wave (km/s) = 6.06565 6.67463 6.37741
#
# Compressibility (1/GPa) = 0.02171792
#
# Stress axis : x y z
#
# Youngs Moduli (GPa) = 42.24623 39.95983 89.37934
#
# Poissons Ratio (x) = 0.45217 0.55862
# Poissons Ratio (y) = 0.47804 0.13564
# Poissons Ratio (z) = 0.26404 0.06064
#
# Static dielectric constant tensor:
#      x y z
#    x 3.952050 0.000250 -0.039340 
#    y 0.000250 3.550710 -0.325120 
#    z -0.039340 -0.325120 3.901480 
# 
# 
# High freq. dielectric constant tensor:
#      x y z
#    x 1.880640 -0.011900 -0.013930 
#    y -0.011900 1.867640 0.003400 
#    z -0.013930 0.003400 1.895800 
# 
# From -- ./inp_files/499765.got.cif
#   From: 2010.06.25/outbox.cif.g09.slc.cpg/sg2_250_cif.got.tgz:499765.got - 2010.06.27 13:26:56.
