data_PCOD8032437
_publ_section_title
;
Structure prediction by ZEFSAII (Michael W. Deem and Ramdas Pophale) SiO2 
 PCOD8032437
Probable space group: P -1
;
_chemical_formula_sum "Si O2"
_cell_formula_units_Z 16
_cell_length_a 8.738076
_cell_length_b 22.265731
_cell_length_c 8.641679
_cell_angle_alpha 45.649337
_cell_angle_beta 94.771284
_cell_angle_gamma 128.505022
_cell_volume 731.335715
_symmetry_space_group_name_H-M "P -1"
_symmetry_group_IT_number 2
_symmetry_cell_setting 'triclinic'
loop_
_space_group_symop_operation_xyz
x,y,z
-x,-y,-z
loop_
_atom_site_type_symbol
_atom_site_label
_atom_site_fract_x
_atom_site_fract_y
_atom_site_fract_z
Si Si1 0.889642 0.284730 0.345732
Si Si2 0.391370 0.685655 0.844652
Si Si3 0.749766 0.902515 0.750870
Si Si4 0.898393 0.225871 0.797935
Si Si5 0.139222 0.490720 0.432649
Si Si6 0.393876 0.980099 0.364729
Si Si7 0.644403 0.697275 0.282277
Si Si8 0.436142 0.567107 0.831817
O O1 0.686594 0.272106 0.351658
O O2 0.923598 0.255625 0.565609
O O3 0.818259 0.178167 0.416512
O O4 0.135658 0.438543 0.024894
O O5 0.534124 0.790435 0.810457
O O6 0.536324 0.678051 0.768202
O O7 0.165585 0.535495 0.177818
O O8 0.731945 0.983727 0.689083
O O9 0.735151 0.831403 0.019913
O O10 0.000000 0.000000 0.500000
O O11 0.945654 0.330370 0.710261
O O12 0.113172 0.254615 0.819913
O O13 0.617793 0.073337 0.088603
O O14 0.409158 0.576194 0.367213
O O15 0.000000 0.500000 0.500000
O O16 0.500000 0.000000 0.500000
O O17 0.562381 0.649712 0.535998
O O18 0.500000 0.500000 0.000000
#
# Coordination Sequence:
#
# PCOD8032437 Si02
#       8
#     2   2   2   2   2   2   2   2
#     4  12  26  45  72 100 145 185 234 291 352 428
#     4  11  24  44  69 104 136 183 231 290 356 413
#     4  11  26  49  73 103 141 186 238 293 350 426
#     4  12  25  46  67 102 144 183 235 285 356 428
#     4  11  23  42  70 104 138 183 235 292 350 412
#     4  12  27  48  71 103 137 191 239 285 358 425
#     4  11  25  43  72 107 138 187 235 294 354 415
#     4  12  25  45  70 108 144 181 234 294 362 414
#
# _framework density 21.877776999999998
#
# number of rings (size 3 to 8) (size 9 to 14) (size 15 to 20)
#    0.000    0.500    3.750    4.125    7.000    1.000 
#    0.000    1.250    0.000    0.000    0.000    0.000 
#    0.000    0.000    0.000    0.000    0.000    0.000 
#
# Total GULP energy -198373.740270 kJ/mol
# GULP energy per Si atom -12398.358767 kJ/mol
# Density = 2.182798 g / cm^3
# Si number density = 21.877777 Si / 1000 Ang^3
#
#
#
# Elastic Constant Matrix: (Units=GPa)
#
#
# Indices 1 2 3 4 5 6 
#
# 1 140.6826 45.4662 30.7471 1.3122 18.7566 -7.1052
# 2 45.4662 74.4090 15.2495 7.5501 14.4388 -11.5763
# 3 30.7471 15.2495 106.1373 18.7345 1.2838 -0.8390
# 4 1.3122 7.5501 18.7345 28.2106 3.2636 7.9417
# 5 18.7566 14.4388 1.2838 3.2636 45.9374 -0.4888
# 6 -7.1052 -11.5763 -0.8390 7.9417 -0.4888 38.9099
#
#
#
# Elastic Compliance Matrix: (Units=1/GPa)
#
#
# Indices 1 2 3 4 5 6 
#
# 1 0.009646 -0.005296 -0.002555 0.003096 -0.002428 -0.000532
# 2 -0.005296 0.018833 -0.000019 -0.006044 -0.003265 0.005828
# 3 -0.002555 -0.000019 0.011597 -0.008140 0.001319 0.001456
# 4 0.003096 -0.006044 -0.008140 0.045643 -0.002494 -0.010756
# 5 -0.002428 -0.003265 0.001319 -0.002494 0.023921 -0.000577
# 6 -0.000532 0.005828 0.001456 -0.010756 -0.000577 0.029557
#
#
# Mechanical properties :
#
#
# Convention : Reuss Voigt Hill
#
# Bulk Modulus (GPa) = 41.09181 56.01717 48.55449
# Shear Modulus (GPa) = 30.66561 37.92933 34.29747
#
# Velocity S-wave (km/s) = 3.74796 4.16828 3.96370
# Velocity P-wave (km/s) = 6.12804 6.98758 6.57188
#
# Compressibility (1/GPa) = 0.02433575
#
# Stress axis : x y z
#
# Youngs Moduli (GPa) = 103.66739 53.09855 86.22945
#
# Poissons Ratio (x) = 0.28122 0.22030
# Poissons Ratio (y) = 0.54905 0.00165
# Poissons Ratio (z) = 0.26485 0.00101
#
# Static dielectric constant tensor:
#      x y z
#    x 3.451140 -0.046630 0.056330 
#    y -0.046630 4.234170 -0.348930 
#    z 0.056330 -0.348930 4.583470 
# 
# 
# High freq. dielectric constant tensor:
#      x y z
#    x 1.871310 -0.003390 0.011440 
#    y -0.003390 1.857810 0.003110 
#    z 0.011440 0.003110 1.873020 
# 
# From -- ./inp_files/216445.got.cif
#   From: 2010.06.25/outbox.cif.g09.slc.cpg/sg2_109_cif.got.tgz:216445.got - 2010.06.27 13:26:56.
