data_PCOD8032146
_publ_section_title
;
Structure prediction by ZEFSAII (Michael W. Deem and Ramdas Pophale) SiO2 
 PCOD8032146
Probable space group: P -1
;
_chemical_formula_sum "Si O2"
_cell_formula_units_Z 10
_cell_length_a 14.343563
_cell_length_b 14.752582
_cell_length_c 12.952609
_cell_angle_alpha 151.400789
_cell_angle_beta 154.558784
_cell_angle_gamma 20.012752
_cell_volume 394.757156
_symmetry_space_group_name_H-M "P -1"
_symmetry_group_IT_number 2
_symmetry_cell_setting 'triclinic'
loop_
_space_group_symop_operation_xyz
x,y,z
-x,-y,-z
loop_
_atom_site_type_symbol
_atom_site_label
_atom_site_fract_x
_atom_site_fract_y
_atom_site_fract_z
Si Si1 0.395365 0.960068 0.593780
Si Si2 0.911013 0.852235 0.318606
Si Si3 0.250000 0.750000 0.071987
Si Si4 0.411012 0.352235 0.207890
Si Si5 0.895365 0.460068 0.117087
O O1 0.173920 0.019161 0.523597
O O2 0.250000 0.249999 0.701359
O O3 0.403343 0.814718 0.360359
O O4 0.750000 0.750000 0.779317
O O5 0.278279 0.578754 0.391820
O O6 0.778280 0.078755 0.322247
O O7 0.749999 0.750001 0.041781
O O8 0.500000 0.500000 0.000000
O O9 0.096658 0.685281 0.924237
O O10 0.000000 0.000000 0.000000
O O11 0.326080 0.480838 0.137434
#
# Coordination Sequence:
#
# PCOD8032146 Si02
#       5
#     2   2   2   2   2
#     4  11  23  41  66  93 124 163 204 249 307 369
#     4   9  16  30  56  89 123 158 193 235 293 361
#     4  12  28  46  64  90 122 158 212 270 310 356
#     4   9  16  30  56  89 123 158 193 235 293 361
#     4  11  23  41  66  93 124 163 204 249 307 369
#
# _framework density 25.332028000000001
#
# number of rings (size 3 to 8) (size 9 to 14) (size 15 to 20)
#    0.000    1.600    0.000    8.400    0.000    4.800 
#    0.000    2.000    0.000    0.000    0.000    5.600 
#    0.000    0.000    0.000    0.000    0.000    0.000 
#
# Total GULP energy -124014.963615 kJ/mol
# GULP energy per Si atom -12401.496361 kJ/mol
# Density = 2.527437 g / cm^3
# Si number density = 25.332028 Si / 1000 Ang^3
#
#
#
# Elastic Constant Matrix: (Units=GPa)
#
#
# Indices 1 2 3 4 5 6 
#
# 1 147.3793 84.7466 49.8369 -6.4520 -26.6143 4.9374
# 2 84.7466 215.9251 57.2480 -16.7784 -14.8525 -12.6376
# 3 49.8369 57.2480 109.7501 8.4890 -25.9706 -8.2166
# 4 -6.4520 -16.7784 8.4890 52.2883 -3.0173 0.9882
# 5 -26.6143 -14.8525 -25.9706 -3.0173 44.5475 4.1463
# 6 4.9374 -12.6376 -8.2166 0.9882 4.1463 62.2670
#
#
#
# Elastic Compliance Matrix: (Units=1/GPa)
#
#
# Indices 1 2 3 4 5 6 
#
# 1 0.010200 -0.003185 -0.002251 0.000869 0.003968 -0.002030
# 2 -0.003185 0.006665 -0.002331 0.002040 -0.001026 0.001334
# 3 -0.002251 -0.002331 0.012854 -0.002841 0.005076 0.001109
# 4 0.000869 0.002040 -0.002841 0.020411 0.000965 -0.000418
# 5 0.003968 -0.001026 0.005076 0.000965 0.027660 -0.001710
# 6 -0.002030 0.001334 0.001109 -0.000418 -0.001710 0.016758
#
#
# Mechanical properties :
#
#
# Convention : Reuss Voigt Hill
#
# Bulk Modulus (GPa) = 70.49590 95.19083 82.84337
# Shear Modulus (GPa) = 43.54958 50.56877 47.05918
#
# Velocity S-wave (km/s) = 4.15076 4.47278 4.31477
# Velocity P-wave (km/s) = 7.13169 8.02079 7.58927
#
# Compressibility (1/GPa) = 0.01418522
#
# Stress axis : x y z
#
# Youngs Moduli (GPa) = 98.03503 150.02922 77.79975
#
# Poissons Ratio (x) = 0.47785 0.17512
# Poissons Ratio (y) = 0.31225 0.18136
# Poissons Ratio (z) = 0.22067 0.34973
#
# Static dielectric constant tensor:
#      x y z
#    x 4.759790 -0.024720 0.134320 
#    y -0.024720 5.286590 0.132440 
#    z 0.134320 0.132440 4.907610 
# 
# 
# High freq. dielectric constant tensor:
#      x y z
#    x 2.009400 0.001450 0.023650 
#    y 0.001450 2.050910 0.017800 
#    z 0.023650 0.017800 2.034970 
# 
# From -- ./inp_files/74732.got.cif
#   From: 2010.06.25/outbox.cif.g09.slc.cpg/sg2_38_cif.got.tgz:74732.got - 2010.06.27 13:26:56.
