data_PCOD8032070
_publ_section_title
;
Structure prediction by ZEFSAII (Michael W. Deem and Ramdas Pophale) SiO2 
 PCOD8032070
Probable space group: P -1
;
_chemical_formula_sum "Si O2"
_cell_formula_units_Z 14
_cell_length_a 9.535574
_cell_length_b 21.448412
_cell_length_c 10.003824
_cell_angle_alpha 151.730061
_cell_angle_beta 44.348712
_cell_angle_gamma 127.666733
_cell_volume 676.299064
_symmetry_space_group_name_H-M "P -1"
_symmetry_group_IT_number 2
_symmetry_cell_setting 'triclinic'
loop_
_space_group_symop_operation_xyz
x,y,z
-x,-y,-z
loop_
_atom_site_type_symbol
_atom_site_label
_atom_site_fract_x
_atom_site_fract_y
_atom_site_fract_z
Si Si1 0.763328 0.475395 0.635805
Si Si2 0.021893 0.099625 0.290450
Si Si3 0.383736 0.618946 0.724502
Si Si4 0.387266 0.912244 0.305250
Si Si5 0.115279 0.628216 0.155081
Si Si6 0.430498 0.974955 0.854058
Si Si7 0.398263 0.667607 0.274904
O O1 0.663496 0.410739 0.452952
O O2 0.735907 0.377342 0.593756
O O3 0.000000 0.500000 0.500000
O O4 0.630773 0.610596 0.015291
O O5 0.845033 0.088924 0.498560
O O6 0.024867 0.240363 0.478137
O O7 0.232169 0.070220 0.161672
O O8 0.000000 0.000000 0.000000
O O9 0.500000 0.500000 0.500000
O O10 0.485350 0.760969 0.940541
O O11 0.173499 0.637376 0.977820
O O12 0.500000 0.000000 0.500000
O O13 0.402817 0.981898 0.282905
O O14 0.303280 0.617369 0.107333
O O15 0.000000 0.500000 0.000000
O O16 0.388005 0.824161 0.572899
O O17 0.500000 0.000000 0.000000
#
# Coordination Sequence:
#
# PCOD8032070 Si02
#       7
#     2   2   2   2   2   2   2
#     4  11  25  44  68  97 138 178 217 276 342 393
#     4  11  23  44  67  98 133 173 232 270 322 411
#     4  11  23  41  66  98 128 169 227 272 322 396
#     4  11  24  42  69  98 133 174 227 274 327 400
#     4  11  23  40  69  99 129 173 227 274 327 393
#     4  12  26  44  70  98 137 182 216 281 345 385
#     4  11  24  45  65 100 137 170 230 276 323 412
#
# _framework density 20.700900000000001
#
# number of rings (size 3 to 8) (size 9 to 14) (size 15 to 20)
#    0.000    0.857    4.286    2.571    2.000    6.286 
#    0.000    0.000    0.000    0.000    0.000    0.000 
#    0.000    0.000    0.000    0.000    0.000    0.000 
#
# Total GULP energy -173511.238178 kJ/mol
# GULP energy per Si atom -12393.659870 kJ/mol
# Density = 2.065378 g / cm^3
# Si number density = 20.700900 Si / 1000 Ang^3
#
#
#
# Elastic Constant Matrix: (Units=GPa)
#
#
# Indices 1 2 3 4 5 6 
#
# 1 109.1009 44.3782 48.7115 -0.5648 -0.5969 -3.3127
# 2 44.3782 160.9766 70.0160 6.1911 -2.2598 -4.8310
# 3 48.7115 70.0160 115.1407 14.7864 -1.5719 0.6175
# 4 -0.5648 6.1911 14.7864 50.8858 -1.9968 4.2922
# 5 -0.5969 -2.2598 -1.5719 -1.9968 44.9907 -4.3257
# 6 -3.3127 -4.8310 0.6175 4.2922 -4.3257 35.9658
#
#
#
# Elastic Compliance Matrix: (Units=1/GPa)
#
#
# Indices 1 2 3 4 5 6 
#
# 1 0.011677 -0.001385 -0.004292 0.001481 0.000078 0.000796
# 2 -0.001385 0.008678 -0.004720 0.000219 0.000372 0.001138
# 3 -0.004292 -0.004720 0.013814 -0.003416 -0.000046 -0.000864
# 4 0.001481 0.000219 -0.003416 0.020843 0.000626 -0.002188
# 5 0.000078 0.000372 -0.000046 0.000626 0.022532 0.002693
# 6 0.000796 0.001138 -0.000864 -0.002188 0.002693 0.028630
#
#
# Mechanical properties :
#
#
# Convention : Reuss Voigt Hill
#
# Bulk Modulus (GPa) = 74.76170 79.04772 76.90471
# Shear Modulus (GPa) = 38.04423 41.17597 39.61010
#
# Velocity S-wave (km/s) = 4.29161 4.46476 4.37904
# Velocity P-wave (km/s) = 7.79428 8.05278 7.92459
#
# Compressibility (1/GPa) = 0.01337583
#
# Stress axis : x y z
#
# Youngs Moduli (GPa) = 85.63507 115.23681 72.39148
#
# Poissons Ratio (x) = 0.15955 0.31069
# Poissons Ratio (y) = 0.11857 0.34171
# Poissons Ratio (z) = 0.36752 0.54395
#
# Static dielectric constant tensor:
#      x y z
#    x 3.445230 0.113910 0.375470 
#    y 0.113910 3.386400 -0.365940 
#    z 0.375470 -0.365940 3.747900 
# 
# 
# High freq. dielectric constant tensor:
#      x y z
#    x 1.799850 -0.009910 0.005800 
#    y -0.009910 1.824820 0.003580 
#    z 0.005800 0.003580 1.832670 
# 
# From -- ./inp_files/224310.got.cif
#   From: 2010.06.25/outbox.cif.g09.slc.cpg/sg2_113_cif.got.tgz:224310.got - 2010.06.27 13:26:56.
