data_PCOD8032890
_publ_section_title
;
Structure prediction by ZEFSAII (Michael W. Deem and Ramdas Pophale) SiO2 
 PCOD8032890
Probable space group: P -1
;
_chemical_formula_sum "Si O2"
_cell_formula_units_Z 14
_cell_length_a 25.039404
_cell_length_b 24.435595
_cell_length_c 14.199949
_cell_angle_alpha 157.669368
_cell_angle_beta 21.971388
_cell_angle_gamma 168.652202
_cell_volume 624.775499
_symmetry_space_group_name_H-M "P -1"
_symmetry_group_IT_number 2
_symmetry_cell_setting 'triclinic'
loop_
_space_group_symop_operation_xyz
x,y,z
-x,-y,-z
loop_
_atom_site_type_symbol
_atom_site_label
_atom_site_fract_x
_atom_site_fract_y
_atom_site_fract_z
Si Si1 0.409252 0.977185 0.403579
Si Si2 0.337513 0.826749 0.893383
Si Si3 0.205544 0.473733 0.255407
Si Si4 0.963968 0.873962 0.266546
Si Si5 0.116741 0.366614 0.609130
Si Si6 0.287468 0.229353 0.674396
Si Si7 0.425369 0.708976 0.070477
O O1 0.475541 0.899800 0.237998
O O2 0.110847 0.782547 0.603985
O O3 0.448514 0.965678 0.212565
O O4 0.620332 0.290692 0.576707
O O5 0.215667 0.557686 0.666916
O O6 0.076036 0.710264 0.124308
O O7 0.500000 0.000000 0.000000
O O8 0.253130 0.583292 0.248542
O O9 0.280506 0.370016 0.969186
O O10 0.825129 0.848205 0.370786
O O11 0.755311 0.557391 0.123776
O O12 0.000000 0.000000 0.500000
O O13 0.271951 0.090412 0.074700
O O14 0.390825 0.544781 0.498557
O O15 0.921680 0.069724 0.411649
#
# Coordination Sequence:
#
# PCOD8032890 Si02
#       7
#     2   2   2   2   2   2   2
#     4  12  26  43  73  99 138 182 234 279 339 400
#     4  11  27  47  72 104 136 172 236 292 341 408
#     4  11  24  45  68 103 139 180 233 272 333 422
#     4  11  24  40  64 105 144 174 233 271 337 426
#     4  11  24  45  74  94 135 178 226 280 357 397
#     4  11  23  44  72  95 137 188 215 283 353 393
#     4  11  23  44  67 101 142 185 223 280 337 399
#
# _framework density 22.408048000000001
#
# number of rings (size 3 to 8) (size 9 to 14) (size 15 to 20)
#    0.000    0.857    1.429    6.429    6.000    1.143 
#    0.000    4.286    0.000    0.000    0.000    0.000 
#    0.000    0.000    0.000    0.000    0.000    0.000 
#
# Total GULP energy -173625.789868 kJ/mol
# GULP energy per Si atom -12401.842133 kJ/mol
# Density = 2.235705 g / cm^3
# Si number density = 22.408048 Si / 1000 Ang^3
#
#
#
# Elastic Constant Matrix: (Units=GPa)
#
#
# Indices 1 2 3 4 5 6 
#
# 1 86.2349 65.6637 76.9372 -17.6156 4.0084 -8.5376
# 2 65.6637 197.6757 82.3178 -23.0686 -2.8837 9.0671
# 3 76.9372 82.3178 133.3614 -14.9995 -9.3449 1.6639
# 4 -17.6156 -23.0686 -14.9995 63.1219 -1.3243 -4.2543
# 5 4.0084 -2.8837 -9.3449 -1.3243 30.7923 0.5768
# 6 -8.5376 9.0671 1.6639 -4.2543 0.5768 42.9716
#
#
#
# Elastic Compliance Matrix: (Units=1/GPa)
#
#
# Indices 1 2 3 4 5 6 
#
# 1 0.030044 -0.003619 -0.015400 0.003743 -0.008909 0.007819
# 2 -0.003619 0.007458 -0.002336 0.001030 0.000545 -0.002108
# 3 -0.015400 -0.002336 0.018284 -0.000885 0.007361 -0.003461
# 4 0.003743 0.001030 -0.000885 0.017206 0.000038 0.002263
# 5 -0.008909 0.000545 0.007361 0.000038 0.035972 -0.002649
# 6 0.007819 -0.002108 -0.003461 0.002263 -0.002649 0.025663
#
#
# Mechanical properties :
#
#
# Convention : Reuss Voigt Hill
#
# Bulk Modulus (GPa) = 76.46656 96.34549 86.40602
# Shear Modulus (GPa) = 27.51875 40.20074 33.85974
#
# Velocity S-wave (km/s) = 3.50819 4.24020 3.89144
# Velocity P-wave (km/s) = 7.11397 8.18912 7.67040
#
# Compressibility (1/GPa) = 0.01307761
#
# Stress axis : x y z
#
# Youngs Moduli (GPa) = 33.28466 134.07743 54.69367
#
# Poissons Ratio (x) = 0.48522 0.84226
# Poissons Ratio (y) = 0.12046 0.12774
# Poissons Ratio (z) = 0.51257 0.31315
#
# Static dielectric constant tensor:
#      x y z
#    x 3.715750 -0.097610 -0.256280 
#    y -0.097610 4.463260 0.095290 
#    z -0.256280 0.095290 4.294320 
# 
# 
# High freq. dielectric constant tensor:
#      x y z
#    x 1.856330 -0.000480 -0.016730 
#    y -0.000480 1.913530 0.003150 
#    z -0.016730 0.003150 1.891780 
# 
# From -- ./inp_files/544593.got.cif
#   From: 2010.06.25/outbox.cif.g09.slc.cpg/sg2_273_cif.got.tgz:544593.got - 2010.06.27 13:26:56.
