data_PCOD8032415
_publ_section_title
;
Structure prediction by ZEFSAII (Michael W. Deem and Ramdas Pophale) SiO2 
 PCOD8032415
Probable space group: P -1
;
_chemical_formula_sum "Si O2"
_cell_formula_units_Z 16
_cell_length_a 8.778140
_cell_length_b 10.968506
_cell_length_c 14.576090
_cell_angle_alpha 108.291909
_cell_angle_beta 146.847541
_cell_angle_gamma 82.095166
_cell_volume 707.195926
_symmetry_space_group_name_H-M "P -1"
_symmetry_group_IT_number 2
_symmetry_cell_setting 'triclinic'
loop_
_space_group_symop_operation_xyz
x,y,z
-x,-y,-z
loop_
_atom_site_type_symbol
_atom_site_label
_atom_site_fract_x
_atom_site_fract_y
_atom_site_fract_z
Si Si1 0.567037 0.267860 0.749582
Si Si2 0.178015 0.499798 0.366066
Si Si3 0.697476 0.262661 0.385966
Si Si4 0.668662 0.494414 0.991562
Si Si5 0.939581 0.731111 0.617699
Si Si6 0.800776 0.023301 0.483363
Si Si7 0.174525 0.015963 0.841132
Si Si8 0.804302 0.727660 0.980059
O O1 0.392083 0.316545 0.591011
O O2 0.448359 0.109941 0.661057
O O3 0.897906 0.305436 0.900228
O O4 0.530592 0.352809 0.841021
O O5 0.500000 0.500000 0.500000
O O6 0.141476 0.615140 0.443261
O O7 0.005012 0.371723 0.304696
O O8 0.003358 0.506888 0.186586
O O9 0.863989 0.249236 0.371177
O O10 0.652824 0.137476 0.401990
O O11 0.386373 0.285713 0.210741
O O12 0.641245 0.619265 0.945269
O O13 0.500000 0.500000 0.000000
O O14 0.985592 0.868466 0.729201
O O15 0.000000 0.000000 0.500000
O O16 0.024188 0.067769 0.690086
O O17 0.153747 0.120349 0.933001
O O18 0.500000 0.000000 0.000000
#
# Coordination Sequence:
#
# PCOD8032415 Si02
#       8
#     2   2   2   2   2   2   2   2
#     4  11  25  44  68  97 136 173 214 275 337 382
#     4  12  26  42  65  97 134 169 220 275 325 387
#     4  12  23  44  68  95 132 178 216 267 327 394
#     4  12  26  42  69 100 128 176 224 272 320 400
#     4  11  23  44  68  93 132 177 215 266 330 392
#     4  11  23  42  69  97 132 173 220 270 325 395
#     4  11  23  42  69  99 131 172 222 269 324 396
#     4  12  25  43  68  99 136 172 217 276 331 386
#
# _framework density 22.624563999999999
#
# number of rings (size 3 to 8) (size 9 to 14) (size 15 to 20)
#    0.000    0.500    3.750    5.250    1.750    4.500 
#    0.000    0.000    0.000    0.000    0.000    0.000 
#    0.000    0.000    0.000    0.000    0.000    0.000 
#
# Total GULP energy -198312.264897 kJ/mol
# GULP energy per Si atom -12394.516556 kJ/mol
# Density = 2.257307 g / cm^3
# Si number density = 22.624564 Si / 1000 Ang^3
#
#
#
# Elastic Constant Matrix: (Units=GPa)
#
#
# Indices 1 2 3 4 5 6 
#
# 1 55.5963 30.9720 9.5939 3.3035 4.7546 1.6006
# 2 30.9720 127.2468 44.7492 2.4797 -20.1073 5.5827
# 3 9.5939 44.7492 141.4855 -14.8598 -7.8496 3.5168
# 4 3.3035 2.4797 -14.8598 39.3232 -7.2873 -4.1498
# 5 4.7546 -20.1073 -7.8496 -7.2873 36.5264 -3.7015
# 6 1.6006 5.5827 3.5168 -4.1498 -3.7015 33.3716
#
#
#
# Elastic Compliance Matrix: (Units=1/GPa)
#
#
# Indices 1 2 3 4 5 6 
#
# 1 0.022426 -0.006427 -0.000175 -0.003003 -0.007211 -0.001155
# 2 -0.006427 0.011468 -0.002831 -0.000121 0.006455 -0.000611
# 3 -0.000175 -0.002831 0.008401 0.003569 0.000997 0.000151
# 4 -0.003003 -0.000121 0.003569 0.028826 0.007266 0.004179
# 5 -0.007211 0.006455 0.000997 0.007266 0.033921 0.003827
# 6 -0.001155 -0.000611 0.000151 0.004179 0.003827 0.031051
#
#
# Mechanical properties :
#
#
# Convention : Reuss Voigt Hill
#
# Bulk Modulus (GPa) = 42.68030 54.99541 48.83785
# Shear Modulus (GPa) = 30.71839 37.77848 34.24844
#
# Velocity S-wave (km/s) = 3.68876 4.09075 3.89494
# Velocity P-wave (km/s) = 6.08672 6.83176 6.46997
#
# Compressibility (1/GPa) = 0.02343001
#
# Stress axis : x y z
#
# Youngs Moduli (GPa) = 44.59124 87.20054 119.02846
#
# Poissons Ratio (x) = 0.56047 0.02077
# Poissons Ratio (y) = 0.28661 0.33692
# Poissons Ratio (z) = 0.00778 0.24683
#
# Static dielectric constant tensor:
#      x y z
#    x 3.707830 -0.236100 -0.180640 
#    y -0.236100 4.135540 -0.065730 
#    z -0.180640 -0.065730 4.434940 
# 
# 
# High freq. dielectric constant tensor:
#      x y z
#    x 1.869210 -0.007090 -0.005920 
#    y -0.007090 1.910490 -0.003920 
#    z -0.005920 -0.003920 1.917980 
# 
# From -- ./inp_files/500644.got.cif
#   From: 2010.06.25/outbox.cif.g09.slc.cpg/sg2_251_cif.got.tgz:500644.got - 2010.06.27 13:26:56.
