data_PCOD8032408
_publ_section_title
;
Structure prediction by ZEFSAII (Michael W. Deem and Ramdas Pophale) SiO2 
 PCOD8032408
Probable space group: P -1
;
_chemical_formula_sum "Si O2"
_cell_formula_units_Z 14
_cell_length_a 8.310653
_cell_length_b 11.082168
_cell_length_c 14.534937
_cell_angle_alpha 151.405182
_cell_angle_beta 81.677139
_cell_angle_gamma 90.086946
_cell_volume 611.260780
_symmetry_space_group_name_H-M "P -1"
_symmetry_group_IT_number 2
_symmetry_cell_setting 'triclinic'
loop_
_space_group_symop_operation_xyz
x,y,z
-x,-y,-z
loop_
_atom_site_type_symbol
_atom_site_label
_atom_site_fract_x
_atom_site_fract_y
_atom_site_fract_z
Si Si1 0.721029 0.193035 0.882476
Si Si2 0.378121 0.246426 0.488575
Si Si3 0.793684 0.904873 0.876983
Si Si4 0.816255 0.276759 0.278610
Si Si5 0.047263 0.014108 0.611353
Si Si6 0.667213 0.761060 0.316534
Si Si7 0.279339 0.622487 0.448074
O O1 0.889655 0.150872 0.779355
O O2 0.592220 0.052922 0.748955
O O3 0.763585 0.074191 0.900806
O O4 0.628533 0.500662 0.103400
O O5 0.279762 0.422796 0.532515
O O6 0.261255 0.294227 0.621807
O O7 0.547416 0.315778 0.552876
O O8 0.688799 0.688467 0.747122
O O9 0.987937 0.749826 0.767857
O O10 0.741451 0.095581 0.096129
O O11 0.779109 0.215718 0.345160
O O12 0.188164 0.175575 0.715894
O O13 0.137772 0.724854 0.450015
O O14 0.000000 0.000000 0.500000
O O15 0.500000 0.000000 0.500000
#
# Coordination Sequence:
#
# PCOD8032408 Si02
#       7
#     2   2   2   2   2   2   2
#     4  12  25  47  76 101 141 194 238 293 360 414
#     4  12  25  44  71 103 146 189 233 295 354 423
#     4  11  24  41  73 105 139 185 234 294 355 421
#     4  11  23  42  69 105 144 181 235 289 355 422
#     4  12  26  48  75 104 142 191 243 293 348 429
#     4  12  27  51  69 102 146 186 243 298 349 424
#     4  12  25  44  68 106 147 182 234 295 357 417
#
# _framework density 22.903480999999999
#
# number of rings (size 3 to 8) (size 9 to 14) (size 15 to 20)
#    0.000    0.286    7.143    2.143    0.000    2.286 
#    2.571    0.000    0.000    0.000    0.000    0.000 
#    0.000    0.000    0.000    0.000    0.000    0.000 
#
# Total GULP energy -173602.243847 kJ/mol
# GULP energy per Si atom -12400.160275 kJ/mol
# Density = 2.285135 g / cm^3
# Si number density = 22.903481 Si / 1000 Ang^3
#
#
#
# Elastic Constant Matrix: (Units=GPa)
#
#
# Indices 1 2 3 4 5 6 
#
# 1 85.4365 29.7739 35.3753 16.8500 5.3472 16.0815
# 2 29.7739 128.6770 42.4121 -0.3935 1.3623 7.1415
# 3 35.3753 42.4121 135.3804 23.7632 19.6409 20.1660
# 4 16.8500 -0.3935 23.7632 35.2373 -4.5042 -1.2333
# 5 5.3472 1.3623 19.6409 -4.5042 32.9282 8.7077
# 6 16.0815 7.1415 20.1660 -1.2333 8.7077 31.3334
#
#
#
# Elastic Compliance Matrix: (Units=1/GPa)
#
#
# Indices 1 2 3 4 5 6 
#
# 1 0.015957 -0.003108 -0.000619 -0.007658 -0.001283 -0.007028
# 2 -0.003108 0.009554 -0.003456 0.004278 0.002458 0.001127
# 3 -0.000619 -0.003456 0.011903 -0.008806 -0.006730 -0.005031
# 4 -0.007658 0.004278 -0.008806 0.039535 0.009752 0.007469
# 5 -0.001283 0.002458 -0.006730 0.009752 0.037292 -0.005550
# 6 -0.007028 0.001127 -0.005031 0.007469 -0.005550 0.040340
#
#
# Mechanical properties :
#
#
# Convention : Reuss Voigt Hill
#
# Bulk Modulus (GPa) = 43.38813 62.73515 53.06164
# Shear Modulus (GPa) = 28.30771 36.02863 32.16817
#
# Velocity S-wave (km/s) = 3.51943 3.97049 3.75174
# Velocity P-wave (km/s) = 5.95821 6.96206 6.47960
#
# Compressibility (1/GPa) = 0.02304778
#
# Stress axis : x y z
#
# Youngs Moduli (GPa) = 62.66648 104.66502 84.01457
#
# Poissons Ratio (x) = 0.32531 0.05199
# Poissons Ratio (y) = 0.19478 0.29039
# Poissons Ratio (z) = 0.03878 0.36176
#
# Static dielectric constant tensor:
#      x y z
#    x 3.976740 0.110620 0.097660 
#    y 0.110620 4.468720 -0.079600 
#    z 0.097660 -0.079600 4.142690 
# 
# 
# High freq. dielectric constant tensor:
#      x y z
#    x 1.895710 0.003900 0.009230 
#    y 0.003900 1.926650 -0.004730 
#    z 0.009230 -0.004730 1.900060 
# 
# From -- ./inp_files/501132.got.cif
#   From: 2010.06.25/outbox.cif.g09.slc.cpg/sg2_251_cif.got.tgz:501132.got - 2010.06.27 13:26:56.
