data_PCOD8032784
_publ_section_title
;
Structure prediction by ZEFSAII (Michael W. Deem and Ramdas Pophale) SiO2 
 PCOD8032784
Probable space group: P -1
;
_chemical_formula_sum "Si O2"
_cell_formula_units_Z 16
_cell_length_a 12.222742
_cell_length_b 11.601280
_cell_length_c 11.514760
_cell_angle_alpha 40.016878
_cell_angle_beta 78.247783
_cell_angle_gamma 107.603981
_cell_volume 704.485602
_symmetry_space_group_name_H-M "P -1"
_symmetry_group_IT_number 2
_symmetry_cell_setting 'triclinic'
loop_
_space_group_symop_operation_xyz
x,y,z
-x,-y,-z
loop_
_atom_site_type_symbol
_atom_site_label
_atom_site_fract_x
_atom_site_fract_y
_atom_site_fract_z
Si Si1 0.249372 0.970775 0.456869
Si Si2 0.595154 0.258238 0.093262
Si Si3 0.307682 0.012159 0.668507
Si Si4 0.940937 0.608084 0.085273
Si Si5 0.399491 0.719102 0.186330
Si Si6 0.218140 0.295456 0.108913
Si Si7 0.832937 0.694600 0.256249
Si Si8 0.572872 0.558702 0.266602
O O1 0.304280 0.096109 0.476574
O O2 0.131797 0.663545 0.734201
O O3 0.408310 0.103736 0.246192
O O4 0.153637 0.023568 0.373313
O O5 0.607139 0.081322 0.290576
O O6 0.662410 0.314091 0.904818
O O7 0.703574 0.526142 0.932147
O O8 0.406667 0.250998 0.553066
O O9 0.128303 0.792609 0.930088
O O10 0.854685 0.564530 0.256673
O O11 0.921906 0.740068 0.887772
O O12 0.234383 0.477679 0.479563
O O13 0.532551 0.718685 0.154016
O O14 0.500000 0.000000 0.000000
O O15 0.354349 0.424665 0.882999
O O16 0.692925 0.665865 0.265466
O O17 0.000000 0.000000 0.000000
#
# Coordination Sequence:
#
# PCOD8032784 Si02
#       8
#     2   2   2   2   2   2   2   2
#     4  12  22  42  71 104 148 183 237 293 369 433
#     4  12  23  43  69 109 145 182 247 298 359 433
#     4  12  24  43  72 107 144 192 227 297 370 438
#     4  11  26  46  66 104 151 185 242 295 366 429
#     4  12  25  44  71 106 142 188 249 299 352 433
#     4  11  23  43  72 107 140 188 234 307 365 426
#     4  11  26  49  73  98 142 194 243 300 359 427
#     4  11  23  46  75 100 135 185 246 295 360 431
#
# _framework density 22.711607000000001
#
# number of rings (size 3 to 8) (size 9 to 14) (size 15 to 20)
#    0.000    0.500    3.750    6.000    0.000    1.500 
#    6.750    1.250    0.000    0.000    0.000    0.000 
#    0.000    0.000    0.000    0.000    0.000    0.000 
#
# Total GULP energy -198456.964142 kJ/mol
# GULP energy per Si atom -12403.560259 kJ/mol
# Density = 2.265991 g / cm^3
# Si number density = 22.711607 Si / 1000 Ang^3
#
#
#
# Elastic Constant Matrix: (Units=GPa)
#
#
# Indices 1 2 3 4 5 6 
#
# 1 104.4194 32.0763 33.0892 -25.3548 20.2372 0.5967
# 2 32.0763 115.3399 49.9982 -2.6674 2.3901 7.1234
# 3 33.0892 49.9982 111.2452 -9.2626 4.2736 10.8400
# 4 -25.3548 -2.6674 -9.2626 45.5680 4.7755 4.6872
# 5 20.2372 2.3901 4.2736 4.7755 36.7427 -6.5331
# 6 0.5967 7.1234 10.8400 4.6872 -6.5331 31.4074
#
#
#
# Elastic Compliance Matrix: (Units=1/GPa)
#
#
# Indices 1 2 3 4 5 6 
#
# 1 0.015108 -0.002841 -0.001866 0.009098 -0.009517 -0.002336
# 2 -0.002841 0.011327 -0.004429 -0.001939 0.001527 -0.000379
# 3 -0.001866 -0.004429 0.012051 0.001615 -0.000927 -0.003553
# 4 0.009098 -0.001939 0.001615 0.028962 -0.010028 -0.006699
# 5 -0.009517 0.001527 -0.000927 -0.010028 0.035372 0.009009
# 6 -0.002336 -0.000379 -0.003553 -0.006699 0.009009 0.036070
#
#
# Mechanical properties :
#
#
# Convention : Reuss Voigt Hill
#
# Bulk Modulus (GPa) = 49.47040 62.37022 55.92031
# Shear Modulus (GPa) = 30.50646 37.13302 33.81974
#
# Velocity S-wave (km/s) = 3.66896 4.04787 3.86307
# Velocity P-wave (km/s) = 6.30695 7.02627 6.67631
#
# Compressibility (1/GPa) = 0.02021411
#
# Stress axis : x y z
#
# Youngs Moduli (GPa) = 66.19098 88.28580 82.97980
#
# Poissons Ratio (x) = 0.25079 0.15486
# Poissons Ratio (y) = 0.18802 0.36752
# Poissons Ratio (z) = 0.12353 0.39102
#
# Static dielectric constant tensor:
#      x y z
#    x 4.254440 -0.087460 0.093690 
#    y -0.087460 4.143380 0.142210 
#    z 0.093690 0.142210 3.979300 
# 
# 
# High freq. dielectric constant tensor:
#      x y z
#    x 1.901440 -0.008660 0.004260 
#    y -0.008660 1.904970 0.005790 
#    z 0.004260 0.005790 1.890790 
# 
# From -- ./inp_files/306142.got.cif
#   From: 2010.06.25/outbox.cif.g09.slc.cpg/sg2_154_cif.got.tgz:306142.got - 2010.06.27 13:26:56.
