data_PCOD8032133
_publ_section_title
;
Structure prediction by ZEFSAII (Michael W. Deem and Ramdas Pophale) SiO2 
 PCOD8032133
Probable space group: P -1
;
_chemical_formula_sum "Si O2"
_cell_formula_units_Z 16
_cell_length_a 9.195932
_cell_length_b 8.568368
_cell_length_c 20.290177
_cell_angle_alpha 59.796000
_cell_angle_beta 61.460404
_cell_angle_gamma 31.675029
_cell_volume 721.181205
_symmetry_space_group_name_H-M "P -1"
_symmetry_group_IT_number 2
_symmetry_cell_setting 'triclinic'
loop_
_space_group_symop_operation_xyz
x,y,z
-x,-y,-z
loop_
_atom_site_type_symbol
_atom_site_label
_atom_site_fract_x
_atom_site_fract_y
_atom_site_fract_z
Si Si1 0.994874 0.790058 0.827993
Si Si2 0.514629 0.493712 0.419736
Si Si3 0.572885 0.747713 0.071740
Si Si4 0.138919 0.473359 0.300765
Si Si5 0.748481 0.268853 0.044022
Si Si6 0.301495 0.869862 0.786486
Si Si7 0.282920 0.329395 0.449878
Si Si8 0.918307 0.863233 0.675970
O O1 0.904886 0.843559 0.761098
O O2 0.182559 0.451547 0.882922
O O3 0.209015 0.769632 0.790257
O O4 0.718522 0.068675 0.873121
O O5 0.500000 0.500000 0.500000
O O6 0.353336 0.464297 0.432652
O O7 0.832555 0.223729 0.383107
O O8 0.369377 0.798463 0.357597
O O9 0.725951 0.476954 0.045029
O O10 0.500000 0.000000 0.000000
O O11 0.368262 0.385321 0.230131
O O12 0.269072 0.347936 0.371081
O O13 0.062100 0.345624 0.318216
O O14 0.850190 0.833264 0.280653
O O15 0.757656 0.095250 0.130349
O O16 0.500000 0.500000 0.000000
O O17 0.000000 0.000000 0.000000
O O18 0.000000 0.500000 0.500000
O O19 0.500000 0.000000 0.500000
#
# Coordination Sequence:
#
# PCOD8032133 Si02
#       8
#     2   2   2   2   2   2   2   2
#     4  11  23  43  65  93 130 173 219 269 331 398
#     4  12  24  43  66  93 131 172 212 267 326 387
#     4  11  24  42  66  97 132 173 219 275 333 397
#     4  12  24  41  64  94 127 165 215 268 318 385
#     4  11  23  41  65  94 129 170 217 269 329 395
#     4  11  23  42  63  90 125 169 211 262 322 383
#     4  12  24  42  66  95 126 166 212 261 315 381
#     4  12  25  42  64  96 128 168 215 267 326 388
#
# _framework density 22.185824
#
# number of rings (size 3 to 8) (size 9 to 14) (size 15 to 20)
#    0.000    0.500    0.000   10.500    0.000    3.000 
#    0.000    0.000    0.000    0.000    0.000    0.000 
#    0.000    0.000    0.000    0.000    0.000    0.000 
#
# Total GULP energy -198317.144648 kJ/mol
# GULP energy per Si atom -12394.821541 kJ/mol
# Density = 2.213533 g / cm^3
# Si number density = 22.185824 Si / 1000 Ang^3
#
#
#
# Elastic Constant Matrix: (Units=GPa)
#
#
# Indices 1 2 3 4 5 6 
#
# 1 121.5500 25.5595 47.7168 5.3263 5.1809 3.7626
# 2 25.5595 131.0307 48.3591 -9.6568 4.3330 -4.8821
# 3 47.7168 48.3591 141.9667 -12.8108 24.1568 4.4089
# 4 5.3263 -9.6568 -12.8108 59.9303 -12.2443 -2.9283
# 5 5.1809 4.3330 24.1568 -12.2443 43.7728 -2.9936
# 6 3.7626 -4.8821 4.4089 -2.9283 -2.9936 38.5071
#
#
#
# Elastic Compliance Matrix: (Units=1/GPa)
#
#
# Indices 1 2 3 4 5 6 
#
# 1 0.009734 -0.000911 -0.003109 -0.001692 0.000124 -0.000830
# 2 -0.000911 0.009004 -0.002924 0.001259 0.001303 0.001762
# 3 -0.003109 -0.002924 0.010017 0.000908 -0.004720 -0.001512
# 4 -0.001692 0.001259 0.000908 0.018318 0.004835 0.001990
# 5 0.000124 0.001303 -0.004720 0.004835 0.026874 0.003150
# 6 -0.000830 0.001762 -0.001512 0.001990 0.003150 0.026843
#
#
# Mechanical properties :
#
#
# Convention : Reuss Voigt Hill
#
# Bulk Modulus (GPa) = 67.26408 70.86870 69.06639
# Shear Modulus (GPa) = 41.79426 46.63618 44.21522
#
# Velocity S-wave (km/s) = 4.34502 4.58981 4.46909
# Velocity P-wave (km/s) = 7.45363 7.75249 7.60452
#
# Compressibility (1/GPa) = 0.01486678
#
# Stress axis : x y z
#
# Youngs Moduli (GPa) = 102.73519 111.06312 99.83054
#
# Poissons Ratio (x) = 0.10116 0.31041
# Poissons Ratio (y) = 0.09357 0.29187
# Poissons Ratio (z) = 0.31944 0.32472
#
# Static dielectric constant tensor:
#      x y z
#    x 4.009760 -0.199700 0.205760 
#    y -0.199700 4.231920 -0.185330 
#    z 0.205760 -0.185330 4.349680 
# 
# 
# High freq. dielectric constant tensor:
#      x y z
#    x 1.869760 -0.013970 0.007710 
#    y -0.013970 1.894780 -0.010130 
#    z 0.007710 -0.010130 1.895190 
# 
# From -- ./inp_files/587898.got.cif
#   From: 2010.06.25/outbox.cif.g09.slc.cpg/sg2_294_cif.got.tgz:587898.got - 2010.06.27 13:26:56.
