data_PCOD8032492
_publ_section_title
;
Structure prediction by ZEFSAII (Michael W. Deem and Ramdas Pophale) SiO2 
 PCOD8032492
Probable space group: P -1
;
_chemical_formula_sum "Si O2"
_cell_formula_units_Z 14
_cell_length_a 9.525626
_cell_length_b 16.375699
_cell_length_c 9.909505
_cell_angle_alpha 35.000582
_cell_angle_beta 38.905442
_cell_angle_gamma 46.303931
_cell_volume 550.688090
_symmetry_space_group_name_H-M "P -1"
_symmetry_group_IT_number 2
_symmetry_cell_setting 'triclinic'
loop_
_space_group_symop_operation_xyz
x,y,z
-x,-y,-z
loop_
_atom_site_type_symbol
_atom_site_label
_atom_site_fract_x
_atom_site_fract_y
_atom_site_fract_z
Si Si1 0.310587 0.908193 0.993082
Si Si2 0.125979 0.121851 0.300995
Si Si3 0.893039 0.364474 0.809838
Si Si4 0.795577 0.892305 0.441655
Si Si5 0.465488 0.339921 0.985822
Si Si6 0.327176 0.162734 0.822683
Si Si7 0.277155 0.650924 0.746524
O O1 0.333375 0.986758 0.724687
O O2 0.385648 0.002181 0.934281
O O3 0.477707 0.754622 0.066218
O O4 0.061135 0.872287 0.247054
O O5 0.253727 0.064151 0.421540
O O6 0.938922 0.261210 0.286567
O O7 0.303784 0.159389 0.006161
O O8 0.000000 0.000000 0.500000
O O9 0.699998 0.334239 0.894942
O O10 0.000000 0.500000 0.500000
O O11 0.087754 0.226546 0.847921
O O12 0.787829 0.394578 0.994772
O O13 0.709391 0.738561 0.688020
O O14 0.358743 0.502378 0.806587
O O15 0.522557 0.254614 0.517397
#
# Coordination Sequence:
#
# PCOD8032492 Si02
#       7
#     2   2   2   2   2   2   2
#     4  11  25  42  76 106 142 182 237 304 359 411
#     4  11  26  48  72 101 144 196 243 288 348 433
#     4  11  23  42  72 107 144 184 238 294 355 422
#     4  11  25  46  69 106 146 187 237 296 355 419
#     4  12  26  42  72 109 145 182 233 300 366 417
#     4  11  24  47  76 106 141 186 249 291 351 433
#     4  11  27  44  73 106 142 194 239 289 359 429
#
# _framework density 25.422737000000001
#
# number of rings (size 3 to 8) (size 9 to 14) (size 15 to 20)
#    0.000    0.857    2.857    3.429    8.000    2.286 
#    0.000    1.429    0.000    0.000    0.000    0.000 
#    0.000    0.000    0.000    0.000    0.000    0.000 
#
# Total GULP energy -173641.306160 kJ/mol
# GULP energy per Si atom -12402.950440 kJ/mol
# Density = 2.536487 g / cm^3
# Si number density = 25.422737 Si / 1000 Ang^3
#
#
#
# Elastic Constant Matrix: (Units=GPa)
#
#
# Indices 1 2 3 4 5 6 
#
# 1 116.7395 51.3155 48.7062 -1.6191 0.3976 -2.1603
# 2 51.3155 190.8165 40.5080 -22.6893 -1.7221 -4.4042
# 3 48.7062 40.5080 165.9023 1.0354 -26.4339 0.6727
# 4 -1.6191 -22.6893 1.0354 39.0377 10.0519 4.0259
# 5 0.3976 -1.7221 -26.4339 10.0519 40.9813 -5.4909
# 6 -2.1603 -4.4042 0.6727 4.0259 -5.4909 31.9308
#
#
#
# Elastic Compliance Matrix: (Units=1/GPa)
#
#
# Indices 1 2 3 4 5 6 
#
# 1 0.010819 -0.002345 -0.002917 -0.000346 -0.001977 0.000174
# 2 -0.002345 0.006604 -0.001186 0.004155 -0.001484 -0.000002
# 3 -0.002917 -0.001186 0.008142 -0.002656 0.005993 0.000833
# 4 -0.000346 0.004155 -0.002656 0.031139 -0.009844 -0.005013
# 5 -0.001977 -0.001484 0.005993 -0.009844 0.031468 0.006188
# 6 0.000174 -0.000002 0.000833 -0.005013 0.006188 0.033008
#
#
# Mechanical properties :
#
#
# Convention : Reuss Voigt Hill
#
# Bulk Modulus (GPa) = 78.94406 83.83528 81.38967
# Shear Modulus (GPa) = 36.15338 44.58520 40.36929
#
# Velocity S-wave (km/s) = 3.77515 4.19233 3.98920
# Velocity P-wave (km/s) = 7.07971 7.51547 7.30084
#
# Compressibility (1/GPa) = 0.01266720
#
# Stress axis : x y z
#
# Youngs Moduli (GPa) = 92.42747 151.42881 122.82154
#
# Poissons Ratio (x) = 0.35513 0.35831
# Poissons Ratio (y) = 0.21676 0.14571
# Poissons Ratio (z) = 0.26964 0.17964
#
# Static dielectric constant tensor:
#      x y z
#    x -9.296020 -3.674700 5.949730 
#    y -3.674700 3.984220 1.673110 
#    z 5.949730 1.673110 2.593790 
# 
# 
# High freq. dielectric constant tensor:
#      x y z
#    x 2.017620 -0.013060 -0.017120 
#    y -0.013060 2.022610 0.015370 
#    z -0.017120 0.015370 2.038360 
# 
# From -- ./inp_files/437184.got.cif
#   From: 2010.06.25/outbox.cif.g09.slc.cpg/sg2_219_cif.got.tgz:437184.got - 2010.06.27 13:26:56.
