data_PCOD8032023
_publ_section_title
;
Structure prediction by ZEFSAII (Michael W. Deem and Ramdas Pophale) SiO2 
 PCOD8032023
Probable space group: P -1
;
_chemical_formula_sum "Si O2"
_cell_formula_units_Z 12
_cell_length_a 7.373593
_cell_length_b 9.642213
_cell_length_c 9.521443
_cell_angle_alpha 83.329598
_cell_angle_beta 130.568264
_cell_angle_gamma 91.242166
_cell_volume 509.450809
_symmetry_space_group_name_H-M "P -1"
_symmetry_group_IT_number 2
_symmetry_cell_setting 'triclinic'
loop_
_space_group_symop_operation_xyz
x,y,z
-x,-y,-z
loop_
_atom_site_type_symbol
_atom_site_label
_atom_site_fract_x
_atom_site_fract_y
_atom_site_fract_z
Si Si1 0.715934 0.536343 0.895371
Si Si2 0.137743 0.825994 0.714345
Si Si3 0.046338 0.136969 0.680061
Si Si4 0.401629 0.336040 0.906560
Si Si5 0.810990 0.346793 0.736369
Si Si6 0.709716 0.642520 0.586971
O O1 0.474857 0.467904 0.838917
O O2 0.893641 0.403590 0.931278
O O3 0.641610 0.643426 0.720384
O O4 0.796072 0.612451 0.073233
O O5 0.138807 0.848346 0.544130
O O6 0.901589 0.753200 0.645184
O O7 0.373665 0.736864 0.889842
O O8 0.131598 0.976350 0.770233
O O9 0.927307 0.200558 0.754833
O O10 0.275890 0.227885 0.755659
O O11 0.810901 0.482920 0.615896
O O12 0.531529 0.317414 0.626100
#
# Coordination Sequence:
#
# PCOD8032023 Si02
#       6
#     2   2   2   2   2   2
#     4   9  21  37  61  96 119 158 203 264 300 356
#     4  11  25  42  63  91 128 167 204 251 308 373
#     4  11  25  42  63  91 128 167 204 251 308 373
#     4  11  23  40  66  92 126 162 206 256 310 362
#     4   9  20  39  64  95 124 157 211 255 307 361
#     4   9  20  39  64  95 124 157 211 255 307 361
#
# _framework density 23.554777000000001
#
# number of rings (size 3 to 8) (size 9 to 14) (size 15 to 20)
#    1.000    1.000    0.000    2.500    4.667    4.000 
#    0.000    5.000    0.000    0.000    0.000    0.000 
#    0.000    0.000    0.000    0.000    0.000    0.000 
#
# Total GULP energy -148662.900746 kJ/mol
# GULP energy per Si atom -12388.575062 kJ/mol
# Density = 2.350117 g / cm^3
# Si number density = 23.554777 Si / 1000 Ang^3
#
#
#
# Elastic Constant Matrix: (Units=GPa)
#
#
# Indices 1 2 3 4 5 6 
#
# 1 96.2698 46.6438 19.3979 10.9181 -15.8643 -22.2026
# 2 46.6438 104.0948 26.9764 30.3745 9.5837 -17.9764
# 3 19.3979 26.9764 103.0282 13.4580 10.5412 -22.5569
# 4 10.9181 30.3745 13.4580 41.5677 -1.9646 -5.6497
# 5 -15.8643 9.5837 10.5412 -1.9646 34.0886 6.1821
# 6 -22.2026 -17.9764 -22.5569 -5.6497 6.1821 29.5883
#
#
#
# Elastic Compliance Matrix: (Units=1/GPa)
#
#
# Indices 1 2 3 4 5 6 
#
# 1 0.017176 -0.008256 -0.001318 0.003151 0.009925 0.005396
# 2 -0.008256 0.018382 0.000509 -0.011194 -0.010807 0.005482
# 3 -0.001318 0.000509 0.013174 -0.003232 -0.006863 0.010181
# 4 0.003151 -0.011194 -0.003232 0.032511 0.007912 -0.002346
# 5 0.009925 -0.010807 -0.006863 0.007912 0.041664 -0.011545
# 6 0.005396 0.005482 0.010181 -0.002346 -0.011545 0.050902
#
#
# Mechanical properties :
#
#
# Convention : Reuss Voigt Hill
#
# Bulk Modulus (GPa) = 32.67606 54.38098 43.52852
# Shear Modulus (GPa) = 24.73538 35.07389 29.90464
#
# Velocity S-wave (km/s) = 3.24407 3.86299 3.56698
# Velocity P-wave (km/s) = 5.28531 6.56003 5.95687
#
# Compressibility (1/GPa) = 0.03060344
#
# Stress axis : x y z
#
# Youngs Moduli (GPa) = 58.22148 54.40046 75.90632
#
# Poissons Ratio (x) = 0.44913 0.10002
# Poissons Ratio (y) = 0.48068 -0.03867
# Poissons Ratio (z) = 0.07672 -0.02772
#
# Static dielectric constant tensor:
#      x y z
#    x 4.410820 -0.047240 0.108980 
#    y -0.047240 4.008960 0.423790 
#    z 0.108980 0.423790 4.483590 
# 
# 
# High freq. dielectric constant tensor:
#      x y z
#    x 1.944440 -0.002820 0.018480 
#    y -0.002820 1.903000 0.031050 
#    z 0.018480 0.031050 1.952810 
# 
# From -- ./inp_files/379736.got.cif
#   From: 2010.06.25/outbox.cif.g09.slc.cpg/sg2_190_cif.got.tgz:379736.got - 2010.06.27 13:26:56.
