data_PCOD8032391
_publ_section_title
;
Structure prediction by ZEFSAII (Michael W. Deem and Ramdas Pophale) SiO2 
 PCOD8032391
Probable space group: P -1
;
_chemical_formula_sum "Si O2"
_cell_formula_units_Z 14
_cell_length_a 9.866484
_cell_length_b 9.866656
_cell_length_c 21.336995
_cell_angle_alpha 143.555981
_cell_angle_beta 143.556451
_cell_angle_gamma 42.839105
_cell_volume 710.797950
_symmetry_space_group_name_H-M "P -1"
_symmetry_group_IT_number 2
_symmetry_cell_setting 'triclinic'
loop_
_space_group_symop_operation_xyz
x,y,z
-x,-y,-z
loop_
_atom_site_type_symbol
_atom_site_label
_atom_site_fract_x
_atom_site_fract_y
_atom_site_fract_z
Si Si1 0.124511 0.624508 0.251119
Si Si2 0.196142 0.125188 0.144173
Si Si3 0.322118 0.400671 0.729982
Si Si4 0.561556 0.061558 0.475791
Si Si5 0.099307 0.177882 0.270013
Si Si6 0.625178 0.696150 0.144171
Si Si7 0.834942 0.334926 0.861106
O O1 0.207759 0.344770 0.186783
O O2 0.264721 0.764715 0.400025
O O3 0.191825 0.691807 0.232345
O O4 0.844764 0.707762 0.186778
O O5 0.141378 0.223882 0.230227
O O6 0.449167 0.949172 0.169675
O O7 0.000000 0.000000 0.000000
O O8 0.276107 0.358609 0.769767
O O9 0.580277 0.448659 0.838271
O O10 0.125685 0.625667 0.716216
O O11 0.307895 0.176251 0.599796
O O12 0.323737 0.192094 0.400198
O O13 0.500000 0.000000 0.500000
O O14 0.051292 0.919741 0.161725
O O15 0.500000 0.500000 0.000000
O O16 0.000000 0.500000 0.000000
#
# Coordination Sequence:
#
# PCOD8032391 Si02
#       7
#     2   2   2   2   2   2   2
#     4  12  25  41  70 103 130 178 226 272 339 395
#     4  12  23  43  69 101 137 172 219 279 338 400
#     4  11  23  44  70  93 135 184 216 275 341 389
#     4  11  24  48  66  94 143 173 229 281 321 397
#     4  11  23  44  70  93 135 184 216 275 341 389
#     4  12  23  43  69 101 137 172 219 279 338 400
#     4  11  23  42  68  98 136 173 225 279 333 401
#
# _framework density 19.696173999999999
#
# number of rings (size 3 to 8) (size 9 to 14) (size 15 to 20)
#    0.000    0.571    8.571    1.714    0.000    4.571 
#    0.000    0.000    0.000    0.000    0.000    0.000 
#    0.000    0.000    0.000    0.000    0.000    0.000 
#
# Total GULP energy -173654.488223 kJ/mol
# GULP energy per Si atom -12403.892016 kJ/mol
# Density = 1.965134 g / cm^3
# Si number density = 19.696174 Si / 1000 Ang^3
#
#
#
# Elastic Constant Matrix: (Units=GPa)
#
#
# Indices 1 2 3 4 5 6 
#
# 1 62.9571 41.4723 1.2664 1.4516 -7.3549 -4.2048
# 2 41.4723 141.1299 29.2221 -1.6907 6.7987 -42.3360
# 3 1.2664 29.2221 122.9157 4.0987 8.7919 -16.6674
# 4 1.4516 -1.6907 4.0987 29.2731 4.9473 -6.2601
# 5 -7.3549 6.7987 8.7919 4.9473 37.5677 -4.6381
# 6 -4.2048 -42.3360 -16.6674 -6.2601 -4.6381 36.9954
#
#
#
# Elastic Compliance Matrix: (Units=1/GPa)
#
#
# Indices 1 2 3 4 5 6 
#
# 1 0.022265 -0.009387 0.000676 -0.004371 0.005493 -0.007958
# 2 -0.009387 0.015218 -0.001276 0.005523 -0.003004 0.016331
# 3 0.000676 -0.001276 0.008866 -0.000622 -0.001341 0.002337
# 4 -0.004371 0.005523 -0.000622 0.038106 -0.005330 0.011323
# 5 0.005493 -0.003004 -0.001341 -0.005330 0.029172 -0.000663
# 6 -0.007958 0.016331 0.002337 0.011323 -0.000663 0.047701
#
#
# Mechanical properties :
#
#
# Convention : Reuss Voigt Hill
#
# Bulk Modulus (GPa) = 37.91469 52.32491 45.11980
# Shear Modulus (GPa) = 26.30299 37.77003 32.03651
#
# Velocity S-wave (km/s) = 3.65833 4.38383 4.03741
# Velocity P-wave (km/s) = 6.09393 7.22825 6.68520
#
# Compressibility (1/GPa) = 0.02637500
#
# Stress axis : x y z
#
# Youngs Moduli (GPa) = 44.91428 65.71068 112.79452
#
# Poissons Ratio (x) = 0.61681 -0.07625
# Poissons Ratio (y) = 0.42160 0.14393
# Poissons Ratio (z) = -0.03036 0.08385
#
# Static dielectric constant tensor:
#      x y z
#    x 3.730350 0.008680 -0.161100 
#    y 0.008680 3.715610 -0.074980 
#    z -0.161100 -0.074980 3.717890 
# 
# 
# High freq. dielectric constant tensor:
#      x y z
#    x 1.773670 -0.001380 -0.005880 
#    y -0.001380 1.775990 -0.002740 
#    z -0.005880 -0.002740 1.775730 
# 
# From -- ./inp_files/179591.got.cif
#   From: 2010.06.25/outbox.cif.g09.slc.cpg/sg2_90_cif.got.tgz:179591.got - 2010.06.27 13:26:56.
