data_PCOD8032923
_publ_section_title
;
Structure prediction by ZEFSAII (Michael W. Deem and Ramdas Pophale) SiO2 
 PCOD8032923
Probable space group: P -1
;
_chemical_formula_sum "Si O2"
_cell_formula_units_Z 12
_cell_length_a 9.073909
_cell_length_b 9.690249
_cell_length_c 11.887714
_cell_angle_alpha 117.397391
_cell_angle_beta 51.152361
_cell_angle_gamma 83.050414
_cell_volume 582.282169
_symmetry_space_group_name_H-M "P -1"
_symmetry_group_IT_number 2
_symmetry_cell_setting 'triclinic'
loop_
_space_group_symop_operation_xyz
x,y,z
-x,-y,-z
loop_
_atom_site_type_symbol
_atom_site_label
_atom_site_fract_x
_atom_site_fract_y
_atom_site_fract_z
Si Si1 0.476787 0.268234 0.375257
Si Si2 0.319716 0.957401 0.031829
Si Si3 0.200840 0.726837 0.144186
Si Si4 0.333434 0.048199 0.494820
Si Si5 0.392933 0.675432 0.271612
Si Si6 0.198116 0.700312 0.614986
O O1 0.349808 0.174406 0.441742
O O2 0.280455 0.497414 0.551471
O O3 0.681647 0.215885 0.344533
O O4 0.583019 0.191330 0.172998
O O5 0.080544 0.156744 0.182452
O O6 0.277263 0.861193 0.119241
O O7 0.500000 0.000000 0.000000
O O8 0.240195 0.691405 0.245344
O O9 0.928985 0.834746 0.286986
O O10 0.346452 0.523855 0.932529
O O11 0.500000 0.000000 0.500000
O O12 0.414603 0.850131 0.322779
O O13 0.260990 0.680129 0.446585
#
# Coordination Sequence:
#
# PCOD8032923 Si02
#       6
#     2   2   2   2   2   2
#     4  11  25  44  67 100 130 172 221 264 329 387
#     4  12  25  42  69 101 129 172 218 270 329 387
#     4  11  25  43  69  96 134 172 219 271 319 394
#     4  12  24  43  69 100 130 172 217 270 327 385
#     4  11  23  44  68  94 132 177 215 265 330 378
#     4  11  24  45  69  92 137 174 214 273 324 385
#
# _framework density 20.608566
#
# number of rings (size 3 to 8) (size 9 to 14) (size 15 to 20)
#    0.000    0.667    5.000    2.000    2.333    5.333 
#    0.000    0.000    0.000    0.000    0.000    0.000 
#    0.000    0.000    0.000    0.000    0.000    0.000 
#
# Total GULP energy -148895.099917 kJ/mol
# GULP energy per Si atom -12407.924993 kJ/mol
# Density = 2.056166 g / cm^3
# Si number density = 20.608566 Si / 1000 Ang^3
#
#
#
# Elastic Constant Matrix: (Units=GPa)
#
#
# Indices 1 2 3 4 5 6 
#
# 1 90.9829 28.5845 54.3826 5.9953 -26.0688 3.7141
# 2 28.5845 119.2272 25.5219 5.5735 -20.0485 14.6766
# 3 54.3826 25.5219 99.4892 21.2222 -17.6880 7.8074
# 4 5.9953 5.5735 21.2222 43.5586 -6.7683 3.7602
# 5 -26.0688 -20.0485 -17.6880 -6.7683 36.5811 -3.9442
# 6 3.7141 14.6766 7.8074 3.7602 -3.9442 32.3067
#
#
#
# Elastic Compliance Matrix: (Units=1/GPa)
#
#
# Indices 1 2 3 4 5 6 
#
# 1 0.019485 -0.001412 -0.009478 0.003441 0.009320 0.001429
# 2 -0.001412 0.009984 -0.000895 0.000247 0.003675 -0.003737
# 3 -0.009478 -0.000895 0.016963 -0.006761 -0.000496 -0.001877
# 4 0.003441 0.000247 -0.006761 0.026504 0.004065 -0.001462
# 5 0.009320 0.003675 -0.000496 0.004065 0.036653 0.001381
# 6 0.001429 -0.003737 -0.001877 -0.001462 0.001381 0.033279
#
#
# Mechanical properties :
#
#
# Convention : Reuss Voigt Hill
#
# Bulk Modulus (GPa) = 43.74194 58.51970 51.13082
# Shear Modulus (GPa) = 28.72574 35.90331 32.31453
#
# Velocity S-wave (km/s) = 3.73751 4.17844 3.96411
# Velocity P-wave (km/s) = 6.31637 7.19282 6.76879
#
# Compressibility (1/GPa) = 0.02286135
#
# Stress axis : x y z
#
# Youngs Moduli (GPa) = 51.32097 100.15966 58.95185
#
# Poissons Ratio (x) = 0.14146 0.55874
# Poissons Ratio (y) = 0.07248 0.05277
# Poissons Ratio (z) = 0.48642 0.08966
#
# Static dielectric constant tensor:
#      x y z
#    x 3.764830 -0.041000 0.055740 
#    y -0.041000 3.983840 0.140380 
#    z 0.055740 0.140380 3.892890 
# 
# 
# High freq. dielectric constant tensor:
#      x y z
#    x 1.807690 -0.008540 0.004150 
#    y -0.008540 1.821630 0.007810 
#    z 0.004150 0.007810 1.814780 
# 
# From -- ./inp_files/151285.got.cif
#   From: 2010.06.25/outbox.cif.g09.slc.cpg/sg2_76_cif.got.tgz:151285.got - 2010.06.27 13:26:56.
