data_PCOD8032172
_publ_section_title
;
Structure prediction by ZEFSAII (Michael W. Deem and Ramdas Pophale) SiO2 
 PCOD8032172
Probable space group: P -1
;
_chemical_formula_sum "Si O2"
_cell_formula_units_Z 16
_cell_length_a 11.897361
_cell_length_b 14.311087
_cell_length_c 13.701154
_cell_angle_alpha 41.550398
_cell_angle_beta 139.087318
_cell_angle_gamma 150.569329
_cell_volume 720.620586
_symmetry_space_group_name_H-M "P -1"
_symmetry_group_IT_number 2
_symmetry_cell_setting 'triclinic'
loop_
_space_group_symop_operation_xyz
x,y,z
-x,-y,-z
loop_
_atom_site_type_symbol
_atom_site_label
_atom_site_fract_x
_atom_site_fract_y
_atom_site_fract_z
Si Si1 0.111826 0.746832 0.965598
Si Si2 0.335786 0.704681 0.980430
Si Si3 0.818146 0.318380 0.724019
Si Si4 0.289605 0.188126 0.134470
Si Si5 0.221400 0.409919 0.792493
Si Si6 0.042294 0.309376 0.534385
Si Si7 0.139735 0.063800 0.800157
Si Si8 0.447829 0.916231 0.696378
O O1 0.297807 0.798968 0.965943
O O2 0.094781 0.906740 0.820677
O O3 0.212554 0.763040 0.124997
O O4 0.848503 0.530396 0.943625
O O5 0.299322 0.754341 0.812368
O O6 0.601144 0.795343 0.089531
O O7 0.069522 0.412556 0.768657
O O8 0.820620 0.489696 0.593404
O O9 0.587605 0.134629 0.654790
O O10 0.507656 0.374413 0.196782
O O11 0.349628 0.067441 0.229639
O O12 0.229029 0.251116 0.952582
O O13 0.054798 0.046864 0.155973
O O14 0.110025 0.362317 0.650431
O O15 0.751412 0.153587 0.458934
O O16 0.122965 0.204936 0.623625
#
# Coordination Sequence:
#
# PCOD8032172 Si02
#       8
#     2   2   2   2   2   2   2   2
#     4  11  24  47  78 100 127 181 237 282 334 393
#     4  11  24  47  78  99 131 176 239 285 325 404
#     4  12  24  44  68  98 139 183 228 279 338 403
#     4  11  24  42  70 103 137 181 230 277 331 407
#     4  11  23  41  67  99 144 180 223 279 335 404
#     4  12  28  42  64 104 149 176 221 277 350 404
#     4  12  26  43  71 104 136 175 230 280 339 402
#     4  12  25  43  69 102 141 183 224 275 344 407
#
# _framework density 22.203085999999999
#
# number of rings (size 3 to 8) (size 9 to 14) (size 15 to 20)
#    0.000    0.500    5.000    2.250    5.250    2.500 
#    0.000    1.250    0.000    0.000    0.000    0.000 
#    0.000    0.000    0.000    0.000    0.000    0.000 
#
# Total GULP energy -198503.089675 kJ/mol
# GULP energy per Si atom -12406.443105 kJ/mol
# Density = 2.215255 g / cm^3
# Si number density = 22.203086 Si / 1000 Ang^3
#
#
#
# Elastic Constant Matrix: (Units=GPa)
#
#
# Indices 1 2 3 4 5 6 
#
# 1 107.7602 30.8825 52.5535 5.9002 16.4619 -3.2701
# 2 30.8825 81.9616 58.4088 -2.1058 19.8107 -0.7946
# 3 52.5535 58.4088 118.2847 1.3863 29.9974 -10.3242
# 4 5.9002 -2.1058 1.3863 44.7681 -15.0221 10.0223
# 5 16.4619 19.8107 29.9974 -15.0221 22.8865 -7.0646
# 6 -3.2701 -0.7946 -10.3242 10.0223 -7.0646 39.5956
#
#
#
# Elastic Compliance Matrix: (Units=1/GPa)
#
#
# Indices 1 2 3 4 5 6 
#
# 1 0.012326 -0.000774 -0.003591 -0.003475 -0.005798 -0.000089
# 2 -0.000774 0.019838 -0.007690 -0.000733 -0.007911 -0.002897
# 3 -0.003591 -0.007690 0.019425 -0.008069 -0.020598 0.002982
# 4 -0.003475 -0.000733 -0.008069 0.036208 0.035881 -0.005169
# 5 -0.005798 -0.007911 -0.020598 0.035881 0.106466 0.003905
# 6 -0.000089 -0.002897 0.002982 -0.005169 0.003905 0.027972
#
#
# Mechanical properties :
#
#
# Convention : Reuss Voigt Hill
#
# Bulk Modulus (GPa) = 36.39098 65.74402 51.06750
# Shear Modulus (GPa) = 19.56904 32.52748 26.04826
#
# Velocity S-wave (km/s) = 2.97200 3.83168 3.42889
# Velocity P-wave (km/s) = 5.31062 7.01786 6.22306
#
# Compressibility (1/GPa) = 0.02747934
#
# Stress axis : x y z
#
# Youngs Moduli (GPa) = 81.12754 50.40855 51.47928
#
# Poissons Ratio (x) = 0.03903 0.18485
# Poissons Ratio (y) = 0.06281 0.39588
# Poissons Ratio (z) = 0.29131 0.38764
#
# Static dielectric constant tensor:
#      x y z
#    x 3.946780 -0.191880 0.267580 
#    y -0.191880 4.348840 -0.233470 
#    z 0.267580 -0.233470 4.205130 
# 
# 
# High freq. dielectric constant tensor:
#      x y z
#    x 1.855470 -0.007740 0.010960 
#    y -0.007740 1.906220 -0.002350 
#    z 0.010960 -0.002350 1.865890 
# 
# From -- ./inp_files/307381.got.cif
#   From: 2010.06.25/outbox.cif.g09.slc.cpg/sg2_154_cif.got.tgz:307381.got - 2010.06.27 13:26:56.
