data_PCOD8032516
_publ_section_title
;
Structure prediction by ZEFSAII (Michael W. Deem and Ramdas Pophale) SiO2 
 PCOD8032516
Probable space group: P -1
;
_chemical_formula_sum "Si O2"
_cell_formula_units_Z 16
_cell_length_a 11.269171
_cell_length_b 14.551952
_cell_length_c 9.699616
_cell_angle_alpha 60.772143
_cell_angle_beta 68.208052
_cell_angle_gamma 119.075395
_cell_volume 731.384929
_symmetry_space_group_name_H-M "P -1"
_symmetry_group_IT_number 2
_symmetry_cell_setting 'triclinic'
loop_
_space_group_symop_operation_xyz
x,y,z
-x,-y,-z
loop_
_atom_site_type_symbol
_atom_site_label
_atom_site_fract_x
_atom_site_fract_y
_atom_site_fract_z
Si Si1 0.673516 0.904741 0.149271
Si Si2 0.100805 0.908934 0.815968
Si Si3 0.807650 0.269200 0.115040
Si Si4 0.573622 0.848253 0.741822
Si Si5 0.844039 0.134641 0.654536
Si Si6 0.393078 0.360386 0.768427
Si Si7 0.632812 0.510577 0.839180
Si Si8 0.213119 0.690633 0.590148
O O1 0.644320 0.783658 0.156478
O O2 0.440006 0.778742 0.412850
O O3 0.845642 0.996047 0.132738
O O4 0.772289 0.064681 0.894011
O O5 0.160277 0.827841 0.874872
O O6 0.245904 0.058242 0.521711
O O7 0.841841 0.747460 0.004935
O O8 0.570788 0.148991 0.246084
O O9 0.808640 0.272769 0.277076
O O10 0.007117 0.472168 0.813514
O O11 0.700692 0.961315 0.744793
O O12 0.411591 0.638916 0.984742
O O13 0.794541 0.223407 0.583380
O O14 0.104988 0.286164 0.407107
O O15 0.500000 0.500000 0.500000
O O16 0.562927 0.479553 0.734768
O O17 0.500000 0.500000 0.000000
#
# Coordination Sequence:
#
# PCOD8032516 Si02
#       8
#     2   2   2   2   2   2   2   2
#     4  12  26  45  69 106 147 189 235 287 363 432
#     4  12  25  44  76 101 142 195 235 294 353 422
#     4  11  23  44  74 109 140 181 249 294 352 414
#     4  12  24  47  75 106 143 182 242 299 349 418
#     4  12  25  47  70 107 147 184 238 294 359 423
#     4  12  28  49  69 104 148 189 237 288 359 434
#     4  12  29  47  75 107 141 191 241 297 353 417
#     4  11  23  42  73 107 144 189 233 299 355 417
#
# _framework density 21.876306
#
# number of rings (size 3 to 8) (size 9 to 14) (size 15 to 20)
#    0.000    0.250    5.000    4.125    3.500    1.000 
#    0.000    1.875    0.000    0.000    0.000    0.000 
#    0.000    0.000    0.000    0.000    0.000    0.000 
#
# Total GULP energy -198554.482484 kJ/mol
# GULP energy per Si atom -12409.655155 kJ/mol
# Density = 2.182651 g / cm^3
# Si number density = 21.876306 Si / 1000 Ang^3
#
#
#
# Elastic Constant Matrix: (Units=GPa)
#
#
# Indices 1 2 3 4 5 6 
#
# 1 75.4834 -0.6201 8.2133 -0.7025 -3.7730 -3.8137
# 2 -0.6201 75.3313 0.1050 -2.2006 -0.4472 1.6986
# 3 8.2133 0.1050 105.0525 -3.9859 3.2696 -1.1287
# 4 -0.7025 -2.2006 -3.9859 34.1041 8.5396 -0.3102
# 5 -3.7730 -0.4472 3.2696 8.5396 45.4253 0.0491
# 6 -3.8137 1.6986 -1.1287 -0.3102 0.0491 35.7521
#
#
#
# Elastic Compliance Matrix: (Units=1/GPa)
#
#
# Indices 1 2 3 4 5 6 
#
# 1 0.013497 0.000084 -0.001084 -0.000137 0.001224 0.001399
# 2 0.000084 0.013314 0.000007 0.000862 -0.000024 -0.000616
# 3 -0.001084 0.000007 0.009691 0.001374 -0.001046 0.000203
# 4 -0.000137 0.000862 0.001374 0.031024 -0.005934 0.000265
# 5 0.001224 -0.000024 -0.001046 -0.005934 0.023307 0.000015
# 6 0.001399 -0.000616 0.000203 0.000265 0.000015 0.028158
#
#
# Mechanical properties :
#
#
# Convention : Reuss Voigt Hill
#
# Bulk Modulus (GPa) = 28.97086 30.14040 29.55563
# Shear Modulus (GPa) = 37.74146 39.60092 38.67119
#
# Velocity S-wave (km/s) = 4.15808 4.25928 4.20899
# Velocity P-wave (km/s) = 6.02699 6.16411 6.09594
#
# Compressibility (1/GPa) = 0.03451744
#
# Stress axis : x y z
#
# Youngs Moduli (GPa) = 74.08988 75.10717 103.19224
#
# Poissons Ratio (x) = -0.00634 0.11182
# Poissons Ratio (y) = -0.00625 -0.00071
# Poissons Ratio (z) = 0.08028 -0.00052
#
# Static dielectric constant tensor:
#      x y z
#    x 4.000950 0.106200 0.111880 
#    y 0.106200 3.926650 -0.123470 
#    z 0.111880 -0.123470 4.270120 
# 
# 
# High freq. dielectric constant tensor:
#      x y z
#    x 1.868230 0.005830 0.002840 
#    y 0.005830 1.863830 -0.006020 
#    z 0.002840 -0.006020 1.878910 
# 
# From -- ./inp_files/272477.got.cif
#   From: 2010.06.25/outbox.cif.g09.slc.cpg/sg2_137_cif.got.tgz:272477.got - 2010.06.27 13:26:56.
