data_PCOD8032720
_publ_section_title
;
Structure prediction by ZEFSAII (Michael W. Deem and Ramdas Pophale) SiO2 
 PCOD8032720
Probable space group: P -1
;
_chemical_formula_sum "Si O2"
_cell_formula_units_Z 16
_cell_length_a 9.611540
_cell_length_b 13.579674
_cell_length_c 11.225757
_cell_angle_alpha 112.173626
_cell_angle_beta 39.211045
_cell_angle_gamma 89.978266
_cell_volume 742.767351
_symmetry_space_group_name_H-M "P -1"
_symmetry_group_IT_number 2
_symmetry_cell_setting 'triclinic'
loop_
_space_group_symop_operation_xyz
x,y,z
-x,-y,-z
loop_
_atom_site_type_symbol
_atom_site_label
_atom_site_fract_x
_atom_site_fract_y
_atom_site_fract_z
Si Si1 0.986473 0.788174 0.526111
Si Si2 0.692930 0.547547 0.410262
Si Si3 0.533721 0.971216 0.772290
Si Si4 0.447107 0.203769 0.516208
Si Si5 0.978859 0.152364 0.208567
Si Si6 0.455052 0.783188 0.118213
Si Si7 0.840408 0.703610 0.014661
Si Si8 0.191449 0.384307 0.395188
O O1 0.700161 0.902770 0.747524
O O2 0.978204 0.664599 0.449954
O O3 0.085495 0.779252 0.590694
O O4 0.180590 0.794068 0.306650
O O5 0.500000 0.500000 0.500000
O O6 0.628224 0.663789 0.425441
O O7 0.673024 0.579479 0.577783
O O8 0.968113 0.436536 0.141028
O O9 0.628908 0.873837 0.556372
O O10 0.578526 0.084367 0.769837
O O11 0.232057 0.020991 0.005721
O O12 0.749563 0.131395 0.310721
O O13 0.289203 0.217500 0.745988
O O14 0.022349 0.233585 0.118717
O O15 0.632118 0.695583 0.066244
O O16 0.590635 0.726857 0.877423
O O17 0.000000 0.500000 0.500000
#
# Coordination Sequence:
#
# PCOD8032720 Si02
#       8
#     2   2   2   2   2   2   2   2
#     4  12  23  46  70 101 138 181 230 286 344 398
#     4  12  25  46  73 102 139 181 228 286 345 413
#     4  11  25  45  69 104 139 179 236 286 336 412
#     4  12  25  45  69 101 142 185 226 282 351 405
#     4  11  23  43  70  97 137 187 222 282 345 406
#     4  11  25  44  73 102 139 183 229 285 343 407
#     4  11  23  45  66  99 139 179 228 281 339 408
#     4  12  25  47  73 103 140 178 232 284 341 412
#
# _framework density 21.541065
#
# number of rings (size 3 to 8) (size 9 to 14) (size 15 to 20)
#    0.000    0.500    7.500    1.500    0.000    3.500 
#    4.500    0.000    0.000    0.000    0.000    0.000 
#    0.000    0.000    0.000    0.000    0.000    0.000 
#
# Total GULP energy -198401.576113 kJ/mol
# GULP energy per Si atom -12400.098507 kJ/mol
# Density = 2.149204 g / cm^3
# Si number density = 21.541065 Si / 1000 Ang^3
#
#
#
# Elastic Constant Matrix: (Units=GPa)
#
#
# Indices 1 2 3 4 5 6 
#
# 1 111.3387 46.8031 31.4086 -6.5720 0.3451 9.6867
# 2 46.8031 109.5238 53.5500 -1.6505 -11.5837 12.7628
# 3 31.4086 53.5500 102.4217 -6.6098 -1.4094 7.9215
# 4 -6.5720 -1.6505 -6.6098 25.1130 -6.5675 1.8950
# 5 0.3451 -11.5837 -1.4094 -6.5675 43.8142 10.2141
# 6 9.6867 12.7628 7.9215 1.8950 10.2141 35.8740
#
#
#
# Elastic Compliance Matrix: (Units=1/GPa)
#
#
# Indices 1 2 3 4 5 6 
#
# 1 0.011288 -0.004200 -0.001022 0.002355 -0.000579 -0.001288
# 2 -0.004200 0.014901 -0.006129 -0.000187 0.004714 -0.004146
# 3 -0.001022 -0.006129 0.013487 0.002744 -0.000655 -0.000480
# 4 0.002355 -0.000187 0.002744 0.043644 0.007898 -0.005729
# 5 -0.000579 0.004714 -0.000655 0.007898 0.027479 -0.009617
# 6 -0.001288 -0.004146 -0.000480 -0.005729 -0.009617 0.032845
#
#
# Mechanical properties :
#
#
# Convention : Reuss Voigt Hill
#
# Bulk Modulus (GPa) = 58.91638 65.20084 62.05861
# Shear Modulus (GPa) = 29.06900 33.72840 31.39870
#
# Velocity S-wave (km/s) = 3.67750 3.96128 3.82202
# Velocity P-wave (km/s) = 6.74107 7.15934 6.95335
#
# Compressibility (1/GPa) = 0.01697321
#
# Stress axis : x y z
#
# Youngs Moduli (GPa) = 88.58785 67.11028 74.14580
#
# Poissons Ratio (x) = 0.28184 0.07580
# Poissons Ratio (y) = 0.37204 0.45447
# Poissons Ratio (z) = 0.09056 0.41135
#
# Static dielectric constant tensor:
#      x y z
#    x 4.145860 -0.098960 -0.108720 
#    y -0.098960 3.813980 0.092840 
#    z -0.108720 0.092840 3.642040 
# 
# 
# High freq. dielectric constant tensor:
#      x y z
#    x 1.860970 -0.003770 -0.005190 
#    y -0.003770 1.841290 0.009270 
#    z -0.005190 0.009270 1.842330 
# 
# From -- ./inp_files/399378.got.cif
#   From: 2010.06.25/outbox.cif.g09.slc.cpg/sg2_200_cif.got.tgz:399378.got - 2010.06.27 13:26:56.
