data_PCOD8032773
_publ_section_title
;
Structure prediction by ZEFSAII (Michael W. Deem and Ramdas Pophale) SiO2 
 PCOD8032773
Probable space group: P -1
;
_chemical_formula_sum "Si O2"
_cell_formula_units_Z 16
_cell_length_a 14.586739
_cell_length_b 9.174772
_cell_length_c 9.216945
_cell_angle_alpha 80.017751
_cell_angle_beta 88.412300
_cell_angle_gamma 36.971415
_cell_volume 717.726042
_symmetry_space_group_name_H-M "P -1"
_symmetry_group_IT_number 2
_symmetry_cell_setting 'triclinic'
loop_
_space_group_symop_operation_xyz
x,y,z
-x,-y,-z
loop_
_atom_site_type_symbol
_atom_site_label
_atom_site_fract_x
_atom_site_fract_y
_atom_site_fract_z
Si Si1 0.384534 0.445685 0.015316
Si Si2 0.190276 0.608192 0.496302
Si Si3 0.313428 0.826483 0.808104
Si Si4 0.157324 0.985048 0.493078
Si Si5 0.792187 0.775715 0.090367
Si Si6 0.706934 0.671300 0.745114
Si Si7 0.126335 0.268163 0.213784
Si Si8 0.415528 0.203393 0.795870
O O1 0.513064 0.340885 0.138847
O O2 0.275822 0.471348 0.101729
O O3 0.280408 0.717364 0.915427
O O4 0.463296 0.264119 0.902944
O O5 0.292849 0.411826 0.393888
O O6 0.274289 0.453576 0.666857
O O7 0.015601 0.770736 0.476380
O O8 0.180088 0.797830 0.448010
O O9 0.286596 0.837163 0.637109
O O10 0.196004 0.106303 0.816192
O O11 0.192275 0.062386 0.357316
O O12 0.642042 0.868613 0.105277
O O13 0.945187 0.476062 0.153508
O O14 0.777148 0.867571 0.916197
O O15 0.853041 0.591669 0.751292
O O16 0.554601 0.972128 0.723965
#
# Coordination Sequence:
#
# PCOD8032773 Si02
#       8
#     2   2   2   2   2   2   2   2
#     4  11  24  44  68  99 137 180 228 276 343 406
#     4  11  26  45  69 102 136 185 226 278 351 402
#     4  11  24  43  69  96 135 186 222 278 341 405
#     4  11  25  48  68  97 145 180 226 286 340 405
#     4  11  23  43  72 104 133 180 231 279 343 401
#     4  12  25  42  69 104 137 179 227 281 341 410
#     4  11  25  42  70 106 136 176 233 284 334 414
#     4  12  22  48  72 100 142 177 224 284 346 406
#
# _framework density 22.292629999999999
#
# number of rings (size 3 to 8) (size 9 to 14) (size 15 to 20)
#    0.000    0.750    5.000    2.250    3.500    2.000 
#    0.000    2.500    0.000    0.000    0.000    0.000 
#    0.000    0.000    0.000    0.000    0.000    0.000 
#
# Total GULP energy -198429.317412 kJ/mol
# GULP energy per Si atom -12401.832338 kJ/mol
# Density = 2.224189 g / cm^3
# Si number density = 22.292630 Si / 1000 Ang^3
#
#
#
# Elastic Constant Matrix: (Units=GPa)
#
#
# Indices 1 2 3 4 5 6 
#
# 1 105.1739 26.3090 46.2137 -0.9926 -5.3240 13.8674
# 2 26.3090 49.7920 3.8249 7.8140 -0.5783 -1.5782
# 3 46.2137 3.8249 119.6268 -7.2974 -2.0105 0.7754
# 4 -0.9926 7.8140 -7.2974 40.1958 7.8137 -0.4802
# 5 -5.3240 -0.5783 -2.0105 7.8137 39.9298 -5.7490
# 6 13.8674 -1.5782 0.7754 -0.4802 -5.7490 30.1459
#
#
#
# Elastic Compliance Matrix: (Units=1/GPa)
#
#
# Indices 1 2 3 4 5 6 
#
# 1 0.014729 -0.007700 -0.005347 0.000721 0.000442 -0.006945
# 2 -0.007700 0.024939 0.001867 -0.004852 0.001088 0.004930
# 3 -0.005347 0.001867 0.010437 0.001449 -0.000114 0.002290
# 4 0.000721 -0.004852 0.001449 0.027135 -0.005386 -0.001218
# 5 0.000442 0.001088 -0.000114 -0.005386 0.026872 0.004895
# 6 -0.006945 0.004930 0.002290 -0.001218 0.004895 0.037480
#
#
# Mechanical properties :
#
#
# Convention : Reuss Voigt Hill
#
# Bulk Modulus (GPa) = 36.04201 47.47646 41.75924
# Shear Modulus (GPa) = 28.86862 35.27065 32.06963
#
# Velocity S-wave (km/s) = 3.60249 3.98196 3.79697
# Velocity P-wave (km/s) = 5.78850 6.51801 6.16406
#
# Compressibility (1/GPa) = 0.02774540
#
# Stress axis : x y z
#
# Youngs Moduli (GPa) = 67.89487 40.09830 95.81291
#
# Poissons Ratio (x) = 0.30874 0.51234
# Poissons Ratio (y) = 0.52277 -0.17893
# Poissons Ratio (z) = 0.36305 -0.07488
#
# Static dielectric constant tensor:
#      x y z
#    x 4.046990 0.214930 0.023760 
#    y 0.214930 3.915180 -0.058150 
#    z 0.023760 -0.058150 3.965560 
# 
# 
# High freq. dielectric constant tensor:
#      x y z
#    x 1.881080 0.012010 0.004830 
#    y 0.012010 1.873050 -0.006660 
#    z 0.004830 -0.006660 1.883090 
# 
# From -- ./inp_files/190705.got.cif
#   From: 2010.06.25/outbox.cif.g09.slc.cpg/sg2_96_cif.got.tgz:190705.got - 2010.06.27 13:26:56.
