data_PCOD8032017
_publ_section_title
;
Structure prediction by ZEFSAII (Michael W. Deem and Ramdas Pophale) SiO2 
 PCOD8032017
Probable space group: P -1
;
_chemical_formula_sum "Si O2"
_cell_formula_units_Z 16
_cell_length_a 16.644070
_cell_length_b 9.053968
_cell_length_c 11.637639
_cell_angle_alpha 51.608225
_cell_angle_beta 145.595457
_cell_angle_gamma 116.357638
_cell_volume 767.336543
_symmetry_space_group_name_H-M "P -1"
_symmetry_group_IT_number 2
_symmetry_cell_setting 'triclinic'
loop_
_space_group_symop_operation_xyz
x,y,z
-x,-y,-z
loop_
_atom_site_type_symbol
_atom_site_label
_atom_site_fract_x
_atom_site_fract_y
_atom_site_fract_z
Si Si1 0.588563 0.135616 0.606489
Si Si2 0.908709 0.150371 0.902694
Si Si3 0.232192 0.528860 0.561148
Si Si4 0.475929 0.930065 0.181842
Si Si5 0.816948 0.860181 0.314829
Si Si6 0.031744 0.048501 0.335045
Si Si7 0.511127 0.568347 0.253048
Si Si8 0.694329 0.222679 0.267431
O O1 0.748800 0.103068 0.758921
O O2 0.591204 0.069042 0.772087
O O3 0.509895 0.354572 0.400283
O O4 0.500000 0.000000 0.500000
O O5 0.894398 0.348804 0.721277
O O6 0.000000 0.000000 0.000000
O O7 0.990225 0.166755 0.111916
O O8 0.173347 0.347067 0.635054
O O9 0.353342 0.425363 0.669935
O O10 0.306809 0.651258 0.680528
O O11 0.524713 0.713031 0.303940
O O12 0.607863 0.048519 0.274965
O O13 0.345571 0.036457 0.898228
O O14 0.888509 0.992229 0.248645
O O15 0.897436 0.826298 0.549060
O O16 0.140913 0.856800 0.528539
O O17 0.367300 0.641131 0.975585
#
# Coordination Sequence:
#
# PCOD8032017 Si02
#       8
#     2   2   2   2   2   2   2   2
#     4  11  26  44  66  98 131 171 217 272 323 385
#     4  11  23  45  65  92 134 172 211 265 328 392
#     4  11  24  41  66  98 130 169 220 271 326 387
#     4  12  22  43  68  95 131 173 217 274 318 392
#     4  11  24  43  66  97 130 172 221 270 327 383
#     4  11  24  44  66  93 133 173 216 268 328 391
#     4  11  23  40  65  98 129 169 218 267 327 379
#     4  12  23  40  70  98 129 170 222 272 323 389
#
# _framework density 20.851347000000001
#
# number of rings (size 3 to 8) (size 9 to 14) (size 15 to 20)
#    0.000    0.750    5.000    3.375    1.750    1.000 
#    2.250    0.000    0.000    0.000    0.000    0.000 
#    0.000    0.000    0.000    0.000    0.000    0.000 
#
# Total GULP energy -198409.890122 kJ/mol
# GULP energy per Si atom -12400.618133 kJ/mol
# Density = 2.080389 g / cm^3
# Si number density = 20.851347 Si / 1000 Ang^3
#
#
#
# Elastic Constant Matrix: (Units=GPa)
#
#
# Indices 1 2 3 4 5 6 
#
# 1 65.0665 30.4212 8.2698 10.2742 3.3171 -23.7026
# 2 30.4212 149.3465 37.0272 4.0018 0.7930 -15.7992
# 3 8.2698 37.0272 94.2486 9.7394 -1.2089 -13.5520
# 4 10.2742 4.0018 9.7394 22.3504 -6.5842 -0.0910
# 5 3.3171 0.7930 -1.2089 -6.5842 39.8487 -3.2880
# 6 -23.7026 -15.7992 -13.5520 -0.0910 -3.2880 25.3717
#
#
#
# Elastic Compliance Matrix: (Units=1/GPa)
#
#
# Indices 1 2 3 4 5 6 
#
# 1 0.028645 -0.003683 0.004239 -0.014980 -0.002483 0.026356
# 2 -0.003683 0.008161 -0.003040 0.001654 0.000331 0.000066
# 3 0.004239 -0.003040 0.013513 -0.007355 -0.000337 0.009215
# 4 -0.014980 0.001654 -0.007355 0.057172 0.009158 -0.015501
# 5 -0.002483 0.000331 -0.000337 0.009158 0.026899 0.001225
# 6 0.026356 0.000066 0.009215 -0.015501 0.001225 0.069102
#
#
# Mechanical properties :
#
#
# Convention : Reuss Voigt Hill
#
# Bulk Modulus (GPa) = 22.05010 51.12201 36.58605
# Shear Modulus (GPa) = 22.36363 33.04371 27.70367
#
# Velocity S-wave (km/s) = 3.27850 3.98518 3.64899
# Velocity P-wave (km/s) = 4.99292 6.76359 5.94455
#
# Compressibility (1/GPa) = 0.04535128
#
# Stress axis : x y z
#
# Youngs Moduli (GPa) = 34.91002 122.53853 74.00062
#
# Poissons Ratio (x) = 0.45133 -0.31372
# Poissons Ratio (y) = 0.12858 0.22497
# Poissons Ratio (z) = -0.14800 0.37254
#
# Static dielectric constant tensor:
#      x y z
#    x 3.785820 -0.097400 -0.068290 
#    y -0.097400 3.790930 -0.114400 
#    z -0.068290 -0.114400 4.105120 
# 
# 
# High freq. dielectric constant tensor:
#      x y z
#    x 1.820200 -0.010170 -0.001570 
#    y -0.010170 1.812940 -0.000840 
#    z -0.001570 -0.000840 1.827390 
# 
# From -- ./inp_files/175220.got.cif
#   From: 2010.06.25/outbox.cif.g09.slc.cpg/sg2_88_cif.got.tgz:175220.got - 2010.06.27 13:26:56.
