data_PCOD8032928
_publ_section_title
;
Structure prediction by ZEFSAII (Michael W. Deem and Ramdas Pophale) SiO2 
 PCOD8032928
Probable space group: P -1
;
_chemical_formula_sum "Si O2"
_cell_formula_units_Z 16
_cell_length_a 9.327361
_cell_length_b 18.448085
_cell_length_c 18.957308
_cell_angle_alpha 29.385739
_cell_angle_beta 39.942744
_cell_angle_gamma 28.559933
_cell_volume 765.212872
_symmetry_space_group_name_H-M "P -1"
_symmetry_group_IT_number 2
_symmetry_cell_setting 'triclinic'
loop_
_space_group_symop_operation_xyz
x,y,z
-x,-y,-z
loop_
_atom_site_type_symbol
_atom_site_label
_atom_site_fract_x
_atom_site_fract_y
_atom_site_fract_z
Si Si1 0.673695 0.563798 0.350745
Si Si2 0.675896 0.988238 0.674975
Si Si3 0.364227 0.639067 0.131355
Si Si4 0.312861 0.146141 0.813918
Si Si5 0.590475 0.725313 0.094772
Si Si6 0.320565 0.789312 0.632036
Si Si7 0.637704 0.779846 0.645390
Si Si8 0.257899 0.353282 0.125124
O O1 0.500000 0.500000 0.500000
O O2 0.620648 0.727545 0.281731
O O3 0.550028 0.655547 0.241938
O O4 0.020530 0.368352 0.382694
O O5 0.764752 0.781975 0.799398
O O6 0.960931 0.943629 0.640207
O O7 0.401347 0.116979 0.723298
O O8 0.575181 0.116250 0.533474
O O9 0.365031 0.755976 0.095779
O O10 0.544169 0.416809 0.280048
O O11 0.033378 0.742137 0.145409
O O12 0.523315 0.628166 0.010283
O O13 0.506140 0.934120 0.959944
O O14 0.929536 0.569001 0.071246
O O15 0.449953 0.746757 0.697897
O O16 0.603727 0.743636 0.769064
O O17 0.500000 0.000000 0.500000
#
# Coordination Sequence:
#
# PCOD8032928 Si02
#       8
#     2   2   2   2   2   2   2   2
#     4  11  28  46  66  98 135 175 216 267 335 395
#     4  11  24  41  71  98 128 175 220 268 326 390
#     4  12  24  43  66 101 134 168 222 274 325 385
#     4  12  26  45  65  99 136 172 217 268 335 391
#     4  11  24  45  69  95 134 177 218 269 322 393
#     4  11  24  43  67  99 131 169 222 274 323 383
#     4  11  24  45  68  97 131 168 222 273 322 385
#     4  11  23  44  68  97 130 173 225 267 321 386
#
# _framework density 20.909216000000001
#
# number of rings (size 3 to 8) (size 9 to 14) (size 15 to 20)
#    0.000    0.750    5.000    1.875    3.500    3.000 
#    2.250    0.000    0.000    0.000    0.000    0.000 
#    0.000    0.000    0.000    0.000    0.000    0.000 
#
# Total GULP energy -198514.395229 kJ/mol
# GULP energy per Si atom -12407.149702 kJ/mol
# Density = 2.086163 g / cm^3
# Si number density = 20.909216 Si / 1000 Ang^3
#
#
#
# Elastic Constant Matrix: (Units=GPa)
#
#
# Indices 1 2 3 4 5 6 
#
# 1 122.0455 40.2272 45.7733 8.3339 -0.9392 3.0013
# 2 40.2272 111.9176 69.3064 3.3686 -4.5529 5.3615
# 3 45.7733 69.3064 134.1919 0.0914 -9.8324 -1.6425
# 4 8.3339 3.3686 0.0914 44.8006 4.3741 -4.9360
# 5 -0.9392 -4.5529 -9.8324 4.3741 32.1598 -1.8417
# 6 3.0013 5.3615 -1.6425 -4.9360 -1.8417 26.9432
#
#
#
# Elastic Compliance Matrix: (Units=1/GPa)
#
#
# Indices 1 2 3 4 5 6 
#
# 1 0.009895 -0.001976 -0.002409 -0.001767 -0.000557 -0.001218
# 2 -0.001976 0.013867 -0.006535 -0.000993 -0.000137 -0.003129
# 3 -0.002409 -0.006535 0.011876 0.000948 0.002658 0.002648
# 4 -0.001767 -0.000993 0.000948 0.023502 -0.002838 0.004564
# 5 -0.000557 -0.000137 0.002658 -0.002838 0.032369 0.001944
# 6 -0.001218 -0.003129 0.002648 0.004564 0.001944 0.039004
#
#
# Mechanical properties :
#
#
# Convention : Reuss Voigt Hill
#
# Bulk Modulus (GPa) = 72.48301 75.41875 73.95088
# Shear Modulus (GPa) = 31.85684 34.97061 33.41372
#
# Velocity S-wave (km/s) = 3.90754 4.09405 4.00188
# Velocity P-wave (km/s) = 7.42289 7.64829 7.53643
#
# Compressibility (1/GPa) = 0.01379634
#
# Stress axis : x y z
#
# Youngs Moduli (GPa) = 101.06333 72.11519 84.20533
#
# Poissons Ratio (x) = 0.14248 0.20287
# Poissons Ratio (y) = 0.19967 0.55032
# Poissons Ratio (z) = 0.24349 0.47131
#
# Static dielectric constant tensor:
#      x y z
#    x 3.911020 0.157840 -0.004910 
#    y 0.157840 3.829000 -0.078940 
#    z -0.004910 -0.078940 3.979680 
# 
# 
# High freq. dielectric constant tensor:
#      x y z
#    x 1.821500 0.004230 0.000290 
#    y 0.004230 1.822940 -0.008050 
#    z 0.000290 -0.008050 1.833730 
# 
# From -- ./inp_files/184263.got.cif
#   From: 2010.06.25/outbox.cif.g09.slc.cpg/sg2_93_cif.got.tgz:184263.got - 2010.06.27 13:26:56.
