data_PCOD8032835
_publ_section_title
;
Structure prediction by ZEFSAII (Michael W. Deem and Ramdas Pophale) SiO2 
 PCOD8032835
Probable space group: P -1
;
_chemical_formula_sum "Si O2"
_cell_formula_units_Z 14
_cell_length_a 19.819862
_cell_length_b 12.613349
_cell_length_c 9.230535
_cell_angle_alpha 135.748419
_cell_angle_beta 146.157625
_cell_angle_gamma 28.924282
_cell_volume 621.062409
_symmetry_space_group_name_H-M "P -1"
_symmetry_group_IT_number 2
_symmetry_cell_setting 'triclinic'
loop_
_space_group_symop_operation_xyz
x,y,z
-x,-y,-z
loop_
_atom_site_type_symbol
_atom_site_label
_atom_site_fract_x
_atom_site_fract_y
_atom_site_fract_z
Si Si1 0.425329 0.871263 0.007235
Si Si2 0.977891 0.581663 0.701898
Si Si3 0.929662 0.971118 0.478743
Si Si4 0.314279 0.300174 0.219508
Si Si5 0.432890 0.390479 0.274576
Si Si6 0.769026 0.532534 0.446380
Si Si7 0.066924 0.817616 0.050650
O O1 0.455454 0.814106 0.834750
O O2 0.578569 0.655675 0.166075
O O3 0.237843 0.973012 0.817383
O O4 0.426867 0.049869 0.213793
O O5 0.820662 0.641825 0.564631
O O6 0.000000 0.500000 0.500000
O O7 0.154703 0.393508 0.923886
O O8 0.929394 0.806674 0.829875
O O9 0.082904 0.726690 0.578978
O O10 0.000000 0.000000 0.500000
O O11 0.870153 0.150283 0.663887
O O12 0.437326 0.310181 0.363914
O O13 0.240299 0.441233 0.371805
O O14 0.500000 0.500000 0.500000
O O15 0.232731 0.578043 0.044977
O O16 0.000000 0.000000 0.000000
#
# Coordination Sequence:
#
# PCOD8032835 Si02
#       7
#     2   2   2   2   2   2   2
#     4  12  26  46  74 103 140 189 239 286 359 422
#     4  11  23  43  75 102 139 187 237 289 350 426
#     4  12  26  47  72 101 146 186 228 296 359 416
#     4  11  25  46  71 101 145 189 233 301 353 412
#     4  11  23  44  68  99 141 181 236 290 347 421
#     4  12  26  48  73 107 142 184 244 290 352 429
#     4  11  24  43  69 104 138 185 232 287 358 413
#
# _framework density 22.542019
#
# number of rings (size 3 to 8) (size 9 to 14) (size 15 to 20)
#    0.000    0.571    2.857    6.429    2.000    1.714 
#    2.571    0.000    0.000    0.000    0.000    0.000 
#    0.000    0.000    0.000    0.000    0.000    0.000 
#
# Total GULP energy -173631.535226 kJ/mol
# GULP energy per Si atom -12402.252516 kJ/mol
# Density = 2.249071 g / cm^3
# Si number density = 22.542019 Si / 1000 Ang^3
#
#
#
# Elastic Constant Matrix: (Units=GPa)
#
#
# Indices 1 2 3 4 5 6 
#
# 1 154.0646 32.9846 46.1530 -2.4143 15.3820 7.5206
# 2 32.9846 104.1296 30.0022 -6.6908 16.6899 8.8334
# 3 46.1530 30.0022 101.8536 -6.4378 4.7744 6.6108
# 4 -2.4143 -6.6908 -6.4378 43.3483 2.0721 -1.3325
# 5 15.3820 16.6899 4.7744 2.0721 42.6084 10.6931
# 6 7.5206 8.8334 6.6108 -1.3325 10.6931 38.7458
#
#
#
# Elastic Compliance Matrix: (Units=1/GPa)
#
#
# Indices 1 2 3 4 5 6 
#
# 1 0.007898 -0.001289 -0.003105 -0.000132 -0.001948 -0.000176
# 2 -0.001289 0.011472 -0.002475 0.001476 -0.003597 -0.000900
# 3 -0.003105 -0.002475 0.012054 0.001155 0.000964 -0.001116
# 4 -0.000132 0.001476 0.001155 0.023584 -0.002023 0.000862
# 5 -0.001948 -0.003597 0.000964 -0.002023 0.027215 -0.006547
# 6 -0.000176 -0.000900 -0.001116 0.000862 -0.006547 0.028075
#
#
# Mechanical properties :
#
#
# Convention : Reuss Voigt Hill
#
# Bulk Modulus (GPa) = 56.53725 64.25860 60.39793
# Shear Modulus (GPa) = 38.48171 41.66770 40.07471
#
# Velocity S-wave (km/s) = 4.13620 4.30402 4.22094
# Velocity P-wave (km/s) = 6.92432 7.29846 7.11385
#
# Compressibility (1/GPa) = 0.01768745
#
# Stress axis : x y z
#
# Youngs Moduli (GPa) = 126.61823 87.16531 82.95837
#
# Poissons Ratio (x) = 0.11231 0.25757
# Poissons Ratio (y) = 0.16315 0.20534
# Poissons Ratio (z) = 0.39312 0.21575
#
# Static dielectric constant tensor:
#      x y z
#    x 4.368850 0.120770 0.259110 
#    y 0.120770 4.067300 -0.006760 
#    z 0.259110 -0.006760 3.961140 
# 
# 
# High freq. dielectric constant tensor:
#      x y z
#    x 1.901730 0.003450 0.004770 
#    y 0.003450 1.892130 0.008330 
#    z 0.004770 0.008330 1.884270 
# 
# From -- ./inp_files/179298.got.cif
#   From: 2010.06.25/outbox.cif.g09.slc.cpg/sg2_90_cif.got.tgz:179298.got - 2010.06.27 13:26:56.
