data_PCOD8032128
_publ_section_title
;
Structure prediction by ZEFSAII (Michael W. Deem and Ramdas Pophale) SiO2 
 PCOD8032128
Probable space group: P -1
;
_chemical_formula_sum "Si O2"
_cell_formula_units_Z 10
_cell_length_a 4.916045
_cell_length_b 11.533696
_cell_length_c 8.720123
_cell_angle_alpha 109.132697
_cell_angle_beta 77.776523
_cell_angle_gamma 86.860698
_cell_volume 452.384888
_symmetry_space_group_name_H-M "P -1"
_symmetry_group_IT_number 2
_symmetry_cell_setting 'triclinic'
loop_
_space_group_symop_operation_xyz
x,y,z
-x,-y,-z
loop_
_atom_site_type_symbol
_atom_site_label
_atom_site_fract_x
_atom_site_fract_y
_atom_site_fract_z
Si Si1 0.672178 0.521781 0.336618
Si Si2 0.554095 0.875109 0.032437
Si Si3 0.171965 0.659057 0.290893
Si Si4 0.290769 0.920842 0.409301
Si Si5 0.873294 0.285995 0.036703
O O1 0.500000 0.500000 0.500000
O O2 0.887056 0.622067 0.385843
O O3 0.875444 0.400520 0.201470
O O4 0.123647 0.175823 0.995579
O O5 0.376090 0.903989 0.217932
O O6 0.415810 0.767918 0.915796
O O7 0.500000 0.000000 0.000000
O O8 0.253292 0.783898 0.417202
O O9 0.445907 0.559614 0.245360
O O10 0.108422 0.670971 0.122724
O O11 0.500000 0.000000 0.500000
O O12 0.000000 0.000000 0.500000
#
# Coordination Sequence:
#
# PCOD8032128 Si02
#       5
#     2   2   2   2   2
#     4  12  25  41  65  98 127 162 212 268 317 362
#     4  11  24  42  64  94 126 165 210 258 313 372
#     4  11  23  43  65  91 128 171 210 253 313 386
#     4  11  23  41  65  93 124 165 210 255 309 371
#     4  11  23  43  65  90 126 171 210 250 312 385
#
# _framework density 22.105069
#
# number of rings (size 3 to 8) (size 9 to 14) (size 15 to 20)
#    0.000    0.800    0.000    9.600    0.000    4.800 
#    0.000    0.000    0.000    0.000    0.000    0.000 
#    0.000    0.000    0.000    0.000    0.000    0.000 
#
# Total GULP energy -123960.465294 kJ/mol
# GULP energy per Si atom -12396.046529 kJ/mol
# Density = 2.205476 g / cm^3
# Si number density = 22.105069 Si / 1000 Ang^3
#
#
#
# Elastic Constant Matrix: (Units=GPa)
#
#
# Indices 1 2 3 4 5 6 
#
# 1 155.5812 57.3452 38.9909 1.1988 1.5404 -2.4032
# 2 57.3452 155.4747 55.4769 4.7104 4.6670 17.9840
# 3 38.9909 55.4769 84.2210 20.1036 -7.8199 2.7523
# 4 1.1988 4.7104 20.1036 26.0046 1.5387 6.7886
# 5 1.5404 4.6670 -7.8199 1.5387 34.8468 7.7748
# 6 -2.4032 17.9840 2.7523 6.7886 7.7748 62.3107
#
#
#
# Elastic Compliance Matrix: (Units=1/GPa)
#
#
# Indices 1 2 3 4 5 6 
#
# 1 0.007919 -0.001992 -0.002990 0.002132 -0.001052 0.000912
# 2 -0.001992 0.009824 -0.006714 0.004371 -0.002301 -0.002805
# 3 -0.002990 -0.006714 0.022183 -0.016657 0.006328 0.001868
# 4 0.002132 0.004371 -0.016657 0.052188 -0.005508 -0.005442
# 5 -0.001052 -0.002301 0.006328 -0.005508 0.031378 -0.002971
# 6 0.000912 -0.002805 0.001868 -0.005442 -0.002971 0.017774
#
#
# Mechanical properties :
#
#
# Convention : Reuss Voigt Hill
#
# Bulk Modulus (GPa) = 60.48555 77.65587 69.07071
# Shear Modulus (GPa) = 29.38232 40.86336 35.12284
#
# Velocity S-wave (km/s) = 3.64979 4.30420 3.99043
# Velocity P-wave (km/s) = 6.72186 7.74003 7.24885
#
# Compressibility (1/GPa) = 0.01653287
#
# Stress axis : x y z
#
# Youngs Moduli (GPa) = 126.27286 101.79652 45.07978
#
# Poissons Ratio (x) = 0.20283 0.13480
# Poissons Ratio (y) = 0.25159 0.30266
# Poissons Ratio (z) = 0.37758 0.68344
#
# Static dielectric constant tensor:
#      x y z
#    x 5.409920 2.285510 1.134150 
#    y 2.285510 8.022130 2.055220 
#    z 1.134150 2.055220 4.756270 
# 
# 
# High freq. dielectric constant tensor:
#      x y z
#    x 1.891760 0.008680 -0.001440 
#    y 0.008680 1.887960 0.013590 
#    z -0.001440 0.013590 1.853510 
# 
# From -- ./inp_files/93740.got.cif
#   From: 2010.06.25/outbox.cif.g09.slc.cpg/sg2_47_cif.got.tgz:93740.got - 2010.06.27 13:26:56.
