data_PCOD8032275
_publ_section_title
;
Structure prediction by ZEFSAII (Michael W. Deem and Ramdas Pophale) SiO2 
 PCOD8032275
Probable space group: P -1
;
_chemical_formula_sum "Si O2"
_cell_formula_units_Z 14
_cell_length_a 11.747302
_cell_length_b 8.884213
_cell_length_c 14.246637
_cell_angle_alpha 105.327031
_cell_angle_beta 127.483792
_cell_angle_gamma 118.657542
_cell_volume 622.957546
_symmetry_space_group_name_H-M "P -1"
_symmetry_group_IT_number 2
_symmetry_cell_setting 'triclinic'
loop_
_space_group_symop_operation_xyz
x,y,z
-x,-y,-z
loop_
_atom_site_type_symbol
_atom_site_label
_atom_site_fract_x
_atom_site_fract_y
_atom_site_fract_z
Si Si1 0.784368 0.285086 0.101570
Si Si2 0.399267 0.179632 0.807933
Si Si3 0.919565 0.279526 0.984035
Si Si4 0.263212 0.319044 0.081056
Si Si5 0.882257 0.065955 0.194265
Si Si6 0.579967 0.366650 0.345087
Si Si7 0.935634 0.579783 0.409434
O O1 0.698719 0.051243 0.076834
O O2 0.920385 0.523358 0.283184
O O3 0.554964 0.164584 0.912023
O O4 0.983147 0.394113 0.140995
O O5 0.572770 0.457587 0.883959
O O6 0.268764 0.146770 0.827467
O O7 0.165994 0.915689 0.579338
O O8 0.613476 0.947268 0.766700
O O9 0.000000 0.500000 0.000000
O O10 0.086401 0.283029 0.038212
O O11 0.430547 0.395257 0.261862
O O12 0.091926 0.028165 0.895819
O O13 0.174611 0.391171 0.421875
O O14 0.669098 0.410046 0.289631
O O15 0.000000 0.500000 0.500000
#
# Coordination Sequence:
#
# PCOD8032275 Si02
#       7
#     2   2   2   2   2   2   2
#     4  12  23  42  74 100 135 180 230 279 341 398
#     4  11  24  43  71 107 139 172 231 283 344 405
#     4  12  27  48  70  97 136 188 236 278 330 409
#     4  12  26  46  67  98 146 182 221 283 339 411
#     4  11  25  41  73 105 130 182 222 281 357 397
#     4  11  25  46  71 100 143 173 228 285 343 404
#     4  11  23  41  74 109 132 175 226 287 344 401
#
# _framework density 22.473441000000001
#
# number of rings (size 3 to 8) (size 9 to 14) (size 15 to 20)
#    0.000    0.571    5.714    3.000    0.000    4.000 
#    0.000    1.429    0.000    0.000    0.000    0.000 
#    0.000    0.000    0.000    0.000    0.000    0.000 
#
# Total GULP energy -173497.409130 kJ/mol
# GULP energy per Si atom -12392.672081 kJ/mol
# Density = 2.242229 g / cm^3
# Si number density = 22.473441 Si / 1000 Ang^3
#
#
#
# Elastic Constant Matrix: (Units=GPa)
#
#
# Indices 1 2 3 4 5 6 
#
# 1 97.1860 12.7895 13.8337 10.1987 1.2769 -12.0600
# 2 12.7895 100.9218 39.5962 11.4078 9.4044 -0.7698
# 3 13.8337 39.5962 77.4289 16.5002 6.7148 -5.4927
# 4 10.1987 11.4078 16.5002 21.7445 -0.0826 4.2583
# 5 1.2769 9.4044 6.7148 -0.0826 24.1002 -4.8578
# 6 -12.0600 -0.7698 -5.4927 4.2583 -4.8578 33.3276
#
#
#
# Elastic Compliance Matrix: (Units=1/GPa)
#
#
# Indices 1 2 3 4 5 6 
#
# 1 0.011650 -0.000787 -0.000116 -0.005948 0.000718 0.005043
# 2 -0.000787 0.012812 -0.005827 -0.001699 -0.003593 -0.001256
# 3 -0.000116 -0.005827 0.018987 -0.012124 -0.002209 0.004180
# 4 -0.005948 -0.001699 -0.012124 0.061166 0.002211 -0.011683
# 5 0.000718 -0.003593 -0.002209 0.002211 0.044699 0.006046
# 6 0.005043 -0.001256 0.004180 -0.011683 0.006046 0.034864
#
#
# Mechanical properties :
#
#
# Convention : Reuss Voigt Hill
#
# Bulk Modulus (GPa) = 33.34461 45.33062 39.33761
# Shear Modulus (GPa) = 24.08086 29.78893 26.93490
#
# Velocity S-wave (km/s) = 3.27697 3.64471 3.46572
# Velocity P-wave (km/s) = 5.40255 6.15845 5.79284
#
# Compressibility (1/GPa) = 0.02998986
#
# Stress axis : x y z
#
# Youngs Moduli (GPa) = 85.83536 78.05358 52.66728
#
# Poissons Ratio (x) = 0.06143 0.00611
# Poissons Ratio (y) = 0.06755 0.30687
# Poissons Ratio (z) = 0.00995 0.45479
#
# Static dielectric constant tensor:
#      x y z
#    x 4.600290 0.036900 -0.065430 
#    y 0.036900 4.080260 -0.008480 
#    z -0.065430 -0.008480 4.061070 
# 
# 
# High freq. dielectric constant tensor:
#      x y z
#    x 1.902510 -0.001960 -0.004010 
#    y -0.001960 1.881850 -0.000310 
#    z -0.004010 -0.000310 1.877360 
# 
# From -- ./inp_files/514464.got.cif
#   From: 2010.06.25/outbox.cif.g09.slc.cpg/sg2_258_cif.got.tgz:514464.got - 2010.06.27 13:26:56.
