data_PCOD8032924
_publ_section_title
;
Structure prediction by ZEFSAII (Michael W. Deem and Ramdas Pophale) SiO2 
 PCOD8032924
Probable space group: P -1
;
_chemical_formula_sum "Si O2"
_cell_formula_units_Z 16
_cell_length_a 19.471198
_cell_length_b 8.309727
_cell_length_c 22.786226
_cell_angle_alpha 42.685697
_cell_angle_beta 157.385748
_cell_angle_gamma 147.808761
_cell_volume 735.867984
_symmetry_space_group_name_H-M "P -1"
_symmetry_group_IT_number 2
_symmetry_cell_setting 'triclinic'
loop_
_space_group_symop_operation_xyz
x,y,z
-x,-y,-z
loop_
_atom_site_type_symbol
_atom_site_label
_atom_site_fract_x
_atom_site_fract_y
_atom_site_fract_z
Si Si1 0.955702 0.913303 0.054932
Si Si2 0.174441 0.957266 0.624481
Si Si3 0.391723 0.130070 0.412389
Si Si4 0.662653 0.826242 0.437946
Si Si5 0.541671 0.282914 0.927103
Si Si6 0.940411 0.250427 0.646910
Si Si7 0.249847 0.831651 0.111209
Si Si8 0.374134 0.343389 0.002551
O O1 0.812323 0.546808 0.050496
O O2 0.201006 0.107259 0.229477
O O3 0.781662 0.976005 0.920735
O O4 0.000000 0.000000 0.000000
O O5 0.049403 0.597934 0.626514
O O6 0.254649 0.075649 0.589848
O O7 0.397812 0.173163 0.783697
O O8 0.000000 0.000000 0.500000
O O9 0.593172 0.495317 0.485638
O O10 0.500000 0.000000 0.500000
O O11 0.290956 0.939276 0.444781
O O12 0.446466 0.811771 0.289375
O O13 0.880545 0.077201 0.584070
O O14 0.474561 0.422055 0.886585
O O15 0.500000 0.000000 0.000000
O O16 0.122106 0.251676 0.827532
O O17 0.000000 0.500000 0.000000
O O18 0.334323 0.026052 0.064337
O O19 0.500000 0.500000 0.000000
#
# Coordination Sequence:
#
# PCOD8032924 Si02
#       8
#     2   2   2   2   2   2   2   2
#     4  11  24  43  69  99 134 179 231 285 344 407
#     4  12  27  45  68 103 141 185 236 284 351 416
#     4  12  25  48  68 102 141 182 231 288 350 422
#     4  12  27  45  71 104 141 188 229 291 356 413
#     4  11  23  44  68  94 133 178 229 286 335 404
#     4  12  25  48  65 103 144 179 235 286 349 422
#     4  11  23  44  69  97 136 176 233 285 338 410
#     4  11  24  43  70  97 133 180 230 284 344 409
#
# _framework density 21.743030000000001
#
# number of rings (size 3 to 8) (size 9 to 14) (size 15 to 20)
#    0.000    0.500    5.000    3.000    7.000    0.000 
#    0.000    0.000    0.000    0.000    0.000    0.000 
#    0.000    0.000    0.000    0.000    0.000    0.000 
#
# Total GULP energy -198373.287591 kJ/mol
# GULP energy per Si atom -12398.330474 kJ/mol
# Density = 2.169354 g / cm^3
# Si number density = 21.743030 Si / 1000 Ang^3
#
#
#
# Elastic Constant Matrix: (Units=GPa)
#
#
# Indices 1 2 3 4 5 6 
#
# 1 140.7976 41.0705 27.9410 11.7028 -12.9750 9.3475
# 2 41.0705 162.0438 19.6874 15.1689 -6.1822 2.5598
# 3 27.9410 19.6874 59.6431 5.3571 -3.5293 -20.0269
# 4 11.7028 15.1689 5.3571 32.5563 -12.6416 0.4919
# 5 -12.9750 -6.1822 -3.5293 -12.6416 41.4121 -1.0382
# 6 9.3475 2.5598 -20.0269 0.4919 -1.0382 44.1377
#
#
#
# Elastic Compliance Matrix: (Units=1/GPa)
#
#
# Indices 1 2 3 4 5 6 
#
# 1 0.009010 -0.001466 -0.004880 -0.001000 0.001783 -0.003984
# 2 -0.001466 0.006989 -0.001693 -0.002582 -0.000369 -0.000843
# 3 -0.004880 -0.001693 0.023758 -0.001516 0.000080 0.011930
# 4 -0.001000 -0.002582 -0.001516 0.036540 0.010314 -0.000491
# 5 0.001783 -0.000369 0.000080 0.010314 0.027812 0.000219
# 6 -0.003984 -0.000843 0.011930 -0.000491 0.000219 0.028973
#
#
# Mechanical properties :
#
#
# Convention : Reuss Voigt Hill
#
# Bulk Modulus (GPa) = 42.23036 59.98693 51.10865
# Shear Modulus (GPa) = 31.83618 41.87360 36.85489
#
# Velocity S-wave (km/s) = 3.83064 4.39320 4.12153
# Velocity P-wave (km/s) = 6.24738 7.30634 6.79751
#
# Compressibility (1/GPa) = 0.02367964
#
# Stress axis : x y z
#
# Youngs Moduli (GPa) = 110.98286 143.07358 42.09110
#
# Poissons Ratio (x) = 0.20979 0.20538
# Poissons Ratio (y) = 0.16273 0.07127
# Poissons Ratio (z) = 0.54154 0.24226
#
# Static dielectric constant tensor:
#      x y z
#    x 4.071940 0.096470 0.040800 
#    y 0.096470 4.333920 0.009830 
#    z 0.040800 0.009830 3.997120 
# 
# 
# High freq. dielectric constant tensor:
#      x y z
#    x 1.866020 0.011250 -0.005110 
#    y 0.011250 1.880470 0.005140 
#    z -0.005110 0.005140 1.843760 
# 
# From -- ./inp_files/329056.got.cif
#   From: 2010.06.25/outbox.cif.g09.slc.cpg/sg2_165_cif.got.tgz:329056.got - 2010.06.27 13:26:56.
