data_PCOD8032996
_publ_section_title
;
Structure prediction by ZEFSAII (Michael W. Deem and Ramdas Pophale) SiO2 
 PCOD8032996
Probable space group: P -1
;
_chemical_formula_sum "Si O2"
_cell_formula_units_Z 16
_cell_length_a 9.233120
_cell_length_b 11.942821
_cell_length_c 17.709097
_cell_angle_alpha 42.926956
_cell_angle_beta 131.398415
_cell_angle_gamma 98.675938
_cell_volume 755.984145
_symmetry_space_group_name_H-M "P -1"
_symmetry_group_IT_number 2
_symmetry_cell_setting 'triclinic'
loop_
_space_group_symop_operation_xyz
x,y,z
-x,-y,-z
loop_
_atom_site_type_symbol
_atom_site_label
_atom_site_fract_x
_atom_site_fract_y
_atom_site_fract_z
Si Si1 0.158283 0.793828 0.103955
Si Si2 0.643932 0.650238 0.546400
Si Si3 0.876265 0.417208 0.040363
Si Si4 0.008221 0.243024 0.603510
Si Si5 0.717788 0.257231 0.354967
Si Si6 0.663502 0.661195 0.372678
Si Si7 0.963705 0.772048 0.653330
Si Si8 0.089157 0.014511 0.228224
O O1 0.189991 0.596677 0.248172
O O2 0.418191 0.745642 0.198263
O O3 0.006526 0.848369 0.948403
O O4 0.000000 0.000000 0.000000
O O5 0.598879 0.653602 0.440370
O O6 0.776803 0.750049 0.557846
O O7 0.379003 0.791811 0.430476
O O8 0.895488 0.408474 0.142329
O O9 0.060393 0.164204 0.208918
O O10 0.587108 0.559861 0.842116
O O11 0.000000 0.500000 0.000000
O O12 0.815686 0.298556 0.442529
O O13 0.895538 0.427323 0.536356
O O14 0.262369 0.187011 0.684539
O O15 0.086880 0.039688 0.778981
O O16 0.820914 0.289060 0.300187
O O17 0.803060 0.019226 0.504134
#
# Coordination Sequence:
#
# PCOD8032996 Si02
#       8
#     2   2   2   2   2   2   2   2
#     4  12  24  42  67  99 136 175 222 276 329 396
#     4  12  24  45  70  99 136 178 227 269 338 408
#     4  12  26  42  67 106 134 171 227 276 334 400
#     4  11  23  44  71  97 132 180 222 275 337 395
#     4  11  24  48  69  96 139 174 227 276 335 400
#     4  11  23  44  70  97 135 177 224 275 335 398
#     4  11  25  45  73  96 133 187 215 278 340 395
#     4  12  25  42  69  97 136 177 219 282 335 391
#
# _framework density 21.164466000000001
#
# number of rings (size 3 to 8) (size 9 to 14) (size 15 to 20)
#    0.000    0.500    5.000    3.750    1.750    1.500 
#    2.250    0.000    0.000    0.000    0.000    0.000 
#    0.000    0.000    0.000    0.000    0.000    0.000 
#
# Total GULP energy -198395.444643 kJ/mol
# GULP energy per Si atom -12399.715290 kJ/mol
# Density = 2.111629 g / cm^3
# Si number density = 21.164466 Si / 1000 Ang^3
#
#
#
# Elastic Constant Matrix: (Units=GPa)
#
#
# Indices 1 2 3 4 5 6 
#
# 1 122.2043 31.9218 36.0285 -14.1983 -12.6118 14.2542
# 2 31.9218 90.3093 14.3025 -9.8511 -1.7861 8.4895
# 3 36.0285 14.3025 63.5089 -10.0821 -7.3688 4.9869
# 4 -14.1983 -9.8511 -10.0821 37.2994 2.9865 -3.2825
# 5 -12.6118 -1.7861 -7.3688 2.9865 29.5970 -2.1320
# 6 14.2542 8.4895 4.9869 -3.2825 -2.1320 41.2793
#
#
#
# Elastic Compliance Matrix: (Units=1/GPa)
#
#
# Indices 1 2 3 4 5 6 
#
# 1 0.011118 -0.002679 -0.004888 0.001751 0.003009 -0.002403
# 2 -0.002679 0.012505 -0.000980 0.001967 -0.000932 -0.001420
# 3 -0.004888 -0.000980 0.019495 0.002948 0.002407 -0.000107
# 4 0.001751 0.001967 0.002948 0.028971 -0.001262 0.000873
# 5 0.003009 -0.000932 0.002407 -0.001262 0.035784 0.000610
# 6 -0.002403 -0.001420 -0.000107 0.000873 0.000610 0.025461
#
#
# Mechanical properties :
#
#
# Convention : Reuss Voigt Hill
#
# Bulk Modulus (GPa) = 38.42836 48.94759 43.68798
# Shear Modulus (GPa) = 31.42587 34.55311 32.98949
#
# Velocity S-wave (km/s) = 3.85754 4.04493 3.95235
# Velocity P-wave (km/s) = 6.16744 6.70766 6.44321
#
# Compressibility (1/GPa) = 0.02602245
#
# Stress axis : x y z
#
# Youngs Moduli (GPa) = 89.94119 79.96742 51.29444
#
# Poissons Ratio (x) = 0.21427 0.25074
# Poissons Ratio (y) = 0.24099 0.05029
# Poissons Ratio (z) = 0.43965 0.07841
#
# Static dielectric constant tensor:
#      x y z
#    x 4.142880 -0.086420 0.099910 
#    y -0.086420 2.850160 -0.040840 
#    z 0.099910 -0.040840 3.350290 
# 
# 
# High freq. dielectric constant tensor:
#      x y z
#    x 1.848300 -0.000420 -0.009480 
#    y -0.000420 1.846070 -0.001330 
#    z -0.009480 -0.001330 1.817580 
# 
# From -- ./inp_files/70839.got.cif
#   From: 2010.06.25/outbox.cif.g09.slc.cpg/sg2_36_cif.got.tgz:70839.got - 2010.06.27 13:26:56.
