data_PCOD8032211
_publ_section_title
;
Structure prediction by ZEFSAII (Michael W. Deem and Ramdas Pophale) SiO2 
 PCOD8032211
Probable space group: P -1
;
_chemical_formula_sum "Si O2"
_cell_formula_units_Z 14
_cell_length_a 14.762218
_cell_length_b 14.974656
_cell_length_c 8.451989
_cell_angle_alpha 55.463383
_cell_angle_beta 73.045268
_cell_angle_gamma 27.554299
_cell_volume 592.854443
_symmetry_space_group_name_H-M "P -1"
_symmetry_group_IT_number 2
_symmetry_cell_setting 'triclinic'
loop_
_space_group_symop_operation_xyz
x,y,z
-x,-y,-z
loop_
_atom_site_type_symbol
_atom_site_label
_atom_site_fract_x
_atom_site_fract_y
_atom_site_fract_z
Si Si1 0.837585 0.615215 0.338710
Si Si2 0.180287 0.846029 0.695813
Si Si3 0.859443 0.861697 0.548399
Si Si4 0.358173 0.287442 0.385373
Si Si5 0.621582 0.372805 0.734624
Si Si6 0.016512 0.391479 0.972707
Si Si7 0.918475 0.214132 0.913454
O O1 0.617483 0.801095 0.368455
O O2 0.000000 0.500000 0.500000
O O3 0.783952 0.771900 0.088385
O O4 0.956649 0.390035 0.408640
O O5 0.135990 0.015312 0.607094
O O6 0.440295 0.559203 0.782811
O O7 0.157133 0.790595 0.908434
O O8 0.000000 0.000000 0.500000
O O9 0.602999 0.082183 0.416771
O O10 0.913299 0.789936 0.782957
O O11 0.150121 0.593056 0.204845
O O12 0.244196 0.337161 0.250041
O O13 0.500000 0.500000 0.500000
O O14 0.780345 0.316166 0.724814
O O15 0.798318 0.084823 0.950466
O O16 0.000000 0.500000 0.000000
#
# Coordination Sequence:
#
# PCOD8032211 Si02
#       7
#     2   2   2   2   2   2   2
#     4   9  22  42  66  95 124 161 216 274 327 388
#     4  12  24  42  65  97 137 181 220 267 325 392
#     4  11  24  41  68  92 131 172 218 264 330 389
#     4  11  23  41  69  94 127 172 218 264 326 393
#     4  11  24  42  63  91 135 178 217 271 321 374
#     4   9  21  43  63  95 127 160 211 274 327 387
#     4  11  25  41  65  95 137 175 224 264 323 394
#
# _framework density 23.614567000000001
#
# number of rings (size 3 to 8) (size 9 to 14) (size 15 to 20)
#    0.000    1.429    2.857    1.286    4.000    5.714 
#    0.000    4.286    0.000    0.000    0.000    0.000 
#    0.000    0.000    0.000    0.000    0.000    0.000 
#
# Total GULP energy -173454.782454 kJ/mol
# GULP energy per Si atom -12389.627318 kJ/mol
# Density = 2.356082 g / cm^3
# Si number density = 23.614567 Si / 1000 Ang^3
#
#
#
# Elastic Constant Matrix: (Units=GPa)
#
#
# Indices 1 2 3 4 5 6 
#
# 1 85.4712 16.6419 22.5284 18.6274 16.7900 -3.8640
# 2 16.6419 75.3368 14.3011 3.6526 3.2081 4.0280
# 3 22.5284 14.3011 90.2208 21.8046 19.5353 -6.0093
# 4 18.6274 3.6526 21.8046 39.7238 -8.9654 4.5937
# 5 16.7900 3.2081 19.5353 -8.9654 42.9814 5.1358
# 6 -3.8640 4.0280 -6.0093 4.5937 5.1358 29.2069
#
#
#
# Elastic Compliance Matrix: (Units=1/GPa)
#
#
# Indices 1 2 3 4 5 6 
#
# 1 0.016768 -0.003412 0.001887 -0.011713 -0.010403 0.006749
# 2 -0.003412 0.014559 -0.003051 0.003024 0.002747 -0.004046
# 3 0.001887 -0.003051 0.017887 -0.014305 -0.012678 0.008830
# 4 -0.011713 0.003024 -0.014305 0.045079 0.022154 -0.015896
# 5 -0.010403 0.002747 -0.012678 0.022154 0.039271 -0.014753
# 6 0.006749 -0.004046 0.008830 -0.015896 -0.014753 0.042600
#
#
# Mechanical properties :
#
#
# Convention : Reuss Voigt Hill
#
# Bulk Modulus (GPa) = 24.96162 39.77465 32.36813
# Shear Modulus (GPa) = 25.16726 35.55289 30.36008
#
# Velocity S-wave (km/s) = 3.26813 3.88435 3.58949
# Velocity P-wave (km/s) = 4.98340 6.08255 5.56020
#
# Compressibility (1/GPa) = 0.04006150
#
# Stress axis : x y z
#
# Youngs Moduli (GPa) = 59.63630 68.68432 55.90700
#
# Poissons Ratio (x) = 0.23437 -0.10547
# Poissons Ratio (y) = 0.20349 0.17057
# Poissons Ratio (z) = -0.11251 0.20955
#
# Static dielectric constant tensor:
#      x y z
#    x 2.507380 0.271640 -0.312620 
#    y 0.271640 4.931860 1.060420 
#    z -0.312620 1.060420 7.287200 
# 
# 
# High freq. dielectric constant tensor:
#      x y z
#    x 1.940930 0.002510 0.008180 
#    y 0.002510 1.938800 0.020220 
#    z 0.008180 0.020220 1.936850 
# 
# From -- ./inp_files/312684.got.cif
#   From: 2010.06.25/outbox.cif.g09.slc.cpg/sg2_157_cif.got.tgz:312684.got - 2010.06.27 13:26:56.
