data_PCOD8032349
_publ_section_title
;
Structure prediction by ZEFSAII (Michael W. Deem and Ramdas Pophale) SiO2 
 PCOD8032349
Probable space group: P -1
;
_chemical_formula_sum "Si O2"
_cell_formula_units_Z 14
_cell_length_a 23.048554
_cell_length_b 6.513566
_cell_length_c 9.703594
_cell_angle_alpha 134.110650
_cell_angle_beta 141.116038
_cell_angle_gamma 63.265337
_cell_volume 642.789739
_symmetry_space_group_name_H-M "P -1"
_symmetry_group_IT_number 2
_symmetry_cell_setting 'triclinic'
loop_
_space_group_symop_operation_xyz
x,y,z
-x,-y,-z
loop_
_atom_site_type_symbol
_atom_site_label
_atom_site_fract_x
_atom_site_fract_y
_atom_site_fract_z
Si Si1 0.896635 0.186117 0.512160
Si Si2 0.902522 0.833024 0.803652
Si Si3 0.947232 0.176422 0.296532
Si Si4 0.362263 0.723831 0.545623
Si Si5 0.243138 0.065822 0.635308
Si Si6 0.601092 0.712129 0.785348
Si Si7 0.509614 0.190249 0.922024
O O1 0.918279 0.527205 0.750126
O O2 0.885647 0.171333 0.318654
O O3 0.802592 0.036068 0.348745
O O4 0.978628 0.031556 0.643081
O O5 0.822037 0.783730 0.513921
O O6 0.877352 0.031587 0.976450
O O7 0.000000 0.000000 0.000000
O O8 0.000000 0.500000 0.500000
O O9 0.339811 0.402106 0.282128
O O10 0.266768 0.786692 0.466710
O O11 0.405386 0.979543 0.634906
O O12 0.447046 0.738164 0.814407
O O13 0.339902 0.291637 0.963100
O O14 0.500000 0.500000 0.500000
O O15 0.580336 0.040727 0.886962
O O16 0.500000 0.500000 0.000000
#
# Coordination Sequence:
#
# PCOD8032349 Si02
#       7
#     2   2   2   2   2   2   2
#     4  11  24  41  66  96 131 172 227 270 332 406
#     4  12  24  43  66  95 133 175 218 279 338 390
#     4  11  23  42  67  95 129 176 221 272 336 397
#     4   9  20  38  59  88 129 168 212 272 325 383
#     4  11  24  39  65  98 134 171 226 276 331 397
#     4   9  20  42  65  91 131 175 214 268 328 384
#     4   9  18  36  64  93 121 167 217 267 330 393
#
# _framework density 21.780059000000001
#
# number of rings (size 3 to 8) (size 9 to 14) (size 15 to 20)
#    0.000    1.714    2.857    1.286    0.000    6.286 
#    0.000    2.857    0.000    0.000    0.000    0.000 
#    0.000    0.000    0.000    0.000    0.000    0.000 
#
# Total GULP energy -173442.778303 kJ/mol
# GULP energy per Si atom -12388.769879 kJ/mol
# Density = 2.173049 g / cm^3
# Si number density = 21.780059 Si / 1000 Ang^3
#
#
#
# Elastic Constant Matrix: (Units=GPa)
#
#
# Indices 1 2 3 4 5 6 
#
# 1 118.1461 43.4995 35.6931 2.4944 -25.2818 -11.0841
# 2 43.4995 148.1503 58.0425 14.6540 -8.5399 -6.5503
# 3 35.6931 58.0425 121.9753 2.1188 -18.4276 -10.4208
# 4 2.4944 14.6540 2.1188 32.1942 -13.2540 -5.4709
# 5 -25.2818 -8.5399 -18.4276 -13.2540 37.9429 5.7969
# 6 -11.0841 -6.5503 -10.4208 -5.4709 5.7969 36.5236
#
#
#
# Elastic Compliance Matrix: (Units=1/GPa)
#
#
# Indices 1 2 3 4 5 6 
#
# 1 0.011551 -0.002990 -0.000666 0.004086 0.007798 0.002153
# 2 -0.002990 0.009573 -0.004196 -0.005476 -0.003693 -0.000622
# 3 -0.000666 -0.004196 0.011260 0.003638 0.005045 0.002002
# 4 0.004086 -0.005476 0.003638 0.040698 0.016751 0.004734
# 5 0.007798 -0.003693 0.005045 0.016751 0.039106 -0.000554
# 6 0.002153 -0.000622 0.002002 0.004734 -0.000554 0.029290
#
#
# Mechanical properties :
#
#
# Convention : Reuss Voigt Hill
#
# Bulk Modulus (GPa) = 59.95552 73.63797 66.79675
# Shear Modulus (GPa) = 30.72316 38.06791 34.39553
#
# Velocity S-wave (km/s) = 3.75988 4.18524 3.97825
# Velocity P-wave (km/s) = 6.81443 7.56560 7.19982
#
# Compressibility (1/GPa) = 0.01667903
#
# Stress axis : x y z
#
# Youngs Moduli (GPa) = 86.57499 104.45887 88.80755
#
# Poissons Ratio (x) = 0.31233 0.05915
# Poissons Ratio (y) = 0.25886 0.37268
# Poissons Ratio (z) = 0.05767 0.43836
#
# Static dielectric constant tensor:
#      x y z
#    x 4.558980 -0.027030 -0.583560 
#    y -0.027030 4.137020 0.098660 
#    z -0.583560 0.098660 4.258000 
# 
# 
# High freq. dielectric constant tensor:
#      x y z
#    x 1.853060 -0.021400 -0.021900 
#    y -0.021400 1.847860 0.007690 
#    z -0.021900 0.007690 1.852840 
# 
# From -- ./inp_files/124783.got.cif
#   From: 2010.06.25/outbox.cif.g09.slc.cpg/sg2_63_cif.got.tgz:124783.got - 2010.06.27 13:26:56.
