data_PCOD8032092
_publ_section_title
;
Structure prediction by ZEFSAII (Michael W. Deem and Ramdas Pophale) SiO2 
 PCOD8032092
Probable space group: P -1
;
_chemical_formula_sum "Si O2"
_cell_formula_units_Z 14
_cell_length_a 16.860162
_cell_length_b 11.407228
_cell_length_c 9.115801
_cell_angle_alpha 73.540730
_cell_angle_beta 71.755310
_cell_angle_gamma 19.344304
_cell_volume 551.143127
_symmetry_space_group_name_H-M "P -1"
_symmetry_group_IT_number 2
_symmetry_cell_setting 'triclinic'
loop_
_space_group_symop_operation_xyz
x,y,z
-x,-y,-z
loop_
_atom_site_type_symbol
_atom_site_label
_atom_site_fract_x
_atom_site_fract_y
_atom_site_fract_z
Si Si1 0.226461 0.253145 0.658970
Si Si2 0.963996 0.779806 0.825241
Si Si3 0.784741 0.362706 0.906434
Si Si4 0.533144 0.400506 0.672795
Si Si5 0.443507 0.248572 0.819189
Si Si6 0.648401 0.169886 0.156331
Si Si7 0.725802 0.676868 0.677078
O O1 0.139627 0.427279 0.489537
O O2 0.048044 0.535103 0.794626
O O3 0.238347 0.089484 0.710689
O O4 0.491063 0.940141 0.648389
O O5 0.185767 0.565871 0.790318
O O6 0.798636 0.069381 0.694879
O O7 0.822208 0.950853 0.996177
O O8 0.628826 0.480622 0.858654
O O9 0.886272 0.340346 0.761719
O O10 0.582196 0.705059 0.007054
O O11 0.000000 0.000000 0.000000
O O12 0.500000 0.500000 0.500000
O O13 0.498163 0.305658 0.704052
O O14 0.351651 0.706068 0.792050
O O15 0.655468 0.863721 0.787054
#
# Coordination Sequence:
#
# PCOD8032092 Si02
#       7
#     2   2   2   2   2   2   2
#     4   9  20  42  72 100 134 186 234 291 353 407
#     4  11  24  45  72 101 141 185 234 289 354 420
#     4  11  23  40  73 106 139 188 235 288 354 419
#     4  12  27  45  69 103 146 185 235 290 349 419
#     4  11  24  43  71 100 142 187 237 283 352 416
#     4  11  23  46  72  99 146 183 233 297 345 420
#     4   9  20  42  68 102 142 179 235 293 346 414
#
# _framework density 25.401748999999999
#
# number of rings (size 3 to 8) (size 9 to 14) (size 15 to 20)
#    0.000    1.429    1.429    3.000    2.000    2.857 
#    2.571    1.429    0.000    0.000    0.000    0.000 
#    0.000    0.000    0.000    0.000    0.000    0.000 
#
# Total GULP energy -173535.595032 kJ/mol
# GULP energy per Si atom -12395.399645 kJ/mol
# Density = 2.534393 g / cm^3
# Si number density = 25.401749 Si / 1000 Ang^3
#
#
#
# Elastic Constant Matrix: (Units=GPa)
#
#
# Indices 1 2 3 4 5 6 
#
# 1 106.7076 32.9157 25.9652 -4.2571 -3.6548 19.2307
# 2 32.9157 97.8754 50.3621 -13.3323 1.8887 12.2351
# 3 25.9652 50.3621 133.1835 -26.2489 -13.3586 4.7476
# 4 -4.2571 -13.3323 -26.2489 42.5854 9.6906 -3.7483
# 5 -3.6548 1.8887 -13.3586 9.6906 28.0581 -5.2858
# 6 19.2307 12.2351 4.7476 -3.7483 -5.2858 27.5973
#
#
#
# Elastic Compliance Matrix: (Units=1/GPa)
#
#
# Indices 1 2 3 4 5 6 
#
# 1 0.011673 -0.002567 -0.001250 -0.001051 0.000163 -0.006893
# 2 -0.002567 0.014590 -0.004980 0.002035 -0.005248 -0.004552
# 3 -0.001250 -0.004980 0.010810 0.004219 0.004357 0.002627
# 4 -0.001051 0.002035 0.004219 0.028529 -0.007840 0.001477
# 5 0.000163 -0.005248 0.004357 -0.007840 0.042402 0.008520
# 6 -0.006893 -0.004552 0.002627 0.001477 0.008520 0.044437
#
#
# Mechanical properties :
#
#
# Convention : Reuss Voigt Hill
#
# Bulk Modulus (GPa) = 51.33568 61.80582 56.57075
# Shear Modulus (GPa) = 28.32395 34.88304 31.60350
#
# Velocity S-wave (km/s) = 3.34284 3.70976 3.53107
# Velocity P-wave (km/s) = 5.92898 6.53712 6.24046
#
# Compressibility (1/GPa) = 0.01947963
#
# Stress axis : x y z
#
# Youngs Moduli (GPa) = 85.66532 68.53913 92.50654
#
# Poissons Ratio (x) = 0.17595 0.11565
# Poissons Ratio (y) = 0.21991 0.46065
# Poissons Ratio (z) = 0.10710 0.34130
#
# Static dielectric constant tensor:
#      x y z
#    x 5.125900 0.234350 -0.057460 
#    y 0.234350 4.788860 -0.103260 
#    z -0.057460 -0.103260 4.883680 
# 
# 
# High freq. dielectric constant tensor:
#      x y z
#    x 2.028780 0.006210 0.002340 
#    y 0.006210 2.012760 -0.006590 
#    z 0.002340 -0.006590 2.011370 
# 
# From -- ./inp_files/333110.got.cif
#   From: 2010.06.25/outbox.cif.g09.slc.cpg/sg2_167_cif.got.tgz:333110.got - 2010.06.27 13:26:56.
