data_PCOD8032615
_publ_section_title
;
Structure prediction by ZEFSAII (Michael W. Deem and Ramdas Pophale) SiO2 
 PCOD8032615
Probable space group: P -1
;
_chemical_formula_sum "Si O2"
_cell_formula_units_Z 14
_cell_length_a 10.841662
_cell_length_b 14.009981
_cell_length_c 13.928732
_cell_angle_alpha 159.312661
_cell_angle_beta 126.990128
_cell_angle_gamma 53.756698
_cell_volume 593.955590
_symmetry_space_group_name_H-M "P -1"
_symmetry_group_IT_number 2
_symmetry_cell_setting 'triclinic'
loop_
_space_group_symop_operation_xyz
x,y,z
-x,-y,-z
loop_
_atom_site_type_symbol
_atom_site_label
_atom_site_fract_x
_atom_site_fract_y
_atom_site_fract_z
Si Si1 0.982827 0.934784 0.647287
Si Si2 0.924272 0.530751 0.890561
Si Si3 0.440438 0.080007 0.152321
Si Si4 0.873306 0.110024 0.122799
Si Si5 0.426287 0.482750 0.261094
Si Si6 0.336300 0.008341 0.378755
Si Si7 0.669583 0.450513 0.208096
O O1 0.988516 0.675396 0.337357
O O2 0.041062 0.831112 0.682474
O O3 0.803990 0.072548 0.695765
O O4 0.083070 0.163502 0.865879
O O5 0.754125 0.442347 0.743278
O O6 0.000000 0.500000 0.000000
O O7 0.494230 0.373806 0.477813
O O8 0.500000 0.000000 0.000000
O O9 0.255023 0.093628 0.098432
O O10 0.526934 0.839947 0.030475
O O11 0.783972 0.380451 0.287036
O O12 0.000000 0.000000 0.000000
O O13 0.500958 0.586796 0.295619
O O14 0.500000 0.000000 0.500000
O O15 0.270508 0.315405 0.608112
O O16 0.350314 0.818337 0.114138
#
# Coordination Sequence:
#
# PCOD8032615 Si02
#       7
#     2   2   2   2   2   2   2
#     4  12  28  47  74 112 146 196 245 311 379 440
#     4  12  28  49  73 105 146 195 253 314 369 438
#     4  11  23  43  68 101 140 193 243 294 362 440
#     4  11  24  46  74 113 159 191 247 309 381 452
#     4  11  24  42  70  97 137 183 242 286 364 430
#     4  12  27  46  74 103 152 191 255 296 365 444
#     4  11  25  46  72 109 142 202 234 305 371 445
#
# _framework density 23.570785000000001
#
# number of rings (size 3 to 8) (size 9 to 14) (size 15 to 20)
#    0.000    0.571    1.429    6.429    4.000    5.143 
#    0.000    0.000    0.000    0.000    0.000    0.000 
#    0.000    0.000    0.000    0.000    0.000    0.000 
#
# Total GULP energy -173539.743857 kJ/mol
# GULP energy per Si atom -12395.695990 kJ/mol
# Density = 2.351714 g / cm^3
# Si number density = 23.570785 Si / 1000 Ang^3
#
#
#
# Elastic Constant Matrix: (Units=GPa)
#
#
# Indices 1 2 3 4 5 6 
#
# 1 169.3312 45.8325 32.4843 -23.8692 -9.8049 -17.1529
# 2 45.8325 121.6165 52.8933 -17.9086 -3.5589 1.9553
# 3 32.4843 52.8933 123.7643 -11.4782 -13.2272 5.0263
# 4 -23.8692 -17.9086 -11.4782 37.0034 6.4524 3.7619
# 5 -9.8049 -3.5589 -13.2272 6.4524 41.1286 -8.6348
# 6 -17.1529 1.9553 5.0263 3.7619 -8.6348 41.2922
#
#
#
# Elastic Compliance Matrix: (Units=1/GPa)
#
#
# Indices 1 2 3 4 5 6 
#
# 1 0.007457 -0.002044 -0.000775 0.002962 0.001590 0.003351
# 2 -0.002044 0.011225 -0.004070 0.003297 -0.001664 -0.001534
# 3 -0.000775 -0.004070 0.010368 0.000393 0.002548 -0.000894
# 4 0.002962 0.003297 0.000393 0.031712 -0.004443 -0.002792
# 5 0.001590 -0.001664 0.002548 -0.004443 0.027446 0.006573
# 6 0.003351 -0.001534 -0.000894 -0.002792 0.006573 0.027420
#
#
# Mechanical properties :
#
#
# Convention : Reuss Voigt Hill
#
# Bulk Modulus (GPa) = 65.48671 75.23690 70.36181
# Shear Modulus (GPa) = 37.17579 42.78495 39.98037
#
# Velocity S-wave (km/s) = 3.97570 4.26510 4.12294
# Velocity P-wave (km/s) = 6.99416 7.49958 7.25127
#
# Compressibility (1/GPa) = 0.01527027
#
# Stress axis : x y z
#
# Youngs Moduli (GPa) = 134.10769 89.08879 96.45164
#
# Poissons Ratio (x) = 0.18212 0.07474
# Poissons Ratio (y) = 0.27415 0.39259
# Poissons Ratio (z) = 0.10392 0.36262
#
# Static dielectric constant tensor:
#      x y z
#    x 4.994300 0.132140 0.440300 
#    y 0.132140 4.117080 0.148080 
#    z 0.440300 0.148080 4.476520 
# 
# 
# High freq. dielectric constant tensor:
#      x y z
#    x 1.967540 0.001550 0.000110 
#    y 0.001550 1.915460 -0.002710 
#    z 0.000110 -0.002710 1.935150 
# 
# From -- ./inp_files/522058.got.cif
#   From: 2010.06.25/outbox.cif.g09.slc.cpg/sg2_262_cif.got.tgz:522058.got - 2010.06.27 13:26:56.
