data_PCOD8032357
_publ_section_title
;
Structure prediction by ZEFSAII (Michael W. Deem and Ramdas Pophale) SiO2 
 PCOD8032357
Probable space group: P -1
;
_chemical_formula_sum "Si O2"
_cell_formula_units_Z 16
_cell_length_a 11.700941
_cell_length_b 12.049785
_cell_length_c 7.013866
_cell_angle_alpha 114.007585
_cell_angle_beta 61.626782
_cell_angle_gamma 116.081266
_cell_volume 756.602829
_symmetry_space_group_name_H-M "P -1"
_symmetry_group_IT_number 2
_symmetry_cell_setting 'triclinic'
loop_
_space_group_symop_operation_xyz
x,y,z
-x,-y,-z
loop_
_atom_site_type_symbol
_atom_site_label
_atom_site_fract_x
_atom_site_fract_y
_atom_site_fract_z
Si Si1 0.398337 0.858369 0.971422
Si Si2 0.299786 0.397327 0.654176
Si Si3 0.716176 0.294432 0.693702
Si Si4 0.570266 0.346333 0.481334
Si Si5 0.879453 0.088795 0.842556
Si Si6 0.061162 0.767074 0.733111
Si Si7 0.115387 0.184081 0.419635
Si Si8 0.081086 0.467946 0.090842
O O1 0.396703 0.785114 0.121793
O O2 0.244831 0.857850 0.061773
O O3 0.443586 0.785437 0.710117
O O4 0.500000 0.000000 0.000000
O O5 0.423583 0.366819 0.642269
O O6 0.337269 0.539081 0.639003
O O7 0.248969 0.295505 0.454589
O O8 0.180615 0.387077 0.892721
O O9 0.634629 0.348895 0.640364
O O10 0.793662 0.203004 0.469565
O O11 0.834187 0.405563 0.779615
O O12 0.001313 0.157452 0.653483
O O13 0.834482 0.937417 0.746280
O O14 0.927906 0.123270 0.043944
O O15 0.939392 0.769474 0.693750
O O16 0.029977 0.625556 0.748317
O O17 0.000000 0.500000 0.000000
#
# Coordination Sequence:
#
# PCOD8032357 Si02
#       8
#     2   2   2   2   2   2   2   2
#     4  12  25  47  67  95 134 184 224 272 331 393
#     4  11  23  45  68  98 137 174 219 276 334 394
#     4  12  24  43  69  99 134 177 225 272 323 405
#     4  11  25  46  68  94 137 178 225 273 328 397
#     4  11  23  43  66  95 138 171 222 280 329 391
#     4  12  22  41  69 102 132 172 220 273 338 397
#     4  11  23  42  67  99 132 176 218 278 339 386
#     4  12  23  41  71 104 137 174 215 276 344 395
#
# _framework density 21.14716
#
# number of rings (size 3 to 8) (size 9 to 14) (size 15 to 20)
#    0.000    0.500    5.000    4.500    0.000    1.000 
#    4.500    0.000    0.000    0.000    0.000    0.000 
#    0.000    0.000    0.000    0.000    0.000    0.000 
#
# Total GULP energy -198497.287916 kJ/mol
# GULP energy per Si atom -12406.080495 kJ/mol
# Density = 2.109903 g / cm^3
# Si number density = 21.147160 Si / 1000 Ang^3
#
#
#
# Elastic Constant Matrix: (Units=GPa)
#
#
# Indices 1 2 3 4 5 6 
#
# 1 113.8092 24.5139 36.8873 1.0028 16.7479 -14.5422
# 2 24.5139 86.1995 32.5149 22.4147 7.7220 7.2337
# 3 36.8873 32.5149 107.2725 11.4361 13.0332 -1.3864
# 4 1.0028 22.4147 11.4361 30.7804 1.0900 7.8771
# 5 16.7479 7.7220 13.0332 1.0900 38.6812 3.4645
# 6 -14.5422 7.2337 -1.3864 7.8771 3.4645 37.3892
#
#
#
# Elastic Compliance Matrix: (Units=1/GPa)
#
#
# Indices 1 2 3 4 5 6 
#
# 1 0.011451 -0.002660 -0.002739 0.001461 -0.003987 0.004928
# 2 -0.002660 0.016330 -0.002898 -0.010168 -0.000657 -0.002098
# 3 -0.002739 -0.002898 0.011646 -0.002202 -0.002150 0.000590
# 4 0.001461 -0.010168 -0.002202 0.042298 0.001538 -0.006600
# 5 -0.003987 -0.000657 -0.002150 0.001538 0.028793 -0.004495
# 6 0.004928 -0.002098 0.000590 -0.006600 -0.004495 0.030897
#
#
# Mechanical properties :
#
#
# Convention : Reuss Voigt Hill
#
# Bulk Modulus (GPa) = 43.79776 55.01259 49.40517
# Shear Modulus (GPa) = 30.18965 35.59449 32.89207
#
# Velocity S-wave (km/s) = 3.78246 4.10711 3.94812
# Velocity P-wave (km/s) = 6.31125 6.96863 6.64807
#
# Compressibility (1/GPa) = 0.02283222
#
# Stress axis : x y z
#
# Youngs Moduli (GPa) = 87.33013 61.23881 85.86581
#
# Poissons Ratio (x) = 0.16288 0.23520
# Poissons Ratio (y) = 0.23227 0.24886
# Poissons Ratio (z) = 0.23921 0.17749
#
# Static dielectric constant tensor:
#      x y z
#    x 3.820710 -0.010540 0.046660 
#    y -0.010540 3.800780 0.096430 
#    z 0.046660 0.096430 4.001290 
# 
# 
# High freq. dielectric constant tensor:
#      x y z
#    x 1.835010 -0.003030 0.003350 
#    y -0.003030 1.828750 0.009180 
#    z 0.003350 0.009180 1.839400 
# 
# From -- ./inp_files/68989.got.cif
#   From: 2010.06.25/outbox.cif.g09.slc.cpg/sg2_35_cif.got.tgz:68989.got - 2010.06.27 13:26:56.
