data_PCOD8032063
_publ_section_title
;
Structure prediction by ZEFSAII (Michael W. Deem and Ramdas Pophale) SiO2 
 PCOD8032063
Probable space group: P -1
;
_chemical_formula_sum "Si O2"
_cell_formula_units_Z 14
_cell_length_a 13.898429
_cell_length_b 12.325980
_cell_length_c 11.522702
_cell_angle_alpha 116.029753
_cell_angle_beta 20.396277
_cell_angle_gamma 116.505255
_cell_volume 614.307503
_symmetry_space_group_name_H-M "P -1"
_symmetry_group_IT_number 2
_symmetry_cell_setting 'triclinic'
loop_
_space_group_symop_operation_xyz
x,y,z
-x,-y,-z
loop_
_atom_site_type_symbol
_atom_site_label
_atom_site_fract_x
_atom_site_fract_y
_atom_site_fract_z
Si Si1 0.461385 0.380375 0.063966
Si Si2 0.103004 0.417388 0.944818
Si Si3 0.935061 0.984718 0.274346
Si Si4 0.853888 0.379988 0.832040
Si Si5 0.537106 0.860991 0.195804
Si Si6 0.474271 0.227559 0.351159
Si Si7 0.291489 0.816713 0.690730
O O1 0.182206 0.373416 0.452026
O O2 0.500000 0.500000 0.000000
O O3 0.723618 0.381388 0.852778
O O4 0.449863 0.265644 0.940299
O O5 0.354989 0.352889 0.577366
O O6 0.205443 0.497210 0.977528
O O7 0.000000 0.500000 0.000000
O O8 0.857032 0.318905 0.220043
O O9 0.741233 0.084784 0.501704
O O10 0.753515 0.873886 0.496912
O O11 0.179333 0.051797 0.110923
O O12 0.072629 0.917537 0.978957
O O13 0.723494 0.261176 0.994982
O O14 0.523742 0.840210 0.340247
O O15 0.571979 0.165102 0.328058
#
# Coordination Sequence:
#
# PCOD8032063 Si02
#       7
#     2   2   2   2   2   2   2
#     4  12  29  50  72 101 140 193 235 281 336 425
#     4  11  23  40  69 111 144 178 224 293 365 416
#     4  11  25  45  70 106 140 178 231 297 355 411
#     4  12  26  47  73 100 148 182 236 286 347 414
#     4  12  26  45  71 100 141 188 236 281 349 414
#     4  11  25  42  73 109 138 178 230 296 364 407
#     4  11  24  41  73 107 141 177 231 296 358 415
#
# _framework density 22.789891000000001
#
# number of rings (size 3 to 8) (size 9 to 14) (size 15 to 20)
#    0.000    0.571    2.857    4.286   10.000    0.000 
#    0.000    4.286    0.000    0.000    0.000    0.000 
#    0.000    0.000    0.000    0.000    0.000    0.000 
#
# Total GULP energy -173629.130234 kJ/mol
# GULP energy per Si atom -12402.080731 kJ/mol
# Density = 2.273802 g / cm^3
# Si number density = 22.789891 Si / 1000 Ang^3
#
#
#
# Elastic Constant Matrix: (Units=GPa)
#
#
# Indices 1 2 3 4 5 6 
#
# 1 74.9661 31.4343 20.4727 7.4409 -7.1820 6.2719
# 2 31.4343 155.7408 54.3354 9.0324 3.7922 22.9117
# 3 20.4727 54.3354 107.7943 -6.0694 -3.8190 -2.7882
# 4 7.4409 9.0324 -6.0694 33.9470 1.6647 -9.5497
# 5 -7.1820 3.7922 -3.8190 1.6647 32.7605 -2.7368
# 6 6.2719 22.9117 -2.7882 -9.5497 -2.7368 38.2922
#
#
#
# Elastic Compliance Matrix: (Units=1/GPa)
#
#
# Indices 1 2 3 4 5 6 
#
# 1 0.015672 -0.001883 -0.002203 -0.004169 0.003408 -0.002397
# 2 -0.001883 0.010165 -0.005354 -0.005279 -0.002586 -0.007665
# 3 -0.002203 -0.005354 0.012947 0.005846 0.001858 0.006098
# 4 -0.004169 -0.005279 0.005846 0.036600 -0.000364 0.013369
# 5 0.003408 -0.002586 0.001858 -0.000364 0.032084 0.003326
# 6 -0.002397 -0.007665 0.006098 0.013369 0.003326 0.035110
#
#
# Mechanical properties :
#
#
# Convention : Reuss Voigt Hill
#
# Bulk Modulus (GPa) = 50.24093 61.22068 55.73080
# Shear Modulus (GPa) = 29.74569 36.48386 33.11477
#
# Velocity S-wave (km/s) = 3.61669 4.00544 3.81602
# Velocity P-wave (km/s) = 6.28759 6.95074 6.62746
#
# Compressibility (1/GPa) = 0.01990409
#
# Stress axis : x y z
#
# Youngs Moduli (GPa) = 63.81002 98.37213 77.24010
#
# Poissons Ratio (x) = 0.18524 0.17018
# Poissons Ratio (y) = 0.12015 0.41351
# Poissons Ratio (z) = 0.14059 0.52664
#
# Static dielectric constant tensor:
#      x y z
#    x 3.850550 0.100310 -0.168610 
#    y 0.100310 4.435890 -0.078910 
#    z -0.168610 -0.078910 4.407150 
# 
# 
# High freq. dielectric constant tensor:
#      x y z
#    x 1.876190 0.003500 -0.018480 
#    y 0.003500 1.924980 -0.008970 
#    z -0.018480 -0.008970 1.905420 
# 
# From -- ./inp_files/65879.got.cif
#   From: 2010.06.25/outbox.cif.g09.slc.cpg/sg2_33_cif.got.tgz:65879.got - 2010.06.27 13:26:56.
