data_PCOD8032623
_publ_section_title
;
Structure prediction by ZEFSAII (Michael W. Deem and Ramdas Pophale) SiO2 
 PCOD8032623
Probable space group: P -1
;
_chemical_formula_sum "Si O2"
_cell_formula_units_Z 16
_cell_length_a 22.318849
_cell_length_b 23.136059
_cell_length_c 5.062229
_cell_angle_alpha 79.723425
_cell_angle_beta 71.944575
_cell_angle_gamma 18.663561
_cell_volume 736.056036
_symmetry_space_group_name_H-M "P -1"
_symmetry_group_IT_number 2
_symmetry_cell_setting 'triclinic'
loop_
_space_group_symop_operation_xyz
x,y,z
-x,-y,-z
loop_
_atom_site_type_symbol
_atom_site_label
_atom_site_fract_x
_atom_site_fract_y
_atom_site_fract_z
Si Si1 0.997002 0.726481 0.437564
Si Si2 0.927979 0.027742 0.325422
Si Si3 0.467443 0.885856 0.383875
Si Si4 0.537404 0.536023 0.415484
Si Si5 0.518424 0.918652 0.792479
Si Si6 0.191211 0.678937 0.277453
Si Si7 0.146407 0.323353 0.797269
Si Si8 0.128631 0.541931 0.918197
O O1 0.071666 0.724150 0.418596
O O2 0.015099 0.668222 0.712444
O O3 0.136130 0.580735 0.119176
O O4 0.755546 0.944539 0.507716
O O5 0.681975 0.235958 0.477066
O O6 0.000000 0.000000 0.500000
O O7 0.020694 0.880941 0.327618
O O8 0.000000 0.000000 0.000000
O O9 0.460645 0.920080 0.655640
O O10 0.636497 0.683520 0.302769
O O11 0.532487 0.878419 0.094870
O O12 0.500000 0.500000 0.500000
O O13 0.667435 0.440689 0.563658
O O14 0.657215 0.451486 0.067779
O O15 0.747697 0.741534 0.553815
O O16 0.340338 0.127745 0.873114
O O17 0.000000 0.500000 0.000000
O O18 0.002430 0.397168 0.844802
#
# Coordination Sequence:
#
# PCOD8032623 Si02
#       8
#     2   2   2   2   2   2   2   2
#     4  12  27  48  67  95 141 183 231 275 329 405
#     4  12  23  41  71 106 139 176 216 273 340 392
#     4  12  24  47  69  95 134 182 227 280 341 408
#     4  12  23  43  74 104 141 175 222 277 342 394
#     4  11  25  41  68 101 134 171 221 289 354 404
#     4  12  26  44  69 104 137 184 227 275 329 406
#     4  11  23  43  68 106 130 170 229 289 349 416
#     4  12  26  46  71  97 135 183 228 283 348 398
#
# _framework density 21.737475
#
# number of rings (size 3 to 8) (size 9 to 14) (size 15 to 20)
#    0.000    0.250    6.250    2.625    0.000    5.500 
#    0.000    0.000    0.000    0.000    0.000    0.000 
#    0.000    0.000    0.000    0.000    0.000    0.000 
#
# Total GULP energy -198505.261384 kJ/mol
# GULP energy per Si atom -12406.578837 kJ/mol
# Density = 2.168800 g / cm^3
# Si number density = 21.737475 Si / 1000 Ang^3
#
#
#
# Elastic Constant Matrix: (Units=GPa)
#
#
# Indices 1 2 3 4 5 6 
#
# 1 142.6437 62.3580 41.6419 11.9310 -1.4266 -6.4511
# 2 62.3580 137.1075 49.6313 29.3596 6.8550 -2.8211
# 3 41.6419 49.6313 111.6591 10.9810 6.8607 -4.3183
# 4 11.9310 29.3596 10.9810 46.0917 -4.3376 8.0336
# 5 -1.4266 6.8550 6.8607 -4.3376 38.8546 3.3520
# 6 -6.4511 -2.8211 -4.3183 8.0336 3.3520 29.1968
#
#
#
# Elastic Compliance Matrix: (Units=1/GPa)
#
#
# Indices 1 2 3 4 5 6 
#
# 1 0.009170 -0.003583 -0.001883 0.000266 0.001229 0.001187
# 2 -0.003583 0.011487 -0.002927 -0.006258 -0.002503 0.001895
# 3 -0.001883 -0.002927 0.011187 -0.000711 -0.001724 0.001349
# 4 0.000266 -0.006258 -0.000711 0.027813 0.005111 -0.008891
# 5 0.001229 -0.002503 -0.001724 0.005111 0.027512 -0.004790
# 6 0.001187 0.001895 0.001349 -0.008891 -0.004790 0.037891
#
#
# Mechanical properties :
#
#
# Convention : Reuss Voigt Hill
#
# Bulk Modulus (GPa) = 66.40960 77.63030 72.01995
# Shear Modulus (GPa) = 34.04450 38.68057 36.36253
#
# Velocity S-wave (km/s) = 3.96177 4.22292 4.09443
# Velocity P-wave (km/s) = 7.17946 7.71800 7.45360
#
# Compressibility (1/GPa) = 0.01505806
#
# Stress axis : x y z
#
# Youngs Moduli (GPa) = 109.04778 87.05561 89.38854
#
# Poissons Ratio (x) = 0.31192 0.16832
# Poissons Ratio (y) = 0.39072 0.26164
# Poissons Ratio (z) = 0.20534 0.25481
#
# Static dielectric constant tensor:
#      x y z
#    x 3.888610 0.049080 0.073300 
#    y 0.049080 4.192440 0.148630 
#    z 0.073300 0.148630 4.081260 
# 
# 
# High freq. dielectric constant tensor:
#      x y z
#    x 1.852150 -0.004310 0.008190 
#    y -0.004310 1.870600 0.007550 
#    z 0.008190 0.007550 1.868840 
# 
# From -- ./inp_files/120392.got.cif
#   From: 2010.06.25/outbox.cif.g09.slc.cpg/sg2_61_cif.got.tgz:120392.got - 2010.06.27 13:26:56.
