data_PCOD8032944
_publ_section_title
;
Structure prediction by ZEFSAII (Michael W. Deem and Ramdas Pophale) SiO2 
 PCOD8032944
Probable space group: P -1
;
_chemical_formula_sum "Si O2"
_cell_formula_units_Z 16
_cell_length_a 13.223918
_cell_length_b 13.081079
_cell_length_c 8.348755
_cell_angle_alpha 105.485627
_cell_angle_beta 60.878776
_cell_angle_gamma 55.971470
_cell_volume 697.548706
_symmetry_space_group_name_H-M "P -1"
_symmetry_group_IT_number 2
_symmetry_cell_setting 'triclinic'
loop_
_space_group_symop_operation_xyz
x,y,z
-x,-y,-z
loop_
_atom_site_type_symbol
_atom_site_label
_atom_site_fract_x
_atom_site_fract_y
_atom_site_fract_z
Si Si1 0.641972 0.684925 0.612360
Si Si2 0.651133 0.975299 0.825096
Si Si3 0.333532 0.542860 0.707093
Si Si4 0.372802 0.499498 0.033813
Si Si5 0.540616 0.160023 0.675206
Si Si6 0.217475 0.288979 0.760933
Si Si7 0.890012 0.860726 0.088639
Si Si8 0.037658 0.674541 0.578646
O O1 0.618344 0.606873 0.471083
O O2 0.679913 0.765021 0.514493
O O3 0.833772 0.514814 0.511518
O O4 0.435602 0.854661 0.942754
O O5 0.650758 0.997071 0.644954
O O6 0.870521 0.764098 0.616490
O O7 0.500000 0.000000 0.000000
O O8 0.500000 0.500000 0.500000
O O9 0.327717 0.544521 0.901727
O O10 0.104806 0.747337 0.928010
O O11 0.479810 0.306091 0.890583
O O12 0.500000 0.500000 0.000000
O O13 0.178832 0.648137 0.359929
O O14 0.346705 0.248800 0.784389
O O15 0.705149 0.075053 0.377650
O O16 0.185780 0.191632 0.792610
O O17 0.000000 0.500000 0.000000
O O18 0.903278 0.840247 0.879595
#
# Coordination Sequence:
#
# PCOD8032944 Si02
#       8
#     2   2   2   2   2   2   2   2
#     4  11  23  44  69 102 142 189 241 291 359 421
#     4  12  26  42  67 107 150 186 233 295 355 431
#     4  11  24  46  74  99 136 187 242 296 357 426
#     4  12  25  48  71 102 142 186 240 301 362 420
#     4  12  25  43  70 107 146 184 241 295 359 426
#     4  12  21  41  72 101 142 191 236 291 354 439
#     4  11  23  45  69 106 136 189 242 290 358 431
#     4  11  24  45  69  99 146 185 235 290 355 419
#
# _framework density 22.937465
#
# number of rings (size 3 to 8) (size 9 to 14) (size 15 to 20)
#    0.000    0.500    5.000    4.875    0.000    1.500 
#    2.250    2.500    0.000    0.000    0.000    0.000 
#    0.000    0.000    0.000    0.000    0.000    0.000 
#
# Total GULP energy -198245.896703 kJ/mol
# GULP energy per Si atom -12390.368544 kJ/mol
# Density = 2.288526 g / cm^3
# Si number density = 22.937465 Si / 1000 Ang^3
#
#
#
# Elastic Constant Matrix: (Units=GPa)
#
#
# Indices 1 2 3 4 5 6 
#
# 1 98.6942 45.6359 51.5620 2.9884 -27.4997 -17.0656
# 2 45.6359 111.7394 32.7038 -15.6725 -13.5247 -31.3425
# 3 51.5620 32.7038 157.6408 -19.9670 -8.2467 -4.2312
# 4 2.9884 -15.6725 -19.9670 43.7838 -4.5648 -4.4649
# 5 -27.4997 -13.5247 -8.2467 -4.5648 44.7918 -3.9085
# 6 -17.0656 -31.3425 -4.2312 -4.4649 -3.9085 28.2805
#
#
#
# Elastic Compliance Matrix: (Units=1/GPa)
#
#
# Indices 1 2 3 4 5 6 
#
# 1 0.018318 -0.003004 -0.004993 -0.002773 0.009826 0.007897
# 2 -0.003004 0.018190 -0.000760 0.009113 0.006229 0.020533
# 3 -0.004993 -0.000760 0.008437 0.003522 -0.001580 -0.002255
# 4 -0.002773 0.009113 0.003522 0.030006 0.006023 0.014523
# 5 0.009826 0.006229 -0.001580 0.006023 0.032131 0.017988
# 6 0.007897 0.020533 -0.002255 0.014523 0.017988 0.067323
#
#
# Mechanical properties :
#
#
# Convention : Reuss Voigt Hill
#
# Bulk Modulus (GPa) = 36.45604 69.76417 53.11011
# Shear Modulus (GPa) = 24.86779 39.24942 32.05860
#
# Velocity S-wave (km/s) = 3.29622 4.14109 3.74257
# Velocity P-wave (km/s) = 5.51498 7.30382 6.47151
#
# Compressibility (1/GPa) = 0.02743030
#
# Stress axis : x y z
#
# Youngs Moduli (GPa) = 54.59239 54.97489 118.52037
#
# Poissons Ratio (x) = 0.16515 0.59182
# Poissons Ratio (y) = 0.16400 0.09006
# Poissons Ratio (z) = 0.27260 0.04177
#
# Static dielectric constant tensor:
#      x y z
#    x 4.081500 -0.160280 0.272290 
#    y -0.160280 4.135090 -0.134700 
#    z 0.272290 -0.134700 4.753930 
# 
# 
# High freq. dielectric constant tensor:
#      x y z
#    x 1.892550 -0.024130 0.012610 
#    y -0.024130 1.906230 -0.006630 
#    z 0.012610 -0.006630 1.933500 
# 
# From -- ./inp_files/273621.got.cif
#   From: 2010.06.25/outbox.cif.g09.slc.cpg/sg2_137_cif.got.tgz:273621.got - 2010.06.27 13:26:56.
