data_PCOD8032827
_publ_section_title
;
Structure prediction by ZEFSAII (Michael W. Deem and Ramdas Pophale) SiO2 
 PCOD8032827
Probable space group: P -1
;
_chemical_formula_sum "Si O2"
_cell_formula_units_Z 12
_cell_length_a 14.213526
_cell_length_b 12.263814
_cell_length_c 9.575087
_cell_angle_alpha 50.149090
_cell_angle_beta 68.601922
_cell_angle_gamma 29.703392
_cell_volume 548.366374
_symmetry_space_group_name_H-M "P -1"
_symmetry_group_IT_number 2
_symmetry_cell_setting 'triclinic'
loop_
_space_group_symop_operation_xyz
x,y,z
-x,-y,-z
loop_
_atom_site_type_symbol
_atom_site_label
_atom_site_fract_x
_atom_site_fract_y
_atom_site_fract_z
Si Si1 0.897967 0.133385 0.599037
Si Si2 0.400271 0.820981 0.902059
Si Si3 0.408144 0.122359 0.293431
Si Si4 0.087614 0.191314 0.011517
Si Si5 0.574218 0.170342 0.650896
Si Si6 0.718370 0.166274 0.320159
O O1 0.641226 0.490608 0.442542
O O2 0.937568 0.939437 0.820350
O O3 0.000000 0.000000 0.500000
O O4 0.033832 0.090326 0.636174
O O5 0.512770 0.831597 0.859150
O O6 0.345156 0.873938 0.724609
O O7 0.562314 0.496488 0.129236
O O8 0.177087 0.085228 0.892882
O O9 0.500000 0.000000 0.500000
O O10 0.497720 0.882075 0.347370
O O11 0.145205 0.440071 0.170585
O O12 0.251761 0.075187 0.118228
O O13 0.693710 0.131812 0.515181
#
# Coordination Sequence:
#
# PCOD8032827 Si02
#       6
#     2   2   2   2   2   2
#     4  12  24  43  77 106 138 182 239 291 348 415
#     4  11  25  44  72 104 144 186 235 291 349 417
#     4  12  28  48  69 104 148 188 232 288 357 419
#     4  12  26  45  74 103 143 185 236 292 348 416
#     4  12  26  46  74 109 140 182 236 293 353 418
#     4  11  23  43  74 107 138 184 239 289 349 418
#
# _framework density 21.883181
#
# number of rings (size 3 to 8) (size 9 to 14) (size 15 to 20)
#    0.000    0.333    6.667    2.000    2.333    3.333 
#    0.000    0.000    0.000    0.000    0.000    0.000 
#    0.000    0.000    0.000    0.000    0.000    0.000 
#
# Total GULP energy -148866.116202 kJ/mol
# GULP energy per Si atom -12405.509684 kJ/mol
# Density = 2.183337 g / cm^3
# Si number density = 21.883181 Si / 1000 Ang^3
#
#
#
# Elastic Constant Matrix: (Units=GPa)
#
#
# Indices 1 2 3 4 5 6 
#
# 1 105.8771 22.3581 9.5712 -3.7120 -2.4581 5.8496
# 2 22.3581 119.1784 34.9088 3.2856 -2.5533 -4.6644
# 3 9.5712 34.9088 69.4096 -8.1416 16.1594 10.4483
# 4 -3.7120 3.2856 -8.1416 30.8695 -8.6784 2.8630
# 5 -2.4581 -2.5533 16.1594 -8.6784 33.3998 -2.9406
# 6 5.8496 -4.6644 10.4483 2.8630 -2.9406 30.4953
#
#
#
# Elastic Compliance Matrix: (Units=1/GPa)
#
#
# Indices 1 2 3 4 5 6 
#
# 1 0.010086 -0.002014 -0.000010 0.001888 0.000879 -0.002332
# 2 -0.002014 0.011343 -0.007514 -0.002774 0.004105 0.005352
# 3 -0.000010 -0.007514 0.022978 0.004627 -0.011419 -0.010556
# 4 0.001888 -0.002774 0.004627 0.036504 0.006720 -0.005151
# 5 0.000879 0.004105 -0.011419 0.006720 0.038244 0.007429
# 6 -0.002332 0.005352 -0.010556 -0.005151 0.007429 0.038874
#
#
# Mechanical properties :
#
#
# Convention : Reuss Voigt Hill
#
# Bulk Modulus (GPa) = 39.47565 47.57127 43.52346
# Shear Modulus (GPa) = 26.94697 34.12805 30.53751
#
# Velocity S-wave (km/s) = 3.51294 3.95341 3.73966
# Velocity P-wave (km/s) = 5.87646 6.52879 6.21120
#
# Compressibility (1/GPa) = 0.02533207
#
# Stress axis : x y z
#
# Youngs Moduli (GPa) = 99.14254 88.15720 43.51991
#
# Poissons Ratio (x) = 0.17753 0.00044
# Poissons Ratio (y) = 0.19965 0.32701
# Poissons Ratio (z) = 0.00101 0.66241
#
# Static dielectric constant tensor:
#      x y z
#    x 4.321120 -0.194610 0.093710 
#    y -0.194610 4.002770 0.013750 
#    z 0.093710 0.013750 3.891000 
# 
# 
# High freq. dielectric constant tensor:
#      x y z
#    x 1.876900 -0.005730 0.003980 
#    y -0.005730 1.863500 0.005700 
#    z 0.003980 0.005700 1.860880 
# 
# From -- ./inp_files/17126.got.cif
#   From: 2010.06.25/outbox.cif.g09.slc.cpg/sg2_9_cif.got.tgz:17126.got - 2010.06.27 13:26:56.
