data_PCOD8032300
_publ_section_title
;
Structure prediction by ZEFSAII (Michael W. Deem and Ramdas Pophale) SiO2 
 PCOD8032300
Probable space group: P -1
;
_chemical_formula_sum "Si O2"
_cell_formula_units_Z 14
_cell_length_a 6.566386
_cell_length_b 9.175325
_cell_length_c 16.960418
_cell_angle_alpha 127.152990
_cell_angle_beta 105.303334
_cell_angle_gamma 51.447405
_cell_volume 626.463786
_symmetry_space_group_name_H-M "P -1"
_symmetry_group_IT_number 2
_symmetry_cell_setting 'triclinic'
loop_
_space_group_symop_operation_xyz
x,y,z
-x,-y,-z
loop_
_atom_site_type_symbol
_atom_site_label
_atom_site_fract_x
_atom_site_fract_y
_atom_site_fract_z
Si Si1 0.230954 0.869840 0.918045
Si Si2 0.916135 0.781536 0.755477
Si Si3 0.334686 0.466350 0.031568
Si Si4 0.934225 0.097788 0.748882
Si Si5 0.655405 0.928569 0.142117
Si Si6 0.758643 0.094195 0.563868
Si Si7 0.177496 0.360864 0.547854
O O1 0.503617 0.693571 0.930822
O O2 0.166379 0.732507 0.810631
O O3 0.266142 0.032598 0.922690
O O4 0.000000 0.000000 0.000000
O O5 0.006150 0.530505 0.658336
O O6 0.864053 0.933983 0.721849
O O7 0.661662 0.912161 0.828421
O O8 0.129012 0.713410 0.129779
O O9 0.500000 0.500000 0.000000
O O10 0.227720 0.342189 0.933210
O O11 0.802749 0.190214 0.679892
O O12 0.246944 0.989819 0.747650
O O13 0.476854 0.292216 0.558725
O O14 0.777737 0.875462 0.519256
O O15 0.000000 0.000000 0.500000
O O16 0.000000 0.500000 0.500000
#
# Coordination Sequence:
#
# PCOD8032300 Si02
#       7
#     2   2   2   2   2   2   2
#     4  11  23  42  64  95 138 176 233 284 337 425
#     4  11  23  44  69  99 133 185 229 284 355 414
#     4  12  22  42  66  97 137 181 226 288 344 410
#     4  11  24  42  66  99 143 172 234 293 344 419
#     4  11  24  42  68  98 134 189 228 276 362 416
#     4  11  27  48  71 110 137 183 241 292 359 425
#     4  11  25  47  77  98 141 182 231 296 354 415
#
# _framework density 22.347662
#
# number of rings (size 3 to 8) (size 9 to 14) (size 15 to 20)
#    0.000    0.857    4.286    2.571    2.000    4.000 
#    2.571    0.000    0.000    0.000    0.000    0.000 
#    0.000    0.000    0.000    0.000    0.000    0.000 
#
# Total GULP energy -173451.539891 kJ/mol
# GULP energy per Si atom -12389.395707 kJ/mol
# Density = 2.229680 g / cm^3
# Si number density = 22.347662 Si / 1000 Ang^3
#
#
#
# Elastic Constant Matrix: (Units=GPa)
#
#
# Indices 1 2 3 4 5 6 
#
# 1 116.0272 34.8472 35.5211 -13.3323 2.1329 0.9896
# 2 34.8472 103.5943 26.7891 -16.6341 9.1439 -12.6065
# 3 35.5211 26.7891 112.9783 -2.0463 3.2779 1.3688
# 4 -13.3323 -16.6341 -2.0463 43.6819 -5.3612 1.8959
# 5 2.1329 9.1439 3.2779 -5.3612 35.0318 0.9035
# 6 0.9896 -12.6065 1.3688 1.8959 0.9035 34.1971
#
#
#
# Elastic Compliance Matrix: (Units=1/GPa)
#
#
# Indices 1 2 3 4 5 6 
#
# 1 0.010487 -0.002725 -0.002615 0.002183 0.000686 -0.001342
# 2 -0.002725 0.012399 -0.002007 0.003289 -0.002498 0.004614
# 3 -0.002615 -0.002007 0.010154 -0.001094 -0.000409 -0.000999
# 4 0.002183 0.003289 -0.001094 0.025136 0.002965 -0.000279
# 5 0.000686 -0.002498 -0.000409 0.002965 0.029696 -0.001873
# 6 -0.001342 0.004614 -0.000999 -0.000279 -0.001873 0.031087
#
#
# Mechanical properties :
#
#
# Convention : Reuss Voigt Hill
#
# Bulk Modulus (GPa) = 54.51005 58.54607 56.52806
# Shear Modulus (GPa) = 35.77348 38.27833 37.02591
#
# Velocity S-wave (km/s) = 4.00530 4.14316 4.07481
# Velocity P-wave (km/s) = 6.77014 7.01016 6.89119
#
# Compressibility (1/GPa) = 0.01834524
#
# Stress axis : x y z
#
# Youngs Moduli (GPa) = 95.35253 80.65381 98.48736
#
# Poissons Ratio (x) = 0.21977 0.25757
# Poissons Ratio (y) = 0.25982 0.19767
# Poissons Ratio (z) = 0.24938 0.16188
#
# Static dielectric constant tensor:
#      x y z
#    x 4.476450 -0.616910 0.235530 
#    y -0.616910 4.446800 0.011480 
#    z 0.235530 0.011480 4.220840 
# 
# 
# High freq. dielectric constant tensor:
#      x y z
#    x 1.890550 -0.014480 0.015410 
#    y -0.014480 1.874860 -0.001600 
#    z 0.015410 -0.001600 1.886670 
# 
# From -- ./inp_files/48384.got.cif
#   From: 2010.06.25/outbox.cif.g09.slc.cpg/sg2_25_cif.got.tgz:48384.got - 2010.06.27 13:26:56.
