data_PCOD8032420
_publ_section_title
;
Structure prediction by ZEFSAII (Michael W. Deem and Ramdas Pophale) SiO2 
 PCOD8032420
Probable space group: P -1
;
_chemical_formula_sum "Si O2"
_cell_formula_units_Z 16
_cell_length_a 11.460708
_cell_length_b 12.236927
_cell_length_c 14.450862
_cell_angle_alpha 120.187753
_cell_angle_beta 30.416216
_cell_angle_gamma 101.497407
_cell_volume 749.062692
_symmetry_space_group_name_H-M "P -1"
_symmetry_group_IT_number 2
_symmetry_cell_setting 'triclinic'
loop_
_space_group_symop_operation_xyz
x,y,z
-x,-y,-z
loop_
_atom_site_type_symbol
_atom_site_label
_atom_site_fract_x
_atom_site_fract_y
_atom_site_fract_z
Si Si1 0.516666 0.321261 0.965935
Si Si2 0.610492 0.910341 0.105633
Si Si3 0.008046 0.699029 0.058398
Si Si4 0.796103 0.936741 0.810911
Si Si5 0.701326 0.376228 0.677251
Si Si6 0.011115 0.135936 0.675322
Si Si7 0.554120 0.635528 0.345959
Si Si8 0.946335 0.163146 0.095918
O O1 0.403437 0.213027 0.998199
O O2 0.517111 0.366517 0.878801
O O3 0.820637 0.236424 0.764391
O O4 0.317341 0.466960 0.227084
O O5 0.317669 0.048749 0.392382
O O6 0.758868 0.967149 0.959941
O O7 0.798722 0.835612 0.034293
O O8 0.018891 0.757641 0.176296
O O9 0.714622 0.719006 0.251667
O O10 0.243943 0.526160 0.817381
O O11 0.065297 0.790291 0.982567
O O12 0.987657 0.760032 0.583740
O O13 0.939647 0.015957 0.703820
O O14 0.500000 0.000000 0.000000
O O15 0.583626 0.371892 0.656831
O O16 0.331503 0.721876 0.613735
O O17 0.000000 0.000000 0.000000
#
# Coordination Sequence:
#
# PCOD8032420 Si02
#       8
#     2   2   2   2   2   2   2   2
#     4  11  23  42  69  99 135 178 225 271 342 401
#     4  12  24  41  69  98 134 180 220 281 337 401
#     4  11  26  44  74  98 134 188 225 283 350 389
#     4  12  24  42  68  98 138 176 220 273 342 400
#     4  11  23  44  70  99 136 178 223 280 333 409
#     4  12  24  45  66 101 138 175 225 280 336 409
#     4  11  24  49  69  98 140 177 233 284 335 412
#     4  12  26  45  71 103 135 176 235 282 341 409
#
# _framework density 21.360029000000001
#
# number of rings (size 3 to 8) (size 9 to 14) (size 15 to 20)
#    0.000    0.500    5.000    3.750    0.000    1.500 
#    2.250    0.000    0.000    0.000    0.000    0.000 
#    0.000    0.000    0.000    0.000    0.000    0.000 
#
# Total GULP energy -198454.646325 kJ/mol
# GULP energy per Si atom -12403.415395 kJ/mol
# Density = 2.131141 g / cm^3
# Si number density = 21.360029 Si / 1000 Ang^3
#
#
#
# Elastic Constant Matrix: (Units=GPa)
#
#
# Indices 1 2 3 4 5 6 
#
# 1 88.8587 24.6989 14.9390 3.4116 0.3366 7.5203
# 2 24.6989 80.9754 37.9758 3.4730 7.6395 -11.2277
# 3 14.9390 37.9758 126.9580 7.7017 -5.4428 14.2422
# 4 3.4116 3.4730 7.7017 26.4409 -7.1657 6.6170
# 5 0.3366 7.6395 -5.4428 -7.1657 36.4972 -0.5284
# 6 7.5203 -11.2277 14.2422 6.6170 -0.5284 30.7902
#
#
#
# Elastic Compliance Matrix: (Units=1/GPa)
#
#
# Indices 1 2 3 4 5 6 
#
# 1 0.013013 -0.005137 0.000632 0.000456 0.001061 -0.005424
# 2 -0.005137 0.019422 -0.006546 -0.004599 -0.005720 0.012255
# 3 0.000632 -0.006546 0.010709 0.000331 0.002917 -0.007516
# 4 0.000456 -0.004599 0.000331 0.043610 0.009408 -0.011152
# 5 0.001061 -0.005720 0.002917 0.009408 0.030794 -0.005188
# 6 -0.005424 0.012255 -0.007516 -0.011152 -0.005188 0.044055
#
#
# Mechanical properties :
#
#
# Convention : Reuss Voigt Hill
#
# Bulk Modulus (GPa) = 47.52711 50.22436 48.87573
# Shear Modulus (GPa) = 26.21646 33.35756 29.78701
#
# Velocity S-wave (km/s) = 3.50717 3.95610 3.73838
# Velocity P-wave (km/s) = 6.22086 6.66573 6.44713
#
# Compressibility (1/GPa) = 0.02104062
#
# Stress axis : x y z
#
# Youngs Moduli (GPa) = 76.84630 51.48682 93.38335
#
# Poissons Ratio (x) = 0.26449 -0.05898
# Poissons Ratio (y) = 0.39476 0.61131
# Poissons Ratio (z) = -0.04853 0.33704
#
# Static dielectric constant tensor:
#      x y z
#    x 4.030290 -0.082480 0.006040 
#    y -0.082480 4.129370 0.099900 
#    z 0.006040 0.099900 4.030840 
# 
# 
# High freq. dielectric constant tensor:
#      x y z
#    x 1.849710 -0.007540 0.004390 
#    y -0.007540 1.838180 0.004830 
#    z 0.004390 0.004830 1.852670 
# 
# From -- ./inp_files/272441.got.cif
#   From: 2010.06.25/outbox.cif.g09.slc.cpg/sg2_137_cif.got.tgz:272441.got - 2010.06.27 13:26:56.
