data_PCOD8032616
_publ_section_title
;
Structure prediction by ZEFSAII (Michael W. Deem and Ramdas Pophale) SiO2 
 PCOD8032616
Probable space group: P -1
;
_chemical_formula_sum "Si O2"
_cell_formula_units_Z 16
_cell_length_a 12.323811
_cell_length_b 18.235654
_cell_length_c 8.901404
_cell_angle_alpha 51.209298
_cell_angle_beta 81.638518
_cell_angle_gamma 40.328386
_cell_volume 759.394383
_symmetry_space_group_name_H-M "P -1"
_symmetry_group_IT_number 2
_symmetry_cell_setting 'triclinic'
loop_
_space_group_symop_operation_xyz
x,y,z
-x,-y,-z
loop_
_atom_site_type_symbol
_atom_site_label
_atom_site_fract_x
_atom_site_fract_y
_atom_site_fract_z
Si Si1 0.196723 0.320543 0.503435
Si Si2 0.445083 0.792550 0.448560
Si Si3 0.652163 0.441543 0.927625
Si Si4 0.864408 0.860350 0.748460
Si Si5 0.716905 0.293865 0.796402
Si Si6 0.234615 0.246194 0.919392
Si Si7 0.303000 0.066569 0.628407
Si Si8 0.186195 0.983668 0.955679
O O1 0.342890 0.299686 0.448064
O O2 0.296413 0.198816 0.791022
O O3 0.192338 0.246888 0.468399
O O4 0.944796 0.538981 0.295630
O O5 0.510185 0.635164 0.647302
O O6 0.351596 0.883446 0.186270
O O7 0.259229 0.953792 0.405039
O O8 0.722589 0.320854 0.933153
O O9 0.500000 0.500000 0.000000
O O10 0.880895 0.305999 0.133396
O O11 0.730603 0.917911 0.561923
O O12 0.856453 0.788960 0.974870
O O13 0.500000 0.500000 0.500000
O O14 0.721005 0.177994 0.939550
O O15 0.933995 0.166411 0.828550
O O16 0.437772 0.124886 0.138449
O O17 0.182445 0.069576 0.726991
#
# Coordination Sequence:
#
# PCOD8032616 Si02
#       8
#     2   2   2   2   2   2   2   2
#     4  11  24  41  73 101 133 178 230 276 335 405
#     4  12  23  46  71  98 135 182 226 283 342 400
#     4  12  29  47  69 101 139 181 229 287 347 407
#     4  12  27  44  66  98 146 183 220 278 346 412
#     4  11  25  46  72  99 134 176 242 290 341 390
#     4  11  23  43  68 102 135 178 224 280 337 406
#     4  12  26  41  67 103 144 177 225 272 344 414
#     4  11  25  44  72 103 132 181 233 290 331 404
#
# _framework density 21.069420999999998
#
# number of rings (size 3 to 8) (size 9 to 14) (size 15 to 20)
#    0.000    0.500    6.250    1.500    3.500    3.000 
#    0.000    0.000    0.000    0.000    0.000    0.000 
#    0.000    0.000    0.000    0.000    0.000    0.000 
#
# Total GULP energy -198491.123878 kJ/mol
# GULP energy per Si atom -12405.695242 kJ/mol
# Density = 2.102147 g / cm^3
# Si number density = 21.069421 Si / 1000 Ang^3
#
#
#
# Elastic Constant Matrix: (Units=GPa)
#
#
# Indices 1 2 3 4 5 6 
#
# 1 96.0693 38.6926 8.0996 -1.6013 -12.8262 6.7089
# 2 38.6926 100.2858 34.4466 -7.5966 -9.2768 15.2692
# 3 8.0996 34.4466 55.6269 -9.7351 0.0338 13.3060
# 4 -1.6013 -7.5966 -9.7351 36.6148 -2.0975 -1.1739
# 5 -12.8262 -9.2768 0.0338 -2.0975 37.7048 1.1962
# 6 6.7089 15.2692 13.3060 -1.1739 1.1962 47.3491
#
#
#
# Elastic Compliance Matrix: (Units=1/GPa)
#
#
# Indices 1 2 3 4 5 6 
#
# 1 0.012778 -0.005021 0.001415 0.000052 0.003134 -0.000667
# 2 -0.005021 0.015254 -0.008096 0.000853 0.002162 -0.001966
# 3 0.001415 -0.008096 0.024660 0.004734 -0.001131 -0.004374
# 4 0.000052 0.000853 0.004734 0.028825 0.001857 -0.000945
# 5 0.003134 0.002162 -0.001131 0.001857 0.028272 -0.001492
# 6 -0.000667 -0.001966 -0.004374 -0.000945 -0.001492 0.023091
#
#
# Mechanical properties :
#
#
# Convention : Reuss Voigt Hill
#
# Bulk Modulus (GPa) = 34.14444 46.05107 40.09775
# Shear Modulus (GPa) = 30.11220 35.71662 32.91441
#
# Velocity S-wave (km/s) = 3.78456 4.12173 3.95674
# Velocity P-wave (km/s) = 5.94459 6.67502 6.32036
#
# Compressibility (1/GPa) = 0.02928735
#
# Stress axis : x y z
#
# Youngs Moduli (GPa) = 78.26042 65.55864 40.55197
#
# Poissons Ratio (x) = 0.32915 -0.05739
# Poissons Ratio (y) = 0.39292 0.32832
# Poissons Ratio (z) = -0.11075 0.53079
#
# Static dielectric constant tensor:
#      x y z
#    x 3.879930 0.071310 -0.011510 
#    y 0.071310 3.896890 -0.127920 
#    z -0.011510 -0.127920 3.804900 
# 
# 
# High freq. dielectric constant tensor:
#      x y z
#    x 1.834800 0.002920 0.000050 
#    y 0.002920 1.833530 -0.012300 
#    z 0.000050 -0.012300 1.829460 
# 
# From -- ./inp_files/279024.got.cif
#   From: 2010.06.25/outbox.cif.g09.slc.cpg/sg2_140_cif.got.tgz:279024.got - 2010.06.27 13:26:56.
