data_PCOD8032695
_publ_section_title
;
Structure prediction by ZEFSAII (Michael W. Deem and Ramdas Pophale) SiO2 
 PCOD8032695
Probable space group: P -1
;
_chemical_formula_sum "Si O2"
_cell_formula_units_Z 14
_cell_length_a 8.510292
_cell_length_b 12.869395
_cell_length_c 9.543220
_cell_angle_alpha 129.208717
_cell_angle_beta 104.696662
_cell_angle_gamma 54.684502
_cell_volume 650.437081
_symmetry_space_group_name_H-M "P -1"
_symmetry_group_IT_number 2
_symmetry_cell_setting 'triclinic'
loop_
_space_group_symop_operation_xyz
x,y,z
-x,-y,-z
loop_
_atom_site_type_symbol
_atom_site_label
_atom_site_fract_x
_atom_site_fract_y
_atom_site_fract_z
Si Si1 0.899070 0.065557 0.382841
Si Si2 0.817343 0.677424 0.644676
Si Si3 0.506653 0.610581 0.478745
Si Si4 0.660648 0.787202 0.231813
Si Si5 0.665469 0.498609 0.120448
Si Si6 0.754387 0.926651 0.617601
Si Si7 0.096242 0.226447 0.965917
O O1 0.707619 0.247187 0.502384
O O2 0.056997 0.065432 0.318958
O O3 0.832027 0.957159 0.205329
O O4 0.000000 0.000000 0.500000
O O5 0.623378 0.680311 0.633088
O O6 0.781458 0.783605 0.593135
O O7 0.000000 0.500000 0.500000
O O8 0.853124 0.756662 0.851216
O O9 0.500000 0.500000 0.500000
O O10 0.626549 0.501292 0.279028
O O11 0.683923 0.645558 0.210611
O O12 0.724810 0.890371 0.420123
O O13 0.797297 0.717566 0.066371
O O14 0.435338 0.902831 0.231010
O O15 0.500000 0.500000 0.000000
O O16 0.864951 0.334893 0.982850
#
# Coordination Sequence:
#
# PCOD8032695 Si02
#       7
#     2   2   2   2   2   2   2
#     4  12  25  46  74 106 142 183 240 297 351 419
#     4  12  25  48  68  99 146 187 232 291 354 427
#     4  12  27  47  73 102 144 192 231 292 363 417
#     4  11  23  43  70 103 133 188 233 286 349 419
#     4  12  26  45  69 104 141 179 239 294 349 423
#     4  11  23  43  72  96 144 180 231 290 352 413
#     4  12  26  44  74 104 139 186 237 287 356 422
#
# _framework density 21.523989
#
# number of rings (size 3 to 8) (size 9 to 14) (size 15 to 20)
#    0.000    0.286    4.286    4.714    2.000    2.857 
#    0.000    0.000    0.000    0.000    0.000    0.000 
#    0.000    0.000    0.000    0.000    0.000    0.000 
#
# Total GULP energy -173695.074432 kJ/mol
# GULP energy per Si atom -12406.791031 kJ/mol
# Density = 2.147500 g / cm^3
# Si number density = 21.523989 Si / 1000 Ang^3
#
#
#
# Elastic Constant Matrix: (Units=GPa)
#
#
# Indices 1 2 3 4 5 6 
#
# 1 138.8929 37.1453 28.2881 -4.0984 -9.9120 2.2763
# 2 37.1453 117.0010 19.7383 6.8589 -16.7591 2.8731
# 3 28.2881 19.7383 97.7229 -3.0103 -3.3271 0.0926
# 4 -4.0984 6.8589 -3.0103 23.3263 -7.6509 1.3344
# 5 -9.9120 -16.7591 -3.3271 -7.6509 46.0294 1.8480
# 6 2.2763 2.8731 0.0926 1.3344 1.8480 46.5599
#
#
#
# Elastic Compliance Matrix: (Units=1/GPa)
#
#
# Indices 1 2 3 4 5 6 
#
# 1 0.008350 -0.002291 -0.001840 0.002330 0.001233 -0.000379
# 2 -0.002291 0.010051 -0.001357 -0.002633 0.002652 -0.000535
# 3 -0.001840 -0.001357 0.011093 0.001556 0.000166 0.000100
# 4 0.002330 -0.002633 0.001556 0.046805 0.007499 -0.001594
# 5 0.001233 0.002652 0.000166 0.007499 0.024271 -0.001403
# 6 -0.000379 -0.000535 0.000100 -0.001594 -0.001403 0.021630
#
#
# Mechanical properties :
#
#
# Convention : Reuss Voigt Hill
#
# Bulk Modulus (GPa) = 54.00420 58.21778 56.11099
# Shear Modulus (GPa) = 35.88071 41.07948 38.48010
#
# Velocity S-wave (km/s) = 4.08733 4.37343 4.23280
# Velocity P-wave (km/s) = 6.88620 7.25321 7.07209
#
# Compressibility (1/GPa) = 0.01851708
#
# Stress axis : x y z
#
# Youngs Moduli (GPa) = 119.75590 99.49666 90.14423
#
# Poissons Ratio (x) = 0.22796 0.16589
# Poissons Ratio (y) = 0.27438 0.12234
# Poissons Ratio (z) = 0.22039 0.13503
#
# Static dielectric constant tensor:
#      x y z
#    x 4.197020 -0.100030 -0.063760 
#    y -0.100030 3.896800 0.073110 
#    z -0.063760 0.073110 3.937570 
# 
# 
# High freq. dielectric constant tensor:
#      x y z
#    x 1.867010 -0.002930 -0.003790 
#    y -0.002930 1.850460 0.001960 
#    z -0.003790 0.001960 1.840350 
# 
# From -- ./inp_files/152866.got.cif
#   From: 2010.06.25/outbox.cif.g09.slc.cpg/sg2_77_cif.got.tgz:152866.got - 2010.06.27 13:26:56.
