data_PCOD8032931
_publ_section_title
;
Structure prediction by ZEFSAII (Michael W. Deem and Ramdas Pophale) SiO2 
 PCOD8032931
Probable space group: P -1
;
_chemical_formula_sum "Si O2"
_cell_formula_units_Z 14
_cell_length_a 8.787113
_cell_length_b 13.176545
_cell_length_c 8.571504
_cell_angle_alpha 89.401801
_cell_angle_beta 89.217777
_cell_angle_gamma 39.005340
_cell_volume 624.577142
_symmetry_space_group_name_H-M "P -1"
_symmetry_group_IT_number 2
_symmetry_cell_setting 'triclinic'
loop_
_space_group_symop_operation_xyz
x,y,z
-x,-y,-z
loop_
_atom_site_type_symbol
_atom_site_label
_atom_site_fract_x
_atom_site_fract_y
_atom_site_fract_z
Si Si1 0.892255 0.176265 0.680703
Si Si2 0.453646 0.420489 0.909651
Si Si3 0.720590 0.618595 0.812872
Si Si4 0.309299 0.834401 0.579134
Si Si5 0.880068 0.749250 0.190753
Si Si6 0.067801 0.272887 0.162621
Si Si7 0.595135 0.024096 0.631913
O O1 0.683687 0.268992 0.808700
O O2 0.784505 0.218119 0.506714
O O3 0.009309 0.226775 0.690378
O O4 0.108219 0.981338 0.701279
O O5 0.215516 0.558695 0.802854
O O6 0.500000 0.500000 0.000000
O O7 0.410586 0.350398 0.029492
O O8 0.553194 0.680394 0.666794
O O9 0.766918 0.713525 0.820252
O O10 0.973714 0.430758 0.790898
O O11 0.354457 0.892319 0.440305
O O12 0.605238 0.865631 0.231843
O O13 0.902016 0.782240 0.014838
O O14 0.159675 0.142959 0.287514
O O15 0.500000 0.000000 0.500000
#
# Coordination Sequence:
#
# PCOD8032931 Si02
#       7
#     2   2   2   2   2   2   2
#     4  11  24  47  62  98 140 176 223 266 338 398
#     4  11  23  44  70 101 130 174 225 274 337 388
#     4  11  24  44  69 101 131 170 229 278 332 391
#     4  11  27  45  64  99 139 181 220 270 330 406
#     4  11  23  44  68  98 130 173 223 281 330 388
#     4  11  24  44  70  99 131 171 225 283 328 388
#     4  12  24  45  67  95 133 177 225 265 333 395
#
# _framework density 22.415165999999999
#
# number of rings (size 3 to 8) (size 9 to 14) (size 15 to 20)
#    0.000    0.857    5.714    2.143    4.000    5.143 
#    0.000    0.000    0.000    0.000    0.000    0.000 
#    0.000    0.000    0.000    0.000    0.000    0.000 
#
# Total GULP energy -173636.690774 kJ/mol
# GULP energy per Si atom -12402.620770 kJ/mol
# Density = 2.236415 g / cm^3
# Si number density = 22.415166 Si / 1000 Ang^3
#
#
#
# Elastic Constant Matrix: (Units=GPa)
#
#
# Indices 1 2 3 4 5 6 
#
# 1 73.4742 24.0407 22.9021 2.2726 6.4474 -18.3964
# 2 24.0407 79.2416 55.6252 -8.4735 -11.0657 -9.2139
# 3 22.9021 55.6252 85.3184 -10.1710 10.0894 -8.1895
# 4 2.2726 -8.4735 -10.1710 55.3553 -5.0895 7.5705
# 5 6.4474 -11.0657 10.0894 -5.0895 39.1674 5.2008
# 6 -18.3964 -9.2139 -8.1895 7.5705 5.2008 25.8752
#
#
#
# Elastic Compliance Matrix: (Units=1/GPa)
#
#
# Indices 1 2 3 4 5 6 
#
# 1 0.020107 -0.006302 0.000553 -0.004474 -0.007820 0.015107
# 2 -0.006302 0.030945 -0.020377 0.003281 0.015998 -0.004086
# 3 0.000553 -0.020377 0.026847 -0.000027 -0.013341 0.004324
# 4 -0.004474 0.003281 -0.000027 0.020506 0.005548 -0.009135
# 5 -0.007820 0.015998 -0.013341 0.005548 0.037248 -0.013196
# 6 0.015107 -0.004086 0.004324 -0.009135 -0.013196 0.054626
#
#
# Mechanical properties :
#
#
# Convention : Reuss Voigt Hill
#
# Bulk Modulus (GPa) = 38.99025 49.24114 44.11569
# Shear Modulus (GPa) = 19.91403 33.11065 26.51234
#
# Velocity S-wave (km/s) = 2.98387 3.84755 3.44290
# Velocity P-wave (km/s) = 5.41328 6.46170 5.96059
#
# Compressibility (1/GPa) = 0.02564744
#
# Stress axis : x y z
#
# Youngs Moduli (GPa) = 49.73410 32.31523 37.24846
#
# Poissons Ratio (x) = 0.20366 -0.02060
# Poissons Ratio (y) = 0.31344 0.75900
# Poissons Ratio (z) = -0.02751 0.65847
#
# Static dielectric constant tensor:
#      x y z
#    x 4.368090 -0.259950 0.079650 
#    y -0.259950 4.076350 0.150320 
#    z 0.079650 0.150320 4.100690 
# 
# 
# High freq. dielectric constant tensor:
#      x y z
#    x 1.900310 -0.014390 0.010670 
#    y -0.014390 1.881020 0.008550 
#    z 0.010670 0.008550 1.876010 
# 
# From -- ./inp_files/154756.got.cif
#   From: 2010.06.25/outbox.cif.g09.slc.cpg/sg2_78_cif.got.tgz:154756.got - 2010.06.27 13:26:56.
