data_PCOD8032726
_publ_section_title
;
Structure prediction by ZEFSAII (Michael W. Deem and Ramdas Pophale) SiO2 
 PCOD8032726
Probable space group: P -1
;
_chemical_formula_sum "Si O2"
_cell_formula_units_Z 14
_cell_length_a 13.700719
_cell_length_b 21.319359
_cell_length_c 6.911465
_cell_angle_alpha 94.623885
_cell_angle_beta 81.081105
_cell_angle_gamma 23.351552
_cell_volume 649.865644
_symmetry_space_group_name_H-M "P -1"
_symmetry_group_IT_number 2
_symmetry_cell_setting 'triclinic'
loop_
_space_group_symop_operation_xyz
x,y,z
-x,-y,-z
loop_
_atom_site_type_symbol
_atom_site_label
_atom_site_fract_x
_atom_site_fract_y
_atom_site_fract_z
Si Si1 0.500421 0.600164 0.947674
Si Si2 0.462471 0.321517 0.714031
Si Si3 0.987427 0.200589 0.714706
Si Si4 0.433414 0.010212 0.728854
Si Si5 0.851004 0.140633 0.217043
Si Si6 0.339980 0.923693 0.214012
Si Si7 0.813954 0.733032 0.866177
O O1 0.782077 0.385047 0.791244
O O2 0.431551 0.660708 0.763074
O O3 0.573994 0.615219 0.064938
O O4 0.204994 0.744591 0.161282
O O5 0.740716 0.178246 0.463254
O O6 0.525935 0.211925 0.726546
O O7 0.162736 0.504101 0.720249
O O8 0.218687 0.078379 0.785553
O O9 0.172358 0.077022 0.431749
O O10 0.500000 0.000000 0.500000
O O11 0.738481 0.802455 0.689012
O O12 0.252543 0.169613 0.947500
O O13 0.102918 0.041147 0.158945
O O14 0.000000 0.000000 0.000000
O O15 0.614781 0.791672 0.987783
#
# Coordination Sequence:
#
# PCOD8032726 Si02
#       7
#     2   2   2   2   2   2   2
#     4  11  24  43  69 102 136 174 228 286 335 396
#     4  12  25  45  69 101 140 175 228 280 333 404
#     4  11  23  43  70  99 136 177 222 288 334 391
#     4  11  23  44  69  95 142 175 223 278 337 398
#     4  12  25  44  72  97 135 182 226 276 346 394
#     4  12  24  46  70 100 140 180 227 274 337 412
#     4  11  26  42  70 103 133 183 223 274 341 401
#
# _framework density 21.542914
#
# number of rings (size 3 to 8) (size 9 to 14) (size 15 to 20)
#    0.000    0.571    5.714    2.571    2.000    0.571 
#    0.000    1.429    0.000    0.000    0.000    0.000 
#    0.000    0.000    0.000    0.000    0.000    0.000 
#
# Total GULP energy -173658.926661 kJ/mol
# GULP energy per Si atom -12404.209047 kJ/mol
# Density = 2.149388 g / cm^3
# Si number density = 21.542914 Si / 1000 Ang^3
#
#
#
# Elastic Constant Matrix: (Units=GPa)
#
#
# Indices 1 2 3 4 5 6 
#
# 1 95.4626 26.7729 35.1779 -2.0092 10.8625 -18.7228
# 2 26.7729 129.6771 41.0375 -15.1391 13.2576 -12.4856
# 3 35.1779 41.0375 73.3573 -8.8200 6.6753 4.0773
# 4 -2.0092 -15.1391 -8.8200 34.6015 0.1765 -1.2072
# 5 10.8625 13.2576 6.6753 0.1765 34.0383 -1.2727
# 6 -18.7228 -12.4856 4.0773 -1.2072 -1.2727 39.0500
#
#
#
# Elastic Compliance Matrix: (Units=1/GPa)
#
#
# Indices 1 2 3 4 5 6 
#
# 1 0.015134 0.000326 -0.007677 -0.000639 -0.003147 0.008040
# 2 0.000326 0.010501 -0.005587 0.003348 -0.002962 0.004104
# 3 -0.007677 -0.005587 0.021111 0.002225 0.000190 -0.007597
# 4 -0.000639 0.003348 0.002225 0.030954 -0.001643 0.001435
# 5 -0.003147 -0.002962 0.000190 -0.001643 0.031452 -0.001502
# 6 0.008040 0.004104 -0.007597 0.001435 -0.001502 0.031564
#
#
# Mechanical properties :
#
#
# Convention : Reuss Voigt Hill
#
# Bulk Modulus (GPa) = 47.91417 56.05260 51.98338
# Shear Modulus (GPa) = 28.81025 34.57188 31.69107
#
# Velocity S-wave (km/s) = 3.66094 4.01033 3.83961
# Velocity P-wave (km/s) = 6.33715 6.89342 6.62113
#
# Compressibility (1/GPa) = 0.02087065
#
# Stress axis : x y z
#
# Youngs Moduli (GPa) = 66.07448 95.22923 47.36773
#
# Poissons Ratio (x) = -0.03107 0.36366
# Poissons Ratio (y) = -0.02156 0.26464
# Poissons Ratio (z) = 0.50728 0.53204
#
# Static dielectric constant tensor:
#      x y z
#    x 4.095000 -0.198700 0.090110 
#    y -0.198700 4.346230 -0.276320 
#    z 0.090110 -0.276320 3.865340 
# 
# 
# High freq. dielectric constant tensor:
#      x y z
#    x 1.858830 -0.006690 0.003330 
#    y -0.006690 1.862230 -0.004500 
#    z 0.003330 -0.004500 1.837060 
# 
# From -- ./inp_files/72074.got.cif
#   From: 2010.06.25/outbox.cif.g09.slc.cpg/sg2_37_cif.got.tgz:72074.got - 2010.06.27 13:26:56.
