data_PCOD8032929
_publ_section_title
;
Structure prediction by ZEFSAII (Michael W. Deem and Ramdas Pophale) SiO2 
 PCOD8032929
Probable space group: P -1
;
_chemical_formula_sum "Si O2"
_cell_formula_units_Z 14
_cell_length_a 9.070283
_cell_length_b 12.091871
_cell_length_c 8.807047
_cell_angle_alpha 65.604900
_cell_angle_beta 113.049265
_cell_angle_gamma 67.269017
_cell_volume 612.309918
_symmetry_space_group_name_H-M "P -1"
_symmetry_group_IT_number 2
_symmetry_cell_setting 'triclinic'
loop_
_space_group_symop_operation_xyz
x,y,z
-x,-y,-z
loop_
_atom_site_type_symbol
_atom_site_label
_atom_site_fract_x
_atom_site_fract_y
_atom_site_fract_z
Si Si1 0.319800 0.037618 0.505257
Si Si2 0.946657 0.404536 0.125291
Si Si3 0.716963 0.321471 0.889009
Si Si4 0.022647 0.987819 0.335566
Si Si5 0.388116 0.133797 0.001806
Si Si6 0.725418 0.546648 0.272844
Si Si7 0.053065 0.741426 0.280483
O O1 0.222751 0.977082 0.398346
O O2 0.151514 0.227985 0.366328
O O3 0.500000 0.000000 0.500000
O O4 0.435902 0.929008 0.763066
O O5 0.796136 0.505448 0.149787
O O6 0.816674 0.389715 0.964383
O O7 0.000000 0.500000 0.000000
O O8 0.472537 0.441688 0.770096
O O9 0.764765 0.308429 0.735638
O O10 0.815243 0.146600 0.085409
O O11 0.053524 0.840058 0.360910
O O12 0.000000 0.000000 0.500000
O O13 0.328502 0.288315 0.807536
O O14 0.173888 0.166555 0.948172
O O15 0.500000 0.000000 0.000000
O O16 0.904848 0.409616 0.537714
#
# Coordination Sequence:
#
# PCOD8032929 Si02
#       7
#     2   2   2   2   2   2   2
#     4  11  24  43  68  97 132 176 222 270 335 407
#     4  11  24  44  69 100 138 178 227 284 341 408
#     4  11  24  42  66  99 135 179 228 281 341 407
#     4  11  23  44  68  97 134 178 226 278 338 410
#     4  12  25  44  68  97 132 177 225 278 340 405
#     4  12  25  43  66  98 135 180 227 283 345 407
#     4  12  25  44  68 100 139 178 228 288 340 400
#
# _framework density 22.864239999999999
#
# number of rings (size 3 to 8) (size 9 to 14) (size 15 to 20)
#    0.000    0.571    0.000   10.286    0.000    4.571 
#    0.000    0.000    0.000    0.000    0.000    0.000 
#    0.000    0.000    0.000    0.000    0.000    0.000 
#
# Total GULP energy -173570.699703 kJ/mol
# GULP energy per Si atom -12397.907122 kJ/mol
# Density = 2.281220 g / cm^3
# Si number density = 22.864240 Si / 1000 Ang^3
#
#
#
# Elastic Constant Matrix: (Units=GPa)
#
#
# Indices 1 2 3 4 5 6 
#
# 1 129.0946 36.3143 30.0611 -9.3200 1.2618 -14.3531
# 2 36.3143 120.6631 44.8091 -14.4864 -8.0061 -1.9737
# 3 30.0611 44.8091 117.5314 -10.0304 -10.2762 5.5469
# 4 -9.3200 -14.4864 -10.0304 34.9399 1.2804 -10.0857
# 5 1.2618 -8.0061 -10.2762 1.2804 49.1314 3.9037
# 6 -14.3531 -1.9737 5.5469 -10.0857 3.9037 41.6957
#
#
#
# Elastic Compliance Matrix: (Units=1/GPa)
#
#
# Indices 1 2 3 4 5 6 
#
# 1 0.009326 -0.001879 -0.001768 0.002422 -0.001302 0.004064
# 2 -0.001879 0.010507 -0.003218 0.003174 0.000928 0.000959
# 3 -0.001768 -0.003218 0.010499 0.000501 0.001880 -0.002212
# 4 0.002422 0.003174 0.000501 0.033388 -0.001033 0.009090
# 5 -0.001302 0.000928 0.001880 -0.001033 0.021188 -0.002888
# 6 0.004064 0.000959 -0.002212 0.009090 -0.002888 0.028191
#
#
# Mechanical properties :
#
#
# Convention : Reuss Voigt Hill
#
# Bulk Modulus (GPa) = 60.23778 65.51754 62.87766
# Shear Modulus (GPa) = 37.77501 42.22705 40.00103
#
# Velocity S-wave (km/s) = 4.06907 4.30217 4.18724
# Velocity P-wave (km/s) = 6.96272 7.30722 7.13705
#
# Compressibility (1/GPa) = 0.01660088
#
# Stress axis : x y z
#
# Youngs Moduli (GPa) = 107.22718 95.17848 95.24781
#
# Poissons Ratio (x) = 0.17888 0.16837
# Poissons Ratio (y) = 0.20152 0.30653
# Poissons Ratio (z) = 0.18955 0.30630
#
# Static dielectric constant tensor:
#      x y z
#    x 4.339690 -0.326500 0.028770 
#    y -0.326500 3.603770 -0.457070 
#    z 0.028770 -0.457070 3.981720 
# 
# 
# High freq. dielectric constant tensor:
#      x y z
#    x 1.924750 0.000450 0.000460 
#    y 0.000450 1.902060 -0.006570 
#    z 0.000460 -0.006570 1.911230 
# 
# From -- ./inp_files/156793.got.cif
#   From: 2010.06.25/outbox.cif.g09.slc.cpg/sg2_79_cif.got.tgz:156793.got - 2010.06.27 13:26:56.
