data_PCOD8032576
_publ_section_title
;
Structure prediction by ZEFSAII (Michael W. Deem and Ramdas Pophale) SiO2 
 PCOD8032576
Probable space group: P -1
;
_chemical_formula_sum "Si O2"
_cell_formula_units_Z 14
_cell_length_a 5.242986
_cell_length_b 26.475384
_cell_length_c 23.885856
_cell_angle_alpha 9.865187
_cell_angle_beta 97.833078
_cell_angle_gamma 97.012426
_cell_volume 561.309882
_symmetry_space_group_name_H-M "P -1"
_symmetry_group_IT_number 2
_symmetry_cell_setting 'triclinic'
loop_
_space_group_symop_operation_xyz
x,y,z
-x,-y,-z
loop_
_atom_site_type_symbol
_atom_site_label
_atom_site_fract_x
_atom_site_fract_y
_atom_site_fract_z
Si Si1 0.855249 0.703697 0.228292
Si Si2 0.631613 0.708177 0.491354
Si Si3 0.898104 0.960915 0.839747
Si Si4 0.390624 0.220978 0.068601
Si Si5 0.553003 0.460537 0.164969
Si Si6 0.555655 0.206718 0.724319
Si Si7 0.004301 0.659165 0.884829
O O1 0.600930 0.532862 0.391958
O O2 0.000000 0.500000 0.500000
O O3 0.004541 0.737566 0.136675
O O4 0.803452 0.030723 0.895095
O O5 0.376464 0.883242 0.318598
O O6 0.655410 0.753341 0.375353
O O7 0.889090 0.809507 0.417289
O O8 0.615557 0.361735 0.884908
O O9 0.858830 0.778396 0.980694
O O10 0.464237 0.890990 0.451988
O O11 0.337293 0.430723 0.891599
O O12 0.260801 0.584151 0.010543
O O13 0.746922 0.568586 0.006585
O O14 0.500000 0.000000 0.000000
O O15 0.000000 0.000000 0.500000
O O16 0.000000 0.500000 0.000000
#
# Coordination Sequence:
#
# PCOD8032576 Si02
#       7
#     2   2   2   2   2   2   2
#     4  11  23  43  66 101 135 186 249 315 381 449
#     4  11  26  47  72 103 147 198 247 314 379 441
#     4  11  26  47  72 103 147 198 247 314 379 441
#     4  12  26  51  70 116 155 198 254 298 370 446
#     4  12  28  45  82 114 154 200 243 298 355 436
#     4  11  23  43  66 101 135 186 249 315 381 449
#     4  12  26  52  80 116 155 194 243 296 355 420
#
# _framework density 24.941661
#
# number of rings (size 3 to 8) (size 9 to 14) (size 15 to 20)
#    0.000    0.571    2.857    4.286    2.000    5.714 
#    0.000    0.000    0.000    0.000    0.000    0.000 
#    0.000    0.000    0.000    0.000    0.000    0.000 
#
# Total GULP energy -173501.943807 kJ/mol
# GULP energy per Si atom -12392.995986 kJ/mol
# Density = 2.488489 g / cm^3
# Si number density = 24.941661 Si / 1000 Ang^3
#
#
#
# Elastic Constant Matrix: (Units=GPa)
#
#
# Indices 1 2 3 4 5 6 
#
# 1 98.7181 26.6525 23.8231 -5.6355 -28.2933 14.6943
# 2 26.6525 145.2216 27.3217 -5.3524 -17.2876 7.2187
# 3 23.8231 27.3217 138.4699 3.6140 -41.6811 -7.8307
# 4 -5.6355 -5.3524 3.6140 49.7621 0.3507 -7.1270
# 5 -28.2933 -17.2876 -41.6811 0.3507 42.7346 -7.9397
# 6 14.6943 7.2187 -7.8307 -7.1270 -7.9397 32.0207
#
#
#
# Elastic Compliance Matrix: (Units=1/GPa)
#
#
# Indices 1 2 3 4 5 6 
#
# 1 0.013247 -0.001322 0.000028 0.000769 0.007563 -0.003727
# 2 -0.001322 0.007508 -0.001032 0.000587 0.000971 -0.000966
# 3 0.000028 -0.001032 0.011270 -0.000173 0.011679 0.005833
# 4 0.000769 0.000587 -0.000173 0.020884 0.001229 0.004425
# 5 0.007563 0.000971 0.011679 0.001229 0.042013 0.009857
# 6 -0.003727 -0.000966 0.005833 0.004425 0.009857 0.038014
#
#
# Mechanical properties :
#
#
# Convention : Reuss Voigt Hill
#
# Bulk Modulus (GPa) = 36.53263 59.77826 48.15544
# Shear Modulus (GPa) = 34.08034 45.21096 39.64565
#
# Velocity S-wave (km/s) = 3.70050 4.26216 3.99122
# Velocity P-wave (km/s) = 5.73910 6.94555 6.37095
#
# Compressibility (1/GPa) = 0.02737279
#
# Stress axis : x y z
#
# Youngs Moduli (GPa) = 75.49080 133.18918 88.72772
#
# Poissons Ratio (x) = 0.17613 -0.00246
# Poissons Ratio (y) = 0.09983 0.09153
# Poissons Ratio (z) = -0.00209 0.13739
#
# Static dielectric constant tensor:
#      x y z
#    x 4.094740 -0.133290 -0.346730 
#    y -0.133290 5.022930 -0.050810 
#    z -0.346730 -0.050810 4.679680 
# 
# 
# High freq. dielectric constant tensor:
#      x y z
#    x 1.971210 0.002750 -0.014850 
#    y 0.002750 2.017560 0.002170 
#    z -0.014850 0.002170 2.015810 
# 
# From -- ./inp_files/605279.got.cif
#   From: 2010.06.25/outbox.cif.g09.slc.cpg/sg2_303_cif.got.tgz:605279.got - 2010.06.27 13:26:56.
