data_PCOD8032264
_publ_section_title
;
Structure prediction by ZEFSAII (Michael W. Deem and Ramdas Pophale) SiO2 
 PCOD8032264
Probable space group: P -1
;
_chemical_formula_sum "Si O2"
_cell_formula_units_Z 14
_cell_length_a 21.259833
_cell_length_b 10.406458
_cell_length_c 5.055865
_cell_angle_alpha 71.726215
_cell_angle_beta 65.261019
_cell_angle_gamma 31.858030
_cell_volume 534.157947
_symmetry_space_group_name_H-M "P -1"
_symmetry_group_IT_number 2
_symmetry_cell_setting 'triclinic'
loop_
_space_group_symop_operation_xyz
x,y,z
-x,-y,-z
loop_
_atom_site_type_symbol
_atom_site_label
_atom_site_fract_x
_atom_site_fract_y
_atom_site_fract_z
Si Si1 0.917860 0.564927 0.874901
Si Si2 0.477600 0.409067 0.911984
Si Si3 0.733467 0.941367 0.559754
Si Si4 0.187837 0.467179 0.525352
Si Si5 0.796499 0.090440 0.051066
Si Si6 0.444888 0.164395 0.246680
Si Si7 0.049912 0.146230 0.587832
O O1 0.800333 0.846834 0.793834
O O2 0.997011 0.621772 0.410720
O O3 0.867852 0.500996 0.121926
O O4 0.000000 0.500000 0.000000
O O5 0.344649 0.626453 0.857246
O O6 0.591007 0.226194 0.621829
O O7 0.500000 0.500000 0.000000
O O8 0.488680 0.247984 0.145814
O O9 0.741376 0.772192 0.584862
O O10 0.803760 0.920105 0.233844
O O11 0.293676 0.409680 0.389921
O O12 0.076037 0.719616 0.387752
O O13 0.885571 0.023616 0.153707
O O14 0.845347 0.026181 0.711367
O O15 0.500000 0.000000 0.500000
O O16 0.500000 0.000000 0.000000
#
# Coordination Sequence:
#
# PCOD8032264 Si02
#       7
#     2   2   2   2   2   2   2
#     4  11  23  41  73 111 153 196 263 324 378 446
#     4  12  29  51  80 117 161 208 259 324 396 471
#     4  11  25  42  73 113 150 203 259 323 384 449
#     4  11  24  45  79 108 155 197 267 323 383 449
#     4  12  26  45  71 109 161 199 250 314 392 467
#     4  12  29  54  82 115 156 206 266 322 387 464
#     4  11  25  45  69 109 150 205 254 314 385 458
#
# _framework density 26.209474
#
# number of rings (size 3 to 8) (size 9 to 14) (size 15 to 20)
#    0.000    0.571    2.857    3.857   10.000    6.286 
#    0.000    1.429    0.000    0.000    0.000    0.000 
#    0.000    0.000    0.000    0.000    0.000    0.000 
#
# Total GULP energy -173497.628738 kJ/mol
# GULP energy per Si atom -12392.687767 kJ/mol
# Density = 2.614982 g / cm^3
# Si number density = 26.209474 Si / 1000 Ang^3
#
#
#
# Elastic Constant Matrix: (Units=GPa)
#
#
# Indices 1 2 3 4 5 6 
#
# 1 93.5076 34.4952 44.8351 1.7193 -5.8728 -10.0866
# 2 34.4952 154.6289 36.1970 17.5672 20.1261 -35.8230
# 3 44.8351 36.1970 122.6587 11.3513 18.2527 -7.6677
# 4 1.7193 17.5672 11.3513 46.0498 -7.8249 -8.8305
# 5 -5.8728 20.1261 18.2527 -7.8249 43.3312 -8.0806
# 6 -10.0866 -35.8230 -7.6677 -8.8305 -8.0806 51.7336
#
#
#
# Elastic Compliance Matrix: (Units=1/GPa)
#
#
# Indices 1 2 3 4 5 6 
#
# 1 0.015147 -0.002874 -0.005919 0.003487 0.006837 0.001749
# 2 -0.002874 0.009163 -0.000462 -0.003113 -0.004168 0.004534
# 3 -0.005919 -0.000462 0.011683 -0.003852 -0.006468 -0.001410
# 4 0.003487 -0.003113 -0.003852 0.025966 0.008936 0.003781
# 5 0.006837 -0.004168 -0.006468 0.008936 0.030998 0.003855
# 6 0.001749 0.004534 -0.001410 0.003781 0.003855 0.023849
#
#
# Mechanical properties :
#
#
# Convention : Reuss Voigt Hill
#
# Bulk Modulus (GPa) = 57.19930 66.87219 62.03575
# Shear Modulus (GPa) = 35.42506 45.24077 40.33292
#
# Velocity S-wave (km/s) = 3.68042 4.15917 3.92710
# Velocity P-wave (km/s) = 6.31917 6.97387 6.65458
#
# Compressibility (1/GPa) = 0.01748273
#
# Stress axis : x y z
#
# Youngs Moduli (GPa) = 66.02096 109.13670 85.59162
#
# Poissons Ratio (x) = 0.31369 0.50663
# Poissons Ratio (y) = 0.18977 0.03951
# Poissons Ratio (z) = 0.39079 0.05038
#
# Static dielectric constant tensor:
#      x y z
#    x 5.322380 -0.795830 0.243520 
#    y -0.795830 5.192810 0.013950 
#    z 0.243520 0.013950 5.075180 
# 
# 
# High freq. dielectric constant tensor:
#      x y z
#    x 2.027710 -0.031470 0.002870 
#    y -0.031470 2.061910 0.014740 
#    z 0.002870 0.014740 2.060590 
# 
# From -- ./inp_files/123406.got.cif
#   From: 2010.06.25/outbox.cif.g09.slc.cpg/sg2_62_cif.got.tgz:123406.got - 2010.06.27 13:26:56.
