data_PCOD8032766
_publ_section_title
;
Structure prediction by ZEFSAII (Michael W. Deem and Ramdas Pophale) SiO2 
 PCOD8032766
Probable space group: P -1
;
_chemical_formula_sum "Si O2"
_cell_formula_units_Z 14
_cell_length_a 17.767920
_cell_length_b 10.143641
_cell_length_c 15.147458
_cell_angle_alpha 134.195517
_cell_angle_beta 23.139202
_cell_angle_gamma 146.226363
_cell_volume 567.421252
_symmetry_space_group_name_H-M "P -1"
_symmetry_group_IT_number 2
_symmetry_cell_setting 'triclinic'
loop_
_space_group_symop_operation_xyz
x,y,z
-x,-y,-z
loop_
_atom_site_type_symbol
_atom_site_label
_atom_site_fract_x
_atom_site_fract_y
_atom_site_fract_z
Si Si1 0.388359 0.688165 0.149596
Si Si2 0.905549 0.383019 0.406072
Si Si3 0.951301 0.978314 0.644831
Si Si4 0.838363 0.490550 0.336302
Si Si5 0.768788 0.521593 0.150051
Si Si6 0.386854 0.187979 0.564653
Si Si7 0.564997 0.930823 0.809015
O O1 0.246931 0.579359 0.345021
O O2 0.194011 0.529148 0.201721
O O3 0.486582 0.962388 0.165349
O O4 0.652001 0.736519 0.881445
O O5 0.904348 0.500379 0.372539
O O6 0.772370 0.101123 0.404544
O O7 0.036557 0.236721 0.704971
O O8 0.137137 0.940917 0.465984
O O9 0.000000 0.000000 0.500000
O O10 0.531512 0.290238 0.551745
O O11 0.954037 0.398327 0.109784
O O12 0.604959 0.354356 0.332911
O O13 0.810704 0.768132 0.212192
O O14 0.625635 0.364059 0.139468
O O15 0.500000 0.000000 0.000000
#
# Coordination Sequence:
#
# PCOD8032766 Si02
#       7
#     2   2   2   2   2   2   2
#     4  11  24  46  68 102 145 180 233 285 346 417
#     4  11  25  45  68  98 152 191 215 286 353 418
#     4  12  23  40  74 105 129 178 239 293 338 399
#     4  12  24  42  69 104 135 180 236 283 344 412
#     4  11  23  43  72 101 130 183 235 293 338 396
#     4  11  24  46  68  99 143 181 234 282 346 415
#     4  12  21  42  73 102 133 169 234 291 339 400
#
# _framework density 24.673027999999999
#
# number of rings (size 3 to 8) (size 9 to 14) (size 15 to 20)
#    0.000    0.571    5.714    2.571    0.000    0.571 
#    0.000   10.714    0.000    0.000    0.000    0.000 
#    0.000    0.000    0.000    0.000    0.000    0.000 
#
# Total GULP energy -173513.282719 kJ/mol
# GULP energy per Si atom -12393.805908 kJ/mol
# Density = 2.461687 g / cm^3
# Si number density = 24.673028 Si / 1000 Ang^3
#
#
#
# Elastic Constant Matrix: (Units=GPa)
#
#
# Indices 1 2 3 4 5 6 
#
# 1 62.4980 10.4849 22.3346 9.8604 -3.0931 11.4359
# 2 10.4849 86.7156 25.9320 -5.6635 -7.9723 12.4132
# 3 22.3346 25.9320 141.3578 8.6516 -23.1650 -3.8909
# 4 9.8604 -5.6635 8.6516 33.6383 4.1658 -8.0032
# 5 -3.0931 -7.9723 -23.1650 4.1658 37.9097 -2.9192
# 6 11.4359 12.4132 -3.8909 -8.0032 -2.9192 31.6890
#
#
#
# Elastic Compliance Matrix: (Units=1/GPa)
#
#
# Indices 1 2 3 4 5 6 
#
# 1 0.019978 -0.000754 -0.002842 -0.007410 -0.000155 -0.009149
# 2 -0.000754 0.013203 -0.002438 0.001880 0.000659 -0.004664
# 3 -0.002842 -0.002438 0.009019 -0.001801 0.005204 0.003113
# 4 -0.007410 0.001880 -0.001801 0.035685 -0.004436 0.010320
# 5 -0.000155 0.000659 0.005204 -0.004436 0.030335 0.002111
# 6 -0.009149 -0.004664 0.003113 0.010320 0.002111 0.039868
#
#
# Mechanical properties :
#
#
# Convention : Reuss Voigt Hill
#
# Bulk Modulus (GPa) = 33.18781 45.34162 39.26471
# Shear Modulus (GPa) = 29.37699 36.10205 32.73952
#
# Velocity S-wave (km/s) = 3.45433 3.82935 3.64666
# Velocity P-wave (km/s) = 5.42126 6.16189 5.80340
#
# Compressibility (1/GPa) = 0.03013155
#
# Stress axis : x y z
#
# Youngs Moduli (GPa) = 50.05487 75.73853 110.87256
#
# Poissons Ratio (x) = 0.05713 0.31510
# Poissons Ratio (y) = 0.03776 0.27034
# Poissons Ratio (z) = 0.14226 0.18468
#
# Static dielectric constant tensor:
#      x y z
#    x 4.321980 0.019270 0.233960 
#    y 0.019270 4.675700 -0.001900 
#    z 0.233960 -0.001900 4.264550 
# 
# 
# High freq. dielectric constant tensor:
#      x y z
#    x 1.975180 0.003680 -0.007600 
#    y 0.003680 1.984360 0.010340 
#    z -0.007600 0.010340 1.985040 
# 
# From -- ./inp_files/282264.got.cif
#   From: 2010.06.25/outbox.cif.g09.slc.cpg/sg2_142_cif.got.tgz:282264.got - 2010.06.27 13:26:56.
