data_PCOD8032980
_publ_section_title
;
Structure prediction by ZEFSAII (Michael W. Deem and Ramdas Pophale) SiO2 
 PCOD8032980
Probable space group: P -1
;
_chemical_formula_sum "Si O2"
_cell_formula_units_Z 16
_cell_length_a 17.941780
_cell_length_b 12.459770
_cell_length_c 8.619806
_cell_angle_alpha 32.012070
_cell_angle_beta 122.767625
_cell_angle_gamma 134.431411
_cell_volume 722.412243
_symmetry_space_group_name_H-M "P -1"
_symmetry_group_IT_number 2
_symmetry_cell_setting 'triclinic'
loop_
_space_group_symop_operation_xyz
x,y,z
-x,-y,-z
loop_
_atom_site_type_symbol
_atom_site_label
_atom_site_fract_x
_atom_site_fract_y
_atom_site_fract_z
Si Si1 0.305245 0.096800 0.165296
Si Si2 0.081802 0.739424 0.214727
Si Si3 0.747894 0.748422 0.779872
Si Si4 0.987892 0.017913 0.648083
Si Si5 0.097651 0.545146 0.153858
Si Si6 0.447747 0.267527 0.840829
Si Si7 0.370705 0.778632 0.797269
Si Si8 0.680025 0.054090 0.171209
O O1 0.185740 0.891339 0.246283
O O2 0.365778 0.966288 0.448003
O O3 0.295776 0.258569 0.087694
O O4 0.366834 0.266306 0.877560
O O5 0.115506 0.694834 0.143362
O O6 0.000000 0.500000 0.500000
O O7 0.016692 0.861405 0.971415
O O8 0.871438 0.946506 0.652526
O O9 0.684936 0.823877 0.505228
O O10 0.727653 0.490625 0.024043
O O11 0.000000 0.000000 0.500000
O O12 0.074815 0.283433 0.481994
O O13 0.205537 0.702636 0.991091
O O14 0.000000 0.500000 0.000000
O O15 0.500000 0.500000 0.500000
O O16 0.381749 0.020749 0.969274
O O17 0.528514 0.244390 0.070000
O O18 0.379509 0.876836 0.859868
#
# Coordination Sequence:
#
# PCOD8032980 Si02
#       8
#     2   2   2   2   2   2   2   2
#     4  11  27  47  68 101 147 183 230 291 355 422
#     4  12  26  44  67 104 147 184 231 286 345 425
#     4  11  23  44  70 103 141 186 234 280 351 423
#     4  12  24  40  72 105 138 188 238 278 349 415
#     4  12  23  41  70 101 141 185 229 290 347 416
#     4  12  25  49  74 104 135 179 243 302 351 412
#     4  11  25  46  73  98 137 188 228 292 358 416
#     4  11  23  45  71 105 139 178 236 296 347 419
#
# _framework density 22.148019999999999
#
# number of rings (size 3 to 8) (size 9 to 14) (size 15 to 20)
#    0.000    0.500    5.000    3.000    1.750    4.500 
#    4.500    0.000    0.000    0.000    0.000    0.000 
#    0.000    0.000    0.000    0.000    0.000    0.000 
#
# Total GULP energy -198342.986415 kJ/mol
# GULP energy per Si atom -12396.436651 kJ/mol
# Density = 2.209761 g / cm^3
# Si number density = 22.148020 Si / 1000 Ang^3
#
#
#
# Elastic Constant Matrix: (Units=GPa)
#
#
# Indices 1 2 3 4 5 6 
#
# 1 101.5987 20.5630 34.9102 3.0382 -13.6299 -1.0861
# 2 20.5630 102.9577 24.3596 1.0239 -0.5799 3.5672
# 3 34.9102 24.3596 103.1907 -2.3188 1.3434 -1.4888
# 4 3.0382 1.0239 -2.3188 35.0900 -0.5095 5.5875
# 5 -13.6299 -0.5799 1.3434 -0.5095 39.6651 -3.3466
# 6 -1.0861 3.5672 -1.4888 5.5875 -3.3466 38.7469
#
#
#
# Elastic Compliance Matrix: (Units=1/GPa)
#
#
# Indices 1 2 3 4 5 6 
#
# 1 0.012084 -0.001506 -0.003806 -0.001334 0.004318 0.000896
# 2 -0.001506 0.010521 -0.001988 -0.000138 -0.000391 -0.001101
# 3 -0.003806 -0.001988 0.011497 0.001088 -0.001694 0.000215
# 4 -0.001334 -0.000138 0.001088 0.029361 -0.000479 -0.004258
# 5 0.004318 -0.000391 -0.001694 -0.000479 0.026950 0.002489
# 6 0.000896 -0.001101 0.000215 -0.004258 0.002489 0.026772
#
#
# Mechanical properties :
#
#
# Convention : Reuss Voigt Hill
#
# Bulk Modulus (GPa) = 51.27646 51.93475 51.60561
# Shear Modulus (GPa) = 36.15680 37.89468 37.02574
#
# Velocity S-wave (km/s) = 4.04481 4.14088 4.09313
# Velocity P-wave (km/s) = 6.70940 6.80899 6.75938
#
# Compressibility (1/GPa) = 0.01950212
#
# Stress axis : x y z
#
# Youngs Moduli (GPa) = 82.75448 95.04554 86.97783
#
# Poissons Ratio (x) = 0.14319 0.33101
# Poissons Ratio (y) = 0.12467 0.17291
# Poissons Ratio (z) = 0.31494 0.18894
#
# Static dielectric constant tensor:
#      x y z
#    x 4.104700 -0.099790 -0.134680 
#    y -0.099790 4.147980 0.012490 
#    z -0.134680 0.012490 4.454650 
# 
# 
# High freq. dielectric constant tensor:
#      x y z
#    x 1.879350 0.000630 -0.000060 
#    y 0.000630 1.884380 -0.002920 
#    z -0.000060 -0.002920 1.868180 
# 
# From -- ./inp_files/313736.got.cif
#   From: 2010.06.25/outbox.cif.g09.slc.cpg/sg2_157_cif.got.tgz:313736.got - 2010.06.27 13:26:56.
