data_PCOD8032409
_publ_section_title
;
Structure prediction by ZEFSAII (Michael W. Deem and Ramdas Pophale) SiO2 
 PCOD8032409
Probable space group: P -1
;
_chemical_formula_sum "Si O2"
_cell_formula_units_Z 16
_cell_length_a 16.121583
_cell_length_b 16.618763
_cell_length_c 15.452270
_cell_angle_alpha 18.154577
_cell_angle_beta 33.494816
_cell_angle_gamma 34.808547
_cell_volume 701.924666
_symmetry_space_group_name_H-M "P -1"
_symmetry_group_IT_number 2
_symmetry_cell_setting 'triclinic'
loop_
_space_group_symop_operation_xyz
x,y,z
-x,-y,-z
loop_
_atom_site_type_symbol
_atom_site_label
_atom_site_fract_x
_atom_site_fract_y
_atom_site_fract_z
Si Si1 0.854095 0.589799 0.178014
Si Si2 0.418504 0.277322 0.256562
Si Si3 0.502326 0.293788 0.971902
Si Si4 0.351589 0.853100 0.480354
Si Si5 0.932337 0.200255 0.114829
Si Si6 0.166613 0.899087 0.422416
Si Si7 0.834971 0.248766 0.690651
Si Si8 0.926162 0.560697 0.594533
O O1 0.842378 0.374854 0.335564
O O2 0.776769 0.508701 0.417377
O O3 0.029798 0.594195 0.053829
O O4 0.779829 0.876287 0.914206
O O5 0.421418 0.293749 0.134321
O O6 0.244421 0.291762 0.423443
O O7 0.500000 0.000000 0.500000
O O8 0.500000 0.500000 0.000000
O O9 0.438937 0.098218 0.161342
O O10 0.467987 0.586218 0.666335
O O11 0.683896 0.191016 0.929082
O O12 0.220934 0.897091 0.623174
O O13 0.287723 0.843789 0.449632
O O14 0.914307 0.309082 0.921655
O O15 0.083285 0.975758 0.216231
O O16 0.000000 0.000000 0.500000
O O17 0.965139 0.266562 0.629477
O O18 0.000000 0.500000 0.500000
#
# Coordination Sequence:
#
# PCOD8032409 Si02
#       8
#     2   2   2   2   2   2   2   2
#     4  11  23  42  69 106 138 182 240 298 345 419
#     4  12  27  47  73 108 145 183 233 299 355 415
#     4  12  28  48  70 101 149 188 239 287 368 422
#     4  12  26  45  71 107 139 191 232 302 358 417
#     4  11  24  44  75 100 143 188 242 291 358 419
#     4  12  23  39  73 106 144 178 246 295 356 421
#     4  11  26  47  74  99 145 198 235 290 359 427
#     4  11  26  45  75 109 145 185 245 289 354 432
#
# _framework density 22.794467000000001
#
# number of rings (size 3 to 8) (size 9 to 14) (size 15 to 20)
#    0.000    0.500    3.750    3.375   10.500    0.500 
#    0.000    3.750    0.000    0.000    0.000    0.000 
#    0.000    0.000    0.000    0.000    0.000    0.000 
#
# Total GULP energy -198354.719655 kJ/mol
# GULP energy per Si atom -12397.169978 kJ/mol
# Density = 2.274259 g / cm^3
# Si number density = 22.794467 Si / 1000 Ang^3
#
#
#
# Elastic Constant Matrix: (Units=GPa)
#
#
# Indices 1 2 3 4 5 6 
#
# 1 145.6712 57.0959 43.9225 -3.1386 -5.3328 4.9819
# 2 57.0959 128.3327 49.3347 5.3789 -19.1399 -21.9859
# 3 43.9225 49.3347 106.1294 -14.4539 -0.9024 1.2096
# 4 -3.1386 5.3789 -14.4539 36.6921 -2.6921 -3.6468
# 5 -5.3328 -19.1399 -0.9024 -2.6921 46.6326 -3.2021
# 6 4.9819 -21.9859 1.2096 -3.6468 -3.2021 37.8750
#
#
#
# Elastic Compliance Matrix: (Units=1/GPa)
#
#
# Indices 1 2 3 4 5 6 
#
# 1 0.009118 -0.004136 -0.001783 0.000259 -0.000921 -0.003596
# 2 -0.004136 0.014281 -0.005426 -0.003252 0.005726 0.009178
# 3 -0.001783 -0.005426 0.013447 0.005492 -0.002059 -0.002990
# 4 0.000259 -0.003252 0.005492 0.030044 0.000594 0.000846
# 5 -0.000921 0.005726 -0.002059 0.000594 0.024068 0.005603
# 6 -0.003596 0.009178 -0.002990 0.000846 0.005603 0.032854
#
#
# Mechanical properties :
#
#
# Convention : Reuss Voigt Hill
#
# Bulk Modulus (GPa) = 70.63379 75.64885 73.14132
# Shear Modulus (GPa) = 33.06472 39.55864 36.31168
#
# Velocity S-wave (km/s) = 3.81275 4.17039 3.99558
# Velocity P-wave (km/s) = 7.10192 7.51325 7.31048
#
# Compressibility (1/GPa) = 0.01415753
#
# Stress axis : x y z
#
# Youngs Moduli (GPa) = 109.67180 70.02473 74.36666
#
# Poissons Ratio (x) = 0.28960 0.13257
# Poissons Ratio (y) = 0.45357 0.40349
# Poissons Ratio (z) = 0.19551 0.37993
#
# Static dielectric constant tensor:
#      x y z
#    x 4.323750 0.090200 -0.041490 
#    y 0.090200 3.938780 -0.082020 
#    z -0.041490 -0.082020 4.562590 
# 
# 
# High freq. dielectric constant tensor:
#      x y z
#    x 1.917000 0.006270 -0.002790 
#    y 0.006270 1.883680 -0.000300 
#    z -0.002790 -0.000300 1.912390 
# 
# From -- ./inp_files/534003.got.cif
#   From: 2010.06.25/outbox.cif.g09.slc.cpg/sg2_268_cif.got.tgz:534003.got - 2010.06.27 13:26:56.
