data_PCOD8032473
_publ_section_title
;
Structure prediction by ZEFSAII (Michael W. Deem and Ramdas Pophale) SiO2 
 PCOD8032473
Probable space group: P -1
;
_chemical_formula_sum "Si O2"
_cell_formula_units_Z 16
_cell_length_a 15.119459
_cell_length_b 5.481059
_cell_length_c 14.540675
_cell_angle_alpha 82.396196
_cell_angle_beta 47.279118
_cell_angle_gamma 55.763399
_cell_volume 667.340637
_symmetry_space_group_name_H-M "P -1"
_symmetry_group_IT_number 2
_symmetry_cell_setting 'triclinic'
loop_
_space_group_symop_operation_xyz
x,y,z
-x,-y,-z
loop_
_atom_site_type_symbol
_atom_site_label
_atom_site_fract_x
_atom_site_fract_y
_atom_site_fract_z
Si Si1 0.995072 0.990524 0.710125
Si Si2 0.374925 0.809607 0.795116
Si Si3 0.667436 0.800090 0.038127
Si Si4 0.319122 0.800503 0.130455
Si Si5 0.597440 0.122180 0.429720
Si Si6 0.839774 0.717015 0.439749
Si Si7 0.385696 0.865008 0.269581
Si Si8 0.916797 0.109508 0.955123
O O1 0.063671 0.664972 0.622211
O O2 0.802804 0.245064 0.820354
O O3 0.034896 0.902210 0.795906
O O4 0.056688 0.172671 0.621129
O O5 0.325839 0.954382 0.720998
O O6 0.527601 0.428652 0.703261
O O7 0.422156 0.965236 0.821776
O O8 0.220710 0.907704 0.948454
O O9 0.525832 0.802156 0.111945
O O10 0.834071 0.478910 0.974332
O O11 0.716531 0.899577 0.912527
O O12 0.284286 0.866503 0.261075
O O13 0.500000 0.500000 0.000000
O O14 0.500000 0.500000 0.500000
O O15 0.500000 0.000000 0.500000
O O16 0.737418 0.904665 0.412867
O O17 0.731726 0.814741 0.601557
O O18 0.000000 0.000000 0.000000
#
# Coordination Sequence:
#
# PCOD8032473 Si02
#       8
#     2   2   2   2   2   2   2   2
#     4  12  28  49  71 108 153 195 246 307 385 443
#     4  11  23  42  71 107 135 184 252 305 367 443
#     4  11  23  44  74 107 143 185 250 320 371 439
#     4  12  24  48  77 107 143 194 257 321 373 436
#     4  12  25  44  74 107 149 194 244 300 369 447
#     4  12  28  48  72 107 158 198 243 307 372 460
#     4  11  25  44  73 107 142 195 254 305 371 442
#     4  11  25  45  70 105 146 193 244 306 378 452
#
# _framework density 23.975760999999999
#
# number of rings (size 3 to 8) (size 9 to 14) (size 15 to 20)
#    0.000    0.500    3.750    4.125    5.250    2.500 
#    0.000    0.000    0.000    0.000    0.000    0.000 
#    0.000    0.000    0.000    0.000    0.000    0.000 
#
# Total GULP energy -198310.587904 kJ/mol
# GULP energy per Si atom -12394.411744 kJ/mol
# Density = 2.392119 g / cm^3
# Si number density = 23.975761 Si / 1000 Ang^3
#
#
#
# Elastic Constant Matrix: (Units=GPa)
#
#
# Indices 1 2 3 4 5 6 
#
# 1 111.7023 36.9167 30.0012 -0.3760 -2.7491 -4.9937
# 2 36.9167 98.2606 32.8361 2.3264 -15.1236 14.3624
# 3 30.0012 32.8361 102.1145 3.2747 12.4802 0.2914
# 4 -0.3760 2.3264 3.2747 38.0652 -2.5444 6.9848
# 5 -2.7491 -15.1236 12.4802 -2.5444 46.2149 -1.9752
# 6 -4.9937 14.3624 0.2914 6.9848 -1.9752 44.8334
#
#
#
# Elastic Compliance Matrix: (Units=1/GPa)
#
#
# Indices 1 2 3 4 5 6 
#
# 1 0.010837 -0.003749 -0.001995 0.000069 0.000063 0.002413
# 2 -0.003749 0.014564 -0.004266 0.000712 0.005524 -0.004923
# 3 -0.001995 -0.004266 0.012388 -0.001346 -0.004889 0.001058
# 4 0.000069 0.000712 -0.001346 0.027275 0.001915 -0.004377
# 5 0.000063 0.005524 -0.004889 0.001915 0.024835 -0.000935
# 6 0.002413 -0.004923 0.001058 -0.004377 -0.000935 0.024784
#
#
# Mechanical properties :
#
#
# Convention : Reuss Voigt Hill
#
# Bulk Modulus (GPa) = 56.27680 56.84285 56.55982
# Shear Modulus (GPa) = 35.55507 39.97760 37.76633
#
# Velocity S-wave (km/s) = 3.85510 4.08783 3.97317
# Velocity P-wave (km/s) = 6.58324 6.78531 6.68504
#
# Compressibility (1/GPa) = 0.01776931
#
# Stress axis : x y z
#
# Youngs Moduli (GPa) = 92.27614 68.66248 80.72089
#
# Poissons Ratio (x) = 0.25744 0.16105
# Poissons Ratio (y) = 0.34598 0.34432
# Poissons Ratio (z) = 0.18410 0.29288
#
# Static dielectric constant tensor:
#      x y z
#    x 6.375550 -2.403700 0.424080 
#    y -2.403700 7.249420 -0.532890 
#    z 0.424080 -0.532890 4.408500 
# 
# 
# High freq. dielectric constant tensor:
#      x y z
#    x 1.968080 0.000880 0.009350 
#    y 0.000880 1.942640 -0.002030 
#    z 0.009350 -0.002030 1.954070 
# 
# From -- ./inp_files/482894.got.cif
#   From: 2010.06.25/outbox.cif.g09.slc.cpg/sg2_242_cif.got.tgz:482894.got - 2010.06.27 13:26:56.
