data_PCOD8032822
_publ_section_title
;
Structure prediction by ZEFSAII (Michael W. Deem and Ramdas Pophale) SiO2 
 PCOD8032822
Probable space group: P -1
;
_chemical_formula_sum "Si O2"
_cell_formula_units_Z 16
_cell_length_a 15.179932
_cell_length_b 9.512099
_cell_length_c 5.165614
_cell_angle_alpha 123.787836
_cell_angle_beta 92.227231
_cell_angle_gamma 85.763304
_cell_volume 618.205411
_symmetry_space_group_name_H-M "P -1"
_symmetry_group_IT_number 2
_symmetry_cell_setting 'triclinic'
loop_
_space_group_symop_operation_xyz
x,y,z
-x,-y,-z
loop_
_atom_site_type_symbol
_atom_site_label
_atom_site_fract_x
_atom_site_fract_y
_atom_site_fract_z
Si Si1 0.347686 0.091413 0.188463
Si Si2 0.341298 0.746849 0.568762
Si Si3 0.090643 0.578250 0.527622
Si Si4 0.167704 0.091634 0.364926
Si Si5 0.854105 0.102175 0.344185
Si Si6 0.652192 0.621496 0.880860
Si Si7 0.506227 0.803125 0.358184
Si Si8 0.821723 0.551230 0.110245
O O1 0.275188 0.076281 0.392707
O O2 0.305494 0.216723 0.087522
O O3 0.430726 0.198054 0.384021
O O4 0.374918 0.896035 0.909860
O O5 0.239891 0.790416 0.524552
O O6 0.349557 0.551179 0.472814
O O7 0.408512 0.740810 0.326022
O O8 0.073808 0.770016 0.612096
O O9 0.150710 0.588731 0.808576
O O10 0.000000 0.500000 0.500000
O O11 0.139151 0.474361 0.197170
O O12 0.133901 0.284493 0.601230
O O13 0.121707 0.975949 0.453171
O O14 0.147159 0.043315 0.019040
O O15 0.553198 0.682592 0.022832
O O16 0.715628 0.573362 0.087108
O O17 0.500000 0.000000 0.500000
#
# Coordination Sequence:
#
# PCOD8032822 Si02
#       8
#     2   2   2   2   2   2   2   2
#     4  11  24  45  66  99 151 195 250 314 376 415
#     4  11  24  42  67 101 142 195 250 308 363 436
#     4  12  27  50  78 112 151 186 235 310 378 452
#     4  11  23  43  74 104 143 194 241 299 354 445
#     4  11  24  45  71 107 143 189 247 294 379 436
#     4  12  25  44  70 104 143 197 260 302 366 446
#     4  12  24  44  65  99 151 196 251 313 378 414
#     4  12  24  48  76 110 147 193 244 298 374 446
#
# _framework density 25.881366
#
# number of rings (size 3 to 8) (size 9 to 14) (size 15 to 20)
#    0.000    0.500    3.750    5.625    0.000    0.500 
#    4.500    3.750    0.000    0.000    0.000    0.000 
#    0.000    0.000    0.000    0.000    0.000    0.000 
#
# Total GULP energy -198261.966774 kJ/mol
# GULP energy per Si atom -12391.372923 kJ/mol
# Density = 2.582246 g / cm^3
# Si number density = 25.881366 Si / 1000 Ang^3
#
#
#
# Elastic Constant Matrix: (Units=GPa)
#
#
# Indices 1 2 3 4 5 6 
#
# 1 31.5523 0.5539 0.9634 -12.5603 7.3387 22.3351
# 2 0.5539 124.3677 41.4497 5.3884 -2.0606 16.2406
# 3 0.9634 41.4497 109.8314 12.5505 -8.7699 0.1160
# 4 -12.5603 5.3884 12.5505 58.4246 2.2253 -0.9428
# 5 7.3387 -2.0606 -8.7699 2.2253 23.1603 -0.3193
# 6 22.3351 16.2406 0.1160 -0.9428 -0.3193 39.9981
#
#
#
# Elastic Compliance Matrix: (Units=1/GPa)
#
#
# Indices 1 2 3 4 5 6 
#
# 1 0.079375 0.007093 -0.007822 0.018471 -0.029905 -0.046984
# 2 0.007093 0.010431 -0.004422 0.001505 -0.003251 -0.008174
# 3 -0.007822 -0.004422 0.011854 -0.003990 0.007041 0.006091
# 4 0.018471 0.001505 -0.003990 0.021998 -0.009488 -0.010471
# 5 -0.029905 -0.003251 0.007041 -0.009488 0.056193 0.018223
# 6 -0.046984 -0.008174 0.006091 -0.010471 0.018223 0.054437
#
#
# Mechanical properties :
#
#
# Convention : Reuss Voigt Hill
#
# Bulk Modulus (GPa) = 10.94585 39.07616 25.01101
# Shear Modulus (GPa) = 18.17902 39.16891 28.67396
#
# Velocity S-wave (km/s) = 2.65315 3.89447 3.33212
# Velocity P-wave (km/s) = 3.69108 5.94588 4.94861
#
# Compressibility (1/GPa) = 0.09135879
#
# Stress axis : x y z
#
# Youngs Moduli (GPa) = 12.59839 95.86718 84.36003
#
# Poissons Ratio (x) = -0.68000 0.65987
# Poissons Ratio (y) = -0.08936 0.37302
# Poissons Ratio (z) = 0.09855 0.42390
#
# Static dielectric constant tensor:
#      x y z
#    x 8.997940 0.082240 2.479740 
#    y 0.082240 4.838350 0.199140 
#    z 2.479740 0.199140 6.237120 
# 
# 
# High freq. dielectric constant tensor:
#      x y z
#    x 2.012060 0.008750 -0.011090 
#    y 0.008750 2.040830 0.014910 
#    z -0.011090 0.014910 2.039080 
# 
# From -- ./inp_files/105762.got.cif
#   From: 2010.06.25/outbox.cif.g09.slc.cpg/sg2_53_cif.got.tgz:105762.got - 2010.06.27 13:26:56.
