data_PCOD8032123
_publ_section_title
;
Structure prediction by ZEFSAII (Michael W. Deem and Ramdas Pophale) SiO2 
 PCOD8032123
Probable space group: P -1
;
_chemical_formula_sum "Si O2"
_cell_formula_units_Z 16
_cell_length_a 9.781262
_cell_length_b 8.396222
_cell_length_c 15.532657
_cell_angle_alpha 104.623125
_cell_angle_beta 37.748401
_cell_angle_gamma 115.350926
_cell_volume 697.135308
_symmetry_space_group_name_H-M "P -1"
_symmetry_group_IT_number 2
_symmetry_cell_setting 'triclinic'
loop_
_space_group_symop_operation_xyz
x,y,z
-x,-y,-z
loop_
_atom_site_type_symbol
_atom_site_label
_atom_site_fract_x
_atom_site_fract_y
_atom_site_fract_z
Si Si1 0.258645 0.988312 0.372128
Si Si2 0.616188 0.680404 0.361881
Si Si3 0.404046 0.694830 0.643379
Si Si4 0.264210 0.638813 0.398434
Si Si5 0.479564 0.911792 0.904817
Si Si6 0.883134 0.673278 0.852227
Si Si7 0.457824 0.445096 0.146201
Si Si8 0.028406 0.955503 0.080167
O O1 0.264694 0.832311 0.408167
O O2 0.468480 0.171236 0.324925
O O3 0.325985 0.947034 0.236415
O O4 0.000000 0.000000 0.500000
O O5 0.607430 0.742498 0.472932
O O6 0.682773 0.507008 0.306149
O O7 0.343992 0.629460 0.455422
O O8 0.783082 0.833275 0.234480
O O9 0.164511 0.715826 0.731167
O O10 0.449768 0.583864 0.241178
O O11 0.000000 0.500000 0.500000
O O12 0.551851 0.741948 0.839784
O O13 0.213803 0.857940 0.987852
O O14 0.500000 0.000000 0.000000
O O15 0.778897 0.591890 0.800321
O O16 0.717588 0.531970 0.983840
O O17 0.850018 0.859000 0.904414
O O18 0.000000 0.000000 0.000000
#
# Coordination Sequence:
#
# PCOD8032123 Si02
#       8
#     2   2   2   2   2   2   2   2
#     4  12  28  46  73 103 142 187 239 298 361 426
#     4  11  25  44  71 102 140 189 236 295 358 428
#     4  11  25  46  70 102 141 185 242 297 358 427
#     4  12  25  45  69 102 142 186 236 291 358 425
#     4  12  25  45  71 105 141 187 238 291 355 423
#     4  11  23  41  65 101 136 188 230 289 353 416
#     4  11  24  42  70 100 145 183 238 290 350 426
#     4  12  25  44  70 104 144 184 238 294 359 427
#
# _framework density 22.951070000000001
#
# number of rings (size 3 to 8) (size 9 to 14) (size 15 to 20)
#    0.000    0.500    1.250    7.500    3.500    4.000 
#    0.000    3.750    0.000    0.000    0.000    0.000 
#    0.000    0.000    0.000    0.000    0.000    0.000 
#
# Total GULP energy -198395.332215 kJ/mol
# GULP energy per Si atom -12399.708263 kJ/mol
# Density = 2.289883 g / cm^3
# Si number density = 22.951070 Si / 1000 Ang^3
#
#
#
# Elastic Constant Matrix: (Units=GPa)
#
#
# Indices 1 2 3 4 5 6 
#
# 1 110.5476 23.8350 49.0681 3.2058 -6.4884 -5.8564
# 2 23.8350 83.7980 12.9337 8.3223 5.1472 -2.2446
# 3 49.0681 12.9337 88.8869 -5.0388 -1.7091 2.0978
# 4 3.2058 8.3223 -5.0388 40.5154 -4.0607 -4.2917
# 5 -6.4884 5.1472 -1.7091 -4.0607 47.1848 2.1701
# 6 -5.8564 -2.2446 2.0978 -4.2917 2.1701 39.0288
#
#
#
# Elastic Compliance Matrix: (Units=1/GPa)
#
#
# Indices 1 2 3 4 5 6 
#
# 1 0.012834 -0.002555 -0.006782 -0.000965 0.001625 0.001947
# 2 -0.002555 0.013178 -0.000709 -0.002776 -0.002064 0.000222
# 3 -0.006782 -0.000709 0.015272 0.002409 -0.000021 -0.001613
# 4 -0.000965 -0.002776 0.002409 0.026113 0.002399 0.002304
# 5 0.001625 -0.002064 -0.000021 0.002399 0.021886 -0.000827
# 6 0.001947 0.000222 -0.001613 0.002304 -0.000827 0.026313
#
#
# Mechanical properties :
#
#
# Convention : Reuss Voigt Hill
#
# Bulk Modulus (GPa) = 47.19194 50.54513 48.86853
# Shear Modulus (GPa) = 35.02587 38.50550 36.76569
#
# Velocity S-wave (km/s) = 3.91078 4.10044 4.00674
# Velocity P-wave (km/s) = 6.40304 6.67001 6.53789
#
# Compressibility (1/GPa) = 0.02119006
#
# Stress axis : x y z
#
# Youngs Moduli (GPa) = 77.91977 75.88287 65.48105
#
# Poissons Ratio (x) = 0.19391 0.44410
# Poissons Ratio (y) = 0.19912 0.04644
# Poissons Ratio (z) = 0.52846 0.05381
#
# Static dielectric constant tensor:
#      x y z
#    x 4.347550 0.056480 0.209050 
#    y 0.056480 4.181010 0.174850 
#    z 0.209050 0.174850 4.280550 
# 
# 
# High freq. dielectric constant tensor:
#      x y z
#    x 1.923830 -0.007020 0.001030 
#    y -0.007020 1.910110 0.003830 
#    z 0.001030 0.003830 1.912090 
# 
# From -- ./inp_files/495121.got.cif
#   From: 2010.06.25/outbox.cif.g09.slc.cpg/sg2_248_cif.got.tgz:495121.got - 2010.06.27 13:26:56.
