data_PCOD8032335
_publ_section_title
;
Structure prediction by ZEFSAII (Michael W. Deem and Ramdas Pophale) SiO2 
 PCOD8032335
Probable space group: P -1
;
_chemical_formula_sum "Si O2"
_cell_formula_units_Z 14
_cell_length_a 13.449592
_cell_length_b 4.833584
_cell_length_c 12.175373
_cell_angle_alpha 68.598041
_cell_angle_beta 50.505621
_cell_angle_gamma 69.382204
_cell_volume 560.690200
_symmetry_space_group_name_H-M "P -1"
_symmetry_group_IT_number 2
_symmetry_cell_setting 'triclinic'
loop_
_space_group_symop_operation_xyz
x,y,z
-x,-y,-z
loop_
_atom_site_type_symbol
_atom_site_label
_atom_site_fract_x
_atom_site_fract_y
_atom_site_fract_z
Si Si1 0.891629 0.429828 0.221655
Si Si2 0.262214 0.212674 0.904372
Si Si3 0.525488 0.227184 0.607428
Si Si4 0.355106 0.173747 0.080302
Si Si5 0.227437 0.619881 0.265539
Si Si6 0.696324 0.603984 0.531922
Si Si7 0.059923 0.811640 0.165321
O O1 0.835030 0.525969 0.127662
O O2 0.783352 0.530767 0.374180
O O3 0.936117 0.071615 0.238029
O O4 0.018732 0.580744 0.138491
O O5 0.393460 0.114719 0.754632
O O6 0.304380 0.322699 0.977706
O O7 0.187306 0.928789 0.011124
O O8 0.500000 0.500000 0.500000
O O9 0.595261 0.364073 0.641773
O O10 0.620033 0.945171 0.527782
O O11 0.348309 0.434358 0.138234
O O12 0.256297 0.952881 0.219394
O O13 0.500000 0.000000 0.000000
O O14 0.213886 0.448407 0.414617
O O15 0.096653 0.638797 0.280407
#
# Coordination Sequence:
#
# PCOD8032335 Si02
#       7
#     2   2   2   2   2   2   2
#     4  12  26  44  70 101 142 183 235 283 339 408
#     4  11  25  44  74 100 140 179 227 292 346 404
#     4  12  26  46  70 106 142 175 226 282 356 420
#     4  11  23  42  67 102 136 179 229 280 345 410
#     4  11  24  44  67  98 138 181 231 280 339 407
#     4  12  26  46  72 104 140 183 228 284 348 415
#     4  11  26  45  67 103 139 185 236 281 339 404
#
# _framework density 24.969224000000001
#
# number of rings (size 3 to 8) (size 9 to 14) (size 15 to 20)
#    0.000    0.571    1.429    6.857    0.000    8.000 
#    0.000    0.000    0.000    0.000    0.000    0.000 
#    0.000    0.000    0.000    0.000    0.000    0.000 
#
# Total GULP energy -173636.489132 kJ/mol
# GULP energy per Si atom -12402.606367 kJ/mol
# Density = 2.491239 g / cm^3
# Si number density = 24.969224 Si / 1000 Ang^3
#
#
#
# Elastic Constant Matrix: (Units=GPa)
#
#
# Indices 1 2 3 4 5 6 
#
# 1 124.7867 26.1744 30.5461 -11.5770 19.8169 -25.4356
# 2 26.1744 108.7575 8.3415 7.3172 10.5698 -17.9358
# 3 30.5461 8.3415 69.2413 -10.2141 13.6126 -9.6049
# 4 -11.5770 7.3172 -10.2141 22.5218 -3.2255 7.4950
# 5 19.8169 10.5698 13.6126 -3.2255 45.6308 -8.9592
# 6 -25.4356 -17.9358 -9.6049 7.4950 -8.9592 41.7011
#
#
#
# Elastic Compliance Matrix: (Units=1/GPa)
#
#
# Indices 1 2 3 4 5 6 
#
# 1 0.010548 -0.001614 -0.003017 0.002908 -0.002311 0.004025
# 2 -0.001614 0.010909 -0.000686 -0.006331 -0.001199 0.004430
# 3 -0.003017 -0.000686 0.017407 0.006070 -0.003279 0.000078
# 4 0.002908 -0.006331 0.006070 0.053804 0.000402 -0.009135
# 5 -0.002311 -0.001199 -0.003279 0.000402 0.024705 0.002555
# 6 0.004025 0.004430 0.000078 -0.009135 0.002555 0.030549
#
#
# Mechanical properties :
#
#
# Convention : Reuss Voigt Hill
#
# Bulk Modulus (GPa) = 35.42410 48.10104 41.76257
# Shear Modulus (GPa) = 29.76790 37.81897 33.79344
#
# Velocity S-wave (km/s) = 3.45655 3.89604 3.68285
# Velocity P-wave (km/s) = 5.49074 6.28846 5.90309
#
# Compressibility (1/GPa) = 0.02822937
#
# Stress axis : x y z
#
# Youngs Moduli (GPa) = 94.80341 91.66852 57.44824
#
# Poissons Ratio (x) = 0.14798 0.17334
# Poissons Ratio (y) = 0.15305 0.03939
# Poissons Ratio (z) = 0.28604 0.06286
#
# Static dielectric constant tensor:
#      x y z
#    x 5.145080 -0.072510 0.082130 
#    y -0.072510 4.422140 -0.077470 
#    z 0.082130 -0.077470 4.268200 
# 
# 
# High freq. dielectric constant tensor:
#      x y z
#    x 2.012770 -0.011350 0.010400 
#    y -0.011350 2.000920 0.004480 
#    z 0.010400 0.004480 1.983390 
# 
# From -- ./inp_files/441004.got.cif
#   From: 2010.06.25/outbox.cif.g09.slc.cpg/sg2_221_cif.got.tgz:441004.got - 2010.06.27 13:26:56.
