data_PCOD8032010
_publ_section_title
;
Structure prediction by ZEFSAII (Michael W. Deem and Ramdas Pophale) SiO2 
 PCOD8032010
Probable space group: P -1
;
_chemical_formula_sum "Si O2"
_cell_formula_units_Z 16
_cell_length_a 13.687225
_cell_length_b 11.100294
_cell_length_c 9.202261
_cell_angle_alpha 97.147765
_cell_angle_beta 88.356446
_cell_angle_gamma 31.107719
_cell_volume 691.341034
_symmetry_space_group_name_H-M "P -1"
_symmetry_group_IT_number 2
_symmetry_cell_setting 'triclinic'
loop_
_space_group_symop_operation_xyz
x,y,z
-x,-y,-z
loop_
_atom_site_type_symbol
_atom_site_label
_atom_site_fract_x
_atom_site_fract_y
_atom_site_fract_z
Si Si1 0.020994 0.344362 0.680270
Si Si2 0.448532 0.434664 0.577767
Si Si3 0.327809 0.112988 0.111098
Si Si4 0.146009 0.916007 0.201969
Si Si5 0.761443 0.228391 0.124263
Si Si6 0.746739 0.955555 0.633631
Si Si7 0.315608 0.952485 0.833693
Si Si8 0.246130 0.587822 0.343401
O O1 0.861966 0.604443 0.796882
O O2 0.929893 0.308204 0.678669
O O3 0.213935 0.142323 0.742079
O O4 0.088975 0.298061 0.502723
O O5 0.500000 0.500000 0.500000
O O6 0.418138 0.504780 0.756832
O O7 0.617370 0.152268 0.537624
O O8 0.262453 0.580658 0.518187
O O9 0.383683 0.991827 0.247237
O O10 0.264280 0.071535 0.005349
O O11 0.500000 0.000000 0.000000
O O12 0.152308 0.047522 0.275313
O O13 0.193866 0.776859 0.312999
O O14 0.295917 0.720915 0.035360
O O15 0.945894 0.109704 0.149677
O O16 0.785696 0.069458 0.168638
O O17 0.549101 0.688360 0.763952
#
# Coordination Sequence:
#
# PCOD8032010 Si02
#       8
#     2   2   2   2   2   2   2   2
#     4  12  26  48  74 102 142 192 242 300 355 422
#     4  12  23  39  67 107 146 183 227 284 361 436
#     4  12  28  50  75 103 138 197 252 299 357 413
#     4  11  24  40  70 109 147 185 233 288 364 444
#     4  11  23  40  65 108 146 188 232 287 362 439
#     4  12  25  46  73 106 150 188 238 301 357 429
#     4  12  23  46  72 103 140 189 243 298 355 423
#     4  12  24  42  74 107 144 190 232 291 365 434
#
# _framework density 23.143425000000001
#
# number of rings (size 3 to 8) (size 9 to 14) (size 15 to 20)
#    0.000    0.250    7.500    1.500    1.750    2.000 
#    0.000    3.750    0.000    0.000    0.000    0.000 
#    0.000    0.000    0.000    0.000    0.000    0.000 
#
# Total GULP energy -198218.781117 kJ/mol
# GULP energy per Si atom -12388.673820 kJ/mol
# Density = 2.309075 g / cm^3
# Si number density = 23.143425 Si / 1000 Ang^3
#
#
#
# Elastic Constant Matrix: (Units=GPa)
#
#
# Indices 1 2 3 4 5 6 
#
# 1 46.7567 20.3992 14.0542 3.2719 -15.7406 3.5157
# 2 20.3992 58.4877 10.3959 -6.9885 -11.4846 9.7096
# 3 14.0542 10.3959 133.5736 10.1328 -8.6302 9.8055
# 4 3.2719 -6.9885 10.1328 38.8477 2.1241 5.8989
# 5 -15.7406 -11.4846 -8.6302 2.1241 37.9818 -0.2474
# 6 3.5157 9.7096 9.8055 5.8989 -0.2474 28.9161
#
#
#
# Elastic Compliance Matrix: (Units=1/GPa)
#
#
# Indices 1 2 3 4 5 6 
#
# 1 0.028983 -0.008661 -0.001515 -0.004240 0.009290 0.000843
# 2 -0.008661 0.022737 -0.000576 0.005969 0.002771 -0.007580
# 3 -0.001515 -0.000576 0.008047 -0.001837 0.001116 -0.001967
# 4 -0.004240 0.005969 -0.001837 0.028788 -0.002024 -0.006756
# 5 0.009290 0.002771 0.001116 -0.002024 0.031372 -0.001757
# 6 0.000843 -0.007580 -0.001967 -0.006756 -0.001757 0.039056
#
#
# Mechanical properties :
#
#
# Convention : Reuss Voigt Hill
#
# Bulk Modulus (GPa) = 26.13606 36.50184 31.31895
# Shear Modulus (GPa) = 25.87452 34.08037 29.97744
#
# Velocity S-wave (km/s) = 3.34729 3.84157 3.60292
# Velocity P-wave (km/s) = 5.12413 5.95678 5.55607
#
# Compressibility (1/GPa) = 0.03826131
#
# Stress axis : x y z
#
# Youngs Moduli (GPa) = 34.50346 43.98177 124.27599
#
# Poissons Ratio (x) = 0.38094 0.18832
# Poissons Ratio (y) = 0.29885 0.07153
# Poissons Ratio (z) = 0.05228 0.02531
#
# Static dielectric constant tensor:
#      x y z
#    x 4.130490 0.000240 0.096290 
#    y 0.000240 3.896790 0.169880 
#    z 0.096290 0.169880 5.621010 
# 
# 
# High freq. dielectric constant tensor:
#      x y z
#    x 1.898660 -0.002340 0.012320 
#    y -0.002340 1.905640 0.006580 
#    z 0.012320 0.006580 1.947420 
# 
# From -- ./inp_files/307729.got.cif
#   From: 2010.06.25/outbox.cif.g09.slc.cpg/sg2_154_cif.got.tgz:307729.got - 2010.06.27 13:26:56.
