data_PCOD8032320
_publ_section_title
;
Structure prediction by ZEFSAII (Michael W. Deem and Ramdas Pophale) SiO2 
 PCOD8032320
Probable space group: P -1
;
_chemical_formula_sum "Si O2"
_cell_formula_units_Z 16
_cell_length_a 13.492643
_cell_length_b 9.113498
_cell_length_c 15.911065
_cell_angle_alpha 105.578013
_cell_angle_beta 152.653188
_cell_angle_gamma 62.730910
_cell_volume 751.584785
_symmetry_space_group_name_H-M "P -1"
_symmetry_group_IT_number 2
_symmetry_cell_setting 'triclinic'
loop_
_space_group_symop_operation_xyz
x,y,z
-x,-y,-z
loop_
_atom_site_type_symbol
_atom_site_label
_atom_site_fract_x
_atom_site_fract_y
_atom_site_fract_z
Si Si1 0.677124 0.795338 0.126533
Si Si2 0.699572 0.624705 0.289343
Si Si3 0.770234 0.476417 0.844389
Si Si4 0.398830 0.845534 0.563202
Si Si5 0.635229 0.074477 0.798496
Si Si6 0.890187 0.141939 0.510183
Si Si7 0.818373 0.124186 0.772570
Si Si8 0.428304 0.428768 0.116211
O O1 0.604213 0.744703 0.152525
O O2 0.953280 0.762315 0.338463
O O3 0.689724 0.658599 0.045627
O O4 0.500000 0.000000 0.000000
O O5 0.603453 0.756087 0.316251
O O6 0.556741 0.513109 0.168746
O O7 0.000000 0.500000 0.500000
O O8 0.525532 0.638866 0.645189
O O9 0.805007 0.309605 0.794444
O O10 0.763728 0.444690 0.936711
O O11 0.000000 0.500000 0.000000
O O12 0.148394 0.941976 0.446702
O O13 0.310397 0.896597 0.409891
O O14 0.589716 0.910283 0.743550
O O15 0.657561 0.110867 0.724186
O O16 0.891872 0.027883 0.031740
O O17 0.623640 0.279786 0.298988
O O18 0.000000 0.000000 0.500000
#
# Coordination Sequence:
#
# PCOD8032320 Si02
#       8
#     2   2   2   2   2   2   2   2
#     4  12  26  42  75 101 133 184 238 281 346 424
#     4  12  26  49  70 101 148 188 228 291 358 417
#     4  11  23  45  71  99 142 178 225 292 352 407
#     4  11  25  40  73  99 135 180 230 285 346 419
#     4  11  25  46  69  97 139 182 229 293 343 414
#     4  11  23  42  66 102 137 175 227 288 346 408
#     4  11  24  46  68 102 134 180 238 282 353 410
#     4  11  25  46  66 101 140 182 230 286 350 416
#
# _framework density 21.288350000000001
#
# number of rings (size 3 to 8) (size 9 to 14) (size 15 to 20)
#    0.000    0.750    5.000    1.875    5.250    0.000 
#    4.500    0.000    0.000    0.000    0.000    0.000 
#    0.000    0.000    0.000    0.000    0.000    0.000 
#
# Total GULP energy -198361.881605 kJ/mol
# GULP energy per Si atom -12397.617600 kJ/mol
# Density = 2.123990 g / cm^3
# Si number density = 21.288350 Si / 1000 Ang^3
#
#
#
# Elastic Constant Matrix: (Units=GPa)
#
#
# Indices 1 2 3 4 5 6 
#
# 1 147.3112 30.5367 55.8888 -1.9973 3.0282 2.4521
# 2 30.5367 83.9411 24.2628 5.5536 2.5541 -2.4029
# 3 55.8888 24.2628 88.0836 13.8727 -2.8845 -9.7501
# 4 -1.9973 5.5536 13.8727 41.7736 3.4636 4.0195
# 5 3.0282 2.5541 -2.8845 3.4636 35.2050 1.0484
# 6 2.4521 -2.4029 -9.7501 4.0195 1.0484 38.2673
#
#
#
# Elastic Compliance Matrix: (Units=1/GPa)
#
#
# Indices 1 2 3 4 5 6 
#
# 1 0.009792 -0.001919 -0.006551 0.003284 -0.001482 -0.002721
# 2 -0.001919 0.013381 -0.002268 -0.001094 -0.000900 0.000525
# 3 -0.006551 -0.002268 0.017882 -0.006699 0.002690 0.005464
# 4 0.003284 -0.001094 -0.006699 0.027195 -0.003286 -0.004752
# 5 -0.001482 -0.000900 0.002690 -0.003286 0.029133 0.000271
# 6 -0.002721 0.000525 0.005464 -0.004752 0.000271 0.028223
#
#
# Mechanical properties :
#
#
# Convention : Reuss Voigt Hill
#
# Bulk Modulus (GPa) = 51.07228 60.07919 55.57574
# Shear Modulus (GPa) = 32.55009 36.95901 34.75455
#
# Velocity S-wave (km/s) = 3.91450 4.17119 4.04488
# Velocity P-wave (km/s) = 6.66887 7.17505 6.92659
#
# Compressibility (1/GPa) = 0.01958009
#
# Stress axis : x y z
#
# Youngs Moduli (GPa) = 102.12540 74.73120 55.92145
#
# Poissons Ratio (x) = 0.14338 0.36636
# Poissons Ratio (y) = 0.19594 0.12681
# Poissons Ratio (z) = 0.66906 0.16947
#
# Static dielectric constant tensor:
#      x y z
#    x 4.083770 0.101010 0.068520 
#    y 0.101010 3.903950 0.034180 
#    z 0.068520 0.034180 3.816700 
# 
# 
# High freq. dielectric constant tensor:
#      x y z
#    x 1.856440 0.006320 0.007170 
#    y 0.006320 1.839250 0.005910 
#    z 0.007170 0.005910 1.827120 
# 
# From -- ./inp_files/272869.got.cif
#   From: 2010.06.25/outbox.cif.g09.slc.cpg/sg2_137_cif.got.tgz:272869.got - 2010.06.27 13:26:56.
