data_PCOD8032355
_publ_section_title
;
Structure prediction by ZEFSAII (Michael W. Deem and Ramdas Pophale) SiO2 
 PCOD8032355
Probable space group: P -1
;
_chemical_formula_sum "Si O2"
_cell_formula_units_Z 16
_cell_length_a 9.317551
_cell_length_b 15.481621
_cell_length_c 8.606252
_cell_angle_alpha 142.617948
_cell_angle_beta 100.175523
_cell_angle_gamma 82.275432
_cell_volume 741.830861
_symmetry_space_group_name_H-M "P -1"
_symmetry_group_IT_number 2
_symmetry_cell_setting 'triclinic'
loop_
_space_group_symop_operation_xyz
x,y,z
-x,-y,-z
loop_
_atom_site_type_symbol
_atom_site_label
_atom_site_fract_x
_atom_site_fract_y
_atom_site_fract_z
Si Si1 0.666879 0.709948 0.407627
Si Si2 0.191535 0.073811 0.753714
Si Si3 0.315866 0.790140 0.918539
Si Si4 0.421346 0.261045 0.910212
Si Si5 0.844923 0.446165 0.950999
Si Si6 0.125543 0.811686 0.185934
Si Si7 0.598924 0.406267 0.612839
Si Si8 0.828772 0.967416 0.951062
O O1 0.605557 0.774218 0.326547
O O2 0.531965 0.681418 0.456051
O O3 0.787231 0.815151 0.653643
O O4 0.751659 0.565023 0.188561
O O5 0.288955 0.208443 0.916387
O O6 0.030700 0.123784 0.767010
O O7 0.227658 0.936656 0.457802
O O8 0.212130 0.030035 0.873115
O O9 0.370419 0.654878 0.639259
O O10 0.438448 0.823051 0.120029
O O11 0.171977 0.759893 0.949445
O O12 0.281756 0.920840 0.986423
O O13 0.443915 0.429829 0.176047
O O14 0.878092 0.322763 0.898471
O O15 0.749750 0.385802 0.704571
O O16 0.000000 0.500000 0.000000
O O17 0.000000 0.000000 0.000000
#
# Coordination Sequence:
#
# PCOD8032355 Si02
#       8
#     2   2   2   2   2   2   2   2
#     4  11  25  46  72  98 144 185 221 291 347 402
#     4  11  25  43  67  95 143 177 221 290 343 396
#     4  12  25  42  72  98 135 183 228 282 338 409
#     4  11  24  44  70 106 135 177 232 276 342 415
#     4  11  24  41  72 104 136 187 230 273 346 418
#     4  11  23  42  67  98 134 182 228 275 339 410
#     4  11  24  45  69 103 146 176 228 288 340 411
#     4  12  27  46  67 101 141 178 234 289 345 404
#
# _framework density 21.568258
#
# number of rings (size 3 to 8) (size 9 to 14) (size 15 to 20)
#    0.000    0.750    1.250    7.125    5.250    6.000 
#    0.000    1.875    0.000    0.000    0.000    0.000 
#    0.000    0.000    0.000    0.000    0.000    0.000 
#
# Total GULP energy -198412.984457 kJ/mol
# GULP energy per Si atom -12400.811529 kJ/mol
# Density = 2.151917 g / cm^3
# Si number density = 21.568258 Si / 1000 Ang^3
#
#
#
# Elastic Constant Matrix: (Units=GPa)
#
#
# Indices 1 2 3 4 5 6 
#
# 1 110.2182 53.9431 57.1975 -9.7504 4.9646 17.1573
# 2 53.9431 170.0589 47.0401 -4.8884 3.8394 -0.3924
# 3 57.1975 47.0401 91.4684 -11.0467 8.8415 12.5993
# 4 -9.7504 -4.8884 -11.0467 30.7245 9.3046 -2.3230
# 5 4.9646 3.8394 8.8415 9.3046 35.6099 -0.9376
# 6 17.1573 -0.3924 12.5993 -2.3230 -0.9376 51.1229
#
#
#
# Elastic Compliance Matrix: (Units=1/GPa)
#
#
# Indices 1 2 3 4 5 6 
#
# 1 0.014748 -0.002638 -0.007196 0.001582 -0.000481 -0.003133
# 2 -0.002638 0.007376 -0.002454 -0.000541 0.000364 0.001529
# 3 -0.007196 -0.002454 0.018007 0.005040 -0.004570 -0.001896
# 4 0.001582 -0.000541 0.005040 0.038210 -0.011404 -0.000250
# 5 -0.000481 0.000364 -0.004570 -0.011404 0.032260 0.001364
# 6 -0.003133 0.001529 -0.001896 -0.000250 0.001364 0.021105
#
#
# Mechanical properties :
#
#
# Convention : Reuss Voigt Hill
#
# Bulk Modulus (GPa) = 64.29947 76.45632 70.37789
# Shear Modulus (GPa) = 30.96571 37.72913 34.34742
#
# Velocity S-wave (km/s) = 3.79318 4.18699 3.99494
# Velocity P-wave (km/s) = 7.00436 7.67463 7.34715
#
# Compressibility (1/GPa) = 0.01555223
#
# Stress axis : x y z
#
# Youngs Moduli (GPa) = 67.80539 135.57585 55.53479
#
# Poissons Ratio (x) = 0.35771 0.39965
# Poissons Ratio (y) = 0.17890 0.13631
# Poissons Ratio (z) = 0.48795 0.33277
#
# Static dielectric constant tensor:
#      x y z
#    x 3.992060 -0.017070 0.103040 
#    y -0.017070 4.205070 -0.136970 
#    z 0.103040 -0.136970 4.041350 
# 
# 
# High freq. dielectric constant tensor:
#      x y z
#    x 1.857600 -0.003700 -0.001010 
#    y -0.003700 1.868130 -0.004730 
#    z -0.001010 -0.004730 1.846990 
# 
# From -- ./inp_files/209475.got.cif
#   From: 2010.06.25/outbox.cif.g09.slc.cpg/sg2_105_cif.got.tgz:209475.got - 2010.06.27 13:26:56.
