data_PCOD8032913
_publ_section_title
;
Structure prediction by ZEFSAII (Michael W. Deem and Ramdas Pophale) SiO2 
 PCOD8032913
Probable space group: P -1
;
_chemical_formula_sum "Si O2"
_cell_formula_units_Z 16
_cell_length_a 17.156798
_cell_length_b 12.933870
_cell_length_c 5.490736
_cell_angle_alpha 82.812405
_cell_angle_beta 67.577005
_cell_angle_gamma 133.714742
_cell_volume 662.115689
_symmetry_space_group_name_H-M "P -1"
_symmetry_group_IT_number 2
_symmetry_cell_setting 'triclinic'
loop_
_space_group_symop_operation_xyz
x,y,z
-x,-y,-z
loop_
_atom_site_type_symbol
_atom_site_label
_atom_site_fract_x
_atom_site_fract_y
_atom_site_fract_z
Si Si1 0.825064 0.463774 0.449323
Si Si2 0.561171 0.422478 0.157378
Si Si3 0.304254 0.804138 0.668046
Si Si4 0.292903 0.271238 0.458699
Si Si5 0.455633 0.825111 0.847168
Si Si6 0.119095 0.914749 0.576360
Si Si7 0.183935 0.335346 0.862477
Si Si8 0.872687 0.203521 0.886424
O O1 0.829998 0.389999 0.235064
O O2 0.815336 0.576504 0.371959
O O3 0.968108 0.591074 0.399226
O O4 0.680906 0.282376 0.799669
O O5 0.417726 0.337951 0.444184
O O6 0.508577 0.261065 0.156282
O O7 0.669049 0.504204 0.218792
O O8 0.637851 0.566550 0.821103
O O9 0.411166 0.820921 0.632501
O O10 0.398469 0.968695 0.318747
O O11 0.239791 0.814633 0.952899
O O12 0.180706 0.214900 0.790576
O O13 0.214713 0.113381 0.418790
O O14 0.166661 0.900537 0.279829
O O15 0.133210 0.866499 0.829526
O O16 0.955118 0.787085 0.768331
#
# Coordination Sequence:
#
# PCOD8032913 Si02
#       8
#     2   2   2   2   2   2   2   2
#     4  11  23  44  73 103 142 191 237 297 359 431
#     4  11  23  44  68 101 145 186 240 296 356 430
#     4  11  25  44  70 105 138 195 235 294 364 426
#     4  11  25  44  70 105 138 195 235 294 364 426
#     4  11  23  44  68 101 145 186 240 296 356 430
#     4  11  27  48  74 108 148 188 241 299 357 429
#     4  11  23  44  73 103 142 191 237 297 359 431
#     4  11  27  48  74 108 148 188 241 299 357 429
#
# _framework density 24.164961999999999
#
# number of rings (size 3 to 8) (size 9 to 14) (size 15 to 20)
#    0.000    1.000    2.500    3.000    7.000    1.000 
#    9.000    0.000    0.000    0.000    0.000    0.000 
#    0.000    0.000    0.000    0.000    0.000    0.000 
#
# Total GULP energy -198304.102562 kJ/mol
# GULP energy per Si atom -12394.006410 kJ/mol
# Density = 2.410996 g / cm^3
# Si number density = 24.164962 Si / 1000 Ang^3
#
#
#
# Elastic Constant Matrix: (Units=GPa)
#
#
# Indices 1 2 3 4 5 6 
#
# 1 86.0839 43.5783 40.3668 -5.3619 -14.3029 -10.6800
# 2 43.5783 121.8713 16.0705 0.1865 -2.0537 -21.0494
# 3 40.3668 16.0705 81.6675 5.6594 -14.5967 -16.0260
# 4 -5.3619 0.1865 5.6594 39.1640 2.1630 -6.1170
# 5 -14.3029 -2.0537 -14.5967 2.1630 35.6683 7.1109
# 6 -10.6800 -21.0494 -16.0260 -6.1170 7.1109 35.7142
#
#
#
# Elastic Compliance Matrix: (Units=1/GPa)
#
#
# Indices 1 2 3 4 5 6 
#
# 1 0.019142 -0.006007 -0.008103 0.003324 0.004153 -0.001710
# 2 -0.006007 0.011133 0.001526 -0.000046 -0.002317 0.005903
# 3 -0.008103 0.001526 0.017778 -0.003039 0.003244 0.005287
# 4 0.003324 -0.000046 -0.003039 0.027315 -0.002524 0.004784
# 5 0.004153 -0.002317 0.003244 -0.002524 0.032145 -0.005501
# 6 -0.001710 0.005903 0.005287 0.004784 -0.005501 0.035255
#
#
# Mechanical properties :
#
#
# Convention : Reuss Voigt Hill
#
# Bulk Modulus (GPa) = 43.69801 54.40599 49.05200
# Shear Modulus (GPa) = 28.47967 34.74977 31.61472
#
# Velocity S-wave (km/s) = 3.43673 3.79624 3.62095
# Velocity P-wave (km/s) = 5.81985 6.46363 6.15017
#
# Compressibility (1/GPa) = 0.02288434
#
# Stress axis : x y z
#
# Youngs Moduli (GPa) = 52.24104 89.82587 56.25027
#
# Poissons Ratio (x) = 0.53955 0.45580
# Poissons Ratio (y) = 0.31379 -0.08582
# Poissons Ratio (z) = 0.42331 -0.13705
#
# Static dielectric constant tensor:
#      x y z
#    x 4.467450 -0.108200 -0.266170 
#    y -0.108200 4.403730 -0.182760 
#    z -0.266170 -0.182760 4.313800 
# 
# 
# High freq. dielectric constant tensor:
#      x y z
#    x 1.964250 -0.012830 -0.018430 
#    y -0.012830 1.966580 -0.012490 
#    z -0.018430 -0.012490 1.946900 
# 
# From -- ./inp_files/109725.got.cif
#   From: 2010.06.25/outbox.cif.g09.slc.cpg/sg2_55_cif.got.tgz:109725.got - 2010.06.27 13:26:56.
