data_PCOD8032577
_publ_section_title
;
Structure prediction by ZEFSAII (Michael W. Deem and Ramdas Pophale) SiO2 
 PCOD8032577
Probable space group: P -1
;
_chemical_formula_sum "Si O2"
_cell_formula_units_Z 16
_cell_length_a 5.818473
_cell_length_b 18.763441
_cell_length_c 9.052195
_cell_angle_alpha 129.950222
_cell_angle_beta 84.666331
_cell_angle_gamma 79.648313
_cell_volume 716.273491
_symmetry_space_group_name_H-M "P -1"
_symmetry_group_IT_number 2
_symmetry_cell_setting 'triclinic'
loop_
_space_group_symop_operation_xyz
x,y,z
-x,-y,-z
loop_
_atom_site_type_symbol
_atom_site_label
_atom_site_fract_x
_atom_site_fract_y
_atom_site_fract_z
Si Si1 0.145804 0.726456 0.651129
Si Si2 0.583590 0.659443 0.328962
Si Si3 0.188943 0.370812 0.297561
Si Si4 0.650420 0.197131 0.987722
Si Si5 0.136293 0.203134 0.517266
Si Si6 0.825048 0.493078 0.277382
Si Si7 0.259936 0.003385 0.418844
Si Si8 0.274419 0.676258 0.098230
O O1 0.383582 0.659655 0.464005
O O2 0.027838 0.648563 0.621481
O O3 0.979628 0.801953 0.642577
O O4 0.193240 0.794863 0.868595
O O5 0.624801 0.764899 0.478953
O O6 0.818556 0.566987 0.238560
O O7 0.509853 0.646383 0.148963
O O8 0.297312 0.441147 0.484292
O O9 0.095075 0.426178 0.221969
O O10 0.376462 0.266303 0.113917
O O11 0.649608 0.086816 0.819783
O O12 0.754120 0.228948 0.874356
O O13 0.964651 0.292293 0.744417
O O14 0.199238 0.100135 0.454653
O O15 0.687680 0.416890 0.134264
O O16 0.500000 0.000000 0.500000
O O17 0.000000 0.000000 0.500000
#
# Coordination Sequence:
#
# PCOD8032577 Si02
#       8
#     2   2   2   2   2   2   2   2
#     4  11  23  46  73  97 150 185 243 301 369 426
#     4  11  24  45  66 104 147 192 234 310 357 441
#     4  11  25  43  67 105 145 189 246 304 348 449
#     4  12  25  47  75 105 140 190 245 304 374 435
#     4  11  25  49  70 106 146 183 242 310 369 432
#     4  11  23  43  66 102 144 196 241 291 369 431
#     4  12  29  51  83 114 147 194 246 310 384 449
#     4  11  25  40  71  99 146 186 244 297 364 438
#
# _framework density 22.337838000000001
#
# number of rings (size 3 to 8) (size 9 to 14) (size 15 to 20)
#    0.000    0.750    5.000    1.125    7.000    4.000 
#    0.000    2.500    0.000    0.000    0.000    0.000 
#    0.000    0.000    0.000    0.000    0.000    0.000 
#
# Total GULP energy -198266.217829 kJ/mol
# GULP energy per Si atom -12391.638614 kJ/mol
# Density = 2.228700 g / cm^3
# Si number density = 22.337838 Si / 1000 Ang^3
#
#
#
# Elastic Constant Matrix: (Units=GPa)
#
#
# Indices 1 2 3 4 5 6 
#
# 1 97.2103 44.6280 55.4881 -0.6452 17.7002 -15.4058
# 2 44.6280 150.3069 60.7876 11.6733 24.6953 -30.7621
# 3 55.4881 60.7876 147.6955 6.3117 25.3326 -18.8675
# 4 -0.6452 11.6733 6.3117 44.8288 -7.5876 8.2491
# 5 17.7002 24.6953 25.3326 -7.5876 41.9201 -14.0498
# 6 -15.4058 -30.7621 -18.8675 8.2491 -14.0498 39.5220
#
#
#
# Elastic Compliance Matrix: (Units=1/GPa)
#
#
# Indices 1 2 3 4 5 6 
#
# 1 0.014035 -0.002090 -0.004001 0.000803 -0.001748 0.001145
# 2 -0.002090 0.010004 -0.001974 -0.003879 -0.002529 0.005940
# 3 -0.004001 -0.001974 0.009786 -0.001592 -0.003077 0.000814
# 4 0.000803 -0.003879 -0.001592 0.025721 0.005225 -0.006977
# 5 -0.001748 -0.002529 -0.003077 0.005225 0.030813 0.005744
# 6 0.001145 0.005940 0.000814 -0.006977 0.005744 0.034260
#
#
# Mechanical properties :
#
#
# Convention : Reuss Voigt Hill
#
# Bulk Modulus (GPa) = 56.50972 79.66890 68.08931
# Shear Modulus (GPa) = 34.09519 40.87478 37.48499
#
# Velocity S-wave (km/s) = 3.91108 4.28231 4.10090
# Velocity P-wave (km/s) = 6.76373 7.75846 7.27811
#
# Compressibility (1/GPa) = 0.01769607
#
# Stress axis : x y z
#
# Youngs Moduli (GPa) = 71.24864 99.95547 102.18637
#
# Poissons Ratio (x) = 0.20890 0.40885
# Poissons Ratio (y) = 0.14890 0.20171
# Poissons Ratio (z) = 0.28507 0.19731
#
# Static dielectric constant tensor:
#      x y z
#    x 4.176830 -0.183980 0.223590 
#    y -0.183980 4.152700 -0.194920 
#    z 0.223590 -0.194920 3.966050 
# 
# 
# High freq. dielectric constant tensor:
#      x y z
#    x 1.876830 -0.012080 0.017170 
#    y -0.012080 1.891930 -0.010150 
#    z 0.017170 -0.010150 1.877410 
# 
# From -- ./inp_files/47804.got.cif
#   From: 2010.06.25/outbox.cif.g09.slc.cpg/sg2_24_cif.got.tgz:47804.got - 2010.06.27 13:26:56.
