data_PCOD8032479
_publ_section_title
;
Structure prediction by ZEFSAII (Michael W. Deem and Ramdas Pophale) SiO2 
 PCOD8032479
Probable space group: P -1
;
_chemical_formula_sum "Si O2"
_cell_formula_units_Z 16
_cell_length_a 12.050781
_cell_length_b 9.677761
_cell_length_c 8.479441
_cell_angle_alpha 104.614127
_cell_angle_beta 75.263306
_cell_angle_gamma 56.340903
_cell_volume 694.560894
_symmetry_space_group_name_H-M "P -1"
_symmetry_group_IT_number 2
_symmetry_cell_setting 'triclinic'
loop_
_space_group_symop_operation_xyz
x,y,z
-x,-y,-z
loop_
_atom_site_type_symbol
_atom_site_label
_atom_site_fract_x
_atom_site_fract_y
_atom_site_fract_z
Si Si1 0.395396 0.133031 0.429793
Si Si2 0.473267 0.811157 0.099658
Si Si3 0.193745 0.561902 0.109007
Si Si4 0.961509 0.545717 0.344187
Si Si5 0.522311 0.296716 0.263128
Si Si6 0.819962 0.122152 0.271682
Si Si7 0.696874 0.289561 0.680815
Si Si8 0.967079 0.256178 0.085061
O O1 0.216750 0.282362 0.579542
O O2 0.443944 0.251156 0.397622
O O3 0.500000 0.000000 0.500000
O O4 0.418429 0.008622 0.238024
O O5 0.416641 0.732109 0.211187
O O6 0.656520 0.656237 0.979483
O O7 0.408206 0.840926 0.955439
O O8 0.207531 0.711374 0.216259
O O9 0.051043 0.604942 0.256886
O O10 0.172435 0.592715 0.938038
O O11 0.020623 0.353290 0.183626
O O12 0.000000 0.500000 0.500000
O O13 0.653558 0.274308 0.299138
O O14 0.396083 0.513515 0.320943
O O15 0.808647 0.122298 0.465878
O O16 0.920572 0.176764 0.207307
O O17 0.894712 0.914587 0.122750
#
# Coordination Sequence:
#
# PCOD8032479 Si02
#       8
#     2   2   2   2   2   2   2   2
#     4  12  27  44  71 107 142 185 242 292 347 425
#     4  11  24  43  72 104 139 183 238 290 349 422
#     4  11  24  44  71  96 143 182 227 284 356 412
#     4  12  27  47  72 101 145 186 232 290 358 419
#     4  11  23  42  71  96 142 183 233 285 354 414
#     4  11  24  40  68  98 136 179 231 285 336 423
#     4  11  23  45  71 103 138 185 238 285 354 419
#     4  11  25  43  64 100 140 180 224 281 357 409
#
# _framework density 23.036138000000001
#
# number of rings (size 3 to 8) (size 9 to 14) (size 15 to 20)
#    0.000    0.750    0.000    8.625    7.000    0.500 
#    0.000    0.000    0.000    0.000    0.000    0.000 
#    0.000    0.000    0.000    0.000    0.000    0.000 
#
# Total GULP energy -198512.386200 kJ/mol
# GULP energy per Si atom -12407.024138 kJ/mol
# Density = 2.298371 g / cm^3
# Si number density = 23.036138 Si / 1000 Ang^3
#
#
#
# Elastic Constant Matrix: (Units=GPa)
#
#
# Indices 1 2 3 4 5 6 
#
# 1 91.9122 20.4518 31.4751 0.6647 -3.2092 6.0794
# 2 20.4518 64.0262 7.3722 -5.1918 -11.7203 4.8705
# 3 31.4751 7.3722 113.9286 5.5773 2.3395 3.8605
# 4 0.6647 -5.1918 5.5773 41.9038 4.6431 3.7534
# 5 -3.2092 -11.7203 2.3395 4.6431 51.4354 -5.7034
# 6 6.0794 4.8705 3.8605 3.7534 -5.7034 25.1267
#
#
#
# Elastic Compliance Matrix: (Units=1/GPa)
#
#
# Indices 1 2 3 4 5 6 
#
# 1 0.012932 -0.003625 -0.003269 -0.000037 -0.000082 -0.001937
# 2 -0.003625 0.017757 -0.000250 0.002098 0.003413 -0.002065
# 3 -0.003269 -0.000250 0.009789 -0.001149 -0.000674 -0.000646
# 4 -0.000037 0.002098 -0.001149 0.024921 -0.002215 -0.004447
# 5 -0.000082 0.003413 -0.000674 -0.002215 0.020949 0.004548
# 6 -0.001937 -0.002065 -0.000646 -0.004447 0.004548 0.042463
#
#
# Mechanical properties :
#
#
# Convention : Reuss Voigt Hill
#
# Bulk Modulus (GPa) = 38.18384 43.16279 40.67331
# Shear Modulus (GPa) = 32.93167 37.73103 35.33135
#
# Velocity S-wave (km/s) = 3.78506 4.05150 3.92054
# Velocity P-wave (km/s) = 5.97611 6.37682 6.17971
#
# Compressibility (1/GPa) = 0.02618909
#
# Stress axis : x y z
#
# Youngs Moduli (GPa) = 77.33055 56.31471 102.15823
#
# Poissons Ratio (x) = 0.20414 0.33395
# Poissons Ratio (y) = 0.28032 0.02558
# Poissons Ratio (z) = 0.25279 0.01410
#
# Static dielectric constant tensor:
#      x y z
#    x 4.237750 0.038720 0.240070 
#    y 0.038720 4.037750 0.024150 
#    z 0.240070 0.024150 4.497210 
# 
# 
# High freq. dielectric constant tensor:
#      x y z
#    x 1.917120 0.005730 0.007100 
#    y 0.005730 1.906740 -0.002810 
#    z 0.007100 -0.002810 1.926840 
# 
# From -- ./inp_files/244990.got.cif
#   From: 2010.06.25/outbox.cif.g09.slc.cpg/sg2_123_cif.got.tgz:244990.got - 2010.06.27 13:26:56.
