data_PCOD8032824
_publ_section_title
;
Structure prediction by ZEFSAII (Michael W. Deem and Ramdas Pophale) SiO2 
 PCOD8032824
Probable space group: P -1
;
_chemical_formula_sum "Si O2"
_cell_formula_units_Z 12
_cell_length_a 9.643848
_cell_length_b 5.730239
_cell_length_c 10.642765
_cell_angle_alpha 75.931338
_cell_angle_beta 116.919039
_cell_angle_gamma 95.961909
_cell_volume 508.666934
_symmetry_space_group_name_H-M "P -1"
_symmetry_group_IT_number 2
_symmetry_cell_setting 'triclinic'
loop_
_space_group_symop_operation_xyz
x,y,z
-x,-y,-z
loop_
_atom_site_type_symbol
_atom_site_label
_atom_site_fract_x
_atom_site_fract_y
_atom_site_fract_z
Si Si1 0.236131 0.341267 0.106632
Si Si2 0.937116 0.179979 0.097431
Si Si3 0.027787 0.243432 0.405364
Si Si4 0.252686 0.480481 0.633650
Si Si5 0.347281 0.157188 0.931434
Si Si6 0.488011 0.281179 0.421850
O O1 0.329308 0.324258 0.276282
O O2 0.090763 0.146112 0.073787
O O3 0.164082 0.605314 0.030047
O O4 0.356685 0.304968 0.045755
O O5 0.025421 0.233014 0.256858
O O6 0.820473 0.967274 0.108301
O O7 0.197116 0.337716 0.504888
O O8 0.895355 0.433401 0.361417
O O9 0.000000 0.000000 0.500000
O O10 0.352513 0.312068 0.788103
O O11 0.362310 0.697119 0.609650
O O12 0.500000 0.000000 0.000000
O O13 0.500000 0.500000 0.500000
O O14 0.500000 0.000000 0.500000
#
# Coordination Sequence:
#
# PCOD8032824 Si02
#       6
#     2   2   2   2   2   2
#     4  11  27  47  72 107 148 200 252 309 384 451
#     4  11  24  46  74 102 150 191 255 311 380 446
#     4  11  23  43  74 105 143 194 246 323 371 446
#     4  11  26  44  72 108 145 193 260 307 382 449
#     4  12  26  44  75 108 150 196 249 314 377 456
#     4  12  31  51  76 110 154 202 253 316 385 461
#
# _framework density 23.591073999999999
#
# number of rings (size 3 to 8) (size 9 to 14) (size 15 to 20)
#    0.000    0.667    3.333    2.500   11.667    1.333 
#    0.000    0.000    0.000    0.000    0.000    0.000 
#    0.000    0.000    0.000    0.000    0.000    0.000 
#
# Total GULP energy -148703.432638 kJ/mol
# GULP energy per Si atom -12391.952720 kJ/mol
# Density = 2.353738 g / cm^3
# Si number density = 23.591074 Si / 1000 Ang^3
#
#
#
# Elastic Constant Matrix: (Units=GPa)
#
#
# Indices 1 2 3 4 5 6 
#
# 1 113.7770 24.8357 38.4641 -2.6813 2.6624 10.1721
# 2 24.8357 82.2815 38.3416 -22.2171 10.5756 19.7152
# 3 38.4641 38.3416 171.7110 -21.5616 9.6917 1.3439
# 4 -2.6813 -22.2171 -21.5616 37.5699 4.8564 -1.6582
# 5 2.6624 10.5756 9.6917 4.8564 25.4453 -5.4915
# 6 10.1721 19.7152 1.3439 -1.6582 -5.4915 48.4459
#
#
#
# Elastic Compliance Matrix: (Units=1/GPa)
#
#
# Indices 1 2 3 4 5 6 
#
# 1 0.010035 -0.002563 -0.001987 -0.002108 0.000965 -0.000972
# 2 -0.002563 0.020655 -0.001774 0.012159 -0.011849 -0.008745
# 3 -0.001987 -0.001774 0.007195 0.003264 -0.002247 0.000797
# 4 -0.002108 0.012159 0.003264 0.037152 -0.014233 -0.004938
# 5 0.000965 -0.011849 -0.002247 -0.014233 0.049820 0.009842
# 6 -0.000972 -0.008745 0.000797 -0.004938 0.009842 0.025329
#
#
# Mechanical properties :
#
#
# Convention : Reuss Voigt Hill
#
# Bulk Modulus (GPa) = 39.62431 63.45025 51.53728
# Shear Modulus (GPa) = 29.19758 40.03408 34.61583
#
# Velocity S-wave (km/s) = 3.52185 4.12394 3.83473
# Velocity P-wave (km/s) = 5.77673 7.04486 6.44208
#
# Compressibility (1/GPa) = 0.02523703
#
# Stress axis : x y z
#
# Youngs Moduli (GPa) = 99.65107 48.41408 138.97802
#
# Poissons Ratio (x) = 0.12410 0.27615
# Poissons Ratio (y) = 0.25544 0.24653
# Poissons Ratio (z) = 0.19801 0.08588
#
# Static dielectric constant tensor:
#      x y z
#    x 4.506590 0.125020 -0.084780 
#    y 0.125020 4.327270 0.033000 
#    z -0.084780 0.033000 4.701660 
# 
# 
# High freq. dielectric constant tensor:
#      x y z
#    x 1.956290 0.013100 -0.000400 
#    y 0.013100 1.925140 0.003170 
#    z -0.000400 0.003170 1.955890 
# 
# From -- ./inp_files/28689.got.cif
#   From: 2010.06.25/outbox.cif.g09.slc.cpg/sg2_15_cif.got.tgz:28689.got - 2010.06.27 13:26:56.
