data_PCOD8032367
_publ_section_title
;
Structure prediction by ZEFSAII (Michael W. Deem and Ramdas Pophale) SiO2 
 PCOD8032367
Probable space group: P -1
;
_chemical_formula_sum "Si O2"
_cell_formula_units_Z 16
_cell_length_a 14.685613
_cell_length_b 11.058611
_cell_length_c 13.931228
_cell_angle_alpha 42.695953
_cell_angle_beta 149.074851
_cell_angle_gamma 139.373416
_cell_volume 732.902444
_symmetry_space_group_name_H-M "P -1"
_symmetry_group_IT_number 2
_symmetry_cell_setting 'triclinic'
loop_
_space_group_symop_operation_xyz
x,y,z
-x,-y,-z
loop_
_atom_site_type_symbol
_atom_site_label
_atom_site_fract_x
_atom_site_fract_y
_atom_site_fract_z
Si Si1 0.428199 0.885714 0.600422
Si Si2 0.873389 0.829669 0.340651
Si Si3 0.086609 0.228301 0.947260
Si Si4 0.421408 0.149220 0.797663
Si Si5 0.409753 0.414703 0.284080
Si Si6 0.274847 0.104815 0.484448
Si Si7 0.801102 0.421432 0.557721
Si Si8 0.336855 0.294644 0.968640
O O1 0.272975 0.677321 0.554600
O O2 0.500000 0.000000 0.500000
O O3 0.323013 0.990472 0.508764
O O4 0.600313 0.863972 0.828556
O O5 0.784522 0.888758 0.319779
O O6 0.927627 0.645301 0.523299
O O7 0.712341 0.769370 0.147812
O O8 0.052961 0.009234 0.364571
O O9 0.153563 0.300643 0.857276
O O10 0.930552 0.317888 0.786354
O O11 0.271178 0.302996 0.138445
O O12 0.000000 0.000000 0.000000
O O13 0.568662 0.364283 0.825854
O O14 0.400187 0.112690 0.686441
O O15 0.500000 0.000000 0.000000
O O16 0.319318 0.319639 0.359421
O O17 0.617227 0.398641 0.470379
O O18 0.500000 0.500000 0.000000
#
# Coordination Sequence:
#
# PCOD8032367 Si02
#       8
#     2   2   2   2   2   2   2   2
#     4  12  22  40  68 101 142 182 223 282 353 416
#     4  11  25  43  68 103 138 178 239 293 345 416
#     4  12  25  40  69 107 149 181 226 284 354 423
#     4  11  26  50  72  95 134 190 237 290 349 405
#     4  11  24  49  70 103 141 184 234 286 348 421
#     4  12  25  43  73  97 138 181 234 289 346 410
#     4  11  23  42  68 102 147 183 222 285 359 415
#     4  12  22  39  63  99 141 183 229 277 345 424
#
# _framework density 21.831007
#
# number of rings (size 3 to 8) (size 9 to 14) (size 15 to 20)
#    0.000    0.500    3.750    5.250    3.500    1.000 
#    2.250    0.625    0.000    0.000    0.000    0.000 
#    0.000    0.000    0.000    0.000    0.000    0.000 
#
# Total GULP energy -198451.231355 kJ/mol
# GULP energy per Si atom -12403.201960 kJ/mol
# Density = 2.178132 g / cm^3
# Si number density = 21.831007 Si / 1000 Ang^3
#
#
#
# Elastic Constant Matrix: (Units=GPa)
#
#
# Indices 1 2 3 4 5 6 
#
# 1 110.2719 53.0597 24.5704 -12.6737 -5.0889 9.4080
# 2 53.0597 137.5556 40.3945 -17.6602 10.8147 22.0496
# 3 24.5704 40.3945 108.3529 -22.5136 5.5995 9.9545
# 4 -12.6737 -17.6602 -22.5136 39.6237 -2.0106 -1.4043
# 5 -5.0889 10.8147 5.5995 -2.0106 33.8814 0.5282
# 6 9.4080 22.0496 9.9545 -1.4043 0.5282 35.4929
#
#
#
# Elastic Compliance Matrix: (Units=1/GPa)
#
#
# Indices 1 2 3 4 5 6 
#
# 1 0.011670 -0.004284 -0.000900 0.001476 0.003359 -0.000171
# 2 -0.004284 0.010834 -0.002028 0.001952 -0.003574 -0.004896
# 3 -0.000900 -0.002028 0.011465 0.005216 -0.001050 -0.001495
# 4 0.001476 0.001952 0.005216 0.029502 0.000517 -0.001907
# 5 0.003359 -0.003574 -0.001050 0.000517 0.031346 0.001179
# 6 -0.000171 -0.004896 -0.001495 -0.001907 0.001179 0.031588
#
#
# Mechanical properties :
#
#
# Convention : Reuss Voigt Hill
#
# Bulk Modulus (GPa) = 51.16576 65.80329 58.48452
# Shear Modulus (GPa) = 33.93442 37.67666 35.80554
#
# Velocity S-wave (km/s) = 3.94688 4.15882 4.05424
# Velocity P-wave (km/s) = 6.65271 7.29853 6.98309
#
# Compressibility (1/GPa) = 0.01954432
#
# Stress axis : x y z
#
# Youngs Moduli (GPa) = 85.69119 92.30077 87.22542
#
# Poissons Ratio (x) = 0.39544 0.07853
# Poissons Ratio (y) = 0.36712 0.17685
# Poissons Ratio (z) = 0.07715 0.18714
#
# Static dielectric constant tensor:
#      x y z
#    x 3.945150 0.100820 -0.119120 
#    y 0.100820 4.200170 -0.088350 
#    z -0.119120 -0.088350 3.938890 
# 
# 
# High freq. dielectric constant tensor:
#      x y z
#    x 1.858110 0.008590 -0.004810 
#    y 0.008590 1.870130 -0.005700 
#    z -0.004810 -0.005700 1.853060 
# 
# From -- ./inp_files/455430.got.cif
#   From: 2010.06.25/outbox.cif.g09.slc.cpg/sg2_228_cif.got.tgz:455430.got - 2010.06.27 13:26:56.
