data_PCOD8032075
_publ_section_title
;
Structure prediction by ZEFSAII (Michael W. Deem and Ramdas Pophale) SiO2 
 PCOD8032075
Probable space group: P -1
;
_chemical_formula_sum "Si O2"
_cell_formula_units_Z 14
_cell_length_a 23.546962
_cell_length_b 5.158336
_cell_length_c 18.654805
_cell_angle_alpha 74.666471
_cell_angle_beta 20.033547
_cell_angle_gamma 66.152350
_cell_volume 660.037603
_symmetry_space_group_name_H-M "P -1"
_symmetry_group_IT_number 2
_symmetry_cell_setting 'triclinic'
loop_
_space_group_symop_operation_xyz
x,y,z
-x,-y,-z
loop_
_atom_site_type_symbol
_atom_site_label
_atom_site_fract_x
_atom_site_fract_y
_atom_site_fract_z
Si Si1 0.993226 0.303628 0.956212
Si Si2 0.472616 0.585179 0.244212
Si Si3 0.721229 0.153524 0.878329
Si Si4 0.596102 0.936155 0.813688
Si Si5 0.926404 0.408722 0.523597
Si Si6 0.582495 0.725513 0.367021
Si Si7 0.616073 0.932472 0.562904
O O1 0.807031 0.521996 0.116874
O O2 0.000000 0.500000 0.000000
O O3 0.167953 0.184475 0.704039
O O4 0.000000 0.000000 0.000000
O O5 0.382673 0.381885 0.395342
O O6 0.378958 0.781755 0.268414
O O7 0.460844 0.822707 0.300441
O O8 0.682892 0.353727 0.982100
O O9 0.785906 0.279116 0.724317
O O10 0.530667 0.140092 0.085223
O O11 0.893387 0.826512 0.717565
O O12 0.810059 0.676178 0.586425
O O13 0.500000 0.000000 0.000000
O O14 0.000000 0.500000 0.500000
O O15 0.500000 0.500000 0.500000
O O16 0.500000 0.000000 0.500000
O O17 0.523540 0.885892 0.348756
#
# Coordination Sequence:
#
# PCOD8032075 Si02
#       7
#     2   2   2   2   2   2   2
#     4  12  23  45  77 109 140 179 238 288 334 425
#     4  12  26  46  70  98 152 191 226 299 367 409
#     4  11  23  43  68 101 135 181 237 296 361 406
#     4  12  23  44  73  97 132 192 246 292 349 422
#     4  11  23  40  70 105 128 174 254 308 342 411
#     4  12  23  45  79 109 133 186 232 284 343 420
#     4  12  26  46  70 108 150 181 231 292 360 419
#
# _framework density 21.210915
#
# number of rings (size 3 to 8) (size 9 to 14) (size 15 to 20)
#    0.000    0.286    7.143    2.143    0.000    0.000 
#    2.571    2.857    0.000    0.000    0.000    0.000 
#    0.000    0.000    0.000    0.000    0.000    0.000 
#
# Total GULP energy -173504.171832 kJ/mol
# GULP energy per Si atom -12393.155131 kJ/mol
# Density = 2.116264 g / cm^3
# Si number density = 21.210915 Si / 1000 Ang^3
#
#
#
# Elastic Constant Matrix: (Units=GPa)
#
#
# Indices 1 2 3 4 5 6 
#
# 1 104.8387 69.1347 73.6896 11.9659 8.7092 -9.0319
# 2 69.1347 181.8344 56.6841 5.6045 -6.9315 -19.7321
# 3 73.6896 56.6841 121.3294 37.1544 -12.9977 -22.7393
# 4 11.9659 5.6045 37.1544 48.2137 1.2137 3.4505
# 5 8.7092 -6.9315 -12.9977 1.2137 42.7548 8.6069
# 6 -9.0319 -19.7321 -22.7393 3.4505 8.6069 44.4624
#
#
#
# Elastic Compliance Matrix: (Units=1/GPa)
#
#
# Indices 1 2 3 4 5 6 
#
# 1 0.024186 -0.005118 -0.016704 0.008047 -0.010145 -0.004562
# 2 -0.005118 0.007721 0.000038 0.000151 0.001893 0.002028
# 3 -0.016704 0.000038 0.026516 -0.017231 0.010030 0.009580
# 4 0.008047 0.000151 -0.017231 0.032764 -0.006076 -0.008477
# 5 -0.010145 0.001893 0.010030 -0.006076 0.029242 -0.001280
# 6 -0.004562 0.002028 0.009580 -0.008477 -0.001280 0.028269
#
#
# Mechanical properties :
#
#
# Convention : Reuss Voigt Hill
#
# Bulk Modulus (GPa) = 67.31831 89.66881 78.49356
# Shear Modulus (GPa) = 25.35255 40.98580 33.16918
#
# Velocity S-wave (km/s) = 3.46100 4.40056 3.95875
# Velocity P-wave (km/s) = 6.91215 8.25751 7.61460
#
# Compressibility (1/GPa) = 0.01485480
#
# Stress axis : x y z
#
# Youngs Moduli (GPa) = 41.34630 129.51283 37.71312
#
# Poissons Ratio (x) = 0.66287 0.62996
# Poissons Ratio (y) = 0.21162 -0.00144
# Poissons Ratio (z) = 0.69065 -0.00494
#
# Static dielectric constant tensor:
#      x y z
#    x 3.424720 0.148810 0.595450 
#    y 0.148810 4.369320 -0.237250 
#    z 0.595450 -0.237250 3.756930 
# 
# 
# High freq. dielectric constant tensor:
#      x y z
#    x 1.817180 0.005440 0.007260 
#    y 0.005440 1.861710 0.013430 
#    z 0.007260 0.013430 1.836330 
# 
# From -- ./inp_files/578627.got.cif
#   From: 2010.06.25/outbox.cif.g09.slc.cpg/sg2_290_cif.got.tgz:578627.got - 2010.06.27 13:26:56.
