data_PCOD8032458
_publ_section_title
;
Structure prediction by ZEFSAII (Michael W. Deem and Ramdas Pophale) SiO2 
 PCOD8032458
Probable space group: P -1
;
_chemical_formula_sum "Si O2"
_cell_formula_units_Z 16
_cell_length_a 11.991316
_cell_length_b 11.239773
_cell_length_c 8.829278
_cell_angle_alpha 126.984582
_cell_angle_beta 122.347217
_cell_angle_gamma 53.120478
_cell_volume 731.624946
_symmetry_space_group_name_H-M "P -1"
_symmetry_group_IT_number 2
_symmetry_cell_setting 'triclinic'
loop_
_space_group_symop_operation_xyz
x,y,z
-x,-y,-z
loop_
_atom_site_type_symbol
_atom_site_label
_atom_site_fract_x
_atom_site_fract_y
_atom_site_fract_z
Si Si1 0.170248 0.781619 0.850797
Si Si2 0.134809 0.525904 0.062547
Si Si3 0.138829 0.002053 0.253367
Si Si4 0.855166 0.143006 0.563943
Si Si5 0.663744 0.106896 0.155994
Si Si6 0.351896 0.212488 0.134657
Si Si7 0.846810 0.531673 0.328617
Si Si8 0.644603 0.862186 0.573286
O O1 0.301104 0.828342 0.927800
O O2 0.217649 0.588633 0.737502
O O3 0.122448 0.854024 0.039377
O O4 0.020387 0.863692 0.709988
O O5 0.119706 0.704131 0.236291
O O6 0.264110 0.395570 0.155240
O O7 0.140178 0.497720 0.864356
O O8 0.000000 0.500000 0.000000
O O9 0.214845 0.927863 0.409928
O O10 0.232413 0.069348 0.270414
O O11 0.733445 0.193415 0.386882
O O12 0.000000 0.000000 0.500000
O O13 0.495220 0.165118 0.103135
O O14 0.728199 0.907735 0.055689
O O15 0.384862 0.195479 0.326703
O O16 0.718118 0.708641 0.397359
O O17 0.000000 0.500000 0.500000
O O18 0.500000 0.000000 0.500000
#
# Coordination Sequence:
#
# PCOD8032458 Si02
#       8
#     2   2   2   2   2   2   2   2
#     4  11  23  44  71 101 138 187 238 304 352 428
#     4  12  29  45  71 109 150 190 245 304 368 439
#     4  11  23  42  71 101 141 182 244 294 360 424
#     4  12  25  43  70 107 144 187 241 298 363 435
#     4  11  25  45  75  98 144 193 238 295 374 425
#     4  11  27  49  71 105 150 190 243 301 368 446
#     4  12  27  47  75 109 145 192 248 306 364 432
#     4  12  27  47  76 106 147 194 243 299 369 437
#
# _framework density 21.869126000000001
#
# number of rings (size 3 to 8) (size 9 to 14) (size 15 to 20)
#    0.000    0.500    5.000    2.250   10.500    0.500 
#    2.250    1.250    0.000    0.000    0.000    0.000 
#    0.000    0.000    0.000    0.000    0.000    0.000 
#
# Total GULP energy -198226.902990 kJ/mol
# GULP energy per Si atom -12389.181437 kJ/mol
# Density = 2.181935 g / cm^3
# Si number density = 21.869126 Si / 1000 Ang^3
#
#
#
# Elastic Constant Matrix: (Units=GPa)
#
#
# Indices 1 2 3 4 5 6 
#
# 1 132.7829 52.1689 35.4882 8.2374 3.1169 12.7459
# 2 52.1689 136.7053 63.6617 13.3518 -9.0833 2.0990
# 3 35.4882 63.6617 132.1772 14.5544 -8.4481 5.4365
# 4 8.2374 13.3518 14.5544 41.1373 6.6508 -1.7097
# 5 3.1169 -9.0833 -8.4481 6.6508 32.8905 -1.0128
# 6 12.7459 2.0990 5.4365 -1.7097 -1.0128 32.8004
#
#
#
# Elastic Compliance Matrix: (Units=1/GPa)
#
#
# Indices 1 2 3 4 5 6 
#
# 1 0.009441 -0.003218 -0.000942 -0.000319 -0.002065 -0.003387
# 2 -0.003218 0.010734 -0.003988 -0.001806 0.002648 0.001212
# 3 -0.000942 -0.003988 0.010195 -0.002507 0.002079 -0.001135
# 4 -0.000319 -0.001806 -0.002507 0.026976 -0.006510 0.001860
# 5 -0.002065 0.002648 0.002079 -0.006510 0.033211 0.000975
# 6 -0.003387 0.001212 -0.001135 0.001860 0.000975 0.032041
#
#
# Mechanical properties :
#
#
# Convention : Reuss Voigt Hill
#
# Bulk Modulus (GPa) = 71.05516 78.25587 74.65551
# Shear Modulus (GPa) = 34.82283 38.05540 36.43912
#
# Velocity S-wave (km/s) = 3.99473 4.17603 4.08638
# Velocity P-wave (km/s) = 7.33749 7.68854 7.51507
#
# Compressibility (1/GPa) = 0.01407357
#
# Stress axis : x y z
#
# Youngs Moduli (GPa) = 105.92547 93.16507 98.08938
#
# Poissons Ratio (x) = 0.29979 0.09244
# Poissons Ratio (y) = 0.34085 0.39113
# Poissons Ratio (z) = 0.09982 0.37150
#
# Static dielectric constant tensor:
#      x y z
#    x 4.100700 0.168470 -0.076070 
#    y 0.168470 3.507220 -0.102930 
#    z -0.076070 -0.102930 4.048880 
# 
# 
# High freq. dielectric constant tensor:
#      x y z
#    x 1.869230 0.015230 -0.010270 
#    y 0.015230 1.854300 0.007640 
#    z -0.010270 0.007640 1.870060 
# 
# From -- ./inp_files/263569.got.cif
#   From: 2010.06.25/outbox.cif.g09.slc.cpg/sg2_132_cif.got.tgz:263569.got - 2010.06.27 13:26:56.
