data_PCOD8032557
_publ_section_title
;
Structure prediction by ZEFSAII (Michael W. Deem and Ramdas Pophale) SiO2 
 PCOD8032557
Probable space group: P -1
;
_chemical_formula_sum "Si O2"
_cell_formula_units_Z 10
_cell_length_a 6.721111
_cell_length_b 11.650462
_cell_length_c 11.262399
_cell_angle_alpha 45.148042
_cell_angle_beta 115.499589
_cell_angle_gamma 86.724832
_cell_volume 466.063198
_symmetry_space_group_name_H-M "P -1"
_symmetry_group_IT_number 2
_symmetry_cell_setting 'triclinic'
loop_
_space_group_symop_operation_xyz
x,y,z
-x,-y,-z
loop_
_atom_site_type_symbol
_atom_site_label
_atom_site_fract_x
_atom_site_fract_y
_atom_site_fract_z
Si Si1 0.230734 0.172376 0.239801
Si Si2 0.963362 0.703838 0.467274
Si Si3 0.206615 0.554136 0.891034
Si Si4 0.041945 0.952038 0.905413
Si Si5 0.581608 0.609458 0.354295
O O1 0.184599 0.072066 0.188778
O O2 0.966581 0.281409 0.174067
O O3 0.500000 0.000000 0.500000
O O4 0.254830 0.344308 0.074578
O O5 0.042231 0.661305 0.653906
O O6 0.188439 0.529037 0.574912
O O7 0.681020 0.726353 0.367011
O O8 0.941286 0.895224 0.279492
O O9 0.500000 0.500000 0.000000
O O10 0.326386 0.751926 0.105335
O O11 0.000000 0.000000 0.000000
O O12 0.500000 0.500000 0.500000
#
# Coordination Sequence:
#
# PCOD8032557 Si02
#       5
#     2   2   2   2   2
#     4  11  27  46  71 101 140 182 229 288 341 407
#     4  11  25  41  70  99 132 184 225 278 340 404
#     4  11  25  47  71  98 138 183 235 280 344 409
#     4  12  25  43  69 102 138 177 225 282 340 402
#     4  11  23  43  64  98 140 174 223 278 337 403
#
# _framework density 21.456318
#
# number of rings (size 3 to 8) (size 9 to 14) (size 15 to 20)
#    0.000    0.800    2.000    4.200    5.600    8.000 
#    0.000    0.000    0.000    0.000    0.000    0.000 
#    0.000    0.000    0.000    0.000    0.000    0.000 
#
# Total GULP energy -123980.422538 kJ/mol
# GULP energy per Si atom -12398.042254 kJ/mol
# Density = 2.140748 g / cm^3
# Si number density = 21.456318 Si / 1000 Ang^3
#
#
#
# Elastic Constant Matrix: (Units=GPa)
#
#
# Indices 1 2 3 4 5 6 
#
# 1 120.7378 54.1431 47.4583 2.4723 1.2656 11.5557
# 2 54.1431 131.1402 59.0741 12.9018 -3.0558 17.5995
# 3 47.4583 59.0741 176.2543 0.6512 -4.2913 13.7521
# 4 2.4723 12.9018 0.6512 43.2060 4.2423 0.1053
# 5 1.2656 -3.0558 -4.2913 4.2423 42.8316 8.0109
# 6 11.5557 17.5995 13.7521 0.1053 8.0109 31.5981
#
#
#
# Elastic Compliance Matrix: (Units=1/GPa)
#
#
# Indices 1 2 3 4 5 6 
#
# 1 0.010613 -0.003595 -0.001588 0.000550 -0.000589 -0.001040
# 2 -0.003595 0.011111 -0.002366 -0.003241 0.001784 -0.004286
# 3 -0.001588 -0.002366 0.007016 0.000619 0.000773 -0.001353
# 4 0.000550 -0.003241 0.000619 0.024359 -0.002974 0.002007
# 5 -0.000589 0.001784 0.000773 -0.002974 0.025269 -0.007511
# 6 -0.001040 -0.004286 -0.001353 0.002007 -0.007511 0.036901
#
#
# Mechanical properties :
#
#
# Convention : Reuss Voigt Hill
#
# Bulk Modulus (GPa) = 73.30022 83.27592 78.28807
# Shear Modulus (GPa) = 37.06024 41.35760 39.20892
#
# Velocity S-wave (km/s) = 4.16052 4.39512 4.27943
# Velocity P-wave (km/s) = 7.57077 8.04066 7.80925
#
# Compressibility (1/GPa) = 0.01364252
#
# Stress axis : x y z
#
# Youngs Moduli (GPa) = 94.22330 90.00006 142.52278
#
# Poissons Ratio (x) = 0.32352 0.22634
# Poissons Ratio (y) = 0.33870 0.33726
# Poissons Ratio (z) = 0.14963 0.21297
#
# Static dielectric constant tensor:
#      x y z
#    x 4.031620 0.112350 0.176230 
#    y 0.112350 4.150670 0.063470 
#    z 0.176230 0.063470 4.267810 
# 
# 
# High freq. dielectric constant tensor:
#      x y z
#    x 1.856500 0.006810 0.002110 
#    y 0.006810 1.849450 0.000030 
#    z 0.002110 0.000030 1.864470 
# 
# From -- ./inp_files/1760.got.cif
#   From: 2010.06.25/outbox.cif.g09.slc.cpg/sg2_1_cif.got.tgz:1760.got - 2010.06.27 13:26:56.
