data_PCOD8032543
_publ_section_title
;
Structure prediction by ZEFSAII (Michael W. Deem and Ramdas Pophale) SiO2 
 PCOD8032543
Probable space group: P -1
;
_chemical_formula_sum "Si O2"
_cell_formula_units_Z 16
_cell_length_a 11.605733
_cell_length_b 5.719650
_cell_length_c 11.672680
_cell_angle_alpha 65.714969
_cell_angle_beta 72.926561
_cell_angle_gamma 84.064887
_cell_volume 675.015986
_symmetry_space_group_name_H-M "P -1"
_symmetry_group_IT_number 2
_symmetry_cell_setting 'triclinic'
loop_
_space_group_symop_operation_xyz
x,y,z
-x,-y,-z
loop_
_atom_site_type_symbol
_atom_site_label
_atom_site_fract_x
_atom_site_fract_y
_atom_site_fract_z
Si Si1 0.004472 0.040724 0.625746
Si Si2 0.240992 0.332513 0.786787
Si Si3 0.618465 0.338031 0.176309
Si Si4 0.234418 0.792911 0.273971
Si Si5 0.651838 0.770899 0.678858
Si Si6 0.216102 0.842326 0.022500
Si Si7 0.995450 0.536719 0.858129
Si Si8 0.721382 0.916419 0.391847
O O1 0.951953 0.805735 0.766707
O O2 0.139261 0.111055 0.608881
O O3 0.000000 0.000000 0.500000
O O4 0.906961 0.257299 0.642348
O O5 0.347943 0.382512 0.838565
O O6 0.302557 0.308841 0.649130
O O7 0.130820 0.524386 0.771608
O O8 0.178563 0.067677 0.902578
O O9 0.478227 0.280145 0.217205
O O10 0.686889 0.177700 0.287309
O O11 0.677421 0.313819 0.038973
O O12 0.284635 0.503276 0.303788
O O13 0.260616 0.932485 0.116427
O O14 0.286440 0.998921 0.311161
O O15 0.636186 0.882866 0.533203
O O16 0.097917 0.672940 0.119689
O O17 0.000000 0.500000 0.000000
#
# Coordination Sequence:
#
# PCOD8032543 Si02
#       8
#     2   2   2   2   2   2   2   2
#     4  12  25  46  78 112 159 193 253 318 396 463
#     4  11  23  42  75 106 147 192 256 314 384 444
#     4  11  26  49  74 110 144 201 258 318 368 443
#     4  12  29  50  74 112 152 207 244 310 385 460
#     4  12  30  49  77 107 157 205 259 303 376 461
#     4  11  25  44  74 108 150 196 256 313 385 453
#     4  12  21  43  76 112 153 196 250 321 386 461
#     4  11  25  47  74 110 144 199 249 320 379 452
#
# _framework density 23.703140999999999
#
# number of rings (size 3 to 8) (size 9 to 14) (size 15 to 20)
#    0.000    0.500    3.750    3.750    8.750    2.000 
#    0.000    0.000    0.000    0.000    0.000    0.000 
#    0.000    0.000    0.000    0.000    0.000    0.000 
#
# Total GULP energy -198221.550201 kJ/mol
# GULP energy per Si atom -12388.846888 kJ/mol
# Density = 2.364919 g / cm^3
# Si number density = 23.703141 Si / 1000 Ang^3
#
#
#
# Elastic Constant Matrix: (Units=GPa)
#
#
# Indices 1 2 3 4 5 6 
#
# 1 64.1209 23.4776 9.2333 2.8608 -10.0334 -6.7645
# 2 23.4776 104.9785 24.9891 22.1754 6.8566 3.8741
# 3 9.2333 24.9891 122.8510 32.6494 22.0410 7.9199
# 4 2.8608 22.1754 32.6494 42.0080 4.2389 0.9266
# 5 -10.0334 6.8566 22.0410 4.2389 34.3210 -4.0760
# 6 -6.7645 3.8741 7.9199 0.9266 -4.0760 21.8397
#
#
#
# Elastic Compliance Matrix: (Units=1/GPa)
#
#
# Indices 1 2 3 4 5 6 
#
# 1 0.020788 -0.005482 -0.003870 0.003189 0.010528 0.010644
# 2 -0.005482 0.012343 0.000569 -0.006055 -0.004235 -0.004627
# 3 -0.003870 0.000569 0.012807 -0.008898 -0.009236 -0.007290
# 4 0.003189 -0.006055 -0.008898 0.033160 0.004317 0.004687
# 5 0.010528 -0.004235 -0.009236 0.004317 0.040203 0.014682
# 6 0.010644 -0.004627 -0.007290 0.004687 0.014682 0.055091
#
#
# Mechanical properties :
#
#
# Convention : Reuss Voigt Hill
#
# Bulk Modulus (GPa) = 35.24644 45.26117 40.25381
# Shear Modulus (GPa) = 24.82446 35.25042 30.03744
#
# Velocity S-wave (km/s) = 3.23972 3.86056 3.56369
# Velocity P-wave (km/s) = 5.37556 6.24567 5.82688
#
# Compressibility (1/GPa) = 0.02837166
#
# Stress axis : x y z
#
# Youngs Moduli (GPa) = 48.10479 81.01913 78.08327
#
# Poissons Ratio (x) = 0.44414 0.30216
# Poissons Ratio (y) = 0.26371 -0.04440
# Poissons Ratio (z) = 0.18615 -0.04607
#
# Static dielectric constant tensor:
#      x y z
#    x 4.243020 -0.045460 0.164530 
#    y -0.045460 4.623750 0.275190 
#    z 0.164530 0.275190 4.696520 
# 
# 
# High freq. dielectric constant tensor:
#      x y z
#    x 1.929530 0.000960 0.004720 
#    y 0.000960 1.944010 0.013900 
#    z 0.004720 0.013900 1.954090 
# 
# From -- ./inp_files/70762.got.cif
#   From: 2010.06.25/outbox.cif.g09.slc.cpg/sg2_36_cif.got.tgz:70762.got - 2010.06.27 13:26:56.
