data_PCOD8032515
_publ_section_title
;
Structure prediction by ZEFSAII (Michael W. Deem and Ramdas Pophale) SiO2 
 PCOD8032515
Probable space group: P -1
;
_chemical_formula_sum "Si O2"
_cell_formula_units_Z 16
_cell_length_a 9.412576
_cell_length_b 13.740662
_cell_length_c 8.348811
_cell_angle_alpha 42.137449
_cell_angle_beta 107.658462
_cell_angle_gamma 93.902249
_cell_volume 669.202497
_symmetry_space_group_name_H-M "P -1"
_symmetry_group_IT_number 2
_symmetry_cell_setting 'triclinic'
loop_
_space_group_symop_operation_xyz
x,y,z
-x,-y,-z
loop_
_atom_site_type_symbol
_atom_site_label
_atom_site_fract_x
_atom_site_fract_y
_atom_site_fract_z
Si Si1 0.757740 0.132214 0.850248
Si Si2 0.562040 0.733244 0.596355
Si Si3 0.557171 0.707155 0.999015
Si Si4 0.284750 0.570626 0.142726
Si Si5 0.964483 0.829256 0.257653
Si Si6 0.648596 0.034352 0.264451
Si Si7 0.155601 0.432230 0.549903
Si Si8 0.888771 0.123879 0.417423
O O1 0.600005 0.225331 0.602691
O O2 0.895314 0.219066 0.766925
O O3 0.726561 0.103840 0.059993
O O4 0.830203 0.972973 0.981513
O O5 0.526020 0.712537 0.793444
O O6 0.678925 0.582550 0.759653
O O7 0.652614 0.862880 0.443340
O O8 0.525382 0.870200 0.876847
O O9 0.443148 0.620545 0.151070
O O10 0.731421 0.627344 0.191602
O O11 0.227101 0.542863 0.333699
O O12 0.148227 0.701431 0.862418
O O13 0.878628 0.698134 0.416355
O O14 0.040948 0.878880 0.381285
O O15 0.732333 0.065912 0.420012
O O16 0.000000 0.500000 0.500000
O O17 0.000000 0.000000 0.500000
#
# Coordination Sequence:
#
# PCOD8032515 Si02
#       8
#     2   2   2   2   2   2   2   2
#     4  11  23  42  73 106 150 196 240 308 369 441
#     4  12  25  45  78 108 148 191 262 309 367 433
#     4  11  26  48  73 106 152 195 253 306 375 443
#     4  11  27  47  78 105 147 200 247 310 373 444
#     4  11  26  45  70 107 155 195 246 302 380 438
#     4  11  23  44  76 107 145 198 254 307 362 442
#     4  12  29  46  73 110 151 195 249 308 373 447
#     4  11  25  48  73 106 148 195 244 300 377 443
#
# _framework density 23.909056
#
# number of rings (size 3 to 8) (size 9 to 14) (size 15 to 20)
#    0.000    0.750    1.250    5.250    7.000    3.500 
#    0.000    0.000    0.000    0.000    0.000    0.000 
#    0.000    0.000    0.000    0.000    0.000    0.000 
#
# Total GULP energy -198270.924686 kJ/mol
# GULP energy per Si atom -12391.932793 kJ/mol
# Density = 2.385464 g / cm^3
# Si number density = 23.909056 Si / 1000 Ang^3
#
#
#
# Elastic Constant Matrix: (Units=GPa)
#
#
# Indices 1 2 3 4 5 6 
#
# 1 117.2570 37.7622 63.9632 4.1987 3.5177 -16.1604
# 2 37.7622 96.6043 52.0842 -7.8135 4.5226 -10.4026
# 3 63.9632 52.0842 122.2502 -14.2110 15.2370 -5.8081
# 4 4.1987 -7.8135 -14.2110 39.0327 -5.6447 4.8369
# 5 3.5177 4.5226 15.2370 -5.6447 37.7790 -7.0360
# 6 -16.1604 -10.4026 -5.8081 4.8369 -7.0360 45.8799
#
#
#
# Elastic Compliance Matrix: (Units=1/GPa)
#
#
# Indices 1 2 3 4 5 6 
#
# 1 0.013532 -0.001511 -0.006995 -0.004569 0.001861 0.004305
# 2 -0.001511 0.013920 -0.005056 0.001007 0.001043 0.002038
# 3 -0.006995 -0.005056 0.014998 0.004898 -0.004607 -0.002934
# 4 -0.004569 0.001007 0.004898 0.028816 0.001984 -0.003495
# 5 0.001861 0.001043 -0.004607 0.001984 0.029178 0.004574
# 6 0.004305 0.002038 -0.002934 -0.003495 0.004574 0.024473
#
#
# Mechanical properties :
#
#
# Convention : Reuss Voigt Hill
#
# Bulk Modulus (GPa) = 65.25006 71.52563 68.38784
# Shear Modulus (GPa) = 31.81684 36.69181 34.25433
#
# Velocity S-wave (km/s) = 3.65189 3.92170 3.78920
# Velocity P-wave (km/s) = 6.71803 7.10542 6.91444
#
# Compressibility (1/GPa) = 0.01532566
#
# Stress axis : x y z
#
# Youngs Moduli (GPa) = 73.90076 71.83748 66.67578
#
# Poissons Ratio (x) = 0.10858 0.46637
# Poissons Ratio (y) = 0.11169 0.33712
# Poissons Ratio (z) = 0.51691 0.36322
#
# Static dielectric constant tensor:
#      x y z
#    x 4.765470 0.136010 0.305910 
#    y 0.136010 4.701520 -0.165410 
#    z 0.305910 -0.165410 4.825360 
# 
# 
# High freq. dielectric constant tensor:
#      x y z
#    x 1.961120 -0.010760 0.009450 
#    y -0.010760 1.950400 -0.013020 
#    z 0.009450 -0.013020 1.952600 
# 
# From -- ./inp_files/205391.got.cif
#   From: 2010.06.25/outbox.cif.g09.slc.cpg/sg2_103_cif.got.tgz:205391.got - 2010.06.27 13:26:56.
