data_PCOD8032339
_publ_section_title
;
Structure prediction by ZEFSAII (Michael W. Deem and Ramdas Pophale) SiO2 
 PCOD8032339
Probable space group: P -1
;
_chemical_formula_sum "Si O2"
_cell_formula_units_Z 16
_cell_length_a 10.951779
_cell_length_b 14.336047
_cell_length_c 10.102491
_cell_angle_alpha 68.890493
_cell_angle_beta 43.508833
_cell_angle_gamma 101.785670
_cell_volume 701.955516
_symmetry_space_group_name_H-M "P -1"
_symmetry_group_IT_number 2
_symmetry_cell_setting 'triclinic'
loop_
_space_group_symop_operation_xyz
x,y,z
-x,-y,-z
loop_
_atom_site_type_symbol
_atom_site_label
_atom_site_fract_x
_atom_site_fract_y
_atom_site_fract_z
Si Si1 0.508073 0.609766 0.365336
Si Si2 0.251881 0.023639 0.422063
Si Si3 0.963227 0.890566 0.990846
Si Si4 0.900476 0.819003 0.579113
Si Si5 0.944727 0.445907 0.350241
Si Si6 0.675614 0.557701 0.024351
Si Si7 0.112057 0.264765 0.631716
Si Si8 0.780470 0.301249 0.818237
O O1 0.500000 0.500000 0.500000
O O2 0.222826 0.540972 0.606247
O O3 0.665588 0.645636 0.091854
O O4 0.670317 0.762209 0.234391
O O5 0.240322 0.132989 0.320966
O O6 0.116370 0.897283 0.484623
O O7 0.557848 0.132096 0.122579
O O8 0.156270 0.968322 0.675119
O O9 0.005357 0.812540 0.093663
O O10 0.000000 0.000000 0.000000
O O11 0.010059 0.858500 0.322271
O O12 0.714893 0.644196 0.819169
O O13 0.754123 0.320446 0.674778
O O14 0.191595 0.592595 0.160163
O O15 0.075389 0.414537 0.169616
O O16 0.423258 0.385744 0.322660
O O17 0.047652 0.352644 0.605815
#
# Coordination Sequence:
#
# PCOD8032339 Si02
#       8
#     2   2   2   2   2   2   2   2
#     4  12  25  49  73 103 148 191 247 294 354 434
#     4  11  25  42  70  97 146 192 235 291 364 436
#     4  12  26  47  69 102 145 198 233 290 369 433
#     4  11  23  42  67 103 137 189 236 292 361 418
#     4  11  25  42  73 109 136 182 244 306 354 420
#     4  12  23  44  76 103 139 186 242 302 357 413
#     4  12  24  44  72 102 143 189 234 300 358 421
#     4  11  24  42  66 108 141 176 246 300 352 427
#
# _framework density 22.793468000000001
#
# number of rings (size 3 to 8) (size 9 to 14) (size 15 to 20)
#    0.000    0.500    6.250    1.875    3.500    1.500 
#    2.250    1.250    0.000    0.000    0.000    0.000 
#    0.000    0.000    0.000    0.000    0.000    0.000 
#
# Total GULP energy -198221.000664 kJ/mol
# GULP energy per Si atom -12388.812541 kJ/mol
# Density = 2.274159 g / cm^3
# Si number density = 22.793468 Si / 1000 Ang^3
#
#
#
# Elastic Constant Matrix: (Units=GPa)
#
#
# Indices 1 2 3 4 5 6 
#
# 1 109.6297 37.1572 53.0749 5.6706 10.0783 -3.7010
# 2 37.1572 103.2013 33.0015 2.2889 -8.3062 12.3293
# 3 53.0749 33.0015 130.0530 -7.3219 8.3016 7.0887
# 4 5.6706 2.2889 -7.3219 33.7906 -3.0789 -2.5632
# 5 10.0783 -8.3062 8.3016 -3.0789 28.1869 2.1033
# 6 -3.7010 12.3293 7.0887 -2.5632 2.1033 52.7630
#
#
#
# Elastic Compliance Matrix: (Units=1/GPa)
#
#
# Indices 1 2 3 4 5 6 
#
# 1 0.013359 -0.004050 -0.004410 -0.003206 -0.005210 0.002528
# 2 -0.004050 0.012574 -0.001752 -0.000261 0.005882 -0.003234
# 3 -0.004410 -0.001752 0.010253 0.002856 -0.001567 -0.001076
# 4 -0.003206 -0.000261 0.002856 0.031156 0.003570 0.000824
# 5 -0.005210 0.005882 -0.001567 0.003570 0.040146 -0.002956
# 6 0.002528 -0.003234 -0.001076 0.000824 -0.002956 0.020188
#
#
# Mechanical properties :
#
#
# Convention : Reuss Voigt Hill
#
# Bulk Modulus (GPa) = 63.44145 65.48349 64.46247
# Shear Modulus (GPa) = 32.60425 37.59145 35.09785
#
# Velocity S-wave (km/s) = 3.78619 4.06546 3.92831
# Velocity P-wave (km/s) = 6.85619 7.12943 6.99414
#
# Compressibility (1/GPa) = 0.01576256
#
# Stress axis : x y z
#
# Youngs Moduli (GPa) = 74.85311 79.53092 97.53353
#
# Poissons Ratio (x) = 0.32210 0.43013
# Poissons Ratio (y) = 0.30316 0.17085
# Poissons Ratio (z) = 0.33011 0.13931
#
# Static dielectric constant tensor:
#      x y z
#    x 4.320580 0.307900 0.362730 
#    y 0.307900 4.212340 0.101830 
#    z 0.362730 0.101830 4.193290 
# 
# 
# High freq. dielectric constant tensor:
#      x y z
#    x 1.893470 0.008930 0.016370 
#    y 0.008930 1.902960 -0.006520 
#    z 0.016370 -0.006520 1.892130 
# 
# From -- ./inp_files/433788.got.cif
#   From: 2010.06.25/outbox.cif.g09.slc.cpg/sg2_217_cif.got.tgz:433788.got - 2010.06.27 13:26:56.
