data_PCOD8032455
_publ_section_title
;
Structure prediction by ZEFSAII (Michael W. Deem and Ramdas Pophale) SiO2 
 PCOD8032455
Probable space group: P -1
;
_chemical_formula_sum "Si O2"
_cell_formula_units_Z 14
_cell_length_a 10.304507
_cell_length_b 12.909242
_cell_length_c 7.888558
_cell_angle_alpha 115.944305
_cell_angle_beta 57.904544
_cell_angle_gamma 138.409724
_cell_volume 588.602933
_symmetry_space_group_name_H-M "P -1"
_symmetry_group_IT_number 2
_symmetry_cell_setting 'triclinic'
loop_
_space_group_symop_operation_xyz
x,y,z
-x,-y,-z
loop_
_atom_site_type_symbol
_atom_site_label
_atom_site_fract_x
_atom_site_fract_y
_atom_site_fract_z
Si Si1 0.934674 0.835694 0.060263
Si Si2 0.855562 0.387586 0.751580
Si Si3 0.126354 0.117032 0.342367
Si Si4 0.077377 0.313246 0.337909
Si Si5 0.462408 0.645899 0.255999
Si Si6 0.544091 0.386647 0.381205
Si Si7 0.967613 0.633693 0.086732
O O1 0.938123 0.982926 0.857977
O O2 0.042412 0.818078 0.821129
O O3 0.947731 0.760307 0.163856
O O4 0.697562 0.741514 0.105101
O O5 0.979818 0.384999 0.513010
O O6 0.629599 0.301244 0.766320
O O7 0.973702 0.567499 0.854121
O O8 0.842365 0.300409 0.868743
O O9 0.372784 0.230988 0.278994
O O10 0.076917 0.228033 0.439500
O O11 0.000000 0.000000 0.500000
O O12 0.312715 0.457224 0.209844
O O13 0.460503 0.677615 0.478671
O O14 0.500000 0.500000 0.500000
O O15 0.765652 0.478418 0.209230
#
# Coordination Sequence:
#
# PCOD8032455 Si02
#       7
#     2   2   2   2   2   2   2
#     4  12  25  42  71 102 135 175 223 278 335 393
#     4  11  25  40  69 100 139 173 220 279 334 394
#     4  12  24  43  68  99 137 174 225 281 329 393
#     4  12  24  43  68  98 138 177 223 271 334 398
#     4  12  23  41  69 106 129 171 222 283 327 387
#     4  12  21  40  70  99 128 172 229 282 322 382
#     4  11  23  42  71 100 132 174 229 273 332 399
#
# _framework density 23.785135
#
# number of rings (size 3 to 8) (size 9 to 14) (size 15 to 20)
#    0.000    0.286    7.143    2.143    2.000    0.000 
#    0.000    0.714    0.000    5.143    0.000    0.000 
#    0.000    0.000    0.000    0.000    0.000    0.000 
#
# Total GULP energy -173501.839049 kJ/mol
# GULP energy per Si atom -12392.988503 kJ/mol
# Density = 2.373100 g / cm^3
# Si number density = 23.785135 Si / 1000 Ang^3
#
#
#
# Elastic Constant Matrix: (Units=GPa)
#
#
# Indices 1 2 3 4 5 6 
#
# 1 184.9842 50.5760 24.6952 6.6432 7.5543 3.8124
# 2 50.5760 97.8599 28.0701 21.0157 -8.4281 5.7421
# 3 24.6952 28.0701 86.1569 23.6009 -0.1819 9.0021
# 4 6.6432 21.0157 23.6009 35.4071 -2.0777 12.3784
# 5 7.5543 -8.4281 -0.1819 -2.0777 21.4855 12.4348
# 6 3.8124 5.7421 9.0021 12.3784 12.4348 31.4599
#
#
#
# Elastic Compliance Matrix: (Units=1/GPa)
#
#
# Indices 1 2 3 4 5 6 
#
# 1 0.006743 -0.003876 -0.001103 0.000863 -0.004849 0.001783
# 2 -0.003876 0.014796 -0.001950 -0.005256 0.008316 -0.002892
# 3 -0.001103 -0.001950 0.014925 -0.008680 -0.001139 0.000085
# 4 0.000863 -0.005256 -0.008680 0.044513 0.013057 -0.019337
# 5 -0.004849 0.008316 -0.001139 0.013057 0.072722 -0.034486
# 6 0.001783 -0.002892 0.000085 -0.019337 -0.034486 0.053313
#
#
# Mechanical properties :
#
#
# Convention : Reuss Voigt Hill
#
# Bulk Modulus (GPa) = 44.23650 63.96486 54.10068
# Shear Modulus (GPa) = 21.89091 35.38113 28.63602
#
# Velocity S-wave (km/s) = 3.03704 3.86104 3.47356
# Velocity P-wave (km/s) = 5.56209 6.84310 6.23558
#
# Compressibility (1/GPa) = 0.02260577
#
# Stress axis : x y z
#
# Youngs Moduli (GPa) = 148.29790 67.58605 67.00311
#
# Poissons Ratio (x) = 0.26198 0.07389
# Poissons Ratio (y) = 0.57484 0.13066
# Poissons Ratio (z) = 0.16354 0.13179
#
# Static dielectric constant tensor:
#      x y z
#    x 4.599800 0.068790 0.333040 
#    y 0.068790 4.229960 0.304290 
#    z 0.333040 0.304290 4.267530 
# 
# 
# High freq. dielectric constant tensor:
#      x y z
#    x 1.957940 -0.007030 0.030120 
#    y -0.007030 1.912020 0.027050 
#    z 0.030120 0.027050 1.941720 
# 
# From -- ./inp_files/268011.got.cif
#   From: 2010.06.25/outbox.cif.g09.slc.cpg/sg2_135_cif.got.tgz:268011.got - 2010.06.27 13:26:56.
