data_PCOD8032776
_publ_section_title
;
Structure prediction by ZEFSAII (Michael W. Deem and Ramdas Pophale) SiO2 
 PCOD8032776
Probable space group: P -1
;
_chemical_formula_sum "Si O2"
_cell_formula_units_Z 16
_cell_length_a 9.123126
_cell_length_b 8.473415
_cell_length_c 12.244711
_cell_angle_alpha 54.213989
_cell_angle_beta 75.823085
_cell_angle_gamma 64.712821
_cell_volume 694.267162
_symmetry_space_group_name_H-M "P -1"
_symmetry_group_IT_number 2
_symmetry_cell_setting 'triclinic'
loop_
_space_group_symop_operation_xyz
x,y,z
-x,-y,-z
loop_
_atom_site_type_symbol
_atom_site_label
_atom_site_fract_x
_atom_site_fract_y
_atom_site_fract_z
Si Si1 0.041990 0.788853 0.824309
Si Si2 0.504815 0.801554 0.512072
Si Si3 0.270474 0.341504 0.679419
Si Si4 0.444352 0.242276 0.905579
Si Si5 0.331971 0.524086 0.206912
Si Si6 0.161748 0.795948 0.572792
Si Si7 0.004771 0.144728 0.839606
Si Si8 0.212714 0.397595 0.077107
O O1 0.890018 0.746031 0.815176
O O2 0.174587 0.747782 0.720308
O O3 0.994077 0.025297 0.778188
O O4 0.101969 0.641197 0.980045
O O5 0.629677 0.755151 0.408102
O O6 0.568756 0.605686 0.658837
O O7 0.322995 0.837157 0.489901
O O8 0.500000 0.000000 0.500000
O O9 0.401328 0.321464 0.758184
O O10 0.160914 0.590159 0.589581
O O11 0.165010 0.202592 0.787081
O O12 0.588110 0.306130 0.903428
O O13 0.288195 0.329782 0.973399
O O14 0.500000 0.000000 0.000000
O O15 0.341430 0.378736 0.157711
O O16 0.143964 0.637017 0.223860
O O17 0.000000 0.000000 0.500000
O O18 0.000000 0.000000 0.000000
#
# Coordination Sequence:
#
# PCOD8032776 Si02
#       8
#     2   2   2   2   2   2   2   2
#     4  11  23  44  71 107 144 188 252 310 366 440
#     4  12  30  51  73 109 152 203 253 309 372 445
#     4  12  27  51  76 108 157 192 254 310 367 457
#     4  12  26  43  72 107 145 195 240 310 383 439
#     4  12  26  45  73 107 155 194 249 308 374 445
#     4  12  28  49  78 106 144 202 255 308 372 442
#     4  12  25  45  76 112 148 193 246 304 376 450
#     4  11  23  43  72 104 148 190 244 310 373 437
#
# _framework density 23.045883
#
# number of rings (size 3 to 8) (size 9 to 14) (size 15 to 20)
#    0.000    0.250    3.750    4.500    7.000    0.500 
#    0.000    0.000    0.000    0.000    0.000    0.000 
#    0.000    0.000    0.000    0.000    0.000    0.000 
#
# Total GULP energy -198437.703821 kJ/mol
# GULP energy per Si atom -12402.356489 kJ/mol
# Density = 2.299343 g / cm^3
# Si number density = 23.045883 Si / 1000 Ang^3
#
#
#
# Elastic Constant Matrix: (Units=GPa)
#
#
# Indices 1 2 3 4 5 6 
#
# 1 133.3123 46.7545 43.0389 -8.9182 -17.4716 8.6043
# 2 46.7545 153.2763 50.0170 7.0644 -6.2084 11.0309
# 3 43.0389 50.0170 82.7596 7.4151 -14.6994 -4.4092
# 4 -8.9182 7.0644 7.4151 36.7275 -2.1991 -2.0593
# 5 -17.4716 -6.2084 -14.6994 -2.1991 39.1535 -6.7291
# 6 8.6043 11.0309 -4.4092 -2.0593 -6.7291 42.0760
#
#
#
# Elastic Compliance Matrix: (Units=1/GPa)
#
#
# Indices 1 2 3 4 5 6 
#
# 1 0.010133 -0.001680 -0.004197 0.003706 0.002636 -0.001469
# 2 -0.001680 0.008788 -0.004765 -0.001395 -0.001705 -0.002801
# 3 -0.004197 -0.004765 0.018572 -0.003292 0.004965 0.004686
# 4 0.003706 -0.001395 -0.003292 0.029238 0.002014 0.001016
# 5 0.002636 -0.001705 0.004965 0.002014 0.029320 0.005216
# 6 -0.001469 -0.002801 0.004686 0.001016 0.005216 0.026176
#
#
# Mechanical properties :
#
#
# Convention : Reuss Voigt Hill
#
# Bulk Modulus (GPa) = 61.68747 72.10766 66.89757
# Shear Modulus (GPa) = 33.57656 38.89391 36.23524
#
# Velocity S-wave (km/s) = 3.82113 4.11259 3.96954
# Velocity P-wave (km/s) = 6.80393 7.34219 7.07818
#
# Compressibility (1/GPa) = 0.01621075
#
# Stress axis : x y z
#
# Youngs Moduli (GPa) = 98.68329 113.78892 53.84538
#
# Poissons Ratio (x) = 0.19116 0.22598
# Poissons Ratio (y) = 0.16578 0.25655
# Poissons Ratio (z) = 0.41415 0.54216
#
# Static dielectric constant tensor:
#      x y z
#    x 4.160840 0.028740 -0.036730 
#    y 0.028740 4.444670 -0.086110 
#    z -0.036730 -0.086110 4.140590 
# 
# 
# High freq. dielectric constant tensor:
#      x y z
#    x 1.912030 0.008960 -0.010320 
#    y 0.008960 1.929400 0.002850 
#    z -0.010320 0.002850 1.906340 
# 
# From -- ./inp_files/381299.got.cif
#   From: 2010.06.25/outbox.cif.g09.slc.cpg/sg2_191_cif.got.tgz:381299.got - 2010.06.27 13:26:56.
