data_PCOD8032684
_publ_section_title
;
Structure prediction by ZEFSAII (Michael W. Deem and Ramdas Pophale) SiO2 
 PCOD8032684
Probable space group: P -1
;
_chemical_formula_sum "Si O2"
_cell_formula_units_Z 16
_cell_length_a 18.752651
_cell_length_b 16.495416
_cell_length_c 9.066656
_cell_angle_alpha 41.499251
_cell_angle_beta 135.220144
_cell_angle_gamma 156.637181
_cell_volume 734.289976
_symmetry_space_group_name_H-M "P -1"
_symmetry_group_IT_number 2
_symmetry_cell_setting 'triclinic'
loop_
_space_group_symop_operation_xyz
x,y,z
-x,-y,-z
loop_
_atom_site_type_symbol
_atom_site_label
_atom_site_fract_x
_atom_site_fract_y
_atom_site_fract_z
Si Si1 0.403736 0.784871 0.090836
Si Si2 0.926812 0.610236 0.659264
Si Si3 0.741785 0.030285 0.132512
Si Si4 0.802511 0.436950 0.199475
Si Si5 0.712644 0.625919 0.772110
Si Si6 0.694154 0.737986 0.300783
Si Si7 0.973829 0.929357 0.221906
Si Si8 0.157641 0.666080 0.326249
O O1 0.264905 0.590612 0.267977
O O2 0.556643 0.833067 0.222970
O O3 0.306812 0.725076 0.878103
O O4 0.500000 0.000000 0.000000
O O5 0.940827 0.752868 0.404188
O O6 0.944893 0.524787 0.679010
O O7 0.087447 0.755722 0.813426
O O8 0.782932 0.945385 0.226026
O O9 0.700948 0.102106 0.862260
O O10 0.735491 0.306626 0.431093
O O11 0.012536 0.613220 0.256402
O O12 0.785063 0.565844 0.005071
O O13 0.710300 0.639654 0.571919
O O14 0.514048 0.445684 0.794770
O O15 0.842909 0.860765 0.706557
O O16 0.802950 0.821780 0.196895
O O17 0.000000 0.000000 0.000000
#
# Coordination Sequence:
#
# PCOD8032684 Si02
#       8
#     2   2   2   2   2   2   2   2
#     4  12  24  43  70 102 137 178 236 282 343 411
#     4  12  25  45  68  99 141 181 229 292 338 414
#     4  12  23  43  72 100 132 179 237 283 347 412
#     4  11  23  43  70 100 139 179 226 282 346 414
#     4  11  23  47  72 101 136 183 238 290 334 409
#     4  11  25  43  75 101 131 184 243 285 337 415
#     4  12  27  44  69 104 143 185 227 286 357 408
#     4  11  24  42  67 101 139 180 221 281 353 414
#
# _framework density 21.789757000000002
#
# number of rings (size 3 to 8) (size 9 to 14) (size 15 to 20)
#    0.000    0.500    5.000    3.750    1.750    2.000 
#    0.000    1.250    0.000    0.000    0.000    0.000 
#    0.000    0.000    0.000    0.000    0.000    0.000 
#
# Total GULP energy -198456.108273 kJ/mol
# GULP energy per Si atom -12403.506767 kJ/mol
# Density = 2.174016 g / cm^3
# Si number density = 21.789757 Si / 1000 Ang^3
#
#
#
# Elastic Constant Matrix: (Units=GPa)
#
#
# Indices 1 2 3 4 5 6 
#
# 1 96.4457 20.2497 52.2131 -2.1062 -5.7870 18.2092
# 2 20.2497 97.5450 39.3352 -7.3855 -7.8572 13.0404
# 3 52.2131 39.3352 143.5828 -23.5546 4.3257 10.2921
# 4 -2.1062 -7.3855 -23.5546 22.5099 3.2679 3.1624
# 5 -5.7870 -7.8572 4.3257 3.2679 35.4027 -5.9351
# 6 18.2092 13.0404 10.2921 3.1624 -5.9351 33.0520
#
#
#
# Elastic Compliance Matrix: (Units=1/GPa)
#
#
# Indices 1 2 3 4 5 6 
#
# 1 0.014505 -0.000149 -0.005614 -0.004182 0.002516 -0.005333
# 2 -0.000149 0.012204 -0.002934 0.001069 0.002358 -0.003499
# 3 -0.005614 -0.002934 0.011993 0.011894 -0.004368 -0.001407
# 4 -0.004182 0.001069 0.011894 0.059403 -0.008909 -0.009105
# 5 0.002516 0.002358 -0.004368 -0.008909 0.031467 0.005547
# 6 -0.005333 -0.003499 -0.001407 -0.009105 0.005547 0.036879
#
#
# Mechanical properties :
#
#
# Convention : Reuss Voigt Hill
#
# Bulk Modulus (GPa) = 46.92602 62.35218 54.63910
# Shear Modulus (GPa) = 26.18515 33.24460 29.71487
#
# Velocity S-wave (km/s) = 3.47034 3.91026 3.69685
# Velocity P-wave (km/s) = 6.13517 7.00459 6.58424
#
# Compressibility (1/GPa) = 0.02131014
#
# Stress axis : x y z
#
# Youngs Moduli (GPa) = 68.94041 81.93810 83.37892
#
# Poissons Ratio (x) = 0.01217 0.46806
# Poissons Ratio (y) = 0.01024 0.24466
# Poissons Ratio (z) = 0.38701 0.24043
#
# Static dielectric constant tensor:
#      x y z
#    x 4.043410 0.011030 -0.043200 
#    y 0.011030 4.023520 -0.109620 
#    z -0.043200 -0.109620 4.066280 
# 
# 
# High freq. dielectric constant tensor:
#      x y z
#    x 1.859330 0.001080 0.007510 
#    y 0.001080 1.863050 -0.012390 
#    z 0.007510 -0.012390 1.858110 
# 
# From -- ./inp_files/338182.got.cif
#   From: 2010.06.25/outbox.cif.g09.slc.cpg/sg2_170_cif.got.tgz:338182.got - 2010.06.27 13:26:56.
