data_PCOD8032257
_publ_section_title
;
Structure prediction by ZEFSAII (Michael W. Deem and Ramdas Pophale) SiO2 
 PCOD8032257
Probable space group: P -1
;
_chemical_formula_sum "Si O2"
_cell_formula_units_Z 14
_cell_length_a 7.614464
_cell_length_b 11.496860
_cell_length_c 11.196333
_cell_angle_alpha 100.587756
_cell_angle_beta 124.488791
_cell_angle_gamma 53.729878
_cell_volume 634.247873
_symmetry_space_group_name_H-M "P -1"
_symmetry_group_IT_number 2
_symmetry_cell_setting 'triclinic'
loop_
_space_group_symop_operation_xyz
x,y,z
-x,-y,-z
loop_
_atom_site_type_symbol
_atom_site_label
_atom_site_fract_x
_atom_site_fract_y
_atom_site_fract_z
Si Si1 0.782506 0.661875 0.899252
Si Si2 0.070035 0.037996 0.683278
Si Si3 0.030948 0.351802 0.463355
Si Si4 0.709010 0.254673 0.410849
Si Si5 0.475500 0.078952 0.724187
Si Si6 0.653715 0.145575 0.039971
Si Si7 0.967328 0.772567 0.802905
O O1 0.598660 0.661139 0.725958
O O2 0.934021 0.720528 0.908132
O O3 0.611101 0.766624 0.964068
O O4 0.000000 0.500000 0.000000
O O5 0.096958 0.891326 0.625260
O O6 0.300771 0.032614 0.703207
O O7 0.126355 0.016202 0.843099
O O8 0.781185 0.190042 0.563799
O O9 0.313290 0.216546 0.598907
O O10 0.014524 0.331540 0.312708
O O11 0.000000 0.500000 0.500000
O O12 0.791259 0.363229 0.441943
O O13 0.595598 0.119454 0.882144
O O14 0.716905 0.943037 0.715460
O O15 0.760212 0.243873 0.090894
#
# Coordination Sequence:
#
# PCOD8032257 Si02
#       7
#     2   2   2   2   2   2   2
#     4  11  25  42  69  99 137 184 229 272 353 413
#     4   9  17  36  71  93 133 173 226 279 341 388
#     4  11  25  43  69 100 142 186 229 286 346 409
#     4   9  18  41  64  95 132 182 219 281 339 395
#     4  11  23  41  72 106 137 182 234 283 345 408
#     4  11  23  43  70 104 144 173 226 296 341 397
#     4  12  24  44  72  99 135 189 235 276 345 414
#
# _framework density 22.073388000000001
#
# number of rings (size 3 to 8) (size 9 to 14) (size 15 to 20)
#    0.000    1.429    5.714    1.286    2.000    2.857 
#    0.000    0.714    0.000    0.000    0.000    0.000 
#    0.000    0.000    0.000    0.000    0.000    0.000 
#
# Total GULP energy -173585.946496 kJ/mol
# GULP energy per Si atom -12398.996178 kJ/mol
# Density = 2.202315 g / cm^3
# Si number density = 22.073388 Si / 1000 Ang^3
#
#
#
# Elastic Constant Matrix: (Units=GPa)
#
#
# Indices 1 2 3 4 5 6 
#
# 1 84.7552 34.3147 25.7183 0.7885 -4.5725 17.6536
# 2 34.3147 108.5907 34.8282 2.0084 2.2468 18.3414
# 3 25.7183 34.8282 108.2459 -1.8271 10.6921 0.5539
# 4 0.7885 2.0084 -1.8271 47.0051 0.7349 2.3710
# 5 -4.5725 2.2468 10.6921 0.7349 20.5694 2.4299
# 6 17.6536 18.3414 0.5539 2.3710 2.4299 30.2437
#
#
#
# Elastic Compliance Matrix: (Units=1/GPa)
#
#
# Indices 1 2 3 4 5 6 
#
# 1 0.016034 -0.002675 -0.003566 0.000016 0.006680 -0.008210
# 2 -0.002675 0.012062 -0.003268 -0.000317 0.000472 -0.005707
# 3 -0.003566 -0.003268 0.011827 0.000550 -0.007120 0.004376
# 4 0.000016 -0.000317 0.000550 0.021395 -0.000842 -0.001437
# 5 0.006680 0.000472 -0.007120 -0.000842 0.054771 -0.008389
# 6 -0.008210 -0.005707 0.004376 -0.001437 -0.008389 0.042025
#
#
# Mechanical properties :
#
#
# Convention : Reuss Voigt Hill
#
# Bulk Modulus (GPa) = 47.83613 54.59046 51.21329
# Shear Modulus (GPa) = 27.15888 33.34569 30.25228
#
# Velocity S-wave (km/s) = 3.51150 3.89096 3.70609
# Velocity P-wave (km/s) = 6.17732 6.70605 6.44711
#
# Compressibility (1/GPa) = 0.02090470
#
# Stress axis : x y z
#
# Youngs Moduli (GPa) = 62.36740 82.90181 84.54952
#
# Poissons Ratio (x) = 0.22174 0.30154
# Poissons Ratio (y) = 0.16682 0.27634
# Poissons Ratio (z) = 0.22243 0.27096
#
# Static dielectric constant tensor:
#      x y z
#    x 3.902300 0.229820 0.059550 
#    y 0.229820 3.715670 -0.160920 
#    z 0.059550 -0.160920 4.458330 
# 
# 
# High freq. dielectric constant tensor:
#      x y z
#    x 1.865270 0.026930 0.003960 
#    y 0.026930 1.839360 -0.006620 
#    z 0.003960 -0.006620 1.881180 
# 
# From -- ./inp_files/387919.got.cif
#   From: 2010.06.25/outbox.cif.g09.slc.cpg/sg2_194_cif.got.tgz:387919.got - 2010.06.27 13:26:56.
