data_PCOD8032152
_publ_section_title
;
Structure prediction by ZEFSAII (Michael W. Deem and Ramdas Pophale) SiO2 
 PCOD8032152
Probable space group: P -1
;
_chemical_formula_sum "Si O2"
_cell_formula_units_Z 12
_cell_length_a 4.899854
_cell_length_b 11.676258
_cell_length_c 12.568720
_cell_angle_alpha 60.369355
_cell_angle_beta 84.915730
_cell_angle_gamma 124.613204
_cell_volume 440.503797
_symmetry_space_group_name_H-M "P -1"
_symmetry_group_IT_number 2
_symmetry_cell_setting 'triclinic'
loop_
_space_group_symop_operation_xyz
x,y,z
-x,-y,-z
loop_
_atom_site_type_symbol
_atom_site_label
_atom_site_fract_x
_atom_site_fract_y
_atom_site_fract_z
Si Si1 0.770391 0.170564 0.557627
Si Si2 0.879077 0.328109 0.697186
Si Si3 0.135618 0.188788 0.876631
Si Si4 0.747365 0.368190 0.298922
Si Si5 0.478113 0.619687 0.018794
Si Si6 0.106581 0.083966 0.299734
O O1 0.941224 0.328594 0.569159
O O2 0.849990 0.261638 0.397852
O O3 0.969149 0.096729 0.597729
O O4 0.308624 0.990206 0.670529
O O5 0.513715 0.298308 0.740053
O O6 0.820784 0.163958 0.830615
O O7 0.244931 0.518487 0.659474
O O8 0.244200 0.309433 0.922230
O O9 0.000000 0.000000 0.000000
O O10 0.315217 0.216197 0.335911
O O11 0.043454 0.497937 0.132162
O O12 0.500000 0.500000 0.000000
O O13 0.626637 0.798176 0.867047
#
# Coordination Sequence:
#
# PCOD8032152 Si02
#       6
#     2   2   2   2   2   2
#     4  12  26  47  72 103 140 183 230 284 344 410
#     4  11  24  43  68 100 136 180 228 281 340 407
#     4  11  23  41  67 100 137 178 226 281 341 405
#     4  11  26  46  71 104 140 183 231 285 344 410
#     4  11  24  45  71 103 139 182 230 285 343 408
#     4  12  26  46  71 102 140 184 230 284 343 408
#
# _framework density 27.241534999999999
#
# number of rings (size 3 to 8) (size 9 to 14) (size 15 to 20)
#    0.000    0.667    0.000    7.500    0.000   10.667 
#    0.000    5.833    0.000    0.000    0.000    0.000 
#    0.000    0.000    0.000    0.000    0.000    0.000 
#
# Total GULP energy -148845.348079 kJ/mol
# GULP energy per Si atom -12403.779007 kJ/mol
# Density = 2.717953 g / cm^3
# Si number density = 27.241535 Si / 1000 Ang^3
#
#
#
# Elastic Constant Matrix: (Units=GPa)
#
#
# Indices 1 2 3 4 5 6 
#
# 1 70.1449 9.9222 1.6317 9.8932 14.5940 -4.9466
# 2 9.9222 130.0362 -10.1214 15.5241 -26.1325 6.8887
# 3 1.6317 -10.1214 105.1582 2.2141 10.5490 -11.1047
# 4 9.8932 15.5241 2.2141 40.6714 1.3817 4.4223
# 5 14.5940 -26.1325 10.5490 1.3817 28.9188 6.5348
# 6 -4.9466 6.8887 -11.1047 4.4223 6.5348 26.9503
#
#
#
# Elastic Compliance Matrix: (Units=1/GPa)
#
#
# Indices 1 2 3 4 5 6 
#
# 1 0.019827 -0.005009 0.002174 -0.003592 -0.017563 0.010663
# 2 -0.005009 0.011866 -0.001087 -0.002944 0.015523 -0.007681
# 3 0.002174 -0.001087 0.010928 -0.001236 -0.007641 0.007235
# 4 -0.003592 -0.002944 -0.001236 0.027187 -0.000628 -0.004725
# 5 -0.017563 0.015523 -0.007641 -0.000628 0.066230 -0.026296
# 6 0.010663 -0.007681 0.007235 -0.004725 -0.026296 0.051159
#
#
# Mechanical properties :
#
#
# Convention : Reuss Voigt Hill
#
# Bulk Modulus (GPa) = 28.75537 34.24492 31.50015
# Shear Modulus (GPa) = 24.19757 39.56854 31.88306
#
# Velocity S-wave (km/s) = 2.98360 3.81531 3.42480
# Velocity P-wave (km/s) = 4.73791 5.65747 5.21799
#
# Compressibility (1/GPa) = 0.03477611
#
# Stress axis : x y z
#
# Youngs Moduli (GPa) = 50.43634 84.27620 91.51050
#
# Poissons Ratio (x) = 0.42217 -0.19892
# Poissons Ratio (y) = 0.25265 0.09943
# Poissons Ratio (z) = -0.10964 0.09157
#
# Static dielectric constant tensor:
#      x y z
#    x 4.690390 0.222090 0.171440 
#    y 0.222090 5.282370 0.104660 
#    z 0.171440 0.104660 5.175530 
# 
# 
# High freq. dielectric constant tensor:
#      x y z
#    x 2.083040 0.002030 0.014470 
#    y 0.002030 2.110960 0.005130 
#    z 0.014470 0.005130 2.106920 
# 
# From -- ./inp_files/68063.got.cif
#   From: 2010.06.25/outbox.cif.g09.slc.cpg/sg2_35_cif.got.tgz:68063.got - 2010.06.27 13:26:56.
