data_PCOD8032032
_publ_section_title
;
Structure prediction by ZEFSAII (Michael W. Deem and Ramdas Pophale) SiO2 
 PCOD8032032
Probable space group: P -1
;
_chemical_formula_sum "Si O2"
_cell_formula_units_Z 16
_cell_length_a 9.729350
_cell_length_b 11.757054
_cell_length_c 12.344772
_cell_angle_alpha 129.957366
_cell_angle_beta 45.409155
_cell_angle_gamma 115.590227
_cell_volume 770.359321
_symmetry_space_group_name_H-M "P -1"
_symmetry_group_IT_number 2
_symmetry_cell_setting 'triclinic'
loop_
_space_group_symop_operation_xyz
x,y,z
-x,-y,-z
loop_
_atom_site_type_symbol
_atom_site_label
_atom_site_fract_x
_atom_site_fract_y
_atom_site_fract_z
Si Si1 0.849467 0.103665 0.213886
Si Si2 0.014902 0.614802 0.964402
Si Si3 0.024616 0.417515 0.271931
Si Si4 0.741138 0.618658 0.679213
Si Si5 0.687628 0.923224 0.798576
Si Si6 0.406755 0.150100 0.435510
Si Si7 0.413343 0.488969 0.657705
Si Si8 0.078562 0.059448 0.709351
O O1 0.625210 0.086021 0.294086
O O2 0.897878 0.273275 0.270951
O O3 0.869768 0.062660 0.303245
O O4 0.000000 0.000000 0.000000
O O5 0.241805 0.611870 0.816641
O O6 0.915293 0.561660 0.874397
O O7 0.000000 0.500000 0.000000
O O8 0.930766 0.777162 0.134617
O O9 0.215143 0.411911 0.237403
O O10 0.898699 0.558004 0.468863
O O11 0.740583 0.794106 0.774443
O O12 0.540205 0.544117 0.720489
O O13 0.637446 0.854057 0.669092
O O14 0.870800 0.029014 0.751815
O O15 0.500000 0.000000 0.000000
O O16 0.365764 0.318323 0.604201
O O17 0.252862 0.048490 0.519592
O O18 0.500000 0.500000 0.500000
#
# Coordination Sequence:
#
# PCOD8032032 Si02
#       8
#     2   2   2   2   2   2   2   2
#     4  12  23  43  70  96 130 179 235 278 331 415
#     4  12  24  43  69 100 134 176 222 282 344 408
#     4  11  23  42  68  97 131 177 227 282 331 400
#     4  11  23  40  67 101 128 172 236 278 329 389
#     4  12  25  42  69 102 137 177 230 285 334 411
#     4  12  25  43  66  99 138 180 221 287 347 404
#     4  12  21  41  71  98 129 175 237 276 324 408
#     4  12  26  44  66  99 144 177 221 283 359 405
#
# _framework density 20.769528999999999
#
# number of rings (size 3 to 8) (size 9 to 14) (size 15 to 20)
#    0.000    0.250    7.500    2.250    0.000    0.000 
#    0.000    0.625    0.000    0.000    0.000    0.000 
#    0.000    0.000    0.000    0.000    0.000    0.000 
#
# Total GULP energy -198367.086743 kJ/mol
# GULP energy per Si atom -12397.942921 kJ/mol
# Density = 2.072226 g / cm^3
# Si number density = 20.769529 Si / 1000 Ang^3
#
#
#
# Elastic Constant Matrix: (Units=GPa)
#
#
# Indices 1 2 3 4 5 6 
#
# 1 137.1399 27.4647 38.8290 -6.4120 8.3647 0.1991
# 2 27.4647 90.1631 28.4580 -5.9194 4.2371 -7.7462
# 3 38.8290 28.4580 92.1598 1.4391 -9.5126 -1.7254
# 4 -6.4120 -5.9194 1.4391 33.9707 -1.4117 -3.0993
# 5 8.3647 4.2371 -9.5126 -1.4117 40.7538 -3.9453
# 6 0.1991 -7.7462 -1.7254 -3.0993 -3.9453 39.7730
#
#
#
# Elastic Compliance Matrix: (Units=1/GPa)
#
#
# Indices 1 2 3 4 5 6 
#
# 1 0.008802 -0.001397 -0.003569 0.001409 -0.002505 -0.000610
# 2 -0.001397 0.013092 -0.003611 0.002325 -0.001602 0.002422
# 3 -0.003569 -0.003611 0.013946 -0.001694 0.004326 0.000217
# 4 0.001409 0.002325 -0.001694 0.030451 0.000398 0.002785
# 5 -0.002505 -0.001602 0.004326 0.000398 0.026488 0.002547
# 6 -0.000610 0.002422 0.000217 0.002785 0.002547 0.026097
#
#
# Mechanical properties :
#
#
# Convention : Reuss Voigt Hill
#
# Bulk Modulus (GPa) = 53.51172 56.55180 55.03176
# Shear Modulus (GPa) = 35.14763 37.88023 36.51393
#
# Velocity S-wave (km/s) = 4.11818 4.27527 4.19746
# Velocity P-wave (km/s) = 6.95938 7.18735 7.07428
#
# Compressibility (1/GPa) = 0.01868750
#
# Stress axis : x y z
#
# Youngs Moduli (GPa) = 113.61590 76.38174 71.70368
#
# Poissons Ratio (x) = 0.10669 0.25591
# Poissons Ratio (y) = 0.15869 0.25889
# Poissons Ratio (z) = 0.40549 0.27578
#
# Static dielectric constant tensor:
#      x y z
#    x 4.229460 -0.436460 -0.226830 
#    y -0.436460 4.748490 0.667010 
#    z -0.226830 0.667010 4.174120 
# 
# 
# High freq. dielectric constant tensor:
#      x y z
#    x 1.829090 -0.009640 -0.002490 
#    y -0.009640 1.806010 0.008400 
#    z -0.002490 0.008400 1.816190 
# 
# From -- ./inp_files/217120.got.cif
#   From: 2010.06.25/outbox.cif.g09.slc.cpg/sg2_109_cif.got.tgz:217120.got - 2010.06.27 13:26:56.
