data_PCOD8032948
_publ_section_title
;
Structure prediction by ZEFSAII (Michael W. Deem and Ramdas Pophale) SiO2 
 PCOD8032948
Probable space group: P -1
;
_chemical_formula_sum "Si O2"
_cell_formula_units_Z 16
_cell_length_a 9.805739
_cell_length_b 11.849070
_cell_length_c 9.801627
_cell_angle_alpha 75.111852
_cell_angle_beta 42.338657
_cell_angle_gamma 89.063173
_cell_volume 714.431458
_symmetry_space_group_name_H-M "P -1"
_symmetry_group_IT_number 2
_symmetry_cell_setting 'triclinic'
loop_
_space_group_symop_operation_xyz
x,y,z
-x,-y,-z
loop_
_atom_site_type_symbol
_atom_site_label
_atom_site_fract_x
_atom_site_fract_y
_atom_site_fract_z
Si Si1 0.535800 0.134428 0.368610
Si Si2 0.118537 0.128861 0.548048
Si Si3 0.526061 0.253625 0.812113
Si Si4 0.813349 0.281884 0.349131
Si Si5 0.048263 0.556447 0.104930
Si Si6 0.775482 0.239153 0.895041
Si Si7 0.332543 0.448538 0.760962
Si Si8 0.110877 0.139327 0.246475
O O1 0.311541 0.161660 0.500791
O O2 0.673348 0.239619 0.330846
O O3 0.500000 0.000000 0.500000
O O4 0.648922 0.149639 0.133088
O O5 0.167723 0.187978 0.344032
O O6 0.930112 0.168528 0.741609
O O7 0.060211 0.986616 0.603479
O O8 0.673215 0.218983 0.600673
O O9 0.635007 0.275006 0.871341
O O10 0.440083 0.368360 0.800684
O O11 0.325718 0.136814 0.011903
O O12 0.879813 0.425370 0.286023
O O13 0.022299 0.238307 0.203983
O O14 0.097947 0.628581 0.185430
O O15 0.904735 0.624069 0.097404
O O16 0.268991 0.551585 0.871010
O O17 0.500000 0.500000 0.500000
#
# Coordination Sequence:
#
# PCOD8032948 Si02
#       8
#     2   2   2   2   2   2   2   2
#     4  12  27  47  73 110 146 183 244 307 355 426
#     4  11  26  47  74 105 147 189 236 307 359 431
#     4  12  26  45  75 105 139 196 239 296 359 434
#     4  12  25  48  73 109 144 191 244 292 367 429
#     4  11  26  46  70 103 153 189 238 301 350 441
#     4  12  29  46  71 112 146 189 247 291 361 429
#     4  11  23  44  69 103 138 193 237 285 364 417
#     4  11  24  48  74 104 146 188 243 297 365 428
#
# _framework density 22.395430999999999
#
# number of rings (size 3 to 8) (size 9 to 14) (size 15 to 20)
#    0.000    0.500    6.250    1.500    3.500    2.000 
#    0.000    0.000    0.000    0.000    0.000    0.000 
#    0.000    0.000    0.000    0.000    0.000    0.000 
#
# Total GULP energy -198261.878388 kJ/mol
# GULP energy per Si atom -12391.367399 kJ/mol
# Density = 2.234446 g / cm^3
# Si number density = 22.395431 Si / 1000 Ang^3
#
#
#
# Elastic Constant Matrix: (Units=GPa)
#
#
# Indices 1 2 3 4 5 6 
#
# 1 180.9219 54.4800 44.5461 -4.7289 2.9454 -1.3532
# 2 54.4800 72.8530 20.7970 4.5272 -0.6207 -4.2796
# 3 44.5461 20.7970 126.5760 10.8727 6.0875 -11.0388
# 4 -4.7289 4.5272 10.8727 25.2933 -0.8995 5.5581
# 5 2.9454 -0.6207 6.0875 -0.8995 37.4637 4.1499
# 6 -1.3532 -4.2796 -11.0388 5.5581 4.1499 22.4402
#
#
#
# Elastic Compliance Matrix: (Units=1/GPa)
#
#
# Indices 1 2 3 4 5 6 
#
# 1 0.007924 -0.005647 -0.002477 0.004193 0.000105 -0.002875
# 2 -0.005647 0.018602 -0.000250 -0.005226 0.000186 0.004344
# 3 -0.002477 -0.000250 0.010056 -0.006306 -0.002342 0.006745
# 4 0.004193 -0.005226 -0.006306 0.047678 0.003560 -0.016313
# 5 0.000105 0.000186 -0.002342 0.003560 0.027946 -0.007160
# 6 -0.002875 0.004344 0.006745 -0.016313 -0.007160 0.053900
#
#
# Mechanical properties :
#
#
# Convention : Reuss Voigt Hill
#
# Bulk Modulus (GPa) = 50.41978 68.88857 59.65417
# Shear Modulus (GPa) = 26.39002 34.40796 30.39899
#
# Velocity S-wave (km/s) = 3.43646 3.92392 3.68825
# Velocity P-wave (km/s) = 6.18934 7.16634 6.69569
#
# Compressibility (1/GPa) = 0.01983349
#
# Stress axis : x y z
#
# Youngs Moduli (GPa) = 126.20030 53.75732 99.44608
#
# Poissons Ratio (x) = 0.30357 0.24631
# Poissons Ratio (y) = 0.71266 0.02489
# Poissons Ratio (z) = 0.31257 0.01345
#
# Static dielectric constant tensor:
#      x y z
#    x 4.371990 -0.049840 -0.005320 
#    y -0.049840 3.786850 -0.126270 
#    z -0.005320 -0.126270 4.467430 
# 
# 
# High freq. dielectric constant tensor:
#      x y z
#    x 1.903100 -0.009990 -0.002100 
#    y -0.009990 1.861140 -0.007220 
#    z -0.002100 -0.007220 1.906230 
# 
# From -- ./inp_files/187348.got.cif
#   From: 2010.06.25/outbox.cif.g09.slc.cpg/sg2_94_cif.got.tgz:187348.got - 2010.06.27 13:26:56.
