data_PCOD8032733
_publ_section_title
;
Structure prediction by ZEFSAII (Michael W. Deem and Ramdas Pophale) SiO2 
 PCOD8032733
Probable space group: P -1
;
_chemical_formula_sum "Si O2"
_cell_formula_units_Z 16
_cell_length_a 6.680045
_cell_length_b 13.206534
_cell_length_c 29.463714
_cell_angle_alpha 24.956538
_cell_angle_beta 43.870771
_cell_angle_gamma 43.005464
_cell_volume 732.744684
_symmetry_space_group_name_H-M "P -1"
_symmetry_group_IT_number 2
_symmetry_cell_setting 'triclinic'
loop_
_space_group_symop_operation_xyz
x,y,z
-x,-y,-z
loop_
_atom_site_type_symbol
_atom_site_label
_atom_site_fract_x
_atom_site_fract_y
_atom_site_fract_z
Si Si1 0.371794 0.078960 0.037446
Si Si2 0.835943 0.014316 0.741599
Si Si3 0.251100 0.750745 0.433906
Si Si4 0.501547 0.957245 0.654130
Si Si5 0.430913 0.298581 0.770167
Si Si6 0.180381 0.514648 0.065891
Si Si7 0.774819 0.418629 0.861718
Si Si8 0.423018 0.189804 0.476170
O O1 0.374437 0.827808 0.166715
O O2 0.575921 0.223551 0.972648
O O3 0.034175 0.241925 0.020718
O O4 0.500000 0.000000 0.000000
O O5 0.918816 0.718483 0.842896
O O6 0.152131 0.072621 0.678521
O O7 0.697003 0.131843 0.669666
O O8 0.575993 0.125872 0.774560
O O9 0.500000 0.500000 0.500000
O O10 0.931355 0.692804 0.510997
O O11 0.278197 0.937405 0.393519
O O12 0.598409 0.660350 0.764140
O O13 0.550944 0.035714 0.562910
O O14 0.430811 0.583647 0.647476
O O15 0.087352 0.295833 0.835050
O O16 0.167749 0.518324 0.121138
O O17 0.500000 0.500000 0.000000
O O18 0.500000 0.000000 0.500000
#
# Coordination Sequence:
#
# PCOD8032733 Si02
#       8
#     2   2   2   2   2   2   2   2
#     4  12  28  48  73 103 146 187 233 301 354 415
#     4  11  25  45  69 105 144 183 235 297 348 419
#     4  11  23  43  71 100 142 185 234 289 355 413
#     4  11  24  46  73 100 143 189 236 287 351 426
#     4  12  27  46  72 107 147 183 241 295 354 425
#     4  12  27  46  74 106 139 187 243 289 356 425
#     4  12  26  48  74 105 142 191 236 287 360 426
#     4  11  27  45  70 107 144 186 237 292 351 421
#
# _framework density 21.835708
#
# number of rings (size 3 to 8) (size 9 to 14) (size 15 to 20)
#    0.000    0.500    3.750    3.375    7.000    7.000 
#    0.000    0.000    0.000    0.000    0.000    0.000 
#    0.000    0.000    0.000    0.000    0.000    0.000 
#
# Total GULP energy -198465.093369 kJ/mol
# GULP energy per Si atom -12404.068336 kJ/mol
# Density = 2.178601 g / cm^3
# Si number density = 21.835708 Si / 1000 Ang^3
#
#
#
# Elastic Constant Matrix: (Units=GPa)
#
#
# Indices 1 2 3 4 5 6 
#
# 1 104.8470 39.0954 35.0345 8.8724 20.2566 -4.4342
# 2 39.0954 130.1931 27.4677 11.2213 20.0196 -2.8869
# 3 35.0345 27.4677 101.2633 2.8100 28.3847 -4.9567
# 4 8.8724 11.2213 2.8100 40.0988 -2.1305 3.0843
# 5 20.2566 20.0196 28.3847 -2.1305 44.9228 -5.2315
# 6 -4.4342 -2.8869 -4.9567 3.0843 -5.2315 46.9566
#
#
#
# Elastic Compliance Matrix: (Units=1/GPa)
#
#
# Indices 1 2 3 4 5 6 
#
# 1 0.012056 -0.002462 -0.002670 -0.001975 -0.002683 0.000536
# 2 -0.002462 0.009174 -0.000868 -0.002103 -0.002518 0.000097
# 3 -0.002670 -0.000868 0.012897 -0.000445 -0.006538 0.000357
# 4 -0.001975 -0.002103 -0.000445 0.026296 0.003154 -0.001739
# 5 -0.002683 -0.002518 -0.006538 0.003154 0.029099 0.001936
# 6 0.000536 0.000097 0.000357 -0.001739 0.001936 0.021720
#
#
# Mechanical properties :
#
#
# Convention : Reuss Voigt Hill
#
# Bulk Modulus (GPa) = 45.19335 59.94429 52.56882
# Shear Modulus (GPa) = 38.27955 42.04270 40.16113
#
# Velocity S-wave (km/s) = 4.19151 4.39271 4.29329
# Velocity P-wave (km/s) = 6.64582 7.29657 6.97878
#
# Compressibility (1/GPa) = 0.02212715
#
# Stress axis : x y z
#
# Youngs Moduli (GPa) = 82.94432 109.00413 77.53888
#
# Poissons Ratio (x) = 0.26840 0.20704
# Poissons Ratio (y) = 0.20423 0.06727
# Poissons Ratio (z) = 0.22147 0.09457
#
# Static dielectric constant tensor:
#      x y z
#    x 3.967590 0.447750 -1.127230 
#    y 0.447750 2.577580 3.272330 
#    z -1.127230 3.272330 -3.470440 
# 
# 
# High freq. dielectric constant tensor:
#      x y z
#    x 1.867110 -0.006150 0.010210 
#    y -0.006150 1.871070 -0.003490 
#    z 0.010210 -0.003490 1.870130 
# 
# From -- ./inp_files/53104.got.cif
#   From: 2010.06.25/outbox.cif.g09.slc.cpg/sg2_27_cif.got.tgz:53104.got - 2010.06.27 13:26:56.
