data_PCOD8032879
_publ_section_title
;
Structure prediction by ZEFSAII (Michael W. Deem and Ramdas Pophale) SiO2 
 PCOD8032879
Probable space group: P -1
;
_chemical_formula_sum "Si O2"
_cell_formula_units_Z 16
_cell_length_a 19.826598
_cell_length_b 6.559847
_cell_length_c 9.643648
_cell_angle_alpha 129.230882
_cell_angle_beta 132.624468
_cell_angle_gamma 68.877912
_cell_volume 709.774889
_symmetry_space_group_name_H-M "P -1"
_symmetry_group_IT_number 2
_symmetry_cell_setting 'triclinic'
loop_
_space_group_symop_operation_xyz
x,y,z
-x,-y,-z
loop_
_atom_site_type_symbol
_atom_site_label
_atom_site_fract_x
_atom_site_fract_y
_atom_site_fract_z
Si Si1 0.565744 0.734601 0.116367
Si Si2 0.758101 0.570104 0.396585
Si Si3 0.483387 0.679290 0.689794
Si Si4 0.082060 0.018305 0.231559
Si Si5 0.041016 0.112333 0.745772
Si Si6 0.214735 0.830952 0.949130
Si Si7 0.178682 0.583556 0.067794
Si Si8 0.298871 0.376995 0.366489
O O1 0.672333 0.728949 0.305438
O O2 0.537808 0.022715 0.250430
O O3 0.500000 0.500000 0.000000
O O4 0.562771 0.705543 0.930718
O O5 0.861209 0.692425 0.542347
O O6 0.745027 0.280502 0.183288
O O7 0.762308 0.536092 0.553770
O O8 0.500000 0.500000 0.500000
O O9 0.401433 0.513092 0.589792
O O10 0.166341 0.875155 0.228050
O O11 0.042947 0.893260 0.266493
O O12 0.000000 0.000000 0.000000
O O13 0.118341 0.945444 0.841426
O O14 0.082962 0.410710 0.900230
O O15 0.000000 0.000000 0.500000
O O16 0.198807 0.592063 0.935471
O O17 0.292358 0.058085 0.212081
O O18 0.264469 0.476724 0.214866
#
# Coordination Sequence:
#
# PCOD8032879 Si02
#       8
#     2   2   2   2   2   2   2   2
#     4  11  26  50  71 111 145 181 237 294 360 430
#     4  12  26  45  74  99 145 188 228 300 355 417
#     4  11  27  46  78 105 144 186 235 291 359 435
#     4  12  23  43  70  96 137 191 233 290 358 410
#     4  11  25  41  63  98 134 181 239 291 345 414
#     4  11  26  45  68 102 140 184 242 287 354 425
#     4  11  23  44  65  95 138 179 235 287 347 422
#     4  11  25  46  67 104 137 182 235 287 353 428
#
# _framework density 22.542361
#
# number of rings (size 3 to 8) (size 9 to 14) (size 15 to 20)
#    0.000    0.750    3.750    2.625    7.000    1.500 
#    2.250    0.000    0.000    0.000    0.000    0.000 
#    0.000    0.000    0.000    0.000    0.000    0.000 
#
# Total GULP energy -198365.126656 kJ/mol
# GULP energy per Si atom -12397.820416 kJ/mol
# Density = 2.249105 g / cm^3
# Si number density = 22.542361 Si / 1000 Ang^3
#
#
#
# Elastic Constant Matrix: (Units=GPa)
#
#
# Indices 1 2 3 4 5 6 
#
# 1 75.4100 36.8814 45.3914 19.3346 -10.7701 8.5948
# 2 36.8814 95.6445 38.8663 4.3370 -5.2986 13.5200
# 3 45.3914 38.8663 119.4007 3.9826 -9.6772 10.4254
# 4 19.3346 4.3370 3.9826 36.2892 -4.0642 -0.2208
# 5 -10.7701 -5.2986 -9.6772 -4.0642 55.4291 3.6713
# 6 8.5948 13.5200 10.4254 -0.2208 3.6713 36.5690
#
#
#
# Elastic Compliance Matrix: (Units=1/GPa)
#
#
# Indices 1 2 3 4 5 6 
#
# 1 0.022943 -0.005434 -0.006256 -0.010654 0.002190 -0.001884
# 2 -0.005434 0.013841 -0.002191 0.001485 0.000207 -0.003227
# 3 -0.006256 -0.002191 0.011548 0.002415 0.000840 -0.001082
# 4 -0.010654 0.001485 0.002415 0.032890 0.000813 0.001383
# 5 0.002190 0.000207 0.000840 0.000813 0.018873 -0.002721
# 6 -0.001884 -0.003227 -0.001082 0.001383 -0.002721 0.029571
#
#
# Mechanical properties :
#
#
# Convention : Reuss Voigt Hill
#
# Bulk Modulus (GPa) = 48.61024 59.19259 53.90141
# Shear Modulus (GPa) = 30.43471 36.94521 33.68996
#
# Velocity S-wave (km/s) = 3.67837 4.05275 3.87009
# Velocity P-wave (km/s) = 6.29693 6.94371 6.62822
#
# Compressibility (1/GPa) = 0.02057180
#
# Stress axis : x y z
#
# Youngs Moduli (GPa) = 43.58564 72.24694 86.59172
#
# Poissons Ratio (x) = 0.39261 0.54171
# Poissons Ratio (y) = 0.23686 0.18968
# Poissons Ratio (z) = 0.27267 0.15826
#
# Static dielectric constant tensor:
#      x y z
#    x 3.577870 -0.009930 -0.113770 
#    y -0.009930 4.033630 0.050160 
#    z -0.113770 0.050160 4.249520 
# 
# 
# High freq. dielectric constant tensor:
#      x y z
#    x 1.879270 0.013730 -0.003660 
#    y 0.013730 1.887360 0.001860 
#    z -0.003660 0.001860 1.910770 
# 
# From -- ./inp_files/48146.got.cif
#   From: 2010.06.25/outbox.cif.g09.slc.cpg/sg2_25_cif.got.tgz:48146.got - 2010.06.27 13:26:56.
