data_PCOD8032021
_publ_section_title
;
Structure prediction by ZEFSAII (Michael W. Deem and Ramdas Pophale) SiO2 
 PCOD8032021
Probable space group: P -1
;
_chemical_formula_sum "Si O2"
_cell_formula_units_Z 14
_cell_length_a 10.815179
_cell_length_b 9.754118
_cell_length_c 13.478975
_cell_angle_alpha 83.250373
_cell_angle_beta 150.317284
_cell_angle_gamma 107.048653
_cell_volume 644.313220
_symmetry_space_group_name_H-M "P -1"
_symmetry_group_IT_number 2
_symmetry_cell_setting 'triclinic'
loop_
_space_group_symop_operation_xyz
x,y,z
-x,-y,-z
loop_
_atom_site_type_symbol
_atom_site_label
_atom_site_fract_x
_atom_site_fract_y
_atom_site_fract_z
Si Si1 0.052749 0.346637 0.443012
Si Si2 0.205571 0.415783 0.762878
Si Si3 0.328526 0.337456 0.434855
Si Si4 0.934565 0.902330 0.238913
Si Si5 0.815243 0.098874 0.999018
Si Si6 0.483841 0.912266 0.395343
Si Si7 0.737708 0.013181 0.268626
O O1 0.213545 0.375225 0.656571
O O2 0.253340 0.341626 0.497078
O O3 0.966882 0.484286 0.347711
O O4 0.791022 0.189973 0.282958
O O5 0.088327 0.266871 0.760957
O O6 0.500000 0.500000 0.000000
O O7 0.500000 0.500000 0.500000
O O8 0.533818 0.252953 0.577073
O O9 0.055272 0.253636 0.187210
O O10 0.716018 0.939774 0.150086
O O11 0.238427 0.001430 0.479823
O O12 0.892534 0.957139 0.094426
O O13 0.771135 0.097189 0.849669
O O14 0.534755 0.084922 0.855833
O O15 0.500000 0.000000 0.500000
O O16 0.000000 0.000000 0.500000
#
# Coordination Sequence:
#
# PCOD8032021 Si02
#       7
#     2   2   2   2   2   2   2
#     4  11  23  43  64  96 140 170 213 278 327 391
#     4  11  25  39  62 101 137 170 208 266 345 397
#     4  11  27  47  67  97 133 182 231 271 326 401
#     4  11  23  40  66 103 129 167 223 277 332 402
#     4  11  23  42  75  97 129 176 220 280 341 390
#     4  11  25  46  69  96 133 175 230 278 324 395
#     4  12  19  40  74 100 129 164 220 279 339 395
#
# _framework density 21.728563000000001
#
# number of rings (size 3 to 8) (size 9 to 14) (size 15 to 20)
#    0.000    0.857    5.714    1.286    4.000    4.000 
#    2.571    0.000    0.000    0.000    0.000    0.000 
#    0.000    0.000    0.000    0.000    0.000    0.000 
#
# Total GULP energy -173580.432100 kJ/mol
# GULP energy per Si atom -12398.602293 kJ/mol
# Density = 2.167911 g / cm^3
# Si number density = 21.728563 Si / 1000 Ang^3
#
#
#
# Elastic Constant Matrix: (Units=GPa)
#
#
# Indices 1 2 3 4 5 6 
#
# 1 89.8988 44.7317 42.3108 6.0928 -17.4763 -3.8065
# 2 44.7317 195.8760 63.7527 3.4767 -8.7376 15.4457
# 3 42.3108 63.7527 147.9758 -4.0942 -26.0820 15.8609
# 4 6.0928 3.4767 -4.0942 28.0416 4.4416 4.2612
# 5 -17.4763 -8.7376 -26.0820 4.4416 32.3154 8.3283
# 6 -3.8065 15.4457 15.8609 4.2612 8.3283 35.7493
#
#
#
# Elastic Compliance Matrix: (Units=1/GPa)
#
#
# Indices 1 2 3 4 5 6 
#
# 1 0.015139 -0.002482 -0.002872 -0.004700 0.004978 0.003359
# 2 -0.002482 0.006445 -0.001971 -0.000139 -0.000655 -0.002005
# 3 -0.002872 -0.001971 0.010501 0.002120 0.007685 -0.006156
# 4 -0.004700 -0.000139 0.002120 0.038522 -0.004919 -0.004826
# 5 0.004978 -0.000655 0.007685 -0.004919 0.043467 -0.012136
# 6 0.003359 -0.002005 -0.006156 -0.004826 -0.012136 0.035330
#
#
# Mechanical properties :
#
#
# Convention : Reuss Voigt Hill
#
# Bulk Modulus (GPa) = 57.35666 81.70453 69.53060
# Shear Modulus (GPa) = 29.43495 38.08496 33.75995
#
# Velocity S-wave (km/s) = 3.68457 4.19114 3.94599
# Velocity P-wave (km/s) = 6.67500 7.81696 7.26844
#
# Compressibility (1/GPa) = 0.01743477
#
# Stress axis : x y z
#
# Youngs Moduli (GPa) = 66.05570 155.15745 95.22515
#
# Poissons Ratio (x) = 0.38507 0.27348
# Poissons Ratio (y) = 0.16394 0.18773
# Poissons Ratio (z) = 0.18971 0.30589
#
# Static dielectric constant tensor:
#      x y z
#    x 3.896560 0.013760 -0.146910 
#    y 0.013760 3.925470 -0.048940 
#    z -0.146910 -0.048940 4.194150 
# 
# 
# High freq. dielectric constant tensor:
#      x y z
#    x 1.841430 0.001030 -0.010100 
#    y 0.001030 1.860930 -0.009790 
#    z -0.010100 -0.009790 1.863700 
# 
# From -- ./inp_files/515700.got.cif
#   From: 2010.06.25/outbox.cif.g09.slc.cpg/sg2_258_cif.got.tgz:515700.got - 2010.06.27 13:26:56.
