data_PCOD8032751
_publ_section_title
;
Structure prediction by ZEFSAII (Michael W. Deem and Ramdas Pophale) SiO2 
 PCOD8032751
Probable space group: P -1
;
_chemical_formula_sum "Si O2"
_cell_formula_units_Z 14
_cell_length_a 22.053775
_cell_length_b 6.410542
_cell_length_c 13.722129
_cell_angle_alpha 60.054082
_cell_angle_beta 159.066213
_cell_angle_gamma 121.203674
_cell_volume 592.117781
_symmetry_space_group_name_H-M "P -1"
_symmetry_group_IT_number 2
_symmetry_cell_setting 'triclinic'
loop_
_space_group_symop_operation_xyz
x,y,z
-x,-y,-z
loop_
_atom_site_type_symbol
_atom_site_label
_atom_site_fract_x
_atom_site_fract_y
_atom_site_fract_z
Si Si1 0.920418 0.103041 0.449504
Si Si2 0.503725 0.806838 0.636301
Si Si3 0.389359 0.243096 0.988781
Si Si4 0.871240 0.271894 0.825523
Si Si5 0.192431 0.420389 0.906154
Si Si6 0.627507 0.220530 0.185812
Si Si7 0.976572 0.199876 0.786866
O O1 0.833534 0.340046 0.244872
O O2 0.072739 0.172472 0.740564
O O3 0.000000 0.000000 0.500000
O O4 0.758458 0.886646 0.278114
O O5 0.605465 0.905831 0.866121
O O6 0.313202 0.696626 0.413954
O O7 0.500000 0.000000 0.500000
O O8 0.605777 0.602927 0.790906
O O9 0.571208 0.257676 0.204111
O O10 0.363735 0.518037 0.916384
O O11 0.885905 0.273912 0.730586
O O12 0.000000 0.500000 0.000000
O O13 0.928246 0.029361 0.008082
O O14 0.123150 0.419451 0.914562
O O15 0.818335 0.150363 0.483292
O O16 0.500000 0.000000 0.000000
#
# Coordination Sequence:
#
# PCOD8032751 Si02
#       7
#     2   2   2   2   2   2   2
#     4  11  23  43  71 107 146 180 237 300 372 434
#     4  12  25  50  69 102 148 193 243 297 362 435
#     4  11  25  43  69 106 142 185 236 304 361 435
#     4  11  27  47  72  97 144 194 244 303 352 431
#     4  11  25  42  74 105 143 188 234 300 373 436
#     4  11  25  43  74 104 144 184 240 302 371 432
#     4  11  24  46  69 103 138 185 251 290 363 432
#
# _framework density 23.643943
#
# number of rings (size 3 to 8) (size 9 to 14) (size 15 to 20)
#    0.000    0.857    4.286    1.714    6.000    3.429 
#    0.000    1.429    0.000    0.000    0.000    0.000 
#    0.000    0.000    0.000    0.000    0.000    0.000 
#
# Total GULP energy -173457.174879 kJ/mol
# GULP energy per Si atom -12389.798206 kJ/mol
# Density = 2.359013 g / cm^3
# Si number density = 23.643943 Si / 1000 Ang^3
#
#
#
# Elastic Constant Matrix: (Units=GPa)
#
#
# Indices 1 2 3 4 5 6 
#
# 1 108.0798 20.7179 53.7035 -14.6452 24.9006 12.6853
# 2 20.7179 98.5452 35.8358 16.5868 1.0567 -0.0581
# 3 53.7035 35.8358 134.2605 -3.4594 32.0586 -4.3732
# 4 -14.6452 16.5868 -3.4594 31.6820 0.5347 4.7396
# 5 24.9006 1.0567 32.0586 0.5347 55.3337 -5.2839
# 6 12.6853 -0.0581 -4.3732 4.7396 -5.2839 24.8057
#
#
#
# Elastic Compliance Matrix: (Units=1/GPa)
#
#
# Indices 1 2 3 4 5 6 
#
# 1 0.016498 -0.003736 -0.004245 0.011114 -0.006208 -0.012640
# 2 -0.003736 0.013727 -0.003188 -0.009935 0.003752 0.004078
# 3 -0.004245 -0.003188 0.011108 0.000522 -0.004171 0.003134
# 4 0.011114 -0.009935 0.000522 0.044412 -0.007033 -0.015599
# 5 -0.006208 0.003752 -0.004171 -0.007033 0.024131 0.008932
# 6 -0.012640 0.004078 0.003134 -0.015599 0.008932 0.052222
#
#
# Mechanical properties :
#
#
# Convention : Reuss Voigt Hill
#
# Bulk Modulus (GPa) = 52.64812 62.37776 57.51294
# Shear Modulus (GPa) = 26.20963 37.73951 31.97457
#
# Velocity S-wave (km/s) = 3.33305 3.99953 3.68140
# Velocity P-wave (km/s) = 6.09325 6.91142 6.51519
#
# Compressibility (1/GPa) = 0.01899403
#
# Stress axis : x y z
#
# Youngs Moduli (GPa) = 60.61492 72.84853 90.02140
#
# Poissons Ratio (x) = 0.27220 0.38211
# Poissons Ratio (y) = 0.22649 0.28703
# Poissons Ratio (z) = 0.25729 0.23227
#
# Static dielectric constant tensor:
#      x y z
#    x 5.078190 -0.633760 -0.478620 
#    y -0.633760 -3.866420 -8.673900 
#    z -0.478620 -8.673900 -5.215230 
# 
# 
# High freq. dielectric constant tensor:
#      x y z
#    x 1.967640 0.002290 0.024980 
#    y 0.002290 1.907020 -0.007990 
#    z 0.024980 -0.007990 1.946040 
# 
# From -- ./inp_files/363981.got.cif
#   From: 2010.06.25/outbox.cif.g09.slc.cpg/sg2_182_cif.got.tgz:363981.got - 2010.06.27 13:26:56.
