data_PCOD8032244
_publ_section_title
;
Structure prediction by ZEFSAII (Michael W. Deem and Ramdas Pophale) SiO2 
 PCOD8032244
Probable space group: P -1
;
_chemical_formula_sum "Si O2"
_cell_formula_units_Z 12
_cell_length_a 6.738461
_cell_length_b 15.418660
_cell_length_c 9.016786
_cell_angle_alpha 119.420836
_cell_angle_beta 58.140106
_cell_angle_gamma 77.103936
_cell_volume 525.404359
_symmetry_space_group_name_H-M "P -1"
_symmetry_group_IT_number 2
_symmetry_cell_setting 'triclinic'
loop_
_space_group_symop_operation_xyz
x,y,z
-x,-y,-z
loop_
_atom_site_type_symbol
_atom_site_label
_atom_site_fract_x
_atom_site_fract_y
_atom_site_fract_z
Si Si1 0.832161 0.166330 0.574098
Si Si2 0.180465 0.552239 0.483519
Si Si3 0.215608 0.239444 0.407800
Si Si4 0.134613 0.684477 0.906229
Si Si5 0.752781 0.657193 0.229160
Si Si6 0.784386 0.124124 0.890775
O O1 0.559231 0.288754 0.685209
O O2 0.710374 0.183154 0.803216
O O3 0.128270 0.157819 0.447355
O O4 0.937929 0.031708 0.350015
O O5 0.072560 0.645885 0.745563
O O6 0.540976 0.433585 0.247394
O O7 0.000000 0.500000 0.500000
O O8 0.100142 0.635571 0.438127
O O9 0.325636 0.290232 0.527582
O O10 0.483099 0.157000 0.109532
O O11 0.109063 0.810385 0.998888
O O12 0.878776 0.720545 0.152907
O O13 0.000000 0.500000 0.000000
#
# Coordination Sequence:
#
# PCOD8032244 Si02
#       6
#     2   2   2   2   2   2
#     4  11  27  50  68 101 142 186 231 287 346 408
#     4  11  23  41  71 103 141 181 229 286 345 410
#     4  12  25  45  72 104 135 185 234 285 347 412
#     4  11  24  43  68 105 138 184 231 282 349 408
#     4  12  27  43  69 106 140 178 234 288 347 414
#     4  11  25  49  72  99 141 185 235 285 343 411
#
# _framework density 22.839551
#
# number of rings (size 3 to 8) (size 9 to 14) (size 15 to 20)
#    0.000    0.667    3.333    3.500    7.000    2.667 
#    3.000    0.000    0.000    0.000    0.000    0.000 
#    0.000    0.000    0.000    0.000    0.000    0.000 
#
# Total GULP energy -148838.677816 kJ/mol
# GULP energy per Si atom -12403.223151 kJ/mol
# Density = 2.278757 g / cm^3
# Si number density = 22.839551 Si / 1000 Ang^3
#
#
#
# Elastic Constant Matrix: (Units=GPa)
#
#
# Indices 1 2 3 4 5 6 
#
# 1 124.1632 37.2734 52.0085 -0.4588 13.0043 3.2637
# 2 37.2734 85.0231 42.2698 -0.9997 2.5268 6.2468
# 3 52.0085 42.2698 117.4231 -11.3238 12.0472 9.1364
# 4 -0.4588 -0.9997 -11.3238 45.7891 10.8262 -2.2946
# 5 13.0043 2.5268 12.0472 10.8262 37.3728 -0.9712
# 6 3.2637 6.2468 9.1364 -2.2946 -0.9712 41.6645
#
#
#
# Elastic Compliance Matrix: (Units=1/GPa)
#
#
# Indices 1 2 3 4 5 6 
#
# 1 0.010604 -0.002879 -0.003473 -0.000259 -0.002293 0.000295
# 2 -0.002879 0.015238 -0.004422 -0.001255 0.001731 -0.001118
# 3 -0.003473 -0.004422 0.012514 0.003743 -0.003654 -0.001688
# 4 -0.000259 -0.001255 0.003743 0.024695 -0.008171 0.000557
# 5 -0.002293 0.001731 -0.003654 -0.008171 0.031009 0.000994
# 6 0.000295 -0.001118 -0.001688 0.000557 0.000994 0.024570
#
#
# Mechanical properties :
#
#
# Convention : Reuss Voigt Hill
#
# Bulk Modulus (GPa) = 59.49509 65.52364 62.50937
# Shear Modulus (GPa) = 34.29834 37.96912 36.13373
#
# Velocity S-wave (km/s) = 3.87939 4.08171 3.98184
# Velocity P-wave (km/s) = 6.79499 7.13896 6.96910
#
# Compressibility (1/GPa) = 0.01680811
#
# Stress axis : x y z
#
# Youngs Moduli (GPa) = 94.30066 65.62607 79.91349
#
# Poissons Ratio (x) = 0.18892 0.27755
# Poissons Ratio (y) = 0.27146 0.35337
# Poissons Ratio (z) = 0.32752 0.29019
#
# Static dielectric constant tensor:
#      x y z
#    x 5.089560 -0.092450 0.050110 
#    y -0.092450 4.215650 0.001700 
#    z 0.050110 0.001700 4.119710 
# 
# 
# High freq. dielectric constant tensor:
#      x y z
#    x 1.907520 0.011500 0.007120 
#    y 0.011500 1.902500 -0.008450 
#    z 0.007120 -0.008450 1.904540 
# 
# From -- ./inp_files/21884.got.cif
#   From: 2010.06.25/outbox.cif.g09.slc.cpg/sg2_11_cif.got.tgz:21884.got - 2010.06.27 13:26:56.
