data_PCOD8032559
_publ_section_title
;
Structure prediction by ZEFSAII (Michael W. Deem and Ramdas Pophale) SiO2 
 PCOD8032559
Probable space group: P -1
;
_chemical_formula_sum "Si O2"
_cell_formula_units_Z 16
_cell_length_a 19.440888
_cell_length_b 10.229748
_cell_length_c 14.102494
_cell_angle_alpha 52.447984
_cell_angle_beta 31.139965
_cell_angle_gamma 32.589224
_cell_volume 715.657276
_symmetry_space_group_name_H-M "P -1"
_symmetry_group_IT_number 2
_symmetry_cell_setting 'triclinic'
loop_
_space_group_symop_operation_xyz
x,y,z
-x,-y,-z
loop_
_atom_site_type_symbol
_atom_site_label
_atom_site_fract_x
_atom_site_fract_y
_atom_site_fract_z
Si Si1 0.922763 0.077305 0.851635
Si Si2 0.550443 0.934831 0.681541
Si Si3 0.840796 0.782156 0.109344
Si Si4 0.527165 0.365305 0.785375
Si Si5 0.065730 0.490037 0.700166
Si Si6 0.616885 0.232868 0.525981
Si Si7 0.615872 0.970088 0.963255
Si Si8 0.062211 0.858522 0.586784
O O1 0.128762 0.979726 0.687677
O O2 0.925376 0.081418 0.732142
O O3 0.934371 0.875262 0.957952
O O4 0.711206 0.363305 0.018930
O O5 0.778744 0.637625 0.515569
O O6 0.382224 0.019141 0.769749
O O7 0.556665 0.127934 0.584037
O O8 0.520989 0.898861 0.837987
O O9 0.823532 0.748814 0.254887
O O10 0.000000 0.500000 0.000000
O O11 0.527833 0.287552 0.713254
O O12 0.644634 0.131605 0.825788
O O13 0.681314 0.375190 0.595012
O O14 0.013191 0.712881 0.715989
O O15 0.835581 0.656361 0.859270
O O16 0.500000 0.500000 0.500000
O O17 0.500000 0.000000 0.000000
O O18 0.000000 0.000000 0.500000
#
# Coordination Sequence:
#
# PCOD8032559 Si02
#       8
#     2   2   2   2   2   2   2   2
#     4  11  26  45  70  99 136 186 222 282 345 412
#     4  12  27  44  73 105 136 187 230 289 348 409
#     4  12  23  48  75 100 140 179 239 289 344 405
#     4  11  26  45  69  98 140 182 229 278 345 418
#     4  12  27  45  74 102 139 183 233 288 345 410
#     4  11  27  46  67 101 143 178 228 286 346 407
#     4  12  26  46  68 101 144 184 230 283 340 416
#     4  11  23  43  65 100 136 173 224 281 335 402
#
# _framework density 22.357068999999999
#
# number of rings (size 3 to 8) (size 9 to 14) (size 15 to 20)
#    0.000    0.500    5.000    1.875    7.000    1.500 
#    0.000    0.000    0.000    0.000    0.000    0.000 
#    0.000    0.000    0.000    0.000    0.000    0.000 
#
# Total GULP energy -198412.701104 kJ/mol
# GULP energy per Si atom -12400.793819 kJ/mol
# Density = 2.230618 g / cm^3
# Si number density = 22.357069 Si / 1000 Ang^3
#
#
#
# Elastic Constant Matrix: (Units=GPa)
#
#
# Indices 1 2 3 4 5 6 
#
# 1 91.5942 24.9603 49.8017 7.0171 1.7563 -20.3642
# 2 24.9603 66.7338 26.3546 -8.1876 9.9617 -8.2339
# 3 49.8017 26.3546 140.0117 19.7761 15.2516 -8.1083
# 4 7.0171 -8.1876 19.7761 49.2239 7.2339 4.9536
# 5 1.7563 9.9617 15.2516 7.2339 39.9754 -6.9735
# 6 -20.3642 -8.2339 -8.1083 4.9536 -6.9735 36.4663
#
#
#
# Elastic Compliance Matrix: (Units=1/GPa)
#
#
# Indices 1 2 3 4 5 6 
#
# 1 0.016626 -0.004256 -0.004696 -0.002636 0.004067 0.008415
# 2 -0.004256 0.018801 -0.002292 0.005362 -0.004639 -0.000257
# 3 -0.004696 -0.002292 0.009924 -0.003217 -0.002600 -0.000994
# 4 -0.002636 0.005362 -0.003217 0.024183 -0.005289 -0.005273
# 5 0.004067 -0.004639 -0.002600 -0.005289 0.029152 0.006939
# 6 0.008415 -0.000257 -0.000994 -0.005273 0.006939 0.033886
#
#
# Mechanical properties :
#
#
# Convention : Reuss Voigt Hill
#
# Bulk Modulus (GPa) = 43.73996 55.61920 49.67958
# Shear Modulus (GPa) = 30.73503 38.28134 34.50818
#
# Velocity S-wave (km/s) = 3.71176 4.14245 3.93301
# Velocity P-wave (km/s) = 6.16249 6.91459 6.54934
#
# Compressibility (1/GPa) = 0.02286239
#
# Stress axis : x y z
#
# Youngs Moduli (GPa) = 60.14773 53.18970 100.76535
#
# Poissons Ratio (x) = 0.22638 0.47319
# Poissons Ratio (y) = 0.25600 0.23095
# Poissons Ratio (z) = 0.28245 0.12191
#
# Static dielectric constant tensor:
#      x y z
#    x 5.083850 -1.172100 -0.210990 
#    y -1.172100 5.563300 -0.108750 
#    z -0.210990 -0.108750 4.415660 
# 
# 
# High freq. dielectric constant tensor:
#      x y z
#    x 1.888580 -0.004490 -0.000950 
#    y -0.004490 1.870630 -0.008150 
#    z -0.000950 -0.008150 1.902330 
# 
# From -- ./inp_files/471037.got.cif
#   From: 2010.06.25/outbox.cif.g09.slc.cpg/sg2_236_cif.got.tgz:471037.got - 2010.06.27 13:26:56.
