data_PCOD8032402
_publ_section_title
;
Structure prediction by ZEFSAII (Michael W. Deem and Ramdas Pophale) SiO2 
 PCOD8032402
Probable space group: P -1
;
_chemical_formula_sum "Si O2"
_cell_formula_units_Z 14
_cell_length_a 8.416929
_cell_length_b 20.892247
_cell_length_c 8.976198
_cell_angle_alpha 134.020081
_cell_angle_beta 147.084699
_cell_angle_gamma 41.701843
_cell_volume 560.377782
_symmetry_space_group_name_H-M "P -1"
_symmetry_group_IT_number 2
_symmetry_cell_setting 'triclinic'
loop_
_space_group_symop_operation_xyz
x,y,z
-x,-y,-z
loop_
_atom_site_type_symbol
_atom_site_label
_atom_site_fract_x
_atom_site_fract_y
_atom_site_fract_z
Si Si1 0.799339 0.667205 0.945883
Si Si2 0.199518 0.786076 0.462083
Si Si3 0.650556 0.710394 0.239194
Si Si4 0.138769 0.031565 0.308103
Si Si5 0.268582 0.913269 0.485992
Si Si6 0.190094 0.483686 0.773660
Si Si7 0.958813 0.846028 0.837249
O O1 0.482248 0.729658 0.706561
O O2 0.968769 0.556059 0.843739
O O3 0.719328 0.667890 0.057989
O O4 0.040861 0.714966 0.177665
O O5 0.313586 0.811408 0.433090
O O6 0.949790 0.884952 0.501652
O O7 0.731254 0.624335 0.281383
O O8 0.857612 0.773131 0.537287
O O9 0.269262 0.779027 0.071156
O O10 0.942830 0.080986 0.080085
O O11 0.500000 0.000000 0.500000
O O12 0.123003 0.937523 0.236425
O O13 0.626158 0.911974 0.771944
O O14 0.000000 0.000000 0.500000
O O15 0.000000 0.500000 0.500000
O O16 0.500000 0.500000 0.000000
#
# Coordination Sequence:
#
# PCOD8032402 Si02
#       7
#     2   2   2   2   2   2   2
#     4  12  25  47  73 101 144 182 231 285 347 426
#     4  11  23  42  69 104 139 185 233 280 352 403
#     4  12  25  47  73 104 139 184 232 284 351 420
#     4   9  18  42  65 101 140 183 234 287 338 407
#     4   9  22  42  67 101 146 186 233 293 347 402
#     4  12  29  48  73 110 140 178 229 291 356 422
#     4  11  23  42  73 102 138 186 238 283 342 417
#
# _framework density 24.983146999999999
#
# number of rings (size 3 to 8) (size 9 to 14) (size 15 to 20)
#    0.000    1.143    2.857    2.143    6.000    0.000 
#    0.000   32.857    0.000    0.000    0.000    0.000 
#    0.000    0.000    0.000    0.000    0.000    0.000 
#
# Total GULP energy -173509.494491 kJ/mol
# GULP energy per Si atom -12393.535321 kJ/mol
# Density = 2.492628 g / cm^3
# Si number density = 24.983147 Si / 1000 Ang^3
#
#
#
# Elastic Constant Matrix: (Units=GPa)
#
#
# Indices 1 2 3 4 5 6 
#
# 1 158.7537 82.2423 62.2010 -10.6766 -15.2143 28.2218
# 2 82.2423 189.3438 65.6126 -9.8152 -4.1814 2.6355
# 3 62.2010 65.6126 161.1848 -13.9548 -12.1566 24.3912
# 4 -10.6766 -9.8152 -13.9548 35.6145 5.2875 -7.6705
# 5 -15.2143 -4.1814 -12.1566 5.2875 51.2261 -7.0093
# 6 28.2218 2.6355 24.3912 -7.6705 -7.0093 64.6376
#
#
#
# Elastic Compliance Matrix: (Units=1/GPa)
#
#
# Indices 1 2 3 4 5 6 
#
# 1 0.009466 -0.003455 -0.001613 0.000323 0.001680 -0.003163
# 2 -0.003455 0.007469 -0.001992 0.000771 -0.000699 0.001971
# 3 -0.001613 -0.001992 0.008143 0.001600 0.000851 -0.002005
# 4 0.000323 0.000771 0.001600 0.029886 -0.002200 0.002532
# 5 0.001680 -0.000699 0.000851 -0.002200 0.020521 0.000938
# 6 -0.003163 0.001971 -0.002005 0.002532 0.000938 0.017930
#
#
# Mechanical properties :
#
#
# Convention : Reuss Voigt Hill
#
# Bulk Modulus (GPa) = 91.24464 103.26602 97.25533
# Shear Modulus (GPa) = 44.96888 50.24407 47.60648
#
# Velocity S-wave (km/s) = 4.24721 4.48941 4.36999
# Velocity P-wave (km/s) = 7.78803 8.26421 8.02965
#
# Compressibility (1/GPa) = 0.01095955
#
# Stress axis : x y z
#
# Youngs Moduli (GPa) = 105.64298 133.88449 122.79757
#
# Poissons Ratio (x) = 0.46252 0.19811
# Poissons Ratio (y) = 0.36495 0.24455
# Poissons Ratio (z) = 0.17044 0.26663
#
# Static dielectric constant tensor:
#      x y z
#    x 5.591250 0.374260 -0.482280 
#    y 0.374260 5.024170 -0.109140 
#    z -0.482280 -0.109140 4.859500 
# 
# 
# High freq. dielectric constant tensor:
#      x y z
#    x 2.022250 0.002020 -0.018150 
#    y 0.002020 2.021910 0.001390 
#    z -0.018150 0.001390 2.014680 
# 
# From -- ./inp_files/89781.got.cif
#   From: 2010.06.25/outbox.cif.g09.slc.cpg/sg2_45_cif.got.tgz:89781.got - 2010.06.27 13:26:56.
