data_PCOD8032365
_publ_section_title
;
Structure prediction by ZEFSAII (Michael W. Deem and Ramdas Pophale) SiO2 
 PCOD8032365
Probable space group: P -1
;
_chemical_formula_sum "Si O2"
_cell_formula_units_Z 16
_cell_length_a 14.838764
_cell_length_b 13.704871
_cell_length_c 14.476855
_cell_angle_alpha 150.135006
_cell_angle_beta 150.028574
_cell_angle_gamma 40.488850
_cell_volume 731.864523
_symmetry_space_group_name_H-M "P -1"
_symmetry_group_IT_number 2
_symmetry_cell_setting 'triclinic'
loop_
_space_group_symop_operation_xyz
x,y,z
-x,-y,-z
loop_
_atom_site_type_symbol
_atom_site_label
_atom_site_fract_x
_atom_site_fract_y
_atom_site_fract_z
Si Si1 0.894034 0.315303 0.784653
Si Si2 0.848703 0.744527 0.789928
Si Si3 0.559899 0.293552 0.344115
Si Si4 0.546198 0.616467 0.043390
Si Si5 0.475432 0.038397 0.403766
Si Si6 0.292750 0.658166 0.684927
Si Si7 0.770918 0.340183 0.898997
Si Si8 0.773194 0.908449 0.044595
O O1 0.746378 0.236922 0.516924
O O2 0.814161 0.392432 0.874897
O O3 0.000000 0.500000 0.000000
O O4 0.040946 0.135923 0.772519
O O5 0.852422 0.509518 0.586438
O O6 0.757741 0.767029 0.827638
O O7 0.734207 0.890352 0.740128
O O8 0.061575 0.791232 0.016044
O O9 0.500000 0.500000 0.500000
O O10 0.583850 0.322283 0.280061
O O11 0.407947 0.129002 0.087619
O O12 0.547904 0.848501 0.255226
O O13 0.500000 0.500000 0.000000
O O14 0.397918 0.586380 0.809836
O O15 0.729843 0.525924 0.084168
O O16 0.500000 0.000000 0.500000
O O17 0.594539 0.216916 0.628879
O O18 0.203781 0.873408 0.795489
#
# Coordination Sequence:
#
# PCOD8032365 Si02
#       8
#     2   2   2   2   2   2   2   2
#     4  11  23  42  68 101 146 185 232 280 343 419
#     4  11  23  45  68  99 140 181 227 289 347 417
#     4  12  21  40  67  95 137 187 228 284 345 411
#     4  12  25  47  74 103 138 182 235 297 354 416
#     4  12  24  47  74  99 138 181 238 298 353 415
#     4  12  24  43  69  98 143 180 237 290 347 418
#     4  11  25  44  74 103 136 193 230 283 360 405
#     4  11  24  41  64 100 138 185 230 284 346 411
#
# _framework density 21.861968999999998
#
# number of rings (size 3 to 8) (size 9 to 14) (size 15 to 20)
#    0.000    0.500    6.250    2.625    0.000    3.000 
#    0.000    1.250    0.000    0.000    0.000    0.000 
#    0.000    0.000    0.000    0.000    0.000    0.000 
#
# Total GULP energy -198252.562360 kJ/mol
# GULP energy per Si atom -12390.785147 kJ/mol
# Density = 2.181221 g / cm^3
# Si number density = 21.861969 Si / 1000 Ang^3
#
#
#
# Elastic Constant Matrix: (Units=GPa)
#
#
# Indices 1 2 3 4 5 6 
#
# 1 102.6999 31.6298 18.2213 -6.0442 -16.9364 3.5305
# 2 31.6298 140.6415 41.9911 -12.4656 -3.7013 0.8384
# 3 18.2213 41.9911 63.3980 3.7540 -12.7509 -7.1839
# 4 -6.0442 -12.4656 3.7540 41.0104 3.6730 -3.6509
# 5 -16.9364 -3.7013 -12.7509 3.6730 27.5295 -2.6355
# 6 3.5305 0.8384 -7.1839 -3.6509 -2.6355 36.6144
#
#
#
# Elastic Compliance Matrix: (Units=1/GPa)
#
#
# Indices 1 2 3 4 5 6 
#
# 1 0.011648 -0.002190 -0.000716 0.000480 0.006408 -0.000704
# 2 -0.002190 0.009948 -0.007109 0.003583 -0.003909 -0.001336
# 3 -0.000716 -0.007109 0.023728 -0.004941 0.010748 0.005168
# 4 0.000480 0.003583 -0.004941 0.026545 -0.004939 0.001194
# 5 0.006408 -0.003909 0.010748 -0.004939 0.045798 0.004384
# 6 -0.000704 -0.001336 0.005168 0.001194 0.004384 0.028859
#
#
# Mechanical properties :
#
#
# Convention : Reuss Voigt Hill
#
# Bulk Modulus (GPa) = 39.53794 54.49152 47.01473
# Shear Modulus (GPa) = 28.57335 35.35733 31.96534
#
# Velocity S-wave (km/s) = 3.61915 4.02593 3.82795
# Velocity P-wave (km/s) = 5.96564 6.82570 6.41011
#
# Compressibility (1/GPa) = 0.02529216
#
# Stress axis : x y z
#
# Youngs Moduli (GPa) = 85.85126 100.52166 42.14473
#
# Poissons Ratio (x) = 0.22018 0.03019
# Poissons Ratio (y) = 0.18804 0.29961
# Poissons Ratio (z) = 0.06150 0.71462
#
# Static dielectric constant tensor:
#      x y z
#    x 3.866700 -0.225690 -0.555520 
#    y -0.225690 4.656050 0.185060 
#    z -0.555520 0.185060 3.482780 
# 
# 
# High freq. dielectric constant tensor:
#      x y z
#    x 1.855270 -0.000750 -0.015240 
#    y -0.000750 1.876050 -0.003030 
#    z -0.015240 -0.003030 1.857740 
# 
# From -- ./inp_files/534646.got.cif
#   From: 2010.06.25/outbox.cif.g09.slc.cpg/sg2_268_cif.got.tgz:534646.got - 2010.06.27 13:26:56.
