data_PCOD8032045
_publ_section_title
;
Structure prediction by ZEFSAII (Michael W. Deem and Ramdas Pophale) SiO2 
 PCOD8032045
Probable space group: P -1
;
_chemical_formula_sum "Si O2"
_cell_formula_units_Z 14
_cell_length_a 19.339122
_cell_length_b 9.283305
_cell_length_c 9.860344
_cell_angle_alpha 47.878302
_cell_angle_beta 131.472091
_cell_angle_gamma 150.435758
_cell_volume 632.620401
_symmetry_space_group_name_H-M "P -1"
_symmetry_group_IT_number 2
_symmetry_cell_setting 'triclinic'
loop_
_space_group_symop_operation_xyz
x,y,z
-x,-y,-z
loop_
_atom_site_type_symbol
_atom_site_label
_atom_site_fract_x
_atom_site_fract_y
_atom_site_fract_z
Si Si1 0.974995 0.437003 0.850172
Si Si2 0.503450 0.667356 0.017411
Si Si3 0.977865 0.826974 0.455748
Si Si4 0.247800 0.709658 0.923856
Si Si5 0.697951 0.892595 0.707425
Si Si6 0.319187 0.749481 0.687178
Si Si7 0.128870 0.146435 0.176922
O O1 0.079261 0.445762 0.914149
O O2 0.019223 0.684674 0.654426
O O3 0.805669 0.118075 0.827752
O O4 0.000000 0.500000 0.000000
O O5 0.436178 0.767146 0.827339
O O6 0.500000 0.500000 0.000000
O O7 0.426176 0.448594 0.184781
O O8 0.663911 0.986372 0.069344
O O9 0.816550 0.572190 0.352946
O O10 0.000000 0.000000 0.500000
O O11 0.080118 0.063448 0.320599
O O12 0.280989 0.779348 0.764249
O O13 0.268245 0.515523 0.111786
O O14 0.803648 0.956634 0.698416
O O15 0.628882 0.979427 0.503157
O O16 0.000000 0.000000 0.000000
#
# Coordination Sequence:
#
# PCOD8032045 Si02
#       7
#     2   2   2   2   2   2   2
#     4  11  23  40  68 104 141 181 235 293 356 418
#     4  12  28  48  70  99 145 190 233 298 362 413
#     4  11  24  39  69 109 143 179 232 297 359 411
#     4  12  24  43  74 103 140 188 239 285 349 435
#     4  11  24  45  72  97 140 187 234 296 351 415
#     4  11  25  47  69 104 139 182 250 282 347 443
#     4  12  21  42  74 104 142 184 233 295 355 415
#
# _framework density 22.130175999999999
#
# number of rings (size 3 to 8) (size 9 to 14) (size 15 to 20)
#    0.000    0.571    4.286    3.000    4.000    4.571 
#    2.571    0.000    0.000    0.000    0.000    0.000 
#    0.000    0.000    0.000    0.000    0.000    0.000 
#
# Total GULP energy -173470.329906 kJ/mol
# GULP energy per Si atom -12390.737850 kJ/mol
# Density = 2.207981 g / cm^3
# Si number density = 22.130176 Si / 1000 Ang^3
#
#
#
# Elastic Constant Matrix: (Units=GPa)
#
#
# Indices 1 2 3 4 5 6 
#
# 1 101.3072 17.8252 37.5996 3.0294 -3.4843 -14.1488
# 2 17.8252 124.6170 48.4413 -14.1131 -7.6113 -16.8829
# 3 37.5996 48.4413 112.7777 -11.5537 -4.9665 2.5878
# 4 3.0294 -14.1131 -11.5537 32.8572 -7.4654 -7.3635
# 5 -3.4843 -7.6113 -4.9665 -7.4654 40.5792 1.7588
# 6 -14.1488 -16.8829 2.5878 -7.3635 1.7588 36.2928
#
#
#
# Elastic Compliance Matrix: (Units=1/GPa)
#
#
# Indices 1 2 3 4 5 6 
#
# 1 0.012218 0.000575 -0.004566 -0.001315 0.000136 0.005083
# 2 0.000575 0.011390 -0.004599 0.005270 0.002297 0.006808
# 3 -0.004566 -0.004599 0.012723 0.002126 0.000886 -0.004438
# 4 -0.001315 0.005270 0.002126 0.037311 0.007610 0.008988
# 5 0.000136 0.002297 0.000886 0.007610 0.026537 0.001316
# 6 0.005083 0.006808 -0.004438 0.008988 0.001316 0.034779
#
#
# Mechanical properties :
#
#
# Convention : Reuss Voigt Hill
#
# Bulk Modulus (GPa) = 52.21519 60.71491 56.46505
# Shear Modulus (GPa) = 31.54151 37.60154 34.57152
#
# Velocity S-wave (km/s) = 3.77937 4.12649 3.95674
# Velocity P-wave (km/s) = 6.53381 7.08511 6.81504
#
# Compressibility (1/GPa) = 0.01915152
#
# Stress axis : x y z
#
# Youngs Moduli (GPa) = 81.84448 87.79973 78.59525
#
# Poissons Ratio (x) = -0.05050 0.35886
# Poissons Ratio (y) = -0.04708 0.36147
# Poissons Ratio (z) = 0.37370 0.40380
#
# Static dielectric constant tensor:
#      x y z
#    x 3.938820 -0.161750 0.182690 
#    y -0.161750 4.126800 -0.212500 
#    z 0.182690 -0.212500 4.123040 
# 
# 
# High freq. dielectric constant tensor:
#      x y z
#    x 1.871220 -0.017370 0.001500 
#    y -0.017370 1.880760 -0.014820 
#    z 0.001500 -0.014820 1.877010 
# 
# From -- ./inp_files/189727.got.cif
#   From: 2010.06.25/outbox.cif.g09.slc.cpg/sg2_95_cif.got.tgz:189727.got - 2010.06.27 13:26:56.
