data_PCOD8032991
_publ_section_title
;
Structure prediction by ZEFSAII (Michael W. Deem and Ramdas Pophale) SiO2 
 PCOD8032991
Probable space group: P -1
;
_chemical_formula_sum "Si O2"
_cell_formula_units_Z 16
_cell_length_a 12.858344
_cell_length_b 9.133493
_cell_length_c 10.680666
_cell_angle_alpha 116.694636
_cell_angle_beta 47.136240
_cell_angle_gamma 95.171221
_cell_volume 775.675733
_symmetry_space_group_name_H-M "P -1"
_symmetry_group_IT_number 2
_symmetry_cell_setting 'triclinic'
loop_
_space_group_symop_operation_xyz
x,y,z
-x,-y,-z
loop_
_atom_site_type_symbol
_atom_site_label
_atom_site_fract_x
_atom_site_fract_y
_atom_site_fract_z
Si Si1 0.179571 0.503773 0.556208
Si Si2 0.321216 0.763948 0.434045
Si Si3 0.295743 0.162405 0.190178
Si Si4 0.879546 0.406081 0.083812
Si Si5 0.389188 0.825205 0.120400
Si Si6 0.361480 0.486799 0.895625
Si Si7 0.899771 0.916492 0.127918
Si Si8 0.845047 0.675588 0.873454
O O1 0.224384 0.636269 0.479925
O O2 0.272959 0.305926 0.372495
O O3 0.205119 0.544194 0.694837
O O4 0.006061 0.527993 0.683628
O O5 0.327218 0.809446 0.301698
O O6 0.486426 0.670461 0.322028
O O7 0.241910 0.944374 0.638467
O O8 0.174080 0.222135 0.202283
O O9 0.277195 0.989049 0.199455
O O10 0.456331 0.132094 0.981739
O O11 0.747549 0.457043 0.111361
O O12 0.000000 0.500000 0.000000
O O13 0.981541 0.203446 0.915416
O O14 0.410065 0.647830 0.961905
O O15 0.278089 0.421664 0.050514
O O16 0.831125 0.802997 0.051191
O O17 0.000000 0.000000 0.000000
#
# Coordination Sequence:
#
# PCOD8032991 Si02
#       8
#     2   2   2   2   2   2   2   2
#     4  11  23  44  70  96 135 180 216 274 339 396
#     4  12  24  45  71  99 133 181 223 271 338 397
#     4  11  24  45  64 103 132 172 226 277 335 392
#     4  11  24  46  68 100 138 175 219 278 332 395
#     4  11  26  42  68  96 139 170 220 290 325 395
#     4  12  24  45  71  99 133 181 223 271 338 397
#     4  11  24  46  68 100 138 175 219 278 332 395
#     4  11  23  44  70  96 135 180 216 274 339 396
#
# _framework density 20.627175999999999
#
# number of rings (size 3 to 8) (size 9 to 14) (size 15 to 20)
#    0.000    0.750    7.500    1.500    3.500    1.000 
#    4.500    1.875    0.000    0.000    0.000    0.000 
#    0.000    0.000    0.000    0.000    0.000    0.000 
#
# Total GULP energy -198410.208371 kJ/mol
# GULP energy per Si atom -12400.638023 kJ/mol
# Density = 2.058023 g / cm^3
# Si number density = 20.627176 Si / 1000 Ang^3
#
#
#
# Elastic Constant Matrix: (Units=GPa)
#
#
# Indices 1 2 3 4 5 6 
#
# 1 92.3705 30.1178 32.0858 3.8636 -0.5508 -25.6148
# 2 30.1178 125.9266 51.6601 1.6122 -0.4400 -21.0340
# 3 32.0858 51.6601 125.0633 6.3578 -1.5863 -12.0561
# 4 3.8636 1.6122 6.3578 38.2384 -2.6295 -5.8675
# 5 -0.5508 -0.4400 -1.5863 -2.6295 28.5191 -2.6820
# 6 -25.6148 -21.0340 -12.0561 -5.8675 -2.6820 37.2925
#
#
#
# Elastic Compliance Matrix: (Units=1/GPa)
#
#
# Indices 1 2 3 4 5 6 
#
# 1 0.014395 -0.000989 -0.002457 0.000393 0.000977 0.008667
# 2 -0.000989 0.010368 -0.003670 0.000940 0.000415 0.004160
# 3 -0.002457 -0.003670 0.010151 -0.001369 0.000271 -0.000672
# 4 0.000393 0.000940 -0.001369 0.027245 0.002914 0.004854
# 5 0.000977 0.000415 0.000271 0.002914 0.035752 0.004022
# 6 0.008667 0.004160 -0.000672 0.004854 0.004022 0.035950
#
#
# Mechanical properties :
#
#
# Convention : Reuss Voigt Hill
#
# Bulk Modulus (GPa) = 48.35340 63.45422 55.90381
# Shear Modulus (GPa) = 32.26118 36.10977 34.18548
#
# Velocity S-wave (km/s) = 3.95905 4.18855 4.07541
# Velocity P-wave (km/s) = 6.66268 7.36350 7.02184
#
# Compressibility (1/GPa) = 0.02068107
#
# Stress axis : x y z
#
# Youngs Moduli (GPa) = 69.47059 96.45458 98.51611
#
# Poissons Ratio (x) = 0.09538 0.24202
# Poissons Ratio (y) = 0.06869 0.36159
# Poissons Ratio (z) = 0.17066 0.35403
#
# Static dielectric constant tensor:
#      x y z
#    x 4.003060 -0.096170 0.111420 
#    y -0.096170 4.126030 0.112370 
#    z 0.111420 0.112370 3.961720 
# 
# 
# High freq. dielectric constant tensor:
#      x y z
#    x 1.798220 -0.010790 -0.007630 
#    y -0.010790 1.824480 -0.001220 
#    z -0.007630 -0.001220 1.810410 
# 
# From -- ./inp_files/446273.got.cif
#   From: 2010.06.25/outbox.cif.g09.slc.cpg/sg2_224_cif.got.tgz:446273.got - 2010.06.27 13:26:56.
