data_PCOD8032654
_publ_section_title
;
Structure prediction by ZEFSAII (Michael W. Deem and Ramdas Pophale) SiO2 
 PCOD8032654
Probable space group: P -1
;
_chemical_formula_sum "Si O2"
_cell_formula_units_Z 16
_cell_length_a 17.803779
_cell_length_b 11.664543
_cell_length_c 14.928394
_cell_angle_alpha 28.905851
_cell_angle_beta 150.773667
_cell_angle_gamma 132.627681
_cell_volume 680.478689
_symmetry_space_group_name_H-M "P -1"
_symmetry_group_IT_number 2
_symmetry_cell_setting 'triclinic'
loop_
_space_group_symop_operation_xyz
x,y,z
-x,-y,-z
loop_
_atom_site_type_symbol
_atom_site_label
_atom_site_fract_x
_atom_site_fract_y
_atom_site_fract_z
Si Si1 0.469286 0.034466 0.549077
Si Si2 0.203344 0.375367 0.458722
Si Si3 0.863041 0.880192 0.280053
Si Si4 0.166310 0.279920 0.174046
Si Si5 0.439769 0.551093 0.692656
Si Si6 0.308371 0.539115 0.283924
Si Si7 0.296120 0.440269 0.785524
Si Si8 0.788933 0.245567 0.342202
O O1 0.274833 0.182880 0.263706
O O2 0.574384 0.217806 0.548555
O O3 0.500000 0.000000 0.500000
O O4 0.537380 0.779783 0.853129
O O5 0.178671 0.136086 0.645959
O O6 0.352110 0.390515 0.661595
O O7 0.270450 0.345705 0.447452
O O8 0.027729 0.609823 0.126145
O O9 0.804643 0.704277 0.272866
O O10 0.059135 0.767955 0.552611
O O11 0.785605 0.176655 0.970923
O O12 0.229553 0.486557 0.146089
O O13 0.204606 0.038301 0.443084
O O14 0.351515 0.621286 0.651390
O O15 0.630998 0.393138 0.017650
O O16 0.500000 0.500000 0.500000
O O17 0.197956 0.615502 0.645286
#
# Coordination Sequence:
#
# PCOD8032654 Si02
#       8
#     2   2   2   2   2   2   2   2
#     4  12  23  42  72 103 143 190 238 283 354 427
#     4  11  26  47  71 106 138 185 245 286 354 423
#     4  11  26  46  72 103 143 183 240 295 351 423
#     4  12  26  47  73 105 147 185 237 297 351 416
#     4  11  23  43  69 101 144 186 235 291 350 423
#     4  12  27  51  75 101 142 190 234 301 355 413
#     4  11  23  44  67 106 145 186 233 292 356 417
#     4  12  23  44  72 101 146 189 226 296 359 416
#
# _framework density 23.512858999999999
#
# number of rings (size 3 to 8) (size 9 to 14) (size 15 to 20)
#    0.000    0.500    3.750    4.875    1.750    1.000 
#    2.250    1.875    0.000    0.000    0.000    0.000 
#    0.000    0.000    0.000    0.000    0.000    0.000 
#
# Total GULP energy -198250.126688 kJ/mol
# GULP energy per Si atom -12390.632918 kJ/mol
# Density = 2.345934 g / cm^3
# Si number density = 23.512859 Si / 1000 Ang^3
#
#
#
# Elastic Constant Matrix: (Units=GPa)
#
#
# Indices 1 2 3 4 5 6 
#
# 1 114.9245 12.4187 22.1134 18.0858 18.8225 3.9537
# 2 12.4187 77.8147 31.6442 12.8488 20.6079 -3.5946
# 3 22.1134 31.6442 62.3816 13.5985 16.0713 -9.3313
# 4 18.0858 12.8488 13.5985 33.5320 9.6707 -1.2124
# 5 18.8225 20.6079 16.0713 9.6707 39.7090 3.6836
# 6 3.9537 -3.5946 -9.3313 -1.2124 3.6836 26.3711
#
#
#
# Elastic Compliance Matrix: (Units=1/GPa)
#
#
# Indices 1 2 3 4 5 6 
#
# 1 0.010343 0.000837 -0.002763 -0.003978 -0.003048 -0.002171
# 2 0.000837 0.017650 -0.007029 -0.002576 -0.006134 0.000532
# 3 -0.002763 -0.007029 0.023832 -0.003877 -0.004518 0.008342
# 4 -0.003978 -0.002576 -0.003877 0.035722 -0.004008 0.001076
# 5 -0.003048 -0.006134 -0.004518 -0.004008 0.033247 -0.006806
# 6 -0.002171 0.000532 0.008342 0.001076 -0.006806 0.042270
#
#
# Mechanical properties :
#
#
# Convention : Reuss Voigt Hill
#
# Bulk Modulus (GPa) = 29.48560 43.05261 36.26911
# Shear Modulus (GPa) = 26.00385 32.51871 29.26128
#
# Velocity S-wave (km/s) = 3.32918 3.72293 3.53155
# Velocity P-wave (km/s) = 5.22928 6.06879 5.66461
#
# Compressibility (1/GPa) = 0.03391486
#
# Stress axis : x y z
#
# Youngs Moduli (GPa) = 96.68793 56.65679 41.96018
#
# Poissons Ratio (x) = -0.04741 0.11594
# Poissons Ratio (y) = -0.08091 0.29492
# Poissons Ratio (z) = 0.26716 0.39822
#
# Static dielectric constant tensor:
#      x y z
#    x 3.349470 -0.947750 0.678090 
#    y -0.947750 3.392220 0.666080 
#    z 0.678090 0.666080 3.662960 
# 
# 
# High freq. dielectric constant tensor:
#      x y z
#    x 1.952410 0.020000 -0.005480 
#    y 0.020000 1.935650 0.003590 
#    z -0.005480 0.003590 1.918890 
# 
# From -- ./inp_files/333337.got.cif
#   From: 2010.06.25/outbox.cif.g09.slc.cpg/sg2_167_cif.got.tgz:333337.got - 2010.06.27 13:26:56.
