data_PCOD8032999
_publ_section_title
;
Structure prediction by ZEFSAII (Michael W. Deem and Ramdas Pophale) SiO2 
 PCOD8032999
Probable space group: P -1
;
_chemical_formula_sum "Si O2"
_cell_formula_units_Z 16
_cell_length_a 9.478042
_cell_length_b 9.530163
_cell_length_c 15.358228
_cell_angle_alpha 71.551317
_cell_angle_beta 35.869853
_cell_angle_gamma 73.252895
_cell_volume 769.832827
_symmetry_space_group_name_H-M "P -1"
_symmetry_group_IT_number 2
_symmetry_cell_setting 'triclinic'
loop_
_space_group_symop_operation_xyz
x,y,z
-x,-y,-z
loop_
_atom_site_type_symbol
_atom_site_label
_atom_site_fract_x
_atom_site_fract_y
_atom_site_fract_z
Si Si1 0.849680 0.041408 0.481688
Si Si2 0.866434 0.167129 0.939323
Si Si3 0.645592 0.904056 0.191427
Si Si4 0.584060 0.568733 0.570869
Si Si5 0.480772 0.641751 0.207211
Si Si6 0.823959 0.354965 0.361682
Si Si7 0.988735 0.218095 0.673455
Si Si8 0.718297 0.492859 0.958336
O O1 0.569865 0.052947 0.643546
O O2 0.929778 0.194941 0.370952
O O3 0.000000 0.000000 0.500000
O O4 0.896597 0.921818 0.407157
O O5 0.872956 0.168774 0.831268
O O6 0.764652 0.323488 0.999011
O O7 0.130283 0.131930 0.851552
O O8 0.686149 0.042686 0.081236
O O9 0.599690 0.763699 0.182326
O O10 0.544962 0.512715 0.699096
O O11 0.646859 0.421634 0.511845
O O12 0.336314 0.652823 0.644434
O O13 0.799992 0.675159 0.435025
O O14 0.216861 0.699277 0.297650
O O15 0.660276 0.603125 0.045509
O O16 0.045005 0.457950 0.218266
O O17 0.500000 0.500000 0.000000
#
# Coordination Sequence:
#
# PCOD8032999 Si02
#       8
#     2   2   2   2   2   2   2   2
#     4  12  26  44  71 100 137 178 229 278 336 401
#     4  11  26  47  69  99 141 180 223 279 339 403
#     4  11  26  47  69  99 141 180 223 279 339 403
#     4  11  23  44  70  97 139 172 225 282 338 398
#     4  12  25  44  71 101 135 179 226 281 335 400
#     4  11  24  44  69  99 136 179 220 282 339 396
#     4  12  25  44  71 101 135 179 226 281 335 400
#     4  12  26  44  71 100 137 178 229 278 336 401
#
# _framework density 20.783733999999999
#
# number of rings (size 3 to 8) (size 9 to 14) (size 15 to 20)
#    0.000    0.500    5.000    1.875    5.250    4.500 
#    0.000    0.000    0.000    0.000    0.000    0.000 
#    0.000    0.000    0.000    0.000    0.000    0.000 
#
# Total GULP energy -198509.415563 kJ/mol
# GULP energy per Si atom -12406.838473 kJ/mol
# Density = 2.073643 g / cm^3
# Si number density = 20.783734 Si / 1000 Ang^3
#
#
#
# Elastic Constant Matrix: (Units=GPa)
#
#
# Indices 1 2 3 4 5 6 
#
# 1 51.7553 10.5273 6.9397 -2.5229 15.9114 -3.6076
# 2 10.5273 114.6121 27.5129 3.0300 17.6391 -3.3682
# 3 6.9397 27.5129 79.0531 -2.8563 5.7725 3.9133
# 4 -2.5229 3.0300 -2.8563 43.0467 -0.3315 8.3705
# 5 15.9114 17.6391 5.7725 -0.3315 29.3161 0.1410
# 6 -3.6076 -3.3682 3.9133 8.3705 0.1410 37.2790
#
#
#
# Elastic Compliance Matrix: (Units=1/GPa)
#
#
# Indices 1 2 3 4 5 6 
#
# 1 0.023539 0.000134 -0.001280 0.000740 -0.012607 0.002306
# 2 0.000134 0.010489 -0.003371 -0.001316 -0.005742 0.001632
# 3 -0.001280 -0.003371 0.014104 0.001536 -0.000026 -0.002254
# 4 0.000740 -0.001316 0.001536 0.024586 0.000393 -0.005730
# 5 -0.012607 -0.005742 -0.000026 0.000393 0.044428 -0.001992
# 6 0.002306 0.001632 -0.002254 -0.005730 -0.001992 0.028726
#
#
# Mechanical properties :
#
#
# Convention : Reuss Voigt Hill
#
# Bulk Modulus (GPa) = 25.57731 37.26449 31.42090
# Shear Modulus (GPa) = 29.77292 35.29107 32.53199
#
# Velocity S-wave (km/s) = 3.78896 4.12517 3.96063
# Velocity P-wave (km/s) = 5.61023 6.37636 6.00552
#
# Compressibility (1/GPa) = 0.03909715
#
# Stress axis : x y z
#
# Youngs Moduli (GPa) = 42.48318 95.34232 70.90052
#
# Poissons Ratio (x) = -0.01273 0.09073
# Poissons Ratio (y) = -0.00567 0.23901
# Poissons Ratio (z) = 0.05437 0.32140
#
# Static dielectric constant tensor:
#      x y z
#    x 3.916260 -0.108360 0.067400 
#    y -0.108360 4.019460 0.106220 
#    z 0.067400 0.106220 3.912110 
# 
# 
# High freq. dielectric constant tensor:
#      x y z
#    x 1.825460 -0.007970 -0.000390 
#    y -0.007970 1.824630 -0.002120 
#    z -0.000390 -0.002120 1.821650 
# 
# From -- ./inp_files/185708.got.cif
#   From: 2010.06.25/outbox.cif.g09.slc.cpg/sg2_93_cif.got.tgz:185708.got - 2010.06.27 13:26:56.
