data_PCOD8032368
_publ_section_title
;
Structure prediction by ZEFSAII (Michael W. Deem and Ramdas Pophale) SiO2 
 PCOD8032368
Probable space group: P -1
;
_chemical_formula_sum "Si O2"
_cell_formula_units_Z 16
_cell_length_a 19.509185
_cell_length_b 9.758858
_cell_length_c 9.537377
_cell_angle_alpha 149.722446
_cell_angle_beta 120.173631
_cell_angle_gamma 56.004081
_cell_volume 758.176185
_symmetry_space_group_name_H-M "P -1"
_symmetry_group_IT_number 2
_symmetry_cell_setting 'triclinic'
loop_
_space_group_symop_operation_xyz
x,y,z
-x,-y,-z
loop_
_atom_site_type_symbol
_atom_site_label
_atom_site_fract_x
_atom_site_fract_y
_atom_site_fract_z
Si Si1 0.183322 0.366529 0.004820
Si Si2 0.239200 0.983441 0.254993
Si Si3 0.451812 0.296839 0.138656
Si Si4 0.700558 0.899760 0.877523
Si Si5 0.926192 0.003883 0.529256
Si Si6 0.392379 0.531575 0.567426
Si Si7 0.953352 0.819336 0.704448
Si Si8 0.300072 0.343527 0.850880
O O1 0.249210 0.278987 0.871566
O O2 0.125866 0.162699 0.756766
O O3 0.227457 0.330135 0.169106
O O4 0.129411 0.686360 0.215195
O O5 0.262946 0.995967 0.129261
O O6 0.141568 0.116133 0.290173
O O7 0.291086 0.151927 0.542776
O O8 0.266102 0.665136 0.053508
O O9 0.390081 0.498239 0.366339
O O10 0.514949 0.463235 0.291625
O O11 0.396912 0.255201 0.914446
O O12 0.500000 0.000000 0.000000
O O13 0.630555 0.739765 0.627532
O O14 0.669253 0.170370 0.185845
O O15 0.962064 0.857401 0.581803
O O16 0.000000 0.000000 0.500000
O O17 0.000000 0.500000 0.500000
O O18 0.000000 0.000000 0.000000
#
# Coordination Sequence:
#
# PCOD8032368 Si02
#       8
#     2   2   2   2   2   2   2   2
#     4  12  23  45  70  98 135 178 232 292 332 402
#     4  12  28  47  68 103 143 183 233 276 356 416
#     4  11  24  42  77 106 136 180 236 283 346 408
#     4  12  26  44  70 101 142 183 228 286 348 408
#     4  12  27  44  67 104 136 170 237 288 343 403
#     4  11  23  42  68 105 136 171 234 282 327 417
#     4  12  26  46  71  96 139 186 225 276 345 420
#     4  12  24  46  72 100 136 186 228 290 332 412
#
# _framework density 21.103273000000002
#
# number of rings (size 3 to 8) (size 9 to 14) (size 15 to 20)
#    0.000    0.250    5.000    3.375    8.750    0.000 
#    0.000    3.750    0.000    0.000    0.000    0.000 
#    0.000    0.000    0.000    0.000    0.000    0.000 
#
# Total GULP energy -198459.703003 kJ/mol
# GULP energy per Si atom -12403.731438 kJ/mol
# Density = 2.105524 g / cm^3
# Si number density = 21.103273 Si / 1000 Ang^3
#
#
#
# Elastic Constant Matrix: (Units=GPa)
#
#
# Indices 1 2 3 4 5 6 
#
# 1 122.5961 63.6631 41.4578 -8.4117 12.9404 13.1108
# 2 63.6631 123.8032 49.7888 -1.6306 -1.4860 -7.9085
# 3 41.4578 49.7888 145.7732 7.0085 10.4768 -12.9854
# 4 -8.4117 -1.6306 7.0085 40.1286 -2.3324 -3.7696
# 5 12.9404 -1.4860 10.4768 -2.3324 40.5382 4.4328
# 6 13.1108 -7.9085 -12.9854 -3.7696 4.4328 37.7342
#
#
#
# Elastic Compliance Matrix: (Units=1/GPa)
#
#
# Indices 1 2 3 4 5 6 
#
# 1 0.013307 -0.006436 -0.002001 0.002122 -0.003180 -0.006075
# 2 -0.006436 0.012601 -0.002337 0.000082 0.002714 0.003762
# 3 -0.002001 -0.002337 0.008767 -0.001863 -0.002180 0.003292
# 4 0.002122 0.000082 -0.001863 0.025864 0.001177 0.001084
# 5 -0.003180 0.002714 -0.002180 0.001177 0.026642 -0.002089
# 6 -0.006075 0.003762 0.003292 0.001084 -0.002089 0.030887
#
#
# Mechanical properties :
#
#
# Convention : Reuss Voigt Hill
#
# Bulk Modulus (GPa) = 76.18542 77.99911 77.09227
# Shear Modulus (GPa) = 34.72423 39.49773 37.11098
#
# Velocity S-wave (km/s) = 4.06081 4.33094 4.19805
# Velocity P-wave (km/s) = 7.62669 7.87720 7.75296
#
# Compressibility (1/GPa) = 0.01312587
#
# Stress axis : x y z
#
# Youngs Moduli (GPa) = 75.14954 79.35830 114.06737
#
# Poissons Ratio (x) = 0.51079 0.22822
# Poissons Ratio (y) = 0.48370 0.26660
# Poissons Ratio (z) = 0.15035 0.18548
#
# Static dielectric constant tensor:
#      x y z
#    x 3.959420 -0.101680 0.200990 
#    y -0.101680 3.821810 -0.034400 
#    z 0.200990 -0.034400 4.062260 
# 
# 
# High freq. dielectric constant tensor:
#      x y z
#    x 1.836230 -0.003370 0.010270 
#    y -0.003370 1.819970 0.005020 
#    z 0.010270 0.005020 1.850660 
# 
# From -- ./inp_files/226250.got.cif
#   From: 2010.06.25/outbox.cif.g09.slc.cpg/sg2_114_cif.got.tgz:226250.got - 2010.06.27 13:26:56.
