data_PCOD8032360
_publ_section_title
;
Structure prediction by ZEFSAII (Michael W. Deem and Ramdas Pophale) SiO2 
 PCOD8032360
Probable space group: P -1
;
_chemical_formula_sum "Si O2"
_cell_formula_units_Z 16
_cell_length_a 8.557146
_cell_length_b 12.743251
_cell_length_c 14.908280
_cell_angle_alpha 66.751065
_cell_angle_beta 106.128008
_cell_angle_gamma 51.025264
_cell_volume 785.528421
_symmetry_space_group_name_H-M "P -1"
_symmetry_group_IT_number 2
_symmetry_cell_setting 'triclinic'
loop_
_space_group_symop_operation_xyz
x,y,z
-x,-y,-z
loop_
_atom_site_type_symbol
_atom_site_label
_atom_site_fract_x
_atom_site_fract_y
_atom_site_fract_z
Si Si1 0.185266 0.278147 0.111586
Si Si2 0.786235 0.518224 0.453740
Si Si3 0.145259 0.091045 0.720224
Si Si4 0.040883 0.811878 0.980194
Si Si5 0.788930 0.852728 0.652513
Si Si6 0.652169 0.033033 0.015659
Si Si7 0.636289 0.574064 0.206763
Si Si8 0.197874 0.923868 0.318421
O O1 0.217630 0.225323 0.237169
O O2 0.000752 0.293658 0.020976
O O3 0.509049 0.105915 0.180631
O O4 0.000000 0.500000 0.000000
O O5 0.649781 0.587686 0.310183
O O6 0.528007 0.685511 0.429424
O O7 0.000000 0.500000 0.500000
O O8 0.976557 0.295926 0.582019
O O9 0.991832 0.065536 0.668955
O O10 0.116712 0.105808 0.818544
O O11 0.377464 0.636235 0.121903
O O12 0.959716 0.943845 0.842297
O O13 0.827873 0.962719 0.978233
O O14 0.066777 0.660429 0.699934
O O15 0.500000 0.000000 0.500000
O O16 0.792303 0.982305 0.638600
O O17 0.410549 0.277456 0.902897
O O18 0.500000 0.000000 0.000000
#
# Coordination Sequence:
#
# PCOD8032360 Si02
#       8
#     2   2   2   2   2   2   2   2
#     4  11  25  44  66  96 139 172 219 278 333 392
#     4  12  24  45  69  98 136 180 217 275 339 389
#     4  12  24  42  68 101 133 173 224 275 330 396
#     4  11  23  42  68 101 131 174 220 276 333 391
#     4  11  26  47  67  96 131 181 222 267 336 403
#     4  12  22  40  68 103 131 167 225 270 325 394
#     4  12  24  43  72  96 133 177 222 273 331 399
#     4  11  24  44  70  97 138 172 222 276 332 394
#
# _framework density 20.368455999999998
#
# number of rings (size 3 to 8) (size 9 to 14) (size 15 to 20)
#    0.000    0.500    3.750    6.000    1.750    1.000 
#    2.250    1.250    0.000    0.000    0.000    0.000 
#    0.000    0.000    0.000    0.000    0.000    0.000 
#
# Total GULP energy -198475.927816 kJ/mol
# GULP energy per Si atom -12404.745488 kJ/mol
# Density = 2.032210 g / cm^3
# Si number density = 20.368456 Si / 1000 Ang^3
#
#
#
# Elastic Constant Matrix: (Units=GPa)
#
#
# Indices 1 2 3 4 5 6 
#
# 1 161.6614 54.7078 64.4532 -15.9826 13.3334 31.6800
# 2 54.7078 92.8100 45.0039 -10.9915 8.5972 9.7776
# 3 64.4532 45.0039 127.4320 -7.8022 10.3291 23.3728
# 4 -15.9826 -10.9915 -7.8022 37.6436 -0.3550 3.1284
# 5 13.3334 8.5972 10.3291 -0.3550 41.7529 -5.6752
# 6 31.6800 9.7776 23.3728 3.1284 -5.6752 29.2302
#
#
#
# Elastic Compliance Matrix: (Units=1/GPa)
#
#
# Indices 1 2 3 4 5 6 
#
# 1 0.010818 -0.003631 -0.001778 0.003979 -0.003622 -0.010217
# 2 -0.003631 0.014741 -0.003440 0.001926 -0.000819 0.001390
# 3 -0.001778 -0.003440 0.011456 0.001148 -0.002457 -0.006683
# 4 0.003979 0.001926 0.001148 0.029828 -0.003009 -0.009651
# 5 -0.003622 -0.000819 -0.002457 -0.003009 0.027464 0.011818
# 6 -0.010217 0.001390 -0.006683 -0.009651 0.011818 0.053491
#
#
# Mechanical properties :
#
#
# Convention : Reuss Voigt Hill
#
# Bulk Modulus (GPa) = 51.76780 78.91480 65.34130
# Shear Modulus (GPa) = 29.08055 36.24125 32.66090
#
# Velocity S-wave (km/s) = 3.78262 4.22273 4.00872
# Velocity P-wave (km/s) = 6.67447 7.91221 7.31955
#
# Compressibility (1/GPa) = 0.01931703
#
# Stress axis : x y z
#
# Youngs Moduli (GPa) = 92.43971 67.83891 87.28684
#
# Poissons Ratio (x) = 0.24635 0.15518
# Poissons Ratio (y) = 0.33569 0.30025
# Poissons Ratio (z) = 0.16434 0.23335
#
# Static dielectric constant tensor:
#      x y z
#    x 3.922970 0.116430 0.083450 
#    y 0.116430 3.845910 0.110650 
#    z 0.083450 0.110650 3.797510 
# 
# 
# High freq. dielectric constant tensor:
#      x y z
#    x 1.811960 0.007300 0.002690 
#    y 0.007300 1.803100 0.000940 
#    z 0.002690 0.000940 1.805150 
# 
# From -- ./inp_files/190854.got.cif
#   From: 2010.06.25/outbox.cif.g09.slc.cpg/sg2_96_cif.got.tgz:190854.got - 2010.06.27 13:26:56.
