data_PCOD8032661
_publ_section_title
;
Structure prediction by ZEFSAII (Michael W. Deem and Ramdas Pophale) SiO2 
 PCOD8032661
Probable space group: P -1
;
_chemical_formula_sum "Si O2"
_cell_formula_units_Z 14
_cell_length_a 9.405777
_cell_length_b 8.697168
_cell_length_c 9.520422
_cell_angle_alpha 105.872403
_cell_angle_beta 56.876209
_cell_angle_gamma 94.910933
_cell_volume 625.401424
_symmetry_space_group_name_H-M "P -1"
_symmetry_group_IT_number 2
_symmetry_cell_setting 'triclinic'
loop_
_space_group_symop_operation_xyz
x,y,z
-x,-y,-z
loop_
_atom_site_type_symbol
_atom_site_label
_atom_site_fract_x
_atom_site_fract_y
_atom_site_fract_z
Si Si1 0.233097 0.006847 0.660155
Si Si2 0.085005 0.471551 0.598435
Si Si3 0.197725 0.728428 0.799065
Si Si4 0.545442 0.167810 0.958442
Si Si5 0.917984 0.221520 0.815929
Si Si6 0.461226 0.411875 0.307131
Si Si7 0.503518 0.778945 0.312581
O O1 0.199388 0.914580 0.801057
O O2 0.328937 0.882485 0.470197
O O3 0.340290 0.159543 0.668765
O O4 0.057329 0.071301 0.699989
O O5 0.091014 0.640017 0.718354
O O6 0.275322 0.386272 0.462107
O O7 0.000000 0.500000 0.500000
O O8 0.970371 0.363996 0.725751
O O9 0.394563 0.652690 0.675282
O O10 0.111052 0.713047 0.993328
O O11 0.748054 0.159810 0.828333
O O12 0.453972 0.199178 0.867673
O O13 0.480280 0.313255 0.129081
O O14 0.500000 0.000000 0.000000
O O15 0.483544 0.595712 0.309776
#
# Coordination Sequence:
#
# PCOD8032661 Si02
#       7
#     2   2   2   2   2   2   2
#     4  11  25  41  74 104 139 184 235 285 342 412
#     4  12  26  43  69 107 141 179 232 291 346 407
#     4  11  24  47  69 100 140 186 235 279 346 416
#     4  11  26  47  70 100 140 182 232 289 353 412
#     4  11  26  44  71 101 140 183 230 289 349 406
#     4  11  24  45  73  97 138 188 230 281 345 416
#     4  11  23  43  69 106 139 182 235 282 349 411
#
# _framework density 22.385619999999999
#
# number of rings (size 3 to 8) (size 9 to 14) (size 15 to 20)
#    0.000    0.857    1.429    5.143    6.000    5.143 
#    0.000    0.000    0.000    0.000    0.000    0.000 
#    0.000    0.000    0.000    0.000    0.000    0.000 
#
# Total GULP energy -173695.371615 kJ/mol
# GULP energy per Si atom -12406.812258 kJ/mol
# Density = 2.233467 g / cm^3
# Si number density = 22.385620 Si / 1000 Ang^3
#
#
#
# Elastic Constant Matrix: (Units=GPa)
#
#
# Indices 1 2 3 4 5 6 
#
# 1 64.6144 45.8229 28.3964 -1.9920 -3.7492 2.3874
# 2 45.8229 114.1808 47.1245 -2.2175 -6.6623 27.5378
# 3 28.3964 47.1245 93.4129 -11.7995 1.5428 11.5828
# 4 -1.9920 -2.2175 -11.7995 45.7990 0.8985 -3.2928
# 5 -3.7492 -6.6623 1.5428 0.8985 46.9088 -2.4507
# 6 2.3874 27.5378 11.5828 -3.2928 -2.4507 27.7753
#
#
#
# Elastic Compliance Matrix: (Units=1/GPa)
#
#
# Indices 1 2 3 4 5 6 
#
# 1 0.024192 -0.010773 -0.003128 0.000427 0.001023 0.010047
# 2 -0.010773 0.018823 -0.004497 -0.001888 0.001161 -0.015982
# 3 -0.003128 -0.004497 0.014501 0.003336 -0.001485 -0.001056
# 4 0.000427 -0.001888 0.003336 0.022856 -0.000620 0.003099
# 5 0.001023 0.001161 -0.001485 -0.000620 0.021689 0.001220
# 6 0.010047 -0.015982 -0.001056 0.003099 0.001220 0.051900
#
#
# Mechanical properties :
#
#
# Convention : Reuss Voigt Hill
#
# Bulk Modulus (GPa) = 48.26048 57.21062 52.73555
# Shear Modulus (GPa) = 25.29539 34.15424 29.72482
#
# Velocity S-wave (km/s) = 3.36517 3.91029 3.64793
# Velocity P-wave (km/s) = 6.05844 6.78229 6.43056
#
# Compressibility (1/GPa) = 0.02072089
#
# Stress axis : x y z
#
# Youngs Moduli (GPa) = 41.33544 53.12695 68.95893
#
# Poissons Ratio (x) = 0.57232 0.21572
# Poissons Ratio (y) = 0.44530 0.31009
# Poissons Ratio (z) = 0.12931 0.23890
#
# Static dielectric constant tensor:
#      x y z
#    x 4.070640 0.019350 -0.207980 
#    y 0.019350 3.997200 -0.056120 
#    z -0.207980 -0.056120 4.000530 
# 
# 
# High freq. dielectric constant tensor:
#      x y z
#    x 1.885320 0.003780 0.001110 
#    y 0.003780 1.890780 -0.006270 
#    z 0.001110 -0.006270 1.895230 
# 
# From -- ./inp_files/156735.got.cif
#   From: 2010.06.25/outbox.cif.g09.slc.cpg/sg2_79_cif.got.tgz:156735.got - 2010.06.27 13:26:56.
