data_PCOD8032048
_publ_section_title
;
Structure prediction by ZEFSAII (Michael W. Deem and Ramdas Pophale) SiO2 
 PCOD8032048
Probable space group: P -1
;
_chemical_formula_sum "Si O2"
_cell_formula_units_Z 16
_cell_length_a 11.128765
_cell_length_b 13.083397
_cell_length_c 14.040951
_cell_angle_alpha 135.777010
_cell_angle_beta 147.578853
_cell_angle_gamma 64.896463
_cell_volume 669.304197
_symmetry_space_group_name_H-M "P -1"
_symmetry_group_IT_number 2
_symmetry_cell_setting 'triclinic'
loop_
_space_group_symop_operation_xyz
x,y,z
-x,-y,-z
loop_
_atom_site_type_symbol
_atom_site_label
_atom_site_fract_x
_atom_site_fract_y
_atom_site_fract_z
Si Si1 0.275239 0.277389 0.027042
Si Si2 0.692693 0.776006 0.311058
Si Si3 0.858838 0.301731 0.659451
Si Si4 0.818894 0.491112 0.145727
Si Si5 0.799145 0.580385 0.549952
Si Si6 0.371845 0.056819 0.807226
Si Si7 0.315901 0.233057 0.246440
Si Si8 0.076372 0.873698 0.789870
O O1 0.513597 0.434326 0.240582
O O2 0.332798 0.280040 0.178236
O O3 0.244722 0.111741 0.842731
O O4 0.017338 0.290154 0.847745
O O5 0.738964 0.632198 0.202326
O O6 0.664899 0.884394 0.281561
O O7 0.926495 0.897525 0.616525
O O8 0.430417 0.691638 0.141123
O O9 0.605041 0.304639 0.528270
O O10 0.036541 0.471826 0.834113
O O11 0.773545 0.144706 0.425004
O O12 0.011328 0.497431 0.361863
O O13 0.818941 0.683272 0.728052
O O14 0.884376 0.701826 0.597889
O O15 0.671266 0.130945 0.080343
O O16 0.159288 0.032620 0.021050
#
# Coordination Sequence:
#
# PCOD8032048 Si02
#       8
#     2   2   2   2   2   2   2   2
#     4  12  24  41  70  96 128 175 208 263 336 374
#     4  11  23  43  67 101 130 162 213 268 329 389
#     4  11  24  42  65 100 130 168 212 268 322 383
#     4  11  23  40  68  93 138 162 205 273 321 375
#     4  12  25  47  64  93 134 173 223 264 305 386
#     4  11  24  41  68 102 133 158 213 271 326 392
#     4  11  27  46  64  92 133 174 222 266 304 380
#     4  11  25  43  71  93 126 178 211 264 335 369
#
# _framework density 23.905422999999999
#
# number of rings (size 3 to 8) (size 9 to 14) (size 15 to 20)
#    0.000    0.750    3.750    3.375    3.500    2.500 
#    2.250    0.625    0.000    0.000    0.000    0.000 
#    0.000    0.000    0.000    0.000    0.000    0.000 
#
# Total GULP energy -198496.013522 kJ/mol
# GULP energy per Si atom -12406.000845 kJ/mol
# Density = 2.385101 g / cm^3
# Si number density = 23.905423 Si / 1000 Ang^3
#
#
#
# Elastic Constant Matrix: (Units=GPa)
#
#
# Indices 1 2 3 4 5 6 
#
# 1 47.4979 10.2643 16.9086 -3.2090 9.8214 13.2977
# 2 10.2643 68.4427 23.3590 -22.6417 7.6862 10.2406
# 3 16.9086 23.3590 95.2278 -37.5299 18.6587 4.5536
# 4 -3.2090 -22.6417 -37.5299 42.0672 0.7491 4.8995
# 5 9.8214 7.6862 18.6587 0.7491 29.3614 0.6213
# 6 13.2977 10.2406 4.5536 4.8995 0.6213 20.1001
#
#
#
# Elastic Compliance Matrix: (Units=1/GPa)
#
#
# Indices 1 2 3 4 5 6 
#
# 1 0.029087 0.001774 -0.000734 0.005125 -0.009415 -0.020939
# 2 0.001774 0.022634 0.003817 0.017941 -0.009028 -0.017664
# 3 -0.000734 0.003817 0.022779 0.023994 -0.015588 -0.011987
# 4 0.005125 0.017941 0.023994 0.059321 -0.022501 -0.031732
# 5 -0.009415 -0.009028 -0.015588 -0.022501 0.049664 0.018310
# 6 -0.020939 -0.017664 -0.011987 -0.031732 0.018310 0.082487
#
#
# Mechanical properties :
#
#
# Convention : Reuss Voigt Hill
#
# Bulk Modulus (GPa) = 11.87438 34.69247 23.28342
# Shear Modulus (GPa) = 17.58534 29.01486 23.30010
#
# Velocity S-wave (km/s) = 2.71518 3.48765 3.12537
# Velocity P-wave (km/s) = 3.84806 5.54636 4.77335
#
# Compressibility (1/GPa) = 0.08421495
#
# Stress axis : x y z
#
# Youngs Moduli (GPa) = 34.38005 44.18149 43.90065
#
# Poissons Ratio (x) = -0.07839 0.03221
# Poissons Ratio (y) = -0.06100 -0.16759
# Poissons Ratio (z) = 0.02523 -0.16866
#
# Static dielectric constant tensor:
#      x y z
#    x 4.054370 0.005930 0.394660 
#    y 0.005930 4.410040 -0.025070 
#    z 0.394660 -0.025070 4.479200 
# 
# 
# High freq. dielectric constant tensor:
#      x y z
#    x 1.926680 0.009280 0.022960 
#    y 0.009280 1.958940 -0.005450 
#    z 0.022960 -0.005450 1.958910 
# 
# From -- ./inp_files/433138.got.cif
#   From: 2010.06.25/outbox.cif.g09.slc.cpg/sg2_217_cif.got.tgz:433138.got - 2010.06.27 13:26:56.
