data_PCOD8032163
_publ_section_title
;
Structure prediction by ZEFSAII (Michael W. Deem and Ramdas Pophale) SiO2 
 PCOD8032163
Probable space group: P -1
;
_chemical_formula_sum "Si O2"
_cell_formula_units_Z 12
_cell_length_a 8.905876
_cell_length_b 9.995532
_cell_length_c 9.792139
_cell_angle_alpha 136.218998
_cell_angle_beta 107.868724
_cell_angle_gamma 82.828382
_cell_volume 567.808067
_symmetry_space_group_name_H-M "P -1"
_symmetry_group_IT_number 2
_symmetry_cell_setting 'triclinic'
loop_
_space_group_symop_operation_xyz
x,y,z
-x,-y,-z
loop_
_atom_site_type_symbol
_atom_site_label
_atom_site_fract_x
_atom_site_fract_y
_atom_site_fract_z
Si Si1 0.667861 0.810138 0.819479
Si Si2 0.312374 0.746964 0.281281
Si Si3 0.857481 0.472188 0.685579
Si Si4 0.674470 0.839271 0.528589
Si Si5 0.224009 0.531614 0.833569
Si Si6 0.687558 0.234720 0.231885
O O1 0.753752 0.647874 0.797330
O O2 0.724261 0.831479 0.694538
O O3 0.478068 0.747594 0.726294
O O4 0.717531 0.011693 0.063396
O O5 0.183774 0.672683 0.305757
O O6 0.485430 0.780794 0.421707
O O7 0.265689 0.946348 0.354404
O O8 0.308139 0.587956 0.042799
O O9 0.827474 0.353099 0.448077
O O10 0.041110 0.565163 0.811784
O O11 0.765098 0.693531 0.359498
O O12 0.318215 0.670783 0.848901
#
# Coordination Sequence:
#
# PCOD8032163 Si02
#       6
#     2   2   2   2   2   2
#     4  11  23  42  70  95 123 167 215 268 307 368
#     4  11  25  44  64  94 129 168 214 260 312 374
#     4  12  25  42  66  96 132 165 208 263 318 375
#     4  11  23  43  69  92 128 167 213 265 311 368
#     4  12  25  41  66  97 130 169 207 257 324 380
#     4  11  23  41  67  96 123 165 219 255 312 373
#
# _framework density 21.133904000000001
#
# number of rings (size 3 to 8) (size 9 to 14) (size 15 to 20)
#    0.000    0.667    5.000    3.000    0.000    4.000 
#    0.000    0.000    0.000    0.000    0.000    0.000 
#    0.000    0.000    0.000    0.000    0.000    0.000 
#
# Total GULP energy -148916.720704 kJ/mol
# GULP energy per Si atom -12409.726725 kJ/mol
# Density = 2.108580 g / cm^3
# Si number density = 21.133904 Si / 1000 Ang^3
#
#
#
# Elastic Constant Matrix: (Units=GPa)
#
#
# Indices 1 2 3 4 5 6 
#
# 1 45.0560 36.6299 28.2281 16.9882 -13.2942 1.5887
# 2 36.6299 102.4160 25.1556 9.9693 -8.1449 10.8615
# 3 28.2281 25.1556 77.6961 12.8926 -15.8087 -3.8630
# 4 16.9882 9.9693 12.8926 35.3787 1.1378 -10.9927
# 5 -13.2942 -8.1449 -15.8087 1.1378 24.8028 -1.2981
# 6 1.5887 10.8615 -3.8630 -10.9927 -1.2981 21.4486
#
#
#
# Elastic Compliance Matrix: (Units=1/GPa)
#
#
# Indices 1 2 3 4 5 6 
#
# 1 0.050436 -0.011590 -0.007590 -0.021648 0.018902 -0.009185
# 2 -0.011590 0.014843 -0.001447 -0.000244 -0.002626 -0.007203
# 3 -0.007590 -0.001447 0.018015 -0.001426 0.007226 0.004246
# 4 -0.021648 -0.000244 -0.001426 0.047440 -0.013462 0.024969
# 5 0.018902 -0.002626 0.007226 -0.013462 0.054687 -0.002358
# 6 -0.009185 -0.007203 0.004246 0.024969 -0.002358 0.064370
#
#
# Mechanical properties :
#
#
# Convention : Reuss Voigt Hill
#
# Bulk Modulus (GPa) = 23.78684 45.02170 34.40427
# Shear Modulus (GPa) = 16.39031 25.33632 20.86332
#
# Velocity S-wave (km/s) = 2.78788 3.46619 3.14538
# Velocity P-wave (km/s) = 4.65218 6.11299 5.43192
#
# Compressibility (1/GPa) = 0.04204005
#
# Stress axis : x y z
#
# Youngs Moduli (GPa) = 19.82725 67.36956 55.51005
#
# Poissons Ratio (x) = 0.78080 0.42132
# Poissons Ratio (y) = 0.22980 0.08033
# Poissons Ratio (z) = 0.15049 0.09749
#
# Static dielectric constant tensor:
#      x y z
#    x 3.582870 0.070510 -0.071540 
#    y 0.070510 3.854110 0.093230 
#    z -0.071540 0.093230 3.916790 
# 
# 
# High freq. dielectric constant tensor:
#      x y z
#    x 1.818240 0.008060 -0.006280 
#    y 0.008060 1.835990 0.004060 
#    z -0.006280 0.004060 1.841800 
# 
# From -- ./inp_files/145559.got.cif
#   From: 2010.06.25/outbox.cif.g09.slc.cpg/sg2_73_cif.got.tgz:145559.got - 2010.06.27 13:26:56.
