data_PCOD8032723
_publ_section_title
;
Structure prediction by ZEFSAII (Michael W. Deem and Ramdas Pophale) SiO2 
 PCOD8032723
Probable space group: P -1
;
_chemical_formula_sum "Si O2"
_cell_formula_units_Z 16
_cell_length_a 14.131508
_cell_length_b 8.336943
_cell_length_c 18.368025
_cell_angle_alpha 76.456944
_cell_angle_beta 159.968692
_cell_angle_gamma 101.410555
_cell_volume 719.033695
_symmetry_space_group_name_H-M "P -1"
_symmetry_group_IT_number 2
_symmetry_cell_setting 'triclinic'
loop_
_space_group_symop_operation_xyz
x,y,z
-x,-y,-z
loop_
_atom_site_type_symbol
_atom_site_label
_atom_site_fract_x
_atom_site_fract_y
_atom_site_fract_z
Si Si1 0.349359 0.407495 0.467906
Si Si2 0.004338 0.897690 0.440645
Si Si3 0.706803 0.582154 0.804161
Si Si4 0.535472 0.267475 0.974173
Si Si5 0.908186 0.909245 0.653668
Si Si6 0.593995 0.350506 0.172548
Si Si7 0.895318 0.654164 0.088482
Si Si8 0.659124 0.136389 0.563409
O O1 0.500000 0.500000 0.500000
O O2 0.488703 0.446187 0.642325
O O3 0.329338 0.209552 0.475725
O O4 0.030279 0.476410 0.230027
O O5 0.165627 0.721777 0.592388
O O6 0.705000 0.859456 0.195978
O O7 0.158042 0.010729 0.481795
O O8 0.000000 0.000000 0.500000
O O9 0.594726 0.743780 0.662202
O O10 0.716496 0.633704 0.889153
O O11 0.000000 0.500000 0.000000
O O12 0.421875 0.451354 0.849191
O O13 0.639408 0.281868 0.131082
O O14 0.791198 0.190585 0.118684
O O15 0.879294 0.065259 0.670303
O O16 0.307797 0.281149 0.001046
O O17 0.149698 0.772874 0.249758
O O18 0.500000 0.000000 0.500000
#
# Coordination Sequence:
#
# PCOD8032723 Si02
#       8
#     2   2   2   2   2   2   2   2
#     4  11  23  46  72 100 139 182 240 286 339 418
#     4  12  26  43  69 106 146 176 230 296 349 412
#     4  11  24  44  71  96 129 183 232 281 338 417
#     4  11  25  46  73  98 140 189 235 278 348 430
#     4  12  24  48  70 105 141 189 228 288 359 409
#     4  11  24  46  71 102 137 185 234 288 345 417
#     4  11  23  43  70  99 134 182 229 280 349 410
#     4  11  27  44  68 100 144 178 228 296 344 407
#
# _framework density 22.252085000000001
#
# number of rings (size 3 to 8) (size 9 to 14) (size 15 to 20)
#    0.000    0.750    3.750    3.750    1.750    2.500 
#    2.250    0.000    0.000    0.000    0.000    0.000 
#    0.000    0.000    0.000    0.000    0.000    0.000 
#
# Total GULP energy -198235.167323 kJ/mol
# GULP energy per Si atom -12389.697958 kJ/mol
# Density = 2.220144 g / cm^3
# Si number density = 22.252085 Si / 1000 Ang^3
#
#
#
# Elastic Constant Matrix: (Units=GPa)
#
#
# Indices 1 2 3 4 5 6 
#
# 1 94.0126 39.4507 33.7570 1.2058 4.1006 -5.5386
# 2 39.4507 117.2714 49.3917 -0.6497 -3.3756 1.6875
# 3 33.7570 49.3917 118.8551 -5.5670 -12.2665 2.7998
# 4 1.2058 -0.6497 -5.5670 39.1454 -9.0694 5.6931
# 5 4.1006 -3.3756 -12.2665 -9.0694 33.5426 -1.8052
# 6 -5.5386 1.6875 2.7998 5.6931 -1.8052 44.5880
#
#
#
# Elastic Compliance Matrix: (Units=1/GPa)
#
#
# Indices 1 2 3 4 5 6 
#
# 1 0.013414 -0.003441 -0.002880 -0.001986 -0.003464 0.002091
# 2 -0.003441 0.011243 -0.003670 -0.000107 0.000148 -0.000603
# 3 -0.002880 -0.003670 0.011427 0.002950 0.004899 -0.001115
# 4 -0.001986 -0.000107 0.002950 0.028616 0.008848 -0.003723
# 5 -0.003464 0.000148 0.004899 0.008848 0.034409 -0.000480
# 6 0.002091 -0.000603 -0.001115 -0.003723 -0.000480 0.023236
#
#
# Mechanical properties :
#
#
# Convention : Reuss Voigt Hill
#
# Bulk Modulus (GPa) = 62.10286 63.92642 63.01464
# Shear Modulus (GPa) = 33.85348 37.29117 35.57233
#
# Velocity S-wave (km/s) = 3.90470 4.09816 4.00260
# Velocity P-wave (km/s) = 6.94969 7.15429 7.05273
#
# Compressibility (1/GPa) = 0.01610232
#
# Stress axis : x y z
#
# Youngs Moduli (GPa) = 74.54635 88.94501 87.51242
#
# Poissons Ratio (x) = 0.30602 0.25204
# Poissons Ratio (y) = 0.25648 0.32121
# Poissons Ratio (z) = 0.21469 0.32647
#
# Static dielectric constant tensor:
#      x y z
#    x 5.212530 -1.281310 1.196100 
#    y -1.281310 5.245210 -1.280730 
#    z 1.196100 -1.280730 5.370550 
# 
# 
# High freq. dielectric constant tensor:
#      x y z
#    x 1.875430 -0.012040 0.006350 
#    y -0.012040 1.893550 -0.008320 
#    z 0.006350 -0.008320 1.874050 
# 
# From -- ./inp_files/572632.got.cif
#   From: 2010.06.25/outbox.cif.g09.slc.cpg/sg2_287_cif.got.tgz:572632.got - 2010.06.27 13:26:56.
