data_PCOD8032706
_publ_section_title
;
Structure prediction by ZEFSAII (Michael W. Deem and Ramdas Pophale) SiO2 
 PCOD8032706
Probable space group: P -1
;
_chemical_formula_sum "Si O2"
_cell_formula_units_Z 14
_cell_length_a 17.122850
_cell_length_b 11.658202
_cell_length_c 9.790973
_cell_angle_alpha 37.091476
_cell_angle_beta 107.618028
_cell_angle_gamma 135.477968
_cell_volume 642.425181
_symmetry_space_group_name_H-M "P -1"
_symmetry_group_IT_number 2
_symmetry_cell_setting 'triclinic'
loop_
_space_group_symop_operation_xyz
x,y,z
-x,-y,-z
loop_
_atom_site_type_symbol
_atom_site_label
_atom_site_fract_x
_atom_site_fract_y
_atom_site_fract_z
Si Si1 0.917804 0.043218 0.755625
Si Si2 0.850078 0.778933 0.683290
Si Si3 0.296833 0.881238 0.796443
Si Si4 0.131132 0.633642 0.673070
Si Si5 0.577663 0.272038 0.666978
Si Si6 0.182387 0.005194 0.763423
Si Si7 0.804675 0.532709 0.370496
O O1 0.877436 0.185560 0.584087
O O2 0.089500 0.342585 0.572891
O O3 0.852215 0.799457 0.827485
O O4 0.851763 0.833802 0.059257
O O5 0.818078 0.920242 0.463702
O O6 0.738694 0.408329 0.928263
O O7 0.000000 0.000000 0.500000
O O8 0.242201 0.855218 0.646831
O O9 0.468858 0.208029 0.591995
O O10 0.229123 0.874527 0.892462
O O11 0.194227 0.604954 0.626775
O O12 0.973440 0.274760 0.983990
O O13 0.704746 0.651766 0.422537
O O14 0.646262 0.249925 0.618888
O O15 0.500000 0.000000 0.000000
#
# Coordination Sequence:
#
# PCOD8032706 Si02
#       7
#     2   2   2   2   2   2   2
#     4  11  23  43  70 106 134 172 231 288 336 393
#     4  12  20  38  69 102 139 173 223 282 335 390
#     4  12  25  43  68 104 139 180 224 274 341 404
#     4  12  24  43  76 105 132 175 232 289 334 391
#     4  12  28  47  69  96 142 187 221 274 344 415
#     4  12  24  44  71 105 137 176 229 284 333 398
#     4  11  25  46  67  99 141 177 227 280 342 403
#
# _framework density 21.79242
#
# number of rings (size 3 to 8) (size 9 to 14) (size 15 to 20)
#    0.000    0.286    5.714    4.714    2.000    0.571 
#    2.571    0.714    0.000    0.000    0.000    0.000 
#    0.000    0.000    0.000    0.000    0.000    0.000 
#
# Total GULP energy -173572.759731 kJ/mol
# GULP energy per Si atom -12398.054267 kJ/mol
# Density = 2.174282 g / cm^3
# Si number density = 21.792420 Si / 1000 Ang^3
#
#
#
# Elastic Constant Matrix: (Units=GPa)
#
#
# Indices 1 2 3 4 5 6 
#
# 1 145.4344 58.2205 56.6585 7.4626 -17.0748 -1.8462
# 2 58.2205 125.2786 36.1276 -2.8944 -11.5086 11.1898
# 3 56.6585 36.1276 84.7245 14.2669 0.2358 5.0126
# 4 7.4626 -2.8944 14.2669 21.8097 3.9010 2.2830
# 5 -17.0748 -11.5086 0.2358 3.9010 44.2818 1.2410
# 6 -1.8462 11.1898 5.0126 2.2830 1.2410 44.7808
#
#
#
# Elastic Compliance Matrix: (Units=1/GPa)
#
#
# Indices 1 2 3 4 5 6 
#
# 1 0.010961 -0.003285 -0.005853 -0.001173 0.003454 0.001892
# 2 -0.003285 0.010858 -0.003052 0.004630 0.001242 -0.002777
# 3 -0.005853 -0.003052 0.018802 -0.010199 -0.002224 -0.001002
# 4 -0.001173 0.004630 -0.010199 0.054526 -0.003922 -0.002735
# 5 0.003454 0.001242 -0.002224 -0.003922 0.024606 -0.000401
# 6 0.001892 -0.002777 -0.001002 -0.002735 -0.000401 0.023366
#
#
# Mechanical properties :
#
#
# Convention : Reuss Voigt Hill
#
# Bulk Modulus (GPa) = 61.57584 73.05009 67.31297
# Shear Modulus (GPa) = 28.91631 35.80317 32.35974
#
# Velocity S-wave (km/s) = 3.64661 4.05769 3.85763
# Velocity P-wave (km/s) = 6.78582 7.45297 7.12721
#
# Compressibility (1/GPa) = 0.01624013
#
# Stress axis : x y z
#
# Youngs Moduli (GPa) = 91.23216 92.09807 53.18663
#
# Poissons Ratio (x) = 0.30251 0.31132
# Poissons Ratio (y) = 0.29967 0.16234
# Poissons Ratio (z) = 0.53402 0.28110
#
# Static dielectric constant tensor:
#      x y z
#    x 4.006730 0.158830 0.062510 
#    y 0.158830 3.773120 -0.025360 
#    z 0.062510 -0.025360 3.415200 
# 
# 
# High freq. dielectric constant tensor:
#      x y z
#    x 1.866910 -0.000580 0.014950 
#    y -0.000580 1.868000 0.009670 
#    z 0.014950 0.009670 1.840730 
# 
# From -- ./inp_files/332746.got.cif
#   From: 2010.06.25/outbox.cif.g09.slc.cpg/sg2_167_cif.got.tgz:332746.got - 2010.06.27 13:26:56.
