data_PCOD8032586
_publ_section_title
;
Structure prediction by ZEFSAII (Michael W. Deem and Ramdas Pophale) SiO2 
 PCOD8032586
Probable space group: P -1
;
_chemical_formula_sum "Si O2"
_cell_formula_units_Z 16
_cell_length_a 12.231088
_cell_length_b 12.843241
_cell_length_c 9.699252
_cell_angle_alpha 44.059940
_cell_angle_beta 121.871194
_cell_angle_gamma 93.760671
_cell_volume 762.225693
_symmetry_space_group_name_H-M "P -1"
_symmetry_group_IT_number 2
_symmetry_cell_setting 'triclinic'
loop_
_space_group_symop_operation_xyz
x,y,z
-x,-y,-z
loop_
_atom_site_type_symbol
_atom_site_label
_atom_site_fract_x
_atom_site_fract_y
_atom_site_fract_z
Si Si1 0.566343 0.247133 0.377090
Si Si2 0.919379 0.965058 0.858686
Si Si3 0.126633 0.501916 0.171935
Si Si4 0.427825 0.161645 0.611616
Si Si5 0.591727 0.145297 0.008674
Si Si6 0.926409 0.430942 0.619408
Si Si7 0.402372 0.440855 0.811560
Si Si8 0.899191 0.129813 0.194610
O O1 0.505141 0.153354 0.524617
O O2 0.549642 0.415452 0.284747
O O3 0.741118 0.108265 0.586692
O O4 0.464748 0.312973 0.108154
O O5 0.012175 0.970225 0.787374
O O6 0.944859 0.772380 0.074597
O O7 0.000000 0.000000 0.000000
O O8 0.284328 0.354622 0.353262
O O9 0.114900 0.464825 0.361285
O O10 0.117637 0.683898 0.975305
O O11 0.000000 0.500000 0.000000
O O12 0.379323 0.016418 0.719151
O O13 0.545711 0.117258 0.854423
O O14 0.737970 0.152521 0.072257
O O15 0.467847 0.328937 0.822015
O O16 0.779292 0.454138 0.422746
O O17 0.000000 0.500000 0.500000
O O18 0.000000 0.000000 0.500000
#
# Coordination Sequence:
#
# PCOD8032586 Si02
#       8
#     2   2   2   2   2   2   2   2
#     4  11  25  42  71 100 136 174 223 279 325 403
#     4  11  23  43  67 100 130 176 223 266 332 398
#     4  11  25  44  68 100 131 174 228 274 334 394
#     4  11  25  42  68 101 133 175 221 275 329 396
#     4  11  24  43  68  97 134 174 222 272 336 393
#     4  11  26  44  68  95 138 178 218 277 335 400
#     4  11  24  46  65 101 133 177 225 269 341 394
#     4  11  24  43  68  97 134 173 217 279 328 398
#
# _framework density 20.991157999999999
#
# number of rings (size 3 to 8) (size 9 to 14) (size 15 to 20)
#    0.000    1.000    2.500    3.000    5.250    5.500 
#    0.000    0.000    0.000    0.000    0.000    0.000 
#    0.000    0.000    0.000    0.000    0.000    0.000 
#
# Total GULP energy -198435.116804 kJ/mol
# GULP energy per Si atom -12402.194800 kJ/mol
# Density = 2.094338 g / cm^3
# Si number density = 20.991158 Si / 1000 Ang^3
#
#
#
# Elastic Constant Matrix: (Units=GPa)
#
#
# Indices 1 2 3 4 5 6 
#
# 1 145.7019 43.1736 46.2199 -4.2292 -16.5487 7.6148
# 2 43.1736 85.3306 25.8919 0.6888 0.8183 1.8871
# 3 46.2199 25.8919 109.5238 3.2839 -0.6766 0.7915
# 4 -4.2292 0.6888 3.2839 37.8959 -3.4048 10.3891
# 5 -16.5487 0.8183 -0.6766 -3.4048 35.5772 -2.0227
# 6 7.6148 1.8871 0.7915 10.3891 -2.0227 22.8061
#
#
#
# Elastic Compliance Matrix: (Units=1/GPa)
#
#
# Indices 1 2 3 4 5 6 
#
# 1 0.009901 -0.004004 -0.003263 0.002917 0.004700 -0.003773
# 2 -0.004004 0.014273 -0.001675 -0.000879 -0.002284 0.000412
# 3 -0.003263 -0.001675 0.010939 -0.001832 -0.001358 0.001562
# 4 0.002917 -0.000879 -0.001832 0.031249 0.003494 -0.014763
# 5 0.004700 -0.002284 -0.001358 0.003494 0.030643 -0.000207
# 6 -0.003773 0.000412 0.001562 -0.014763 -0.000207 0.051726
#
#
# Mechanical properties :
#
#
# Convention : Reuss Voigt Hill
#
# Bulk Modulus (GPa) = 58.04457 63.45857 60.75157
# Shear Modulus (GPa) = 29.00934 34.27393 31.64164
#
# Velocity S-wave (km/s) = 3.72153 4.04515 3.88671
# Velocity P-wave (km/s) = 6.79546 7.21903 7.01045
#
# Compressibility (1/GPa) = 0.01722814
#
# Stress axis : x y z
#
# Youngs Moduli (GPa) = 101.00448 70.06060 91.42006
#
# Poissons Ratio (x) = 0.28055 0.29827
# Poissons Ratio (y) = 0.40447 0.15314
# Poissons Ratio (z) = 0.32954 0.11736
#
# Static dielectric constant tensor:
#      x y z
#    x 3.836220 -0.135440 -0.022200 
#    y -0.135440 3.977140 -0.205280 
#    z -0.022200 -0.205280 4.054350 
# 
# 
# High freq. dielectric constant tensor:
#      x y z
#    x 1.830030 -0.003650 0.000790 
#    y -0.003650 1.831780 -0.000020 
#    z 0.000790 -0.000020 1.838190 
# 
# From -- ./inp_files/261700.got.cif
#   From: 2010.06.25/outbox.cif.g09.slc.cpg/sg2_131_cif.got.tgz:261700.got - 2010.06.27 13:26:56.
