data_PCOD8032230
_publ_section_title
;
Structure prediction by ZEFSAII (Michael W. Deem and Ramdas Pophale) SiO2 
 PCOD8032230
Probable space group: P -1
;
_chemical_formula_sum "Si O2"
_cell_formula_units_Z 16
_cell_length_a 9.160067
_cell_length_b 20.669851
_cell_length_c 22.843182
_cell_angle_alpha 19.516898
_cell_angle_beta 29.470036
_cell_angle_gamma 39.500813
_cell_volume 678.572327
_symmetry_space_group_name_H-M "P -1"
_symmetry_group_IT_number 2
_symmetry_cell_setting 'triclinic'
loop_
_space_group_symop_operation_xyz
x,y,z
-x,-y,-z
loop_
_atom_site_type_symbol
_atom_site_label
_atom_site_fract_x
_atom_site_fract_y
_atom_site_fract_z
Si Si1 0.269131 0.287560 0.525784
Si Si2 0.155797 0.574863 0.514240
Si Si3 0.828550 0.644017 0.193265
Si Si4 0.784884 0.944816 0.753468
Si Si5 0.774923 0.681111 0.775251
Si Si6 0.527023 0.085997 0.231697
Si Si7 0.119861 0.820101 0.132273
Si Si8 0.864612 0.592913 0.088387
O O1 0.500156 0.510152 0.270089
O O2 0.077845 0.290086 0.530445
O O3 0.009797 0.239282 0.707357
O O4 0.502975 0.151694 0.554001
O O5 0.500151 0.690675 0.270939
O O6 0.185095 0.549953 0.595229
O O7 0.010433 0.365098 0.709070
O O8 0.917186 0.612220 0.123344
O O9 0.101331 0.822533 0.974562
O O10 0.632400 0.859406 0.817063
O O11 0.495035 0.915988 0.923299
O O12 0.989808 0.805749 0.827575
O O13 0.996395 0.180094 0.472360
O O14 0.642677 0.843760 0.715404
O O15 0.952735 0.570060 0.852705
O O16 0.500000 0.500000 0.000000
O O17 0.000000 0.000000 0.000000
#
# Coordination Sequence:
#
# PCOD8032230 Si02
#       8
#     2   2   2   2   2   2   2   2
#     4  12  23  44  73 111 147 193 240 295 358 440
#     4  11  23  41  70 106 148 198 234 284 370 435
#     4  11  23  44  66 104 151 187 238 295 358 424
#     4  12  26  46  76 112 137 194 251 289 365 437
#     4  12  28  53  75 100 147 189 243 317 362 420
#     4  12  25  48  70 105 146 185 249 300 353 432
#     4  12  20  38  71 105 147 184 238 291 347 433
#     4  12  24  47  77 105 144 194 240 302 364 429
#
# _framework density 23.578916
#
# number of rings (size 3 to 8) (size 9 to 14) (size 15 to 20)
#    0.000    0.250    7.500    1.500    0.000    1.500 
#    4.500    0.000    0.000    0.000    0.000    0.000 
#    0.000    0.000    0.000    0.000    0.000    0.000 
#
# Total GULP energy -198282.721646 kJ/mol
# GULP energy per Si atom -12392.670103 kJ/mol
# Density = 2.352525 g / cm^3
# Si number density = 23.578916 Si / 1000 Ang^3
#
#
#
# Elastic Constant Matrix: (Units=GPa)
#
#
# Indices 1 2 3 4 5 6 
#
# 1 134.5620 43.7801 35.4439 -4.1621 7.2446 -21.7811
# 2 43.7801 95.1496 32.6279 -9.9062 12.8670 -16.2272
# 3 35.4439 32.6279 135.3549 9.8115 -7.4024 -17.3098
# 4 -4.1621 -9.9062 9.8115 25.6918 -14.6030 -0.4929
# 5 7.2446 12.8670 -7.4024 -14.6030 39.0979 -9.4180
# 6 -21.7811 -16.2272 -17.3098 -0.4929 -9.4180 39.0559
#
#
#
# Elastic Compliance Matrix: (Units=1/GPa)
#
#
# Indices 1 2 3 4 5 6 
#
# 1 0.009391 -0.003227 -0.001305 0.000989 0.000262 0.003394
# 2 -0.003227 0.014130 -0.002721 0.004750 -0.002217 0.002390
# 3 -0.001305 -0.002721 0.009096 -0.003418 0.002225 0.002667
# 4 0.000989 0.004750 -0.003418 0.053110 0.018948 0.006250
# 5 0.000262 -0.002217 0.002225 0.018948 0.035953 0.009120
# 6 0.003394 0.002390 0.002667 0.006250 0.009120 0.031950
#
#
# Mechanical properties :
#
#
# Convention : Reuss Voigt Hill
#
# Bulk Modulus (GPa) = 55.21381 65.41891 60.31636
# Shear Modulus (GPa) = 28.70722 37.65010 33.17866
#
# Velocity S-wave (km/s) = 3.49305 4.00030 3.75525
# Velocity P-wave (km/s) = 6.30365 7.01009 6.66623
#
# Compressibility (1/GPa) = 0.01811141
#
# Stress axis : x y z
#
# Youngs Moduli (GPa) = 106.48521 70.77283 109.93895
#
# Poissons Ratio (x) = 0.22840 0.14342
# Poissons Ratio (y) = 0.34366 0.29913
# Poissons Ratio (z) = 0.13891 0.19256
#
# Static dielectric constant tensor:
#      x y z
#    x 4.293880 -0.335650 0.029340 
#    y -0.335650 4.170120 0.070080 
#    z 0.029340 0.070080 4.414730 
# 
# 
# High freq. dielectric constant tensor:
#      x y z
#    x 1.934030 -0.023650 -0.001950 
#    y -0.023650 1.921420 0.005580 
#    z -0.001950 0.005580 1.938840 
# 
# From -- ./inp_files/456990.got.cif
#   From: 2010.06.25/outbox.cif.g09.slc.cpg/sg2_229_cif.got.tgz:456990.got - 2010.06.27 13:26:56.
