data_PCOD8032446
_publ_section_title
;
Structure prediction by ZEFSAII (Michael W. Deem and Ramdas Pophale) SiO2 
 PCOD8032446
Probable space group: P -1
;
_chemical_formula_sum "Si O2"
_cell_formula_units_Z 16
_cell_length_a 9.771989
_cell_length_b 12.358407
_cell_length_c 18.630569
_cell_angle_alpha 141.954049
_cell_angle_beta 50.488380
_cell_angle_gamma 99.469577
_cell_volume 755.735092
_symmetry_space_group_name_H-M "P -1"
_symmetry_group_IT_number 2
_symmetry_cell_setting 'triclinic'
loop_
_space_group_symop_operation_xyz
x,y,z
-x,-y,-z
loop_
_atom_site_type_symbol
_atom_site_label
_atom_site_fract_x
_atom_site_fract_y
_atom_site_fract_z
Si Si1 0.288496 0.518631 0.106797
Si Si2 0.298319 0.125757 0.873333
Si Si3 0.217150 0.592512 0.331502
Si Si4 0.466661 0.202204 0.160333
Si Si5 0.048257 0.151855 0.098462
Si Si6 0.770255 0.004521 0.465172
Si Si7 0.757574 0.786818 0.216917
Si Si8 0.776263 0.630820 0.523143
O O1 0.325879 0.474371 0.155820
O O2 0.500000 0.500000 0.000000
O O3 0.366455 0.281041 0.921658
O O4 0.001823 0.768354 0.311730
O O5 0.209267 0.130758 0.826260
O O6 0.523640 0.846790 0.677862
O O7 0.086636 0.259577 0.075584
O O8 0.415275 0.394361 0.222039
O O9 0.174022 0.829430 0.475868
O O10 0.967651 0.652921 0.455123
O O11 0.252751 0.349241 0.370382
O O12 0.500000 0.000000 0.000000
O O13 0.721072 0.061432 0.041222
O O14 0.853140 0.384108 0.338504
O O15 0.000000 0.000000 0.000000
O O16 0.500979 0.146993 0.665394
O O17 0.756121 0.935872 0.355056
O O18 0.000000 0.500000 0.000000
#
# Coordination Sequence:
#
# PCOD8032446 Si02
#       8
#     2   2   2   2   2   2   2   2
#     4  12  23  44  68 101 144 177 234 290 347 428
#     4  11  23  42  70  95 132 188 222 282 359 414
#     4  12  23  41  70 100 132 181 226 290 357 414
#     4  11  24  45  68 104 138 179 233 291 357 421
#     4  11  26  45  68 101 138 182 235 289 350 431
#     4  11  26  42  67 101 135 183 235 282 357 428
#     4  11  24  45  65  94 142 182 231 289 341 425
#     4  11  23  45  71  98 143 176 232 295 354 424
#
# _framework density 21.171438999999999
#
# number of rings (size 3 to 8) (size 9 to 14) (size 15 to 20)
#    0.000    0.750    3.750    3.750    0.000    5.000 
#    0.000    0.000    0.000    0.000    0.000    0.000 
#    0.000    0.000    0.000    0.000    0.000    0.000 
#
# Total GULP energy -198294.661207 kJ/mol
# GULP energy per Si atom -12393.416325 kJ/mol
# Density = 2.112325 g / cm^3
# Si number density = 21.171439 Si / 1000 Ang^3
#
#
#
# Elastic Constant Matrix: (Units=GPa)
#
#
# Indices 1 2 3 4 5 6 
#
# 1 123.6123 51.5342 49.0322 -4.4155 13.9294 -9.3741
# 2 51.5342 115.2804 45.3983 -1.5956 8.2616 -30.5505
# 3 49.0322 45.3983 117.4193 -10.5817 11.3716 -7.4396
# 4 -4.4155 -1.5956 -10.5817 31.5425 -3.7235 8.8127
# 5 13.9294 8.2616 11.3716 -3.7235 45.6571 6.8810
# 6 -9.3741 -30.5505 -7.4396 8.8127 6.8810 54.9213
#
#
#
# Elastic Compliance Matrix: (Units=1/GPa)
#
#
# Indices 1 2 3 4 5 6 
#
# 1 0.011011 -0.003715 -0.002984 0.000243 -0.001864 -0.000397
# 2 -0.003715 0.013684 -0.003389 -0.003214 -0.001856 0.007267
# 3 -0.002984 -0.003389 0.011386 0.003498 -0.000829 -0.001310
# 4 0.000243 -0.003214 0.003498 0.035238 0.003622 -0.007381
# 5 -0.001864 -0.001856 -0.000829 0.003622 0.024072 -0.005060
# 6 -0.000397 0.007267 -0.001310 -0.007381 -0.005060 0.023823
#
#
# Mechanical properties :
#
#
# Convention : Reuss Voigt Hill
#
# Bulk Modulus (GPa) = 62.87709 72.02681 67.45195
# Shear Modulus (GPa) = 34.55611 40.44733 37.50172
#
# Velocity S-wave (km/s) = 4.04444 4.37563 4.21329
# Velocity P-wave (km/s) = 7.18147 7.72158 7.45641
#
# Compressibility (1/GPa) = 0.01590404
#
# Stress axis : x y z
#
# Youngs Moduli (GPa) = 90.81712 73.07631 87.83088
#
# Poissons Ratio (x) = 0.27151 0.26211
# Poissons Ratio (y) = 0.33742 0.29764
# Poissons Ratio (z) = 0.27102 0.24764
#
# Static dielectric constant tensor:
#      x y z
#    x 3.641260 -0.402370 0.155180 
#    y -0.402370 4.026480 -0.267510 
#    z 0.155180 -0.267510 4.107720 
# 
# 
# High freq. dielectric constant tensor:
#      x y z
#    x 1.844390 -0.018070 0.011280 
#    y -0.018070 1.835770 -0.000110 
#    z 0.011280 -0.000110 1.839240 
# 
# From -- ./inp_files/78357.got.cif
#   From: 2010.06.25/outbox.cif.g09.slc.cpg/sg2_40_cif.got.tgz:78357.got - 2010.06.27 13:26:56.
