data_PCOD8032447
_publ_section_title
;
Structure prediction by ZEFSAII (Michael W. Deem and Ramdas Pophale) SiO2 
 PCOD8032447
Probable space group: P -1
;
_chemical_formula_sum "Si O2"
_cell_formula_units_Z 16
_cell_length_a 13.613533
_cell_length_b 13.285860
_cell_length_c 8.827417
_cell_angle_alpha 92.489356
_cell_angle_beta 47.424363
_cell_angle_gamma 56.654291
_cell_volume 724.493734
_symmetry_space_group_name_H-M "P -1"
_symmetry_group_IT_number 2
_symmetry_cell_setting 'triclinic'
loop_
_space_group_symop_operation_xyz
x,y,z
-x,-y,-z
loop_
_atom_site_type_symbol
_atom_site_label
_atom_site_fract_x
_atom_site_fract_y
_atom_site_fract_z
Si Si1 0.620920 0.091479 0.226045
Si Si2 0.708472 0.837550 0.608679
Si Si3 0.037599 0.769243 0.593641
Si Si4 0.415310 0.660875 0.344255
Si Si5 0.108474 0.704678 0.182316
Si Si6 0.522848 0.144419 0.680155
Si Si7 0.811988 0.172404 0.119905
Si Si8 0.874649 0.662704 0.722783
O O1 0.410990 0.180632 0.358470
O O2 0.586836 0.081101 0.436351
O O3 0.657862 0.189732 0.184111
O O4 0.834539 0.916659 0.920130
O O5 0.704256 0.815527 0.791298
O O6 0.962746 0.694643 0.284360
O O7 0.619117 0.001927 0.678586
O O8 0.253052 0.699993 0.406260
O O9 0.007586 0.810359 0.449539
O O10 0.054757 0.637420 0.585719
O O11 0.398214 0.791598 0.346777
O O12 0.343335 0.677717 0.591100
O O13 0.649805 0.476872 0.057008
O O14 0.078729 0.810330 0.098517
O O15 0.262612 0.294501 0.986820
O O16 0.000000 0.000000 0.000000
O O17 0.000000 0.500000 0.500000
#
# Coordination Sequence:
#
# PCOD8032447 Si02
#       8
#     2   2   2   2   2   2   2   2
#     4  11  24  41  67 104 125 171 224 270 320 386
#     4  11  24  42  66  99 129 170 224 261 326 390
#     4  11  24  42  68  97 132 169 224 265 327 393
#     4  11  24  44  67  98 134 171 217 268 332 390
#     4  11  25  42  65  97 134 175 212 271 332 384
#     4  11  23  42  70  96 133 172 216 271 325 384
#     4  11  23  45  66  99 131 172 222 271 322 384
#     4  11  25  45  66  97 135 173 215 274 329 383
#
# _framework density 22.084385999999999
#
# number of rings (size 3 to 8) (size 9 to 14) (size 15 to 20)
#    0.000    1.000    2.500    4.500    1.750    2.500 
#    0.000    5.625    0.000    0.000    0.000    0.000 
#    0.000    0.000    0.000    0.000    0.000    0.000 
#
# Total GULP energy -198275.795750 kJ/mol
# GULP energy per Si atom -12392.237234 kJ/mol
# Density = 2.203412 g / cm^3
# Si number density = 22.084386 Si / 1000 Ang^3
#
#
#
# Elastic Constant Matrix: (Units=GPa)
#
#
# Indices 1 2 3 4 5 6 
#
# 1 146.8920 26.0254 43.0217 -4.3854 -31.4268 3.2737
# 2 26.0254 64.4340 36.7723 -11.5363 3.4173 -0.9775
# 3 43.0217 36.7723 149.3174 -18.9575 1.0919 -8.4156
# 4 -4.3854 -11.5363 -18.9575 32.3637 3.9995 -6.9283
# 5 -31.4268 3.4173 1.0919 3.9995 47.2443 -0.7342
# 6 3.2737 -0.9775 -8.4156 -6.9283 -0.7342 18.6586
#
#
#
# Elastic Compliance Matrix: (Units=1/GPa)
#
#
# Indices 1 2 3 4 5 6 
#
# 1 0.009652 -0.003394 -0.002616 -0.003135 0.006931 -0.003943
# 2 -0.003394 0.019918 -0.003023 0.005865 -0.004090 0.002292
# 3 -0.002616 -0.003023 0.009298 0.005671 -0.002115 0.006517
# 4 -0.003135 0.005865 0.005671 0.040504 -0.005786 0.018227
# 5 0.006931 -0.004090 -0.002115 -0.005786 0.026557 -0.003488
# 6 -0.003943 0.002292 0.006517 0.018227 -0.003488 0.063976
#
#
# Mechanical properties :
#
#
# Convention : Reuss Voigt Hill
#
# Bulk Modulus (GPa) = 48.07501 63.58690 55.83096
# Shear Modulus (GPa) = 25.65322 36.64159 31.14741
#
# Velocity S-wave (km/s) = 3.41192 4.07770 3.75958
# Velocity P-wave (km/s) = 6.11045 7.14321 6.64692
#
# Compressibility (1/GPa) = 0.02080083
#
# Stress axis : x y z
#
# Youngs Moduli (GPa) = 103.60113 50.20584 107.54763
#
# Poissons Ratio (x) = 0.17042 0.28135
# Poissons Ratio (y) = 0.35166 0.32517
# Poissons Ratio (z) = 0.27103 0.15180
#
# Static dielectric constant tensor:
#      x y z
#    x 4.365890 0.175910 -0.234500 
#    y 0.175910 3.790660 -0.282330 
#    z -0.234500 -0.282330 4.441680 
# 
# 
# High freq. dielectric constant tensor:
#      x y z
#    x 1.875200 0.015700 -0.011220 
#    y 0.015700 1.846410 -0.020120 
#    z -0.011220 -0.020120 1.894910 
# 
# From -- ./inp_files/315174.got.cif
#   From: 2010.06.25/outbox.cif.g09.slc.cpg/sg2_158_cif.got.tgz:315174.got - 2010.06.27 13:26:56.
