data_PCOD8032645
_publ_section_title
;
Structure prediction by ZEFSAII (Michael W. Deem and Ramdas Pophale) SiO2 
 PCOD8032645
Probable space group: P -1
;
_chemical_formula_sum "Si O2"
_cell_formula_units_Z 14
_cell_length_a 7.989942
_cell_length_b 7.893708
_cell_length_c 14.928887
_cell_angle_alpha 88.353539
_cell_angle_beta 120.031931
_cell_angle_gamma 123.535061
_cell_volume 638.174097
_symmetry_space_group_name_H-M "P -1"
_symmetry_group_IT_number 2
_symmetry_cell_setting 'triclinic'
loop_
_space_group_symop_operation_xyz
x,y,z
-x,-y,-z
loop_
_atom_site_type_symbol
_atom_site_label
_atom_site_fract_x
_atom_site_fract_y
_atom_site_fract_z
Si Si1 0.757110 0.953425 0.692150
Si Si2 0.531145 0.630451 0.168065
Si Si3 0.202527 0.668934 0.620713
Si Si4 0.281202 0.758794 0.973346
Si Si5 0.934222 0.023045 0.383133
Si Si6 0.903750 0.830577 0.899019
Si Si7 0.111391 0.426667 0.779617
O O1 0.466632 0.799648 0.638961
O O2 0.831900 0.900409 0.619409
O O3 0.918295 0.938912 0.808546
O O4 0.835284 0.196344 0.708402
O O5 0.369590 0.682261 0.075027
O O6 0.373257 0.385573 0.163407
O O7 0.720537 0.645779 0.149130
O O8 0.684117 0.793502 0.288613
O O9 0.191876 0.534789 0.702265
O O10 0.000000 0.500000 0.500000
O O11 0.129247 0.812909 0.637119
O O12 0.152336 0.594874 0.859000
O O13 0.068664 0.755789 0.955866
O O14 0.500000 0.000000 0.000000
O O15 0.000000 0.000000 0.500000
O O16 0.000000 0.000000 0.000000
#
# Coordination Sequence:
#
# PCOD8032645 Si02
#       7
#     2   2   2   2   2   2   2
#     4  11  26  48  73 106 144 187 239 296 365 422
#     4  11  23  43  69 100 144 185 236 298 352 426
#     4  12  26  47  76 104 142 190 242 298 358 426
#     4  12  24  40  68 103 142 190 235 291 363 423
#     4  11  27  49  74 105 144 188 242 298 357 428
#     4  12  25  42  69 104 144 187 238 291 357 429
#     4  11  23  45  69 103 144 185 237 296 357 429
#
# _framework density 21.937587000000001
#
# number of rings (size 3 to 8) (size 9 to 14) (size 15 to 20)
#    0.000    0.571    1.429    7.714    4.000    2.857 
#    0.000    0.000    0.000    0.000    0.000    0.000 
#    0.000    0.000    0.000    0.000    0.000    0.000 
#
# Total GULP energy -173531.837622 kJ/mol
# GULP energy per Si atom -12395.131259 kJ/mol
# Density = 2.188766 g / cm^3
# Si number density = 21.937587 Si / 1000 Ang^3
#
#
#
# Elastic Constant Matrix: (Units=GPa)
#
#
# Indices 1 2 3 4 5 6 
#
# 1 140.3291 57.6090 76.8345 13.3122 -7.8548 -7.3933
# 2 57.6090 145.6854 61.9706 16.9752 -3.1401 8.9943
# 3 76.8345 61.9706 140.0064 6.8896 -10.7987 5.6908
# 4 13.3122 16.9752 6.8896 51.4908 -2.8445 -1.9056
# 5 -7.8548 -3.1401 -10.7987 -2.8445 37.4102 4.0813
# 6 -7.3933 8.9943 5.6908 -1.9056 4.0813 42.4279
#
#
#
# Elastic Compliance Matrix: (Units=1/GPa)
#
#
# Indices 1 2 3 4 5 6 
#
# 1 0.011186 -0.002245 -0.005185 -0.001333 0.000231 0.003039
# 2 -0.002245 0.009284 -0.002717 -0.002216 -0.000421 -0.002054
# 3 -0.005185 -0.002717 0.011411 0.000759 0.002257 -0.002041
# 4 -0.001333 -0.002216 0.000759 0.020496 0.001209 0.000940
# 5 0.000231 -0.000421 0.002257 0.001209 0.027792 -0.002792
# 6 0.003039 -0.002054 -0.002041 0.000940 -0.002792 0.025119
#
#
# Mechanical properties :
#
#
# Convention : Reuss Voigt Hill
#
# Bulk Modulus (GPa) = 86.31440 90.98326 88.64883
# Shear Modulus (GPa) = 38.62664 41.57290 40.09977
#
# Velocity S-wave (km/s) = 4.20068 4.35794 4.28004
# Velocity P-wave (km/s) = 7.93464 8.17838 8.05743
#
# Compressibility (1/GPa) = 0.01158555
#
# Stress axis : x y z
#
# Youngs Moduli (GPa) = 89.39430 107.71751 87.63772
#
# Poissons Ratio (x) = 0.24183 0.45444
# Poissons Ratio (y) = 0.20070 0.23811
# Poissons Ratio (z) = 0.46355 0.29267
#
# Static dielectric constant tensor:
#      x y z
#    x 4.092230 -0.176610 0.009630 
#    y -0.176610 4.354120 -0.051400 
#    z 0.009630 -0.051400 3.844580 
# 
# 
# High freq. dielectric constant tensor:
#      x y z
#    x 1.872160 -0.007350 0.003600 
#    y -0.007350 1.887080 0.005770 
#    z 0.003600 0.005770 1.867460 
# 
# From -- ./inp_files/493057.got.cif
#   From: 2010.06.25/outbox.cif.g09.slc.cpg/sg2_247_cif.got.tgz:493057.got - 2010.06.27 13:26:56.
