data_PCOD8032498
_publ_section_title
;
Structure prediction by ZEFSAII (Michael W. Deem and Ramdas Pophale) SiO2 
 PCOD8032498
Probable space group: P -1
;
_chemical_formula_sum "Si O2"
_cell_formula_units_Z 14
_cell_length_a 25.194049
_cell_length_b 12.725363
_cell_length_c 10.500940
_cell_angle_alpha 34.944779
_cell_angle_beta 154.942702
_cell_angle_gamma 157.123608
_cell_volume 552.009076
_symmetry_space_group_name_H-M "P -1"
_symmetry_group_IT_number 2
_symmetry_cell_setting 'triclinic'
loop_
_space_group_symop_operation_xyz
x,y,z
-x,-y,-z
loop_
_atom_site_type_symbol
_atom_site_label
_atom_site_fract_x
_atom_site_fract_y
_atom_site_fract_z
Si Si1 0.889914 0.471144 0.904510
Si Si2 0.513632 0.892686 0.297014
Si Si3 0.425230 0.625147 0.058796
Si Si4 0.736919 0.840516 0.666498
Si Si5 0.371877 0.089547 0.198411
Si Si6 0.716267 0.616044 0.286323
Si Si7 0.076208 0.437306 0.827610
O O1 0.884972 0.678959 0.646245
O O2 0.693587 0.146064 0.803805
O O3 0.972184 0.542883 0.154010
O O4 0.000000 0.500000 0.000000
O O5 0.608837 0.846922 0.459957
O O6 0.613257 0.981358 0.560494
O O7 0.556519 0.143065 0.089946
O O8 0.291423 0.622003 0.095709
O O9 0.347476 0.521739 0.852560
O O10 0.627841 0.738958 0.394203
O O11 0.280302 0.376978 0.090001
O O12 0.954107 0.122293 0.851247
O O13 0.559054 0.391179 0.268380
O O14 0.228406 0.109204 0.866782
O O15 0.000000 0.500000 0.500000
#
# Coordination Sequence:
#
# PCOD8032498 Si02
#       7
#     2   2   2   2   2   2   2
#     4  12  26  44  71 105 143 185 234 297 360 424
#     4  12  22  47  77  98 143 193 235 293 365 423
#     4  11  23  42  73  99 139 191 236 290 358 431
#     4  11  26  46  67 106 144 188 237 293 360 430
#     4  11  23  43  71 100 133 182 241 287 354 428
#     4  11  23  42  72  99 133 183 240 291 348 425
#     4  12  27  46  73 111 145 185 244 298 354 435
#
# _framework density 25.361901
#
# number of rings (size 3 to 8) (size 9 to 14) (size 15 to 20)
#    0.000    0.571    5.714    2.571    0.000    0.571 
#    0.000    4.286    0.000    0.000    0.000    0.000 
#    0.000    0.000    0.000    0.000    0.000    0.000 
#
# Total GULP energy -173504.753834 kJ/mol
# GULP energy per Si atom -12393.196702 kJ/mol
# Density = 2.530418 g / cm^3
# Si number density = 25.361901 Si / 1000 Ang^3
#
#
#
# Elastic Constant Matrix: (Units=GPa)
#
#
# Indices 1 2 3 4 5 6 
#
# 1 65.5899 -9.1350 27.8810 -6.2128 -24.1376 2.5040
# 2 -9.1350 137.9537 38.6252 -14.1181 -7.0671 13.4260
# 3 27.8810 38.6252 124.8458 -31.5115 -26.7407 1.4098
# 4 -6.2128 -14.1181 -31.5115 36.5507 -3.2591 0.1493
# 5 -24.1376 -7.0671 -26.7407 -3.2591 43.3986 3.9775
# 6 2.5040 13.4260 1.4098 0.1493 3.9775 31.0507
#
#
#
# Elastic Compliance Matrix: (Units=1/GPa)
#
#
# Indices 1 2 3 4 5 6 
#
# 1 0.021710 0.003581 -0.002267 0.004210 0.012013 -0.004755
# 2 0.003581 0.008946 -0.002414 0.002226 0.002530 -0.004382
# 3 -0.002267 -0.002414 0.013751 0.011226 0.007702 -0.000438
# 4 0.004210 0.002226 0.011226 0.039782 0.012944 -0.003661
# 5 0.012013 0.002530 0.007702 0.012944 0.036509 -0.007151
# 6 -0.004755 -0.004382 -0.000438 -0.003661 -0.007151 0.035437
#
#
# Mechanical properties :
#
#
# Convention : Reuss Voigt Hill
#
# Bulk Modulus (GPa) = 23.69269 49.23686 36.46477
# Shear Modulus (GPa) = 29.00162 40.26788 34.63475
#
# Velocity S-wave (km/s) = 3.38525 3.98896 3.69944
# Velocity P-wave (km/s) = 4.96407 6.37743 5.71461
#
# Compressibility (1/GPa) = 0.04220711
#
# Stress axis : x y z
#
# Youngs Moduli (GPa) = 46.06198 111.78413 72.72051
#
# Poissons Ratio (x) = -0.40034 0.16486
# Poissons Ratio (y) = -0.16496 0.17556
# Poissons Ratio (z) = 0.10443 0.26987
#
# Static dielectric constant tensor:
#      x y z
#    x 4.771830 -0.589610 0.329060 
#    y -0.589610 6.176050 -1.075600 
#    z 0.329060 -1.075600 5.848880 
# 
# 
# High freq. dielectric constant tensor:
#      x y z
#    x 2.006020 -0.002920 -0.015840 
#    y -0.002920 2.027410 -0.013210 
#    z -0.015840 -0.013210 2.021800 
# 
# From -- ./inp_files/450948.got.cif
#   From: 2010.06.25/outbox.cif.g09.slc.cpg/sg2_226_cif.got.tgz:450948.got - 2010.06.27 13:26:56.
