data_PCOD8032531
_publ_section_title
;
Structure prediction by ZEFSAII (Michael W. Deem and Ramdas Pophale) SiO2 
 PCOD8032531
Probable space group: P -1
;
_chemical_formula_sum "Si O2"
_cell_formula_units_Z 8
_cell_length_a 7.183071
_cell_length_b 7.101349
_cell_length_c 9.823270
_cell_angle_alpha 134.671126
_cell_angle_beta 73.083226
_cell_angle_gamma 120.603694
_cell_volume 304.870256
_symmetry_space_group_name_H-M "P -1"
_symmetry_group_IT_number 2
_symmetry_cell_setting 'triclinic'
loop_
_space_group_symop_operation_xyz
x,y,z
-x,-y,-z
loop_
_atom_site_type_symbol
_atom_site_label
_atom_site_fract_x
_atom_site_fract_y
_atom_site_fract_z
Si Si1 0.812920 0.685250 0.423101
Si Si2 0.714416 0.461948 0.906822
Si Si3 0.183093 0.823958 0.023140
Si Si4 0.657697 0.532391 0.666402
O O1 0.825281 0.622912 0.550103
O O2 0.583584 0.688470 0.442135
O O3 0.818337 0.415259 0.204095
O O4 0.000000 0.000000 0.500000
O O5 0.720805 0.197604 0.860103
O O6 0.725426 0.386801 0.705305
O O7 0.500000 0.500000 0.000000
O O8 0.929389 0.760008 0.057746
O O9 0.330002 0.160273 0.115189
#
# Coordination Sequence:
#
# PCOD8032531 Si02
#       4
#     2   2   2   2
#     4  11  24  45  71 105 142 177 237 289 335 419
#     4  11  23  42  74 107 136 181 235 285 341 415
#     4  11  24  47  73 100 141 185 229 285 348 410
#     4  11  25  46  73 102 141 185 229 288 346 407
#
# _framework density 26.240672
#
# number of rings (size 3 to 8) (size 9 to 14) (size 15 to 20)
#    0.000    1.000    2.500    4.500    0.000    1.000 
#    0.000   13.750    0.000    0.000    0.000    0.000 
#    0.000    0.000    0.000    0.000    0.000    0.000 
#
# Total GULP energy -99170.164149 kJ/mol
# GULP energy per Si atom -12396.270519 kJ/mol
# Density = 2.618095 g / cm^3
# Si number density = 26.240672 Si / 1000 Ang^3
#
#
#
# Elastic Constant Matrix: (Units=GPa)
#
#
# Indices 1 2 3 4 5 6 
#
# 1 153.6910 59.4114 18.2497 -25.9975 27.2230 1.3231
# 2 59.4114 136.1122 60.8288 -26.1339 13.7727 11.8153
# 3 18.2497 60.8288 138.0865 -17.4253 20.3147 -12.3558
# 4 -25.9975 -26.1339 -17.4253 52.1061 -5.7877 20.1553
# 5 27.2230 13.7727 20.3147 -5.7877 25.0094 -11.4638
# 6 1.3231 11.8153 -12.3558 20.1553 -11.4638 50.9771
#
#
#
# Elastic Compliance Matrix: (Units=1/GPa)
#
#
# Indices 1 2 3 4 5 6 
#
# 1 0.010269 -0.003059 0.001936 0.004254 -0.011633 -0.003386
# 2 -0.003059 0.012615 -0.004830 0.005555 -0.001400 -0.006526
# 3 0.001936 -0.004830 0.010360 0.000539 -0.006906 0.001814
# 4 0.004254 0.005555 0.000539 0.029013 -0.008085 -0.014556
# 5 -0.011633 -0.001400 -0.006906 -0.008085 0.064824 0.016727
# 6 -0.003386 -0.006526 0.001814 -0.014556 0.016727 0.031174
#
#
# Mechanical properties :
#
#
# Convention : Reuss Voigt Hill
#
# Bulk Modulus (GPa) = 46.86759 78.31883 62.59321
# Shear Modulus (GPa) = 28.20493 44.91185 36.55839
#
# Velocity S-wave (km/s) = 3.28206 4.14156 3.73660
# Velocity P-wave (km/s) = 5.67996 7.26506 6.52086
#
# Compressibility (1/GPa) = 0.02133671
#
# Stress axis : x y z
#
# Youngs Moduli (GPa) = 97.38468 79.26771 96.52474
#
# Poissons Ratio (x) = 0.24252 -0.18685
# Poissons Ratio (y) = 0.29794 0.46622
# Poissons Ratio (z) = -0.18852 0.38286
#
# Static dielectric constant tensor:
#      x y z
#    x 5.052390 0.144290 0.394820 
#    y 0.144290 5.042660 -0.285730 
#    z 0.394820 -0.285730 4.651920 
# 
# 
# High freq. dielectric constant tensor:
#      x y z
#    x 2.055800 0.008700 0.025030 
#    y 0.008700 2.065270 -0.016530 
#    z 0.025030 -0.016530 2.036970 
# 
# From -- ./inp_files/144221.got.cif
#   From: 2010.06.25/outbox.cif.g09.slc.cpg/sg2_73_cif.got.tgz:144221.got - 2010.06.27 13:26:56.
