data_PCOD8032598
_publ_section_title
;
Structure prediction by ZEFSAII (Michael W. Deem and Ramdas Pophale) SiO2 
 PCOD8032598
Probable space group: P -1
;
_chemical_formula_sum "Si O2"
_cell_formula_units_Z 14
_cell_length_a 31.892312
_cell_length_b 15.968812
_cell_length_c 12.757309
_cell_angle_alpha 153.132607
_cell_angle_beta 160.908130
_cell_angle_gamma 17.368129
_cell_volume 631.120126
_symmetry_space_group_name_H-M "P -1"
_symmetry_group_IT_number 2
_symmetry_cell_setting 'triclinic'
loop_
_space_group_symop_operation_xyz
x,y,z
-x,-y,-z
loop_
_atom_site_type_symbol
_atom_site_label
_atom_site_fract_x
_atom_site_fract_y
_atom_site_fract_z
Si Si1 0.373906 0.332838 0.660856
Si Si2 0.274485 0.547839 0.273770
Si Si3 0.657173 0.900845 0.180041
Si Si4 0.871812 0.956589 0.873715
Si Si5 0.560380 0.146323 0.682285
Si Si6 0.955037 0.841990 0.184413
Si Si7 0.477774 0.424301 0.209382
O O1 0.490115 0.297630 0.798414
O O2 0.154876 0.513614 0.311327
O O3 0.477980 0.032672 0.610757
O O4 0.376316 0.483674 0.925660
O O5 0.433636 0.376117 0.549135
O O6 0.342907 0.627898 0.441246
O O7 0.253927 0.368615 0.973352
O O8 0.066384 0.835951 0.151104
O O9 0.830216 0.810226 0.551794
O O10 0.555093 0.155305 0.144629
O O11 0.500000 0.000000 0.000000
O O12 0.689644 0.294620 0.802326
O O13 0.895414 0.882321 0.968178
O O14 0.786460 0.946892 0.977497
O O15 0.000000 0.000000 0.500000
#
# Coordination Sequence:
#
# PCOD8032598 Si02
#       7
#     2   2   2   2   2   2   2
#     4  11  24  41  69 103 139 182 236 278 347 416
#     4  12  25  47  72 104 144 182 235 289 346 417
#     4  12  26  52  74  98 144 185 231 295 349 414
#     4  12  26  45  72 106 139 186 234 287 350 412
#     4  11  23  43  67 102 143 187 223 286 347 411
#     4  12  23  41  66 100 139 178 227 282 344 408
#     4  12  26  47  75 104 137 187 234 289 351 412
#
# _framework density 22.182782
#
# number of rings (size 3 to 8) (size 9 to 14) (size 15 to 20)
#    0.000    0.286    7.143    1.286    2.000    1.714 
#    2.571    0.000    0.000    0.000    0.000    0.000 
#    0.000    0.000    0.000    0.000    0.000    0.000 
#
# Total GULP energy -173681.799419 kJ/mol
# GULP energy per Si atom -12405.842816 kJ/mol
# Density = 2.213229 g / cm^3
# Si number density = 22.182782 Si / 1000 Ang^3
#
#
#
# Elastic Constant Matrix: (Units=GPa)
#
#
# Indices 1 2 3 4 5 6 
#
# 1 126.5375 47.1993 55.1348 -6.8756 21.3786 -14.1598
# 2 47.1993 68.3094 31.1491 -5.6496 17.3172 -12.7717
# 3 55.1348 31.1491 106.5593 -5.6206 6.9523 -6.0229
# 4 -6.8756 -5.6496 -5.6206 40.2929 -12.8385 8.2989
# 5 21.3786 17.3172 6.9523 -12.8385 44.8745 -8.1189
# 6 -14.1598 -12.7717 -6.0229 8.2989 -8.1189 39.2839
#
#
#
# Elastic Compliance Matrix: (Units=1/GPa)
#
#
# Indices 1 2 3 4 5 6 
#
# 1 0.012688 -0.005634 -0.004664 -0.000554 -0.003032 0.001517
# 2 -0.005634 0.021725 -0.002947 -0.000605 -0.004742 0.003728
# 3 -0.004664 -0.002947 0.012580 0.001197 0.001640 -0.000625
# 4 -0.000554 -0.000605 0.001197 0.028155 0.007534 -0.004604
# 5 -0.003032 -0.004742 0.001640 0.007534 0.027780 0.001767
# 6 0.001517 0.003728 -0.000625 -0.004604 0.001767 0.028457
#
#
# Mechanical properties :
#
#
# Convention : Reuss Voigt Hill
#
# Bulk Modulus (GPa) = 48.77283 63.15253 55.96268
# Shear Modulus (GPa) = 30.35646 36.08512 33.22079
#
# Velocity S-wave (km/s) = 3.70330 4.03763 3.87407
# Velocity P-wave (km/s) = 6.34983 7.08997 6.73008
#
# Compressibility (1/GPa) = 0.02050322
#
# Stress axis : x y z
#
# Youngs Moduli (GPa) = 78.81226 46.02924 79.49140
#
# Poissons Ratio (x) = 0.25933 0.37073
# Poissons Ratio (y) = 0.44403 0.23429
# Poissons Ratio (z) = 0.36757 0.13567
#
# Static dielectric constant tensor:
#      x y z
#    x 4.190030 -0.190110 -0.023080 
#    y -0.190110 4.066240 -0.054230 
#    z -0.023080 -0.054230 4.326270 
# 
# 
# High freq. dielectric constant tensor:
#      x y z
#    x 1.884000 -0.007400 -0.001620 
#    y -0.007400 1.874500 0.001260 
#    z -0.001620 0.001260 1.878800 
# 
# From -- ./inp_files/458419.got.cif
#   From: 2010.06.25/outbox.cif.g09.slc.cpg/sg2_230_cif.got.tgz:458419.got - 2010.06.27 13:26:56.
