data_PCOD8032620
_publ_section_title
;
Structure prediction by ZEFSAII (Michael W. Deem and Ramdas Pophale) SiO2 
 PCOD8032620
Probable space group: P -1
;
_chemical_formula_sum "Si O2"
_cell_formula_units_Z 16
_cell_length_a 19.469967
_cell_length_b 9.929973
_cell_length_c 13.227745
_cell_angle_alpha 38.480252
_cell_angle_beta 154.700734
_cell_angle_gamma 131.401659
_cell_volume 669.613064
_symmetry_space_group_name_H-M "P -1"
_symmetry_group_IT_number 2
_symmetry_cell_setting 'triclinic'
loop_
_space_group_symop_operation_xyz
x,y,z
-x,-y,-z
loop_
_atom_site_type_symbol
_atom_site_label
_atom_site_fract_x
_atom_site_fract_y
_atom_site_fract_z
Si Si1 0.353249 0.707786 0.933172
Si Si2 0.035827 0.565654 0.620417
Si Si3 0.853792 0.835022 0.664207
Si Si4 0.547248 0.709897 0.387534
Si Si5 0.453980 0.696503 0.664458
Si Si6 0.931993 0.038372 0.276550
Si Si7 0.919672 0.223717 0.813749
Si Si8 0.421482 0.944717 0.266191
O O1 0.435871 0.790482 0.094582
O O2 0.479444 0.565504 0.104895
O O3 0.230800 0.547445 0.903754
O O4 0.257074 0.919790 0.621735
O O5 0.000000 0.500000 0.500000
O O6 0.953669 0.817022 0.371287
O O7 0.960418 0.425685 0.685068
O O8 0.733062 0.660269 0.621608
O O9 0.953451 0.799187 0.712747
O O10 0.999143 0.786067 0.964645
O O11 0.500000 0.500000 0.500000
O O12 0.545428 0.891737 0.367515
O O13 0.274594 0.748992 0.443918
O O14 0.462656 0.785798 0.509823
O O15 0.573300 0.808088 0.832118
O O16 0.000000 0.000000 0.500000
O O17 0.739922 0.118601 0.964614
O O18 0.000000 0.000000 0.000000
#
# Coordination Sequence:
#
# PCOD8032620 Si02
#       8
#     2   2   2   2   2   2   2   2
#     4  11  24  46  70 100 139 186 235 287 352 419
#     4  11  25  45  72 101 138 184 232 289 355 422
#     4  11  25  44  71 103 139 187 239 290 350 429
#     4  12  24  44  69 102 140 188 233 292 358 421
#     4  11  25  42  71 104 141 179 236 292 349 416
#     4  11  24  47  70 102 144 189 236 295 355 417
#     4  12  25  44  70 105 141 184 234 292 357 419
#     4  11  23  43  68 103 140 183 233 294 352 414
#
# _framework density 23.894396
#
# number of rings (size 3 to 8) (size 9 to 14) (size 15 to 20)
#    0.000    0.750    2.500    5.625    3.500    2.000 
#    0.000    5.625    0.000    0.000    0.000    0.000 
#    0.000    0.000    0.000    0.000    0.000    0.000 
#
# Total GULP energy -198296.664873 kJ/mol
# GULP energy per Si atom -12393.541555 kJ/mol
# Density = 2.384001 g / cm^3
# Si number density = 23.894396 Si / 1000 Ang^3
#
#
#
# Elastic Constant Matrix: (Units=GPa)
#
#
# Indices 1 2 3 4 5 6 
#
# 1 140.2880 31.8107 26.8397 25.1277 -1.0412 14.2528
# 2 31.8107 62.3122 9.5566 25.1193 -4.6875 -0.9913
# 3 26.8397 9.5566 79.0137 23.0281 3.6764 5.9547
# 4 25.1277 25.1193 23.0281 43.4823 0.1667 2.0686
# 5 -1.0412 -4.6875 3.6764 0.1667 40.9710 9.9833
# 6 14.2528 -0.9913 5.9547 2.0686 9.9833 50.4851
#
#
#
# Elastic Compliance Matrix: (Units=1/GPa)
#
#
# Indices 1 2 3 4 5 6 
#
# 1 0.008871 -0.003404 -0.001846 -0.002071 0.000591 -0.002386
# 2 -0.003404 0.022555 0.001750 -0.012058 0.002074 0.001282
# 3 -0.001846 0.001750 0.015547 -0.008139 -0.001028 -0.000742
# 4 -0.002071 -0.012058 -0.008139 0.035473 -0.000852 0.000023
# 5 0.000591 0.002074 -0.001028 -0.000852 0.026001 -0.005112
# 6 -0.002386 0.001282 -0.000742 0.000023 -0.005112 0.021604
#
#
# Mechanical properties :
#
#
# Convention : Reuss Voigt Hill
#
# Bulk Modulus (GPa) = 25.01735 46.44754 35.73245
# Shear Modulus (GPa) = 33.25011 41.21481 37.23246
#
# Velocity S-wave (km/s) = 3.73439 4.15767 3.95170
# Velocity P-wave (km/s) = 5.39323 6.52144 5.98398
#
# Compressibility (1/GPa) = 0.03997226
#
# Stress axis : x y z
#
# Youngs Moduli (GPa) = 112.72754 44.33616 64.32095
#
# Poissons Ratio (x) = 0.15093 0.11872
# Poissons Ratio (y) = 0.38374 -0.11253
# Poissons Ratio (z) = 0.20806 -0.07757
#
# Static dielectric constant tensor:
#      x y z
#    x 4.925320 0.127750 -0.003940 
#    y 0.127750 4.484970 0.170540 
#    z -0.003940 0.170540 4.436630 
# 
# 
# High freq. dielectric constant tensor:
#      x y z
#    x 1.966780 0.000660 0.004830 
#    y 0.000660 1.945610 0.013680 
#    z 0.004830 0.013680 1.948700 
# 
# From -- ./inp_files/461934.got.cif
#   From: 2010.06.25/outbox.cif.g09.slc.cpg/sg2_231_cif.got.tgz:461934.got - 2010.06.27 13:26:56.
