data_PCOD8032843
_publ_section_title
;
Structure prediction by ZEFSAII (Michael W. Deem and Ramdas Pophale) SiO2 
 PCOD8032843
Probable space group: P -1
;
_chemical_formula_sum "Si O2"
_cell_formula_units_Z 16
_cell_length_a 14.082723
_cell_length_b 8.619450
_cell_length_c 11.101973
_cell_angle_alpha 105.227918
_cell_angle_beta 121.234316
_cell_angle_gamma 121.800908
_cell_volume 661.410691
_symmetry_space_group_name_H-M "P -1"
_symmetry_group_IT_number 2
_symmetry_cell_setting 'triclinic'
loop_
_space_group_symop_operation_xyz
x,y,z
-x,-y,-z
loop_
_atom_site_type_symbol
_atom_site_label
_atom_site_fract_x
_atom_site_fract_y
_atom_site_fract_z
Si Si1 0.782183 0.498622 0.980490
Si Si2 0.927983 0.332307 0.076269
Si Si3 0.483905 0.230553 0.895508
Si Si4 0.861508 0.229305 0.282197
Si Si5 0.342811 0.698338 0.385628
Si Si6 0.574323 0.727274 0.681874
Si Si7 0.997127 0.028009 0.362850
Si Si8 0.605773 0.572063 0.264230
O O1 0.903199 0.478435 0.025973
O O2 0.614043 0.257624 0.913101
O O3 0.707774 0.474580 0.797142
O O4 0.889973 0.770138 0.165037
O O5 0.853164 0.276193 0.149870
O O6 0.147191 0.547533 0.270750
O O7 0.791019 0.037042 0.864840
O O8 0.394875 0.241958 0.736084
O O9 0.332444 0.958288 0.816725
O O10 0.605593 0.475095 0.119125
O O11 0.000000 0.500000 0.500000
O O12 0.907125 0.094148 0.290424
O O13 0.434171 0.711553 0.559604
O O14 0.500000 0.000000 0.500000
O O15 0.500000 0.500000 0.500000
O O16 0.562621 0.664934 0.802952
O O17 0.209844 0.261546 0.505773
O O18 0.000000 0.000000 0.500000
#
# Coordination Sequence:
#
# PCOD8032843 Si02
#       8
#     2   2   2   2   2   2   2   2
#     4  12  27  46  79 104 147 200 253 309 374 454
#     4  12  29  51  72 115 153 196 258 314 379 449
#     4  11  23  43  75 107 147 195 243 308 378 451
#     4  12  27  45  73 111 156 190 243 313 382 452
#     4  12  29  53  77 108 152 201 259 316 377 448
#     4  12  28  49  78 110 149 205 252 315 376 446
#     4  12  23  44  72 109 143 197 244 297 378 452
#     4  11  23  45  71 109 152 186 254 308 373 453
#
# _framework density 24.190719999999999
#
# number of rings (size 3 to 8) (size 9 to 14) (size 15 to 20)
#    0.000    0.250    5.000    3.375    5.250    2.000 
#    0.000    0.000    0.000    0.000    0.000    0.000 
#    0.000    0.000    0.000    0.000    0.000    0.000 
#
# Total GULP energy -198338.596711 kJ/mol
# GULP energy per Si atom -12396.162294 kJ/mol
# Density = 2.413566 g / cm^3
# Si number density = 24.190720 Si / 1000 Ang^3
#
#
#
# Elastic Constant Matrix: (Units=GPa)
#
#
# Indices 1 2 3 4 5 6 
#
# 1 90.7000 3.7378 23.5333 14.1895 13.1836 3.3039
# 2 3.7378 69.0173 16.7593 2.5994 1.9596 8.4989
# 3 23.5333 16.7593 115.2753 16.0897 2.6155 -1.7339
# 4 14.1895 2.5994 16.0897 46.1815 4.7594 -2.3915
# 5 13.1836 1.9596 2.6155 4.7594 52.3729 6.4368
# 6 3.3039 8.4989 -1.7339 -2.3915 6.4368 35.4866
#
#
#
# Elastic Compliance Matrix: (Units=1/GPa)
#
#
# Indices 1 2 3 4 5 6 
#
# 1 0.012439 0.000148 -0.002115 -0.002873 -0.002646 -0.001011
# 2 0.000148 0.015528 -0.002302 -0.000318 0.000001 -0.003867
# 3 -0.002115 -0.002302 0.009816 -0.002613 0.000242 0.001008
# 4 -0.002873 -0.000318 -0.002613 0.023733 -0.001549 0.002096
# 5 -0.002646 0.000001 0.000242 -0.001549 0.020323 -0.003533
# 6 -0.001011 -0.003867 0.001008 0.002096 -0.003533 0.030031
#
#
# Mechanical properties :
#
#
# Convention : Reuss Voigt Hill
#
# Bulk Modulus (GPa) = 34.19391 40.33927 37.26659
# Shear Modulus (GPa) = 38.41564 42.20568 40.31066
#
# Velocity S-wave (km/s) = 3.98934 4.18150 4.08655
# Velocity P-wave (km/s) = 5.94858 6.32653 6.14046
#
# Compressibility (1/GPa) = 0.02924498
#
# Stress axis : x y z
#
# Youngs Moduli (GPa) = 80.39295 64.39941 101.87791
#
# Poissons Ratio (x) = -0.00951 0.21547
# Poissons Ratio (y) = -0.01187 0.23447
# Poissons Ratio (z) = 0.17003 0.14822
#
# Static dielectric constant tensor:
#      x y z
#    x 4.373870 0.250580 0.086530 
#    y 0.250580 4.550310 -0.080390 
#    z 0.086530 -0.080390 4.634020 
# 
# 
# High freq. dielectric constant tensor:
#      x y z
#    x 1.958000 0.013960 0.004220 
#    y 0.013960 1.962260 -0.004290 
#    z 0.004220 -0.004290 1.978340 
# 
# From -- ./inp_files/447878.got.cif
#   From: 2010.06.25/outbox.cif.g09.slc.cpg/sg2_224_cif.got.tgz:447878.got - 2010.06.27 13:26:56.
