data_PCOD8032797
_publ_section_title
;
Structure prediction by ZEFSAII (Michael W. Deem and Ramdas Pophale) SiO2 
 PCOD8032797
Probable space group: P -1
;
_chemical_formula_sum "Si O2"
_cell_formula_units_Z 16
_cell_length_a 14.547890
_cell_length_b 8.378682
_cell_length_c 11.982121
_cell_angle_alpha 53.366474
_cell_angle_beta 106.467864
_cell_angle_gamma 139.897260
_cell_volume 711.473087
_symmetry_space_group_name_H-M "P -1"
_symmetry_group_IT_number 2
_symmetry_cell_setting 'triclinic'
loop_
_space_group_symop_operation_xyz
x,y,z
-x,-y,-z
loop_
_atom_site_type_symbol
_atom_site_label
_atom_site_fract_x
_atom_site_fract_y
_atom_site_fract_z
Si Si1 0.810091 0.810856 0.407161
Si Si2 0.902262 0.197304 0.694638
Si Si3 0.841864 0.727910 0.995607
Si Si4 0.529203 0.337577 0.139031
Si Si5 0.814697 0.148202 0.447741
Si Si6 0.231318 0.656543 0.285894
Si Si7 0.503441 0.239568 0.418810
Si Si8 0.061639 0.390757 0.111282
O O1 0.827089 0.651409 0.562988
O O2 0.644484 0.539243 0.412931
O O3 0.836949 0.054250 0.384498
O O4 0.931530 0.023489 0.258792
O O5 0.883997 0.139207 0.580280
O O6 0.828629 0.287077 0.666568
O O7 0.079182 0.483174 0.677304
O O8 0.811580 0.876420 0.852703
O O9 0.845431 0.549632 0.985867
O O10 0.692956 0.491760 0.120320
O O11 0.000000 0.000000 0.000000
O O12 0.505105 0.352564 0.253960
O O13 0.412462 0.977553 0.209429
O O14 0.500000 0.500000 0.000000
O O15 0.641714 0.928597 0.490915
O O16 0.172516 0.607935 0.162229
O O17 0.500000 0.000000 0.500000
O O18 0.000000 0.500000 0.000000
#
# Coordination Sequence:
#
# PCOD8032797 Si02
#       8
#     2   2   2   2   2   2   2   2
#     4  12  26  44  73 103 143 184 234 299 355 422
#     4  11  23  43  73 102 135 183 241 291 348 429
#     4  12  27  45  72 103 141 192 238 288 359 427
#     4  12  26  47  73 102 145 191 235 293 357 425
#     4  11  24  42  71 101 138 179 234 295 354 414
#     4  12  24  48  73 102 142 183 240 295 360 421
#     4  12  25  45  70 104 138 183 237 294 353 420
#     4  12  29  48  70 107 144 187 238 301 360 425
#
# _framework density 22.488551999999999
#
# number of rings (size 3 to 8) (size 9 to 14) (size 15 to 20)
#    0.000    0.250    5.000    3.000    8.750    0.500 
#    2.250    0.000    0.000    0.000    0.000    0.000 
#    0.000    0.000    0.000    0.000    0.000    0.000 
#
# Total GULP energy -198389.144738 kJ/mol
# GULP energy per Si atom -12399.321546 kJ/mol
# Density = 2.243737 g / cm^3
# Si number density = 22.488552 Si / 1000 Ang^3
#
#
#
# Elastic Constant Matrix: (Units=GPa)
#
#
# Indices 1 2 3 4 5 6 
#
# 1 87.3748 14.5669 19.1810 -1.1727 -10.0152 10.3602
# 2 14.5669 125.6703 13.4480 5.1933 -2.3864 12.2288
# 3 19.1810 13.4480 82.8997 -0.9591 12.8882 -2.0979
# 4 -1.1727 5.1933 -0.9591 42.7362 2.9542 -7.8523
# 5 -10.0152 -2.3864 12.8882 2.9542 38.4894 -6.9574
# 6 10.3602 12.2288 -2.0979 -7.8523 -6.9574 38.1291
#
#
#
# Elastic Compliance Matrix: (Units=1/GPa)
#
#
# Indices 1 2 3 4 5 6 
#
# 1 0.013179 -0.000761 -0.003644 -0.000441 0.004116 -0.002877
# 2 -0.000761 0.008547 -0.001364 -0.001646 0.000395 -0.002876
# 3 -0.003644 -0.001364 0.014038 0.001022 -0.005560 0.001396
# 4 -0.000441 -0.001646 0.001022 0.024727 -0.001457 0.005530
# 5 0.004116 0.000395 -0.005560 -0.001457 0.029695 0.003568
# 6 -0.002877 -0.002876 0.001396 0.005530 0.003568 0.029797
#
#
# Mechanical properties :
#
#
# Convention : Reuss Voigt Hill
#
# Bulk Modulus (GPa) = 41.27593 43.37076 42.32335
# Shear Modulus (GPa) = 35.81762 40.45419 38.13591
#
# Velocity S-wave (km/s) = 3.99520 4.24592 4.12247
# Velocity P-wave (km/s) = 6.29891 6.58519 6.44364
#
# Compressibility (1/GPa) = 0.02422720
#
# Stress axis : x y z
#
# Youngs Moduli (GPa) = 75.88005 117.00166 71.23296
#
# Poissons Ratio (x) = 0.08908 0.25954
# Poissons Ratio (y) = 0.05777 0.09713
# Poissons Ratio (z) = 0.27647 0.15953
#
# Static dielectric constant tensor:
#      x y z
#    x 4.010300 0.140100 -0.168060 
#    y 0.140100 4.289250 -0.153100 
#    z -0.168060 -0.153100 4.344600 
# 
# 
# High freq. dielectric constant tensor:
#      x y z
#    x 1.882290 0.009220 -0.006860 
#    y 0.009220 1.900460 0.000800 
#    z -0.006860 0.000800 1.899160 
# 
# From -- ./inp_files/357392.got.cif
#   From: 2010.06.25/outbox.cif.g09.slc.cpg/sg2_179_cif.got.tgz:357392.got - 2010.06.27 13:26:56.
