data_PCOD8032628
_publ_section_title
;
Structure prediction by ZEFSAII (Michael W. Deem and Ramdas Pophale) SiO2 
 PCOD8032628
Probable space group: P -1
;
_chemical_formula_sum "Si O2"
_cell_formula_units_Z 16
_cell_length_a 10.013087
_cell_length_b 8.783672
_cell_length_c 12.329455
_cell_angle_alpha 122.609355
_cell_angle_beta 55.538747
_cell_angle_gamma 105.928920
_cell_volume 752.426984
_symmetry_space_group_name_H-M "P -1"
_symmetry_group_IT_number 2
_symmetry_cell_setting 'triclinic'
loop_
_space_group_symop_operation_xyz
x,y,z
-x,-y,-z
loop_
_atom_site_type_symbol
_atom_site_label
_atom_site_fract_x
_atom_site_fract_y
_atom_site_fract_z
Si Si1 0.618696 0.084935 0.561558
Si Si2 0.062608 0.116944 0.614206
Si Si3 0.635979 0.311783 0.203504
Si Si4 0.538861 0.920786 0.139070
Si Si5 0.739295 0.262111 0.907167
Si Si6 0.135105 0.512555 0.664084
Si Si7 0.772279 0.591912 0.867035
Si Si8 0.684412 0.485789 0.631077
O O1 0.559499 0.041311 0.691641
O O2 0.615861 0.296878 0.624677
O O3 0.500000 0.000000 0.500000
O O4 0.799108 0.997055 0.428063
O O5 0.134805 0.300079 0.607067
O O6 0.913578 0.157596 0.780013
O O7 0.000000 0.000000 0.500000
O O8 0.729576 0.394849 0.292179
O O9 0.454339 0.395109 0.320036
O O10 0.633930 0.096257 0.131313
O O11 0.725847 0.358200 0.067348
O O12 0.407329 0.874133 0.089684
O O13 0.674692 0.760446 0.029888
O O14 0.714382 0.408961 0.879285
O O15 0.169320 0.539826 0.531316
O O16 0.962552 0.610805 0.809023
O O17 0.742641 0.586967 0.750140
#
# Coordination Sequence:
#
# PCOD8032628 Si02
#       8
#     2   2   2   2   2   2   2   2
#     4  12  24  40  67  97 128 169 213 264 322 378
#     4  11  23  43  69  92 128 171 214 263 313 386
#     4  12  26  41  67  95 132 172 210 267 327 374
#     4  12  23  43  66  95 129 169 221 261 312 393
#     4  11  23  43  68  94 127 169 222 263 314 383
#     4  11  26  44  62 100 133 165 212 269 327 376
#     4  11  24  42  69  93 126 171 215 268 317 377
#     4  12  23  43  66  93 132 169 211 264 319 384
#
# _framework density 21.264520000000001
#
# number of rings (size 3 to 8) (size 9 to 14) (size 15 to 20)
#    0.000    0.500    3.750    5.250    0.000    4.500 
#    0.000    0.000    0.000    0.000    0.000    0.000 
#    0.000    0.000    0.000    0.000    0.000    0.000 
#
# Total GULP energy -198524.712935 kJ/mol
# GULP energy per Si atom -12407.794558 kJ/mol
# Density = 2.121612 g / cm^3
# Si number density = 21.264520 Si / 1000 Ang^3
#
#
#
# Elastic Constant Matrix: (Units=GPa)
#
#
# Indices 1 2 3 4 5 6 
#
# 1 103.1393 35.8509 26.6985 24.4897 -6.7408 2.8667
# 2 35.8509 74.4520 27.2265 8.9895 2.0884 10.4996
# 3 26.6985 27.2265 98.4254 0.6687 -14.0743 -5.6534
# 4 24.4897 8.9895 0.6687 34.2921 -8.2217 -5.0076
# 5 -6.7408 2.0884 -14.0743 -8.2217 34.8193 3.4706
# 6 2.8667 10.4996 -5.6534 -5.0076 3.4706 23.7224
#
#
#
# Elastic Compliance Matrix: (Units=1/GPa)
#
#
# Indices 1 2 3 4 5 6 
#
# 1 0.014191 -0.004381 -0.002717 -0.009291 -0.000045 -0.002378
# 2 -0.004381 0.019491 -0.005333 -0.004300 -0.004226 -0.009658
# 3 -0.002717 -0.005333 0.013538 0.005399 0.005924 0.006188
# 4 -0.009291 -0.004300 0.005399 0.040689 0.009096 0.011571
# 5 -0.000045 -0.004226 0.005924 0.009096 0.033476 0.000310
# 6 -0.002378 -0.009658 0.006188 0.011571 0.000310 0.050588
#
#
# Mechanical properties :
#
#
# Convention : Reuss Voigt Hill
#
# Bulk Modulus (GPa) = 44.72830 50.61871 47.67351
# Shear Modulus (GPa) = 24.47509 30.98280 27.72894
#
# Velocity S-wave (km/s) = 3.39629 3.82123 3.61501
# Velocity P-wave (km/s) = 6.03818 6.58218 6.31604
#
# Compressibility (1/GPa) = 0.02235721
#
# Stress axis : x y z
#
# Youngs Moduli (GPa) = 70.46581 51.30535 73.86532
#
# Poissons Ratio (x) = 0.22478 0.20072
# Poissons Ratio (y) = 0.30873 0.39392
# Poissons Ratio (z) = 0.19149 0.27361
#
# Static dielectric constant tensor:
#      x y z
#    x 3.883290 -0.011040 -0.104620 
#    y -0.011040 3.794340 -0.019340 
#    z -0.104620 -0.019340 3.853380 
# 
# 
# High freq. dielectric constant tensor:
#      x y z
#    x 1.837500 0.000670 -0.006970 
#    y 0.000670 1.834880 0.000540 
#    z -0.006970 0.000540 1.847680 
# 
# From -- ./inp_files/190253.got.cif
#   From: 2010.06.25/outbox.cif.g09.slc.cpg/sg2_96_cif.got.tgz:190253.got - 2010.06.27 13:26:56.
