data_PCOD8032848
_publ_section_title
;
Structure prediction by ZEFSAII (Michael W. Deem and Ramdas Pophale) SiO2 
 PCOD8032848
Probable space group: P -1
;
_chemical_formula_sum "Si O2"
_cell_formula_units_Z 12
_cell_length_a 17.010947
_cell_length_b 9.607179
_cell_length_c 13.309891
_cell_angle_alpha 46.347864
_cell_angle_beta 34.497879
_cell_angle_gamma 26.765552
_cell_volume 545.885153
_symmetry_space_group_name_H-M "P -1"
_symmetry_group_IT_number 2
_symmetry_cell_setting 'triclinic'
loop_
_space_group_symop_operation_xyz
x,y,z
-x,-y,-z
loop_
_atom_site_type_symbol
_atom_site_label
_atom_site_fract_x
_atom_site_fract_y
_atom_site_fract_z
Si Si1 0.337641 0.750160 0.803600
Si Si2 0.852100 0.442060 0.928462
Si Si3 0.460237 0.142912 0.363115
Si Si4 0.799268 0.577509 0.146831
Si Si5 0.320478 0.664227 0.520607
Si Si6 0.960532 0.651070 0.568971
O O1 0.413283 0.786116 0.805160
O O2 0.545719 0.557341 0.606062
O O3 0.297722 0.567343 0.956206
O O4 0.113348 0.092045 0.822946
O O5 0.819174 0.666765 0.783945
O O6 0.767061 0.585295 0.058162
O O7 0.194417 0.459592 0.468622
O O8 0.500000 0.000000 0.500000
O O9 0.564266 0.909279 0.277095
O O10 0.854592 0.308902 0.271555
O O11 0.000000 0.500000 0.000000
O O12 0.500000 0.500000 0.500000
O O13 0.185175 0.002090 0.469268
O O14 0.000000 0.500000 0.500000
#
# Coordination Sequence:
#
# PCOD8032848 Si02
#       6
#     2   2   2   2   2   2
#     4  11  23  43  75  98 147 181 237 286 363 410
#     4  11  24  45  74 109 137 190 240 296 352 423
#     4  12  23  47  72 106 143 189 232 294 360 420
#     4  12  23  43  75 106 141 186 237 293 355 421
#     4  12  25  47  71 102 142 196 234 289 364 424
#     4  12  28  47  73 106 146 190 241 290 361 432
#
# _framework density 21.982645999999999
#
# number of rings (size 3 to 8) (size 9 to 14) (size 15 to 20)
#    0.000    0.333    6.667    2.000    2.333    1.333 
#    0.000    1.667    0.000    0.000    0.000    0.000 
#    0.000    0.000    0.000    0.000    0.000    0.000 
#
# Total GULP energy -148825.073738 kJ/mol
# GULP energy per Si atom -12402.089478 kJ/mol
# Density = 2.193261 g / cm^3
# Si number density = 21.982646 Si / 1000 Ang^3
#
#
#
# Elastic Constant Matrix: (Units=GPa)
#
#
# Indices 1 2 3 4 5 6 
#
# 1 121.5940 60.7508 61.5385 -16.1513 -15.4664 14.4480
# 2 60.7508 133.0965 73.4749 -18.2136 9.6517 6.0210
# 3 61.5385 73.4749 165.6716 -29.1859 -8.1803 12.3544
# 4 -16.1513 -18.2136 -29.1859 38.7952 12.7468 -0.6518
# 5 -15.4664 9.6517 -8.1803 12.7468 52.4047 8.0195
# 6 14.4480 6.0210 12.3544 -0.6518 8.0195 39.5449
#
#
#
# Elastic Compliance Matrix: (Units=1/GPa)
#
#
# Indices 1 2 3 4 5 6 
#
# 1 0.012870 -0.004951 -0.002055 -0.000268 0.005120 -0.004349
# 2 -0.004951 0.012442 -0.003600 0.002864 -0.005343 0.002170
# 3 -0.002055 -0.003600 0.009294 0.004171 0.000751 -0.001688
# 4 -0.000268 0.002864 0.004171 0.032788 -0.008011 0.000524
# 5 0.005120 -0.005343 0.000751 -0.008011 0.024625 -0.006418
# 6 -0.004349 0.002170 -0.001688 0.000524 -0.006418 0.028384
#
#
# Mechanical properties :
#
#
# Convention : Reuss Voigt Hill
#
# Bulk Modulus (GPa) = 74.66222 90.21007 82.43614
# Shear Modulus (GPa) = 34.22781 41.12215 37.67498
#
# Velocity S-wave (km/s) = 3.95021 4.32981 4.14436
# Velocity P-wave (km/s) = 7.40564 8.13157 7.77708
#
# Compressibility (1/GPa) = 0.01339366
#
# Stress axis : x y z
#
# Youngs Moduli (GPa) = 77.69796 80.37350 107.60122
#
# Poissons Ratio (x) = 0.39797 0.22109
# Poissons Ratio (y) = 0.38472 0.38736
# Poissons Ratio (z) = 0.15965 0.28934
#
# Static dielectric constant tensor:
#      x y z
#    x 4.274310 0.289230 -0.136030 
#    y 0.289230 4.065270 -0.048130 
#    z -0.136030 -0.048130 4.412740 
# 
# 
# High freq. dielectric constant tensor:
#      x y z
#    x 1.873150 0.025880 -0.014060 
#    y 0.025880 1.853600 0.005830 
#    z -0.014060 0.005830 1.880830 
# 
# From -- ./inp_files/148951.got.cif
#   From: 2010.06.25/outbox.cif.g09.slc.cpg/sg2_75_cif.got.tgz:148951.got - 2010.06.27 13:26:56.
