data_PCOD8032099
_publ_section_title
;
Structure prediction by ZEFSAII (Michael W. Deem and Ramdas Pophale) SiO2 
 PCOD8032099
Probable space group: P -1
;
_chemical_formula_sum "Si O2"
_cell_formula_units_Z 16
_cell_length_a 18.800705
_cell_length_b 12.445939
_cell_length_c 21.949076
_cell_angle_alpha 30.996175
_cell_angle_beta 17.349438
_cell_angle_gamma 40.242803
_cell_volume 736.604480
_symmetry_space_group_name_H-M "P -1"
_symmetry_group_IT_number 2
_symmetry_cell_setting 'triclinic'
loop_
_space_group_symop_operation_xyz
x,y,z
-x,-y,-z
loop_
_atom_site_type_symbol
_atom_site_label
_atom_site_fract_x
_atom_site_fract_y
_atom_site_fract_z
Si Si1 0.220613 0.939890 0.783074
Si Si2 0.028490 0.055622 0.714446
Si Si3 0.028471 0.587437 0.758188
Si Si4 0.220924 0.740098 0.399715
Si Si5 0.458726 0.259214 0.671095
Si Si6 0.425921 0.950545 0.737832
Si Si7 0.196658 0.085514 0.160112
Si Si8 0.026376 0.305011 0.704236
O O1 0.254922 0.988913 0.803556
O O2 0.500000 0.000000 0.500000
O O3 0.090447 0.096606 0.781343
O O4 0.056659 0.677553 0.031423
O O5 0.984204 0.052067 0.680089
O O6 0.310869 0.061252 0.496309
O O7 0.013385 0.274667 0.655820
O O8 0.812962 0.841226 0.024442
O O9 0.023596 0.634024 0.667281
O O10 0.316244 0.732184 0.471407
O O11 0.846636 0.687199 0.896279
O O12 0.221884 0.546866 0.444963
O O13 0.128990 0.920582 0.353488
O O14 0.511930 0.853918 0.128845
O O15 0.500000 0.500000 0.500000
O O16 0.489865 0.148096 0.637047
O O17 0.253468 0.724938 0.024865
#
# Coordination Sequence:
#
# PCOD8032099 Si02
#       8
#     2   2   2   2   2   2   2   2
#     4  12  24  40  67  98 133 169 212 262 323 392
#     4  11  23  44  62  94 132 165 216 267 322 381
#     4  12  23  44  67  97 130 171 216 264 326 386
#     4  11  25  45  69  93 127 173 222 271 322 371
#     4  11  25  39  63  96 132 173 208 261 329 390
#     4  11  23  41  61  91 134 169 207 264 318 391
#     4  11  25  45  68  95 127 171 223 275 314 378
#     4  11  24  43  66  96 130 173 212 261 326 390
#
# _framework density 21.721292999999999
#
# number of rings (size 3 to 8) (size 9 to 14) (size 15 to 20)
#    0.000    0.750    5.000    3.000    1.750    2.000 
#    0.000    0.625    0.000    0.000    0.000    0.000 
#    0.000    0.000    0.000    0.000    0.000    0.000 
#
# Total GULP energy -198339.430203 kJ/mol
# GULP energy per Si atom -12396.214388 kJ/mol
# Density = 2.167185 g / cm^3
# Si number density = 21.721293 Si / 1000 Ang^3
#
#
#
# Elastic Constant Matrix: (Units=GPa)
#
#
# Indices 1 2 3 4 5 6 
#
# 1 94.9182 29.5520 12.9292 -5.9001 -18.9728 19.9592
# 2 29.5520 68.0176 23.5357 -6.7180 -1.8064 3.9544
# 3 12.9292 23.5357 78.4056 8.9153 -10.8374 3.7991
# 4 -5.9001 -6.7180 8.9153 38.4779 5.8438 -2.5182
# 5 -18.9728 -1.8064 -10.8374 5.8438 34.3495 0.5855
# 6 19.9592 3.9544 3.7991 -2.5182 0.5855 34.0388
#
#
#
# Elastic Compliance Matrix: (Units=1/GPa)
#
#
# Indices 1 2 3 4 5 6 
#
# 1 0.016180 -0.006767 0.001197 -0.000981 0.009280 -0.009067
# 2 -0.006767 0.020024 -0.006368 0.004967 -0.005587 0.002816
# 3 0.001197 -0.006368 0.016129 -0.005794 0.006440 -0.002302
# 4 -0.000981 0.004967 -0.005794 0.029326 -0.007148 0.002937
# 5 0.009280 -0.005587 0.006440 -0.007148 0.037306 -0.006682
# 6 -0.009067 0.002816 -0.002302 0.002937 -0.006682 0.034957
#
#
# Mechanical properties :
#
#
# Convention : Reuss Voigt Hill
#
# Bulk Modulus (GPa) = 35.14249 41.48614 38.31431
# Shear Modulus (GPa) = 26.69735 33.06153 29.87944
#
# Velocity S-wave (km/s) = 3.50964 3.90562 3.71291
# Velocity P-wave (km/s) = 5.71291 6.28325 6.00485
#
# Compressibility (1/GPa) = 0.02845558
#
# Stress axis : x y z
#
# Youngs Moduli (GPa) = 61.80560 49.93928 62.00020
#
# Poissons Ratio (x) = 0.33794 -0.07420
# Poissons Ratio (y) = 0.41825 0.39484
# Poissons Ratio (z) = -0.07397 0.31803
#
# Static dielectric constant tensor:
#      x y z
#    x 4.202840 0.216030 -0.113260 
#    y 0.216030 3.256580 -0.226260 
#    z -0.113260 -0.226260 3.661290 
# 
# 
# High freq. dielectric constant tensor:
#      x y z
#    x 1.868360 0.022850 -0.009960 
#    y 0.022850 1.834890 0.011460 
#    z -0.009960 0.011460 1.861360 
# 
# From -- ./inp_files/427635.got.cif
#   From: 2010.06.25/outbox.cif.g09.slc.cpg/sg2_214_cif.got.tgz:427635.got - 2010.06.27 13:26:56.
