data_PCOD8032305
_publ_section_title
;
Structure prediction by ZEFSAII (Michael W. Deem and Ramdas Pophale) SiO2 
 PCOD8032305
Probable space group: P -1
;
_chemical_formula_sum "Si O2"
_cell_formula_units_Z 16
_cell_length_a 11.600544
_cell_length_b 8.600815
_cell_length_c 15.974232
_cell_angle_alpha 68.368006
_cell_angle_beta 136.585335
_cell_angle_gamma 78.675810
_cell_volume 699.693541
_symmetry_space_group_name_H-M "P -1"
_symmetry_group_IT_number 2
_symmetry_cell_setting 'triclinic'
loop_
_space_group_symop_operation_xyz
x,y,z
-x,-y,-z
loop_
_atom_site_type_symbol
_atom_site_label
_atom_site_fract_x
_atom_site_fract_y
_atom_site_fract_z
Si Si1 0.473153 0.341899 0.064621
Si Si2 0.988726 0.087913 0.566566
Si Si3 0.364265 0.082450 0.997095
Si Si4 0.764664 0.586057 0.397066
Si Si5 0.771649 0.095556 0.604877
Si Si6 0.169856 0.599814 0.359855
Si Si7 0.124694 0.617705 0.973192
Si Si8 0.246440 0.408440 0.255230
O O1 0.294530 0.325010 0.939020
O O2 0.730653 0.056781 0.246715
O O3 0.500000 0.500000 0.000000
O O4 0.378335 0.442634 0.089216
O O5 0.788347 0.379596 0.413679
O O6 0.922187 0.993314 0.617718
O O7 0.000000 0.000000 0.500000
O O8 0.517805 0.859455 0.187692
O O9 0.118808 0.157135 0.836422
O O10 0.500000 0.000000 0.000000
O O11 0.765368 0.587966 0.498767
O O12 0.000000 0.500000 0.500000
O O13 0.688022 0.336834 0.547790
O O14 0.533973 0.149508 0.452741
O O15 0.955224 0.898867 0.811910
O O16 0.234054 0.506727 0.318287
O O17 0.951812 0.592069 0.855867
O O18 0.192458 0.569689 0.116161
#
# Coordination Sequence:
#
# PCOD8032305 Si02
#       8
#     2   2   2   2   2   2   2   2
#     4  12  24  43  69 102 138 175 224 289 351 408
#     4  11  24  40  66 102 138 180 224 282 351 409
#     4  12  24  42  69 100 142 183 225 285 347 418
#     4  11  23  42  65 101 139 180 229 280 345 418
#     4  11  24  45  68 100 138 180 232 287 340 411
#     4  11  25  44  69 101 136 184 232 282 349 408
#     4  11  25  45  71 101 137 180 235 284 347 408
#     4  11  25  47  68  97 140 184 234 283 336 418
#
# _framework density 22.867153999999999
#
# number of rings (size 3 to 8) (size 9 to 14) (size 15 to 20)
#    0.000    0.750    5.000    2.250    1.750    4.500 
#    2.250    0.000    0.000    0.000    0.000    0.000 
#    0.000    0.000    0.000    0.000    0.000    0.000 
#
# Total GULP energy -198224.317591 kJ/mol
# GULP energy per Si atom -12389.019849 kJ/mol
# Density = 2.281511 g / cm^3
# Si number density = 22.867154 Si / 1000 Ang^3
#
#
#
# Elastic Constant Matrix: (Units=GPa)
#
#
# Indices 1 2 3 4 5 6 
#
# 1 136.9615 45.8953 46.8737 6.2093 -12.0670 -27.1891
# 2 45.8953 89.4329 23.1885 13.6005 -22.8201 -16.8157
# 3 46.8737 23.1885 118.6913 -2.4744 -13.0811 -10.4845
# 4 6.2093 13.6005 -2.4744 32.0624 -3.3108 -9.7027
# 5 -12.0670 -22.8201 -13.0811 -3.3108 49.3244 6.5633
# 6 -27.1891 -16.8157 -10.4845 -9.7027 6.5633 45.0719
#
#
#
# Elastic Compliance Matrix: (Units=1/GPa)
#
#
# Indices 1 2 3 4 5 6 
#
# 1 0.010461 -0.004040 -0.003014 0.000705 -0.000640 0.004347
# 2 -0.004040 0.015952 -0.000881 -0.005046 0.005633 0.001403
# 3 -0.003014 -0.000881 0.010041 0.002016 0.001601 0.000389
# 4 0.000705 -0.005046 0.002016 0.035344 -0.000139 0.006640
# 5 -0.000640 0.005633 0.001601 -0.000139 0.023317 -0.001338
# 6 0.004347 0.001403 0.000389 0.006640 -0.001338 0.027047
#
#
# Mechanical properties :
#
#
# Convention : Reuss Voigt Hill
#
# Bulk Modulus (GPa) = 48.58503 64.11120 56.34811
# Shear Modulus (GPa) = 34.50813 40.56695 37.53754
#
# Velocity S-wave (km/s) = 3.88889 4.21649 4.05600
# Velocity P-wave (km/s) = 6.43874 7.19738 6.82860
#
# Compressibility (1/GPa) = 0.02058247
#
# Stress axis : x y z
#
# Youngs Moduli (GPa) = 95.59043 62.68866 99.59596
#
# Poissons Ratio (x) = 0.25328 0.30018
# Poissons Ratio (y) = 0.38621 0.08779
# Poissons Ratio (z) = 0.28810 0.05525
#
# Static dielectric constant tensor:
#      x y z
#    x 3.137510 -1.191490 -1.094910 
#    y -1.191490 3.043990 -1.278140 
#    z -1.094910 -1.278140 3.805600 
# 
# 
# High freq. dielectric constant tensor:
#      x y z
#    x 1.924880 -0.002890 0.004140 
#    y -0.002890 1.887770 0.009850 
#    z 0.004140 0.009850 1.904360 
# 
# From -- ./inp_files/499324.got.cif
#   From: 2010.06.25/outbox.cif.g09.slc.cpg/sg2_250_cif.got.tgz:499324.got - 2010.06.27 13:26:56.
