data_PCOD8032660
_publ_section_title
;
Structure prediction by ZEFSAII (Michael W. Deem and Ramdas Pophale) SiO2 
 PCOD8032660
Probable space group: P -1
;
_chemical_formula_sum "Si O2"
_cell_formula_units_Z 16
_cell_length_a 17.248029
_cell_length_b 12.946890
_cell_length_c 15.986693
_cell_angle_alpha 152.995302
_cell_angle_beta 150.225252
_cell_angle_gamma 46.939828
_cell_volume 737.161087
_symmetry_space_group_name_H-M "P -1"
_symmetry_group_IT_number 2
_symmetry_cell_setting 'triclinic'
loop_
_space_group_symop_operation_xyz
x,y,z
-x,-y,-z
loop_
_atom_site_type_symbol
_atom_site_label
_atom_site_fract_x
_atom_site_fract_y
_atom_site_fract_z
Si Si1 0.109963 0.412733 0.207233
Si Si2 0.469126 0.794310 0.256293
Si Si3 0.810882 0.445632 0.302777
Si Si4 0.313918 0.295147 0.167242
Si Si5 0.112780 0.289194 0.814442
Si Si6 0.338921 0.772099 0.820544
Si Si7 0.198433 0.073455 0.422267
Si Si8 0.661406 0.692925 0.114797
O O1 0.200270 0.305347 0.146468
O O2 0.249042 0.570199 0.518962
O O3 0.017441 0.578353 0.201739
O O4 0.959168 0.172256 0.932482
O O5 0.617513 0.924275 0.421879
O O6 0.500000 0.000000 0.500000
O O7 0.297776 0.739395 0.004907
O O8 0.458225 0.543687 0.112259
O O9 0.762586 0.323132 0.258648
O O10 0.795780 0.706078 0.473083
O O11 0.000000 0.500000 0.500000
O O12 0.500000 0.500000 0.500000
O O13 0.238115 0.366782 0.065854
O O14 0.325737 0.030789 0.974231
O O15 0.228887 0.374046 0.900885
O O16 0.000000 0.000000 0.500000
O O17 0.536747 0.808573 0.039814
O O18 0.196945 0.115125 0.551426
#
# Coordination Sequence:
#
# PCOD8032660 Si02
#       8
#     2   2   2   2   2   2   2   2
#     4  12  28  46  74 106 143 184 243 295 360 430
#     4  11  23  43  69 105 144 190 237 284 358 427
#     4  11  24  42  70 102 148 184 226 293 347 420
#     4  12  29  49  74 106 139 188 243 298 364 420
#     4  12  26  47  74 102 140 187 239 304 360 413
#     4  12  26  48  71 105 147 186 238 291 358 428
#     4  11  23  46  68 106 141 187 235 283 356 429
#     4  11  24  45  72 100 144 189 236 293 356 428
#
# _framework density 21.704889000000001
#
# number of rings (size 3 to 8) (size 9 to 14) (size 15 to 20)
#    0.000    0.500    3.750    4.125    8.750    4.500 
#    0.000    0.000    0.000    0.000    0.000    0.000 
#    0.000    0.000    0.000    0.000    0.000    0.000 
#
# Total GULP energy -198393.600217 kJ/mol
# GULP energy per Si atom -12399.600014 kJ/mol
# Density = 2.165549 g / cm^3
# Si number density = 21.704889 Si / 1000 Ang^3
#
#
#
# Elastic Constant Matrix: (Units=GPa)
#
#
# Indices 1 2 3 4 5 6 
#
# 1 92.8956 15.5105 34.9479 -5.1019 1.2173 -1.9929
# 2 15.5105 61.6949 19.5055 -13.4155 -7.9700 1.7168
# 3 34.9479 19.5055 128.6050 0.3577 -3.6297 3.1416
# 4 -5.1019 -13.4155 0.3577 36.1677 -2.0703 0.0520
# 5 1.2173 -7.9700 -3.6297 -2.0703 43.4351 -4.1282
# 6 -1.9929 1.7168 3.1416 0.0520 -4.1282 37.4201
#
#
#
# Elastic Compliance Matrix: (Units=1/GPa)
#
#
# Indices 1 2 3 4 5 6 
#
# 1 0.012356 -0.002054 -0.003095 0.000962 -0.000849 0.000917
# 2 -0.002054 0.019512 -0.002306 0.007186 0.003749 -0.000407
# 3 -0.003095 -0.002306 0.008997 -0.001364 0.000276 -0.000782
# 4 0.000962 0.007186 -0.001364 0.030615 0.002645 0.000085
# 5 -0.000849 0.003749 0.000276 0.002645 0.024113 0.002416
# 6 0.000917 -0.000407 -0.000782 0.000085 0.002416 0.027123
#
#
# Mechanical properties :
#
#
# Convention : Reuss Voigt Hill
#
# Bulk Modulus (GPa) = 38.52634 47.01371 42.77003
# Shear Modulus (GPa) = 34.18156 37.62002 35.90079
#
# Velocity S-wave (km/s) = 3.97272 4.16775 4.07140
# Velocity P-wave (km/s) = 6.23153 6.69833 6.46914
#
# Compressibility (1/GPa) = 0.02595627
#
# Stress axis : x y z
#
# Youngs Moduli (GPa) = 80.93418 51.24982 111.14544
#
# Poissons Ratio (x) = 0.10525 0.34401
# Poissons Ratio (y) = 0.16622 0.25625
# Poissons Ratio (z) = 0.25050 0.11816
#
# Static dielectric constant tensor:
#      x y z
#    x 4.225910 0.271510 0.036170 
#    y 0.271510 4.418660 0.189490 
#    z 0.036170 0.189490 4.654490 
# 
# 
# High freq. dielectric constant tensor:
#      x y z
#    x 1.863280 -0.003070 0.002830 
#    y -0.003070 1.855250 -0.007370 
#    z 0.002830 -0.007370 1.869250 
# 
# From -- ./inp_files/378832.got.cif
#   From: 2010.06.25/outbox.cif.g09.slc.cpg/sg2_190_cif.got.tgz:378832.got - 2010.06.27 13:26:56.
