data_PCOD8032979
_publ_section_title
;
Structure prediction by ZEFSAII (Michael W. Deem and Ramdas Pophale) SiO2 
 PCOD8032979
Probable space group: P -1
;
_chemical_formula_sum "Si O2"
_cell_formula_units_Z 16
_cell_length_a 5.850251
_cell_length_b 17.402164
_cell_length_c 9.395663
_cell_angle_alpha 69.392154
_cell_angle_beta 65.415042
_cell_angle_gamma 107.816173
_cell_volume 689.644714
_symmetry_space_group_name_H-M "P -1"
_symmetry_group_IT_number 2
_symmetry_cell_setting 'triclinic'
loop_
_space_group_symop_operation_xyz
x,y,z
-x,-y,-z
loop_
_atom_site_type_symbol
_atom_site_label
_atom_site_fract_x
_atom_site_fract_y
_atom_site_fract_z
Si Si1 0.331536 0.236400 0.758342
Si Si2 0.877784 0.077047 0.580568
Si Si3 0.853039 0.047334 0.911970
Si Si4 0.249464 0.771973 0.568651
Si Si5 0.689559 0.600501 0.968926
Si Si6 0.465617 0.124954 0.288032
Si Si7 0.384331 0.713816 0.062351
Si Si8 0.734330 0.589176 0.290726
O O1 0.520478 0.242602 0.568470
O O2 0.449070 0.219052 0.887833
O O3 0.370893 0.338145 0.701795
O O4 0.986179 0.152420 0.881937
O O5 0.995463 0.061397 0.710243
O O6 0.848167 0.170103 0.546102
O O7 0.129880 0.102466 0.382107
O O8 0.564968 0.976053 0.687529
O O9 0.500000 0.000000 0.000000
O O10 0.000000 0.000000 0.000000
O O11 0.391674 0.846123 0.613864
O O12 0.992160 0.666448 0.758800
O O13 0.542874 0.665029 0.975258
O O14 0.739877 0.571198 0.131991
O O15 0.500000 0.500000 0.000000
O O16 0.660534 0.216858 0.076543
O O17 0.057035 0.626367 0.247908
O O18 0.500000 0.500000 0.500000
#
# Coordination Sequence:
#
# PCOD8032979 Si02
#       8
#     2   2   2   2   2   2   2   2
#     4  11  28  45  73 106 146 198 242 316 376 455
#     4  11  25  41  71 104 146 195 244 305 367 444
#     4  12  27  46  71 110 154 201 257 311 378 453
#     4  12  24  47  71 109 145 191 256 307 379 446
#     4  11  27  45  74 107 140 189 245 317 372 451
#     4  11  23  44  70 102 143 190 246 298 373 440
#     4  11  25  49  73 104 150 191 247 306 383 456
#     4  11  28  48  72 104 143 197 245 308 391 457
#
# _framework density 23.200351999999999
#
# number of rings (size 3 to 8) (size 9 to 14) (size 15 to 20)
#    0.000    0.750    3.750    1.875    8.750    2.500 
#    0.000    0.000    0.000    0.000    0.000    0.000 
#    0.000    0.000    0.000    0.000    0.000    0.000 
#
# Total GULP energy -198288.004501 kJ/mol
# GULP energy per Si atom -12393.000281 kJ/mol
# Density = 2.314755 g / cm^3
# Si number density = 23.200352 Si / 1000 Ang^3
#
#
#
# Elastic Constant Matrix: (Units=GPa)
#
#
# Indices 1 2 3 4 5 6 
#
# 1 96.0579 28.7306 46.7047 -0.5582 -1.5241 21.3030
# 2 28.7306 131.3653 54.8904 -1.4910 6.3900 36.1317
# 3 46.7047 54.8904 124.6609 -13.9866 5.9609 14.0438
# 4 -0.5582 -1.4910 -13.9866 37.8338 9.5417 -1.6748
# 5 -1.5241 6.3900 5.9609 9.5417 40.0432 -0.8133
# 6 21.3030 36.1317 14.0438 -1.6748 -0.8133 33.6860
#
#
#
# Elastic Compliance Matrix: (Units=1/GPa)
#
#
# Indices 1 2 3 4 5 6 
#
# 1 0.014536 0.001295 -0.005427 -0.002512 0.001582 -0.008406
# 2 0.001295 0.012897 -0.004844 -0.001529 -0.001182 -0.012737
# 3 -0.005427 -0.004844 0.012470 0.005113 -0.002435 0.003624
# 4 -0.002512 -0.001529 0.005113 0.030294 -0.007782 0.002415
# 5 0.001582 -0.001182 -0.002435 -0.007782 0.027470 0.001558
# 6 -0.008406 -0.012737 0.003624 0.002415 0.001558 0.047310
#
#
# Mechanical properties :
#
#
# Convention : Reuss Voigt Hill
#
# Bulk Modulus (GPa) = 45.55598 68.08172 56.81885
# Shear Modulus (GPa) = 29.36932 37.09648 33.23290
#
# Velocity S-wave (km/s) = 3.56181 4.00304 3.78885
# Velocity P-wave (km/s) = 6.04928 7.12563 6.60940
#
# Compressibility (1/GPa) = 0.02195101
#
# Stress axis : x y z
#
# Youngs Moduli (GPa) = 68.79286 77.54027 80.19506
#
# Poissons Ratio (x) = -0.10041 0.43520
# Poissons Ratio (y) = -0.08908 0.38845
# Poissons Ratio (z) = 0.37332 0.37560
#
# Static dielectric constant tensor:
#      x y z
#    x 3.772920 0.252740 -0.189030 
#    y 0.252740 4.317690 0.042140 
#    z -0.189030 0.042140 4.254100 
# 
# 
# High freq. dielectric constant tensor:
#      x y z
#    x 1.912900 0.010390 -0.002150 
#    y 0.010390 1.925900 0.001440 
#    z -0.002150 0.001440 1.930990 
# 
# From -- ./inp_files/56905.got.cif
#   From: 2010.06.25/outbox.cif.g09.slc.cpg/sg2_29_cif.got.tgz:56905.got - 2010.06.27 13:26:56.
