data_PCOD8032585
_publ_section_title
;
Structure prediction by ZEFSAII (Michael W. Deem and Ramdas Pophale) SiO2 
 PCOD8032585
Probable space group: P -1
;
_chemical_formula_sum "Si O2"
_cell_formula_units_Z 10
_cell_length_a 16.356220
_cell_length_b 8.792485
_cell_length_c 13.157949
_cell_angle_alpha 52.639799
_cell_angle_beta 24.878977
_cell_angle_gamma 38.928424
_cell_volume 463.879814
_symmetry_space_group_name_H-M "P -1"
_symmetry_group_IT_number 2
_symmetry_cell_setting 'triclinic'
loop_
_space_group_symop_operation_xyz
x,y,z
-x,-y,-z
loop_
_atom_site_type_symbol
_atom_site_label
_atom_site_fract_x
_atom_site_fract_y
_atom_site_fract_z
Si Si1 0.413877 0.455635 0.720838
Si Si2 0.724503 0.502871 0.721035
Si Si3 0.117708 0.281789 0.873653
Si Si4 0.503142 0.716741 0.673657
Si Si5 0.677137 0.916193 0.734390
O O1 0.500000 0.500000 0.500000
O O2 0.446369 0.558420 0.743729
O O3 0.574219 0.153302 0.680990
O O4 0.103233 0.615832 0.002577
O O5 0.707425 0.549726 0.601700
O O6 0.664411 0.732152 0.759036
O O7 0.021105 0.229920 0.518377
O O8 0.500000 0.500000 0.000000
O O9 0.366042 0.228505 0.574298
O O10 0.229428 0.003263 0.903911
O O11 0.000000 0.500000 0.000000
O O12 0.500000 0.000000 0.000000
#
# Coordination Sequence:
#
# PCOD8032585 Si02
#       5
#     2   2   2   2   2
#     4  12  25  42  70 102 138 180 225 282 346 405
#     4  11  26  45  73 100 135 186 235 286 343 410
#     4  11  23  43  66  97 139 177 224 280 341 407
#     4  11  25  42  68 100 135 181 228 280 342 408
#     4  11  26  48  70 100 142 181 235 288 344 417
#
# _framework density 21.557307999999999
#
# number of rings (size 3 to 8) (size 9 to 14) (size 15 to 20)
#    0.000    0.800    2.000    4.200    5.600    6.400 
#    0.000    0.000    0.000    0.000    0.000    0.000 
#    0.000    0.000    0.000    0.000    0.000    0.000 
#
# Total GULP energy -123970.097565 kJ/mol
# GULP energy per Si atom -12397.009757 kJ/mol
# Density = 2.150824 g / cm^3
# Si number density = 21.557308 Si / 1000 Ang^3
#
#
#
# Elastic Constant Matrix: (Units=GPa)
#
#
# Indices 1 2 3 4 5 6 
#
# 1 123.5788 32.6929 32.5306 9.0945 -14.8593 3.4225
# 2 32.6929 134.7038 50.5649 14.6155 -9.4991 -12.7560
# 3 32.5306 50.5649 98.4056 8.8584 -16.7003 7.5501
# 4 9.0945 14.6155 8.8584 31.6817 -4.9948 -3.1039
# 5 -14.8593 -9.4991 -16.7003 -4.9948 50.0780 0.4353
# 6 3.4225 -12.7560 7.5501 -3.1039 0.4353 38.9676
#
#
#
# Elastic Compliance Matrix: (Units=1/GPa)
#
#
# Indices 1 2 3 4 5 6 
#
# 1 0.009285 -0.001385 -0.001862 -0.001332 0.001748 -0.001034
# 2 -0.001385 0.010290 -0.004993 -0.002603 -0.000421 0.004255
# 3 -0.001862 -0.004993 0.014320 -0.001089 0.003205 -0.004368
# 4 -0.001332 -0.002603 -0.001089 0.033997 0.002120 0.002160
# 5 0.001748 -0.000421 0.003205 0.002120 0.021697 -0.000986
# 6 -0.001034 0.004255 -0.004368 0.002160 -0.000986 0.028175
#
#
# Mechanical properties :
#
#
# Convention : Reuss Voigt Hill
#
# Bulk Modulus (GPa) = 57.42035 65.36277 61.39156
# Shear Modulus (GPa) = 35.70162 40.20544 37.95353
#
# Velocity S-wave (km/s) = 4.07397 4.32331 4.20049
# Velocity P-wave (km/s) = 6.98739 7.43691 7.21565
#
# Compressibility (1/GPa) = 0.01741543
#
# Stress axis : x y z
#
# Youngs Moduli (GPa) = 107.69723 97.18461 69.83045
#
# Poissons Ratio (x) = 0.13457 0.13004
# Poissons Ratio (y) = 0.14912 0.34867
# Poissons Ratio (z) = 0.20056 0.48525
#
# Static dielectric constant tensor:
#      x y z
#    x 3.563500 -2.498060 -1.228630 
#    y -2.498060 -6.900850 -4.107540 
#    z -1.228630 -4.107540 2.184150 
# 
# 
# High freq. dielectric constant tensor:
#      x y z
#    x 1.862170 0.006810 -0.011550 
#    y 0.006810 1.862600 0.009690 
#    z -0.011550 0.009690 1.852100 
# 
# From -- ./inp_files/3385.got.cif
#   From: 2010.06.25/outbox.cif.g09.slc.cpg/sg2_2_cif.got.tgz:3385.got - 2010.06.27 13:26:56.
