data_PCOD8032842
_publ_section_title
;
Structure prediction by ZEFSAII (Michael W. Deem and Ramdas Pophale) SiO2 
 PCOD8032842
Probable space group: P -1
;
_chemical_formula_sum "Si O2"
_cell_formula_units_Z 16
_cell_length_a 11.610276
_cell_length_b 16.215840
_cell_length_c 19.829518
_cell_angle_alpha 156.167586
_cell_angle_beta 150.961217
_cell_angle_gamma 43.498013
_cell_volume 677.584230
_symmetry_space_group_name_H-M "P -1"
_symmetry_group_IT_number 2
_symmetry_cell_setting 'triclinic'
loop_
_space_group_symop_operation_xyz
x,y,z
-x,-y,-z
loop_
_atom_site_type_symbol
_atom_site_label
_atom_site_fract_x
_atom_site_fract_y
_atom_site_fract_z
Si Si1 0.658300 0.507197 0.921552
Si Si2 0.767602 0.343032 0.219349
Si Si3 0.546652 0.823989 0.938277
Si Si4 0.018246 0.049961 0.657043
Si Si5 0.991101 0.418579 0.723636
Si Si6 0.501171 0.388384 0.521162
Si Si7 0.533844 0.125961 0.466901
Si Si8 0.948258 0.247277 0.102372
O O1 0.381222 0.524288 0.796782
O O2 0.616968 0.294498 0.696675
O O3 0.865393 0.735207 0.169734
O O4 0.766188 0.461201 0.013428
O O5 0.577079 0.175046 0.050151
O O6 0.861290 0.222871 0.118254
O O7 0.000000 0.500000 0.500000
O O8 0.437095 0.588981 0.670210
O O9 0.850157 0.890879 0.157335
O O10 0.500000 0.000000 0.000000
O O11 0.713358 0.983781 0.455673
O O12 0.072175 0.841225 0.501276
O O13 0.735301 0.465091 0.646095
O O14 0.061062 0.529103 0.768212
O O15 0.592349 0.263833 0.531639
O O16 0.230809 0.237092 0.235627
O O17 0.237655 0.959918 0.191599
#
# Coordination Sequence:
#
# PCOD8032842 Si02
#       8
#     2   2   2   2   2   2   2   2
#     4  11  23  45  74 104 141 193 241 292 364 429
#     4  11  23  46  72 101 144 186 232 292 362 426
#     4  11  24  46  75 107 137 188 244 295 355 430
#     4  11  23  43  75 107 140 190 242 298 354 429
#     4  12  27  46  74 108 147 190 247 298 355 430
#     4  12  24  49  72 103 146 193 244 293 358 435
#     4  12  24  46  76 105 145 189 242 298 364 430
#     4  12  28  47  68 112 147 191 236 299 369 422
#
# _framework density 23.613299999999999
#
# number of rings (size 3 to 8) (size 9 to 14) (size 15 to 20)
#    0.000    0.500    5.000    3.750    3.500    2.500 
#    4.500    0.000    0.000    0.000    0.000    0.000 
#    0.000    0.000    0.000    0.000    0.000    0.000 
#
# Total GULP energy -198381.898798 kJ/mol
# GULP energy per Si atom -12398.868675 kJ/mol
# Density = 2.355956 g / cm^3
# Si number density = 23.613300 Si / 1000 Ang^3
#
#
#
# Elastic Constant Matrix: (Units=GPa)
#
#
# Indices 1 2 3 4 5 6 
#
# 1 82.6864 42.2090 33.6324 -3.2785 -1.1905 10.3486
# 2 42.2090 130.5699 39.8840 -16.8257 11.9999 9.2769
# 3 33.6324 39.8840 132.1132 -14.0987 -5.4622 2.1231
# 4 -3.2785 -16.8257 -14.0987 44.6373 -6.2957 1.9472
# 5 -1.1905 11.9999 -5.4622 -6.2957 18.9980 -7.5537
# 6 10.3486 9.2769 2.1231 1.9472 -7.5537 24.5495
#
#
#
# Elastic Compliance Matrix: (Units=1/GPa)
#
#
# Indices 1 2 3 4 5 6 
#
# 1 0.015895 -0.004141 -0.002801 -0.000986 0.000644 -0.004617
# 2 -0.004141 0.011268 -0.002435 0.002064 -0.009540 -0.005401
# 3 -0.002801 -0.002435 0.009502 0.002614 0.006138 0.002960
# 4 -0.000986 0.002064 0.002614 0.025014 0.007579 -0.000243
# 5 0.000644 -0.009540 0.006138 0.007579 0.072756 0.024588
# 6 -0.004617 -0.005401 0.002960 -0.000243 0.024588 0.052050
#
#
# Mechanical properties :
#
#
# Convention : Reuss Voigt Hill
#
# Bulk Modulus (GPa) = 55.82812 64.09114 59.95963
# Shear Modulus (GPa) = 23.67332 32.94657 28.30994
#
# Velocity S-wave (km/s) = 3.16973 3.73936 3.46627
# Velocity P-wave (km/s) = 6.09017 6.77087 6.43952
#
# Compressibility (1/GPa) = 0.01791212
#
# Stress axis : x y z
#
# Youngs Moduli (GPa) = 62.91319 88.75004 105.23569
#
# Poissons Ratio (x) = 0.36752 0.29473
# Poissons Ratio (y) = 0.26052 0.25623
# Poissons Ratio (z) = 0.17620 0.21609
#
# Static dielectric constant tensor:
#      x y z
#    x 4.052150 0.012540 -0.042420 
#    y 0.012540 4.441380 -0.350680 
#    z -0.042420 -0.350680 4.495860 
# 
# 
# High freq. dielectric constant tensor:
#      x y z
#    x 1.907770 0.003440 -0.004770 
#    y 0.003440 1.954750 -0.022510 
#    z -0.004770 -0.022510 1.944170 
# 
# From -- ./inp_files/596101.got.cif
#   From: 2010.06.25/outbox.cif.g09.slc.cpg/sg2_299_cif.got.tgz:596101.got - 2010.06.27 13:26:56.
