data_PCOD8032746
_publ_section_title
;
Structure prediction by ZEFSAII (Michael W. Deem and Ramdas Pophale) SiO2 
 PCOD8032746
Probable space group: P -1
;
_chemical_formula_sum "Si O2"
_cell_formula_units_Z 16
_cell_length_a 5.543766
_cell_length_b 27.093082
_cell_length_c 18.481333
_cell_angle_alpha 22.635658
_cell_angle_beta 58.185012
_cell_angle_gamma 57.079765
_cell_volume 893.983114
_symmetry_space_group_name_H-M "P -1"
_symmetry_group_IT_number 2
_symmetry_cell_setting 'triclinic'
loop_
_space_group_symop_operation_xyz
x,y,z
-x,-y,-z
loop_
_atom_site_type_symbol
_atom_site_label
_atom_site_fract_x
_atom_site_fract_y
_atom_site_fract_z
Si Si1 0.804361 0.336419 0.037856
Si Si2 0.253299 0.127688 0.192709
Si Si3 0.723233 0.988948 0.414270
Si Si4 0.226083 0.296259 0.235954
Si Si5 0.582044 0.474466 0.746926
Si Si6 0.014559 0.522248 0.851294
Si Si7 0.937257 0.443124 0.511099
Si Si8 0.509452 0.663155 0.201257
O O1 0.569307 0.269211 0.207027
O O2 0.106250 0.235201 0.129826
O O3 0.740017 0.366303 0.923666
O O4 0.808395 0.475175 0.887793
O O5 0.529027 0.040420 0.305217
O O6 0.996539 0.058033 0.296333
O O7 0.384067 0.198632 0.008595
O O8 0.500000 0.000000 0.500000
O O9 0.876313 0.840709 0.574854
O O10 0.143174 0.347368 0.261100
O O11 0.080655 0.402967 0.057888
O O12 0.295893 0.552161 0.724812
O O13 0.536636 0.387062 0.803938
O O14 0.767198 0.587083 0.541674
O O15 0.745702 0.555247 0.344769
O O16 0.773632 0.322462 0.719997
O O17 0.000000 0.500000 0.500000
#
# Coordination Sequence:
#
# PCOD8032746 Si02
#       8
#     2   2   2   2   2   2   2   2
#     4  11  19  32  55  76 109 144 187 228 282 335
#     4  12  23  36  58  78 115 154 182 229 277 334
#     4  12  25  38  55  80 111 156 198 229 269 330
#     4  10  23  36  50  77 107 147 197 235 275 324
#     4  10  17  31  51  82 109 142 178 223 289 336
#     4  10  20  35  55  75 107 146 188 240 285 319
#     4   9  18  29  51  79 114 140 172 226 279 354
#     4  10  19  32  50  80 115 142 178 222 286 343
#
# _framework density 17.897428999999999
#
# number of rings (size 3 to 8) (size 9 to 14) (size 15 to 20)
#    0.000    1.500    3.750    2.250    3.500    0.000 
#    0.000    0.000    0.000    0.000    0.000    1.750 
#    0.000    0.000    0.000    0.000    0.000    0.000 
#
# Total GULP energy -198209.764145 kJ/mol
# GULP energy per Si atom -12388.110259 kJ/mol
# Density = 1.785669 g / cm^3
# Si number density = 17.897429 Si / 1000 Ang^3
#
#
#
# Elastic Constant Matrix: (Units=GPa)
#
#
# Indices 1 2 3 4 5 6 
#
# 1 95.0207 27.3649 43.3729 12.2786 -13.6213 7.3567
# 2 27.3649 83.6253 52.1882 8.7001 -12.2825 1.8771
# 3 43.3729 52.1882 105.7496 15.9115 -29.0122 -6.3426
# 4 12.2786 8.7001 15.9115 32.0204 -6.2435 -9.0322
# 5 -13.6213 -12.2825 -29.0122 -6.2435 33.2251 7.6629
# 6 7.3567 1.8771 -6.3426 -9.0322 7.6629 24.0876
#
#
#
# Elastic Compliance Matrix: (Units=1/GPa)
#
#
# Indices 1 2 3 4 5 6 
#
# 1 0.014492 -0.000801 -0.004591 -0.004870 0.002620 -0.008232
# 2 -0.000801 0.017729 -0.008629 -0.001408 -0.000718 -0.003709
# 3 -0.004591 -0.008629 0.018996 -0.002510 0.010391 0.002830
# 4 -0.004870 -0.001408 -0.002510 0.039007 -0.001045 0.015895
# 5 0.002620 -0.000718 0.010391 -0.001045 0.042535 -0.011932
# 6 -0.008232 -0.003709 0.002830 0.015895 -0.011932 0.054819
#
#
# Mechanical properties :
#
#
# Convention : Reuss Voigt Hill
#
# Bulk Modulus (GPa) = 43.14748 58.91639 51.03193
# Shear Modulus (GPa) = 22.38679 28.63125 25.50902
#
# Velocity S-wave (km/s) = 3.54056 4.00402 3.77940
# Velocity P-wave (km/s) = 6.39332 7.37337 6.90077
#
# Compressibility (1/GPa) = 0.02317633
#
# Stress axis : x y z
#
# Youngs Moduli (GPa) = 69.00123 56.40356 52.64380
#
# Poissons Ratio (x) = 0.04519 0.24168
# Poissons Ratio (y) = 0.05528 0.45424
# Poissons Ratio (z) = 0.31678 0.48668
#
# Static dielectric constant tensor:
#      x y z
#    x 3.606820 -0.142640 -0.307880 
#    y -0.142640 3.393530 0.426670 
#    z -0.307880 0.426670 3.503710 
# 
# 
# High freq. dielectric constant tensor:
#      x y z
#    x 1.713810 0.000280 -0.010180 
#    y 0.000280 1.664010 0.031990 
#    z -0.010180 0.031990 1.672720 
# 
# From -- ./inp_files/74272.got.cif
#   From: 2010.06.25/outbox.cif.g09.slc.cpg/sg2_38_cif.got.tgz:74272.got - 2010.06.27 13:26:56.
