data_PCOD8032313
_publ_section_title
;
Structure prediction by ZEFSAII (Michael W. Deem and Ramdas Pophale) SiO2 
 PCOD8032313
Probable space group: P -1
;
_chemical_formula_sum "Si O2"
_cell_formula_units_Z 14
_cell_length_a 12.189993
_cell_length_b 8.685853
_cell_length_c 9.163948
_cell_angle_alpha 111.858857
_cell_angle_beta 66.968857
_cell_angle_gamma 66.460082
_cell_volume 638.068282
_symmetry_space_group_name_H-M "P -1"
_symmetry_group_IT_number 2
_symmetry_cell_setting 'triclinic'
loop_
_space_group_symop_operation_xyz
x,y,z
-x,-y,-z
loop_
_atom_site_type_symbol
_atom_site_label
_atom_site_fract_x
_atom_site_fract_y
_atom_site_fract_z
Si Si1 0.614406 0.883812 0.532772
Si Si2 0.817570 0.395908 0.730675
Si Si3 0.962072 0.552859 0.205681
Si Si4 0.486431 0.844888 0.039453
Si Si5 0.059268 0.761250 0.707490
Si Si6 0.353494 0.527601 0.632150
Si Si7 0.239762 0.796847 0.060289
O O1 0.790793 0.784712 0.379667
O O2 0.616824 0.688373 0.506671
O O3 0.500000 0.000000 0.500000
O O4 0.548240 0.071758 0.749014
O O5 0.912941 0.299231 0.498380
O O6 0.806322 0.233874 0.768394
O O7 0.907470 0.443985 0.800654
O O8 0.644459 0.604880 0.860081
O O9 0.970957 0.376855 0.231701
O O10 0.000000 0.500000 0.000000
O O11 0.350996 0.854310 0.045506
O O12 0.500000 0.000000 0.000000
O O13 0.207286 0.724455 0.684625
O O14 0.910443 0.010679 0.882999
O O15 0.500000 0.500000 0.500000
O O16 0.321091 0.583245 0.841664
#
# Coordination Sequence:
#
# PCOD8032313 Si02
#       7
#     2   2   2   2   2   2   2
#     4  11  24  42  64  94 128 168 213 261 320 386
#     4  12  24  42  66  98 133 170 219 276 323 384
#     4  11  23  42  65  94 131 174 218 267 324 393
#     4  12  24  43  68  96 130 174 217 265 325 390
#     4  11  24  43  65  95 131 174 217 268 329 390
#     4  11  24  43  65  94 130 169 215 269 321 381
#     4  12  25  43  67  99 132 173 219 270 328 386
#
# _framework density 21.941227000000001
#
# number of rings (size 3 to 8) (size 9 to 14) (size 15 to 20)
#    0.000    0.571    0.000   10.286    0.000    3.429 
#    0.000    0.000    0.000    0.000    0.000    0.000 
#    0.000    0.000    0.000    0.000    0.000    0.000 
#
# Total GULP energy -173622.559138 kJ/mol
# GULP energy per Si atom -12401.611367 kJ/mol
# Density = 2.189129 g / cm^3
# Si number density = 21.941227 Si / 1000 Ang^3
#
#
#
# Elastic Constant Matrix: (Units=GPa)
#
#
# Indices 1 2 3 4 5 6 
#
# 1 134.4896 32.8771 10.3900 -4.2358 -20.9860 -5.0124
# 2 32.8771 113.2551 19.0672 -7.4274 -22.6852 -11.0695
# 3 10.3900 19.0672 92.6321 -13.5887 1.1112 1.4638
# 4 -4.2358 -7.4274 -13.5887 44.5255 -5.8612 -4.2821
# 5 -20.9860 -22.6852 1.1112 -5.8612 49.5591 1.7718
# 6 -5.0124 -11.0695 1.4638 -4.2821 1.7718 38.4140
#
#
#
# Elastic Compliance Matrix: (Units=1/GPa)
#
#
# Indices 1 2 3 4 5 6 
#
# 1 0.008377 -0.001658 -0.000526 0.000795 0.002873 0.000591
# 2 -0.001658 0.010949 -0.001880 0.001975 0.004478 0.003024
# 3 -0.000526 -0.001880 0.011706 0.003017 -0.000964 -0.000675
# 4 0.000795 0.001975 0.003017 0.024608 0.003972 0.003118
# 5 0.002873 0.004478 -0.000964 0.003972 0.023898 0.001042
# 6 0.000591 0.003024 -0.000675 0.003118 0.001042 0.027306
#
#
# Mechanical properties :
#
#
# Convention : Reuss Voigt Hill
#
# Bulk Modulus (GPa) = 43.65600 51.67171 47.66385
# Shear Modulus (GPa) = 40.78124 45.03588 42.90856
#
# Velocity S-wave (km/s) = 4.31589 4.53544 4.42703
# Velocity P-wave (km/s) = 6.69148 7.14340 6.92113
#
# Compressibility (1/GPa) = 0.02290636
#
# Stress axis : x y z
#
# Youngs Moduli (GPa) = 119.37761 91.32990 85.42579
#
# Poissons Ratio (x) = 0.15141 0.04489
# Poissons Ratio (y) = 0.19791 0.16056
# Poissons Ratio (z) = 0.06273 0.17166
#
# Static dielectric constant tensor:
#      x y z
#    x 4.404320 -0.119700 0.469220 
#    y -0.119700 3.926640 0.071050 
#    z 0.469220 0.071050 5.846370 
# 
# 
# High freq. dielectric constant tensor:
#      x y z
#    x 1.883970 -0.012360 -0.004230 
#    y -0.012360 1.862620 -0.001400 
#    z -0.004230 -0.001400 1.880050 
# 
# From -- ./inp_files/156597.got.cif
#   From: 2010.06.25/outbox.cif.g09.slc.cpg/sg2_79_cif.got.tgz:156597.got - 2010.06.27 13:26:56.
