data_PCOD8032862
_publ_section_title
;
Structure prediction by ZEFSAII (Michael W. Deem and Ramdas Pophale) SiO2 
 PCOD8032862
Probable space group: P -1
;
_chemical_formula_sum "Si O2"
_cell_formula_units_Z 16
_cell_length_a 13.021356
_cell_length_b 13.050393
_cell_length_c 9.030250
_cell_angle_alpha 89.409777
_cell_angle_beta 66.254206
_cell_angle_gamma 35.378299
_cell_volume 650.539085
_symmetry_space_group_name_H-M "P -1"
_symmetry_group_IT_number 2
_symmetry_cell_setting 'triclinic'
loop_
_space_group_symop_operation_xyz
x,y,z
-x,-y,-z
loop_
_atom_site_type_symbol
_atom_site_label
_atom_site_fract_x
_atom_site_fract_y
_atom_site_fract_z
Si Si1 0.167007 0.551524 0.460715
Si Si2 0.649618 0.084864 0.271250
Si Si3 0.867617 0.061110 0.344782
Si Si4 0.595642 0.589411 0.229783
Si Si5 0.687759 0.436573 0.872300
Si Si6 0.751199 0.834666 0.468988
Si Si7 0.747028 0.690975 0.226348
Si Si8 0.006717 0.819096 0.813053
O O1 0.356661 0.313814 0.417060
O O2 0.347380 0.479847 0.264980
O O3 0.024285 0.726001 0.669096
O O4 0.967302 0.669023 0.462398
O O5 0.713665 0.148568 0.290001
O O6 0.743366 0.926620 0.340565
O O7 0.779311 0.964622 0.039325
O O8 0.684024 0.216927 0.588655
O O9 0.014614 0.047286 0.235149
O O10 0.045928 0.824862 0.281188
O O11 0.661601 0.642528 0.270975
O O12 0.755794 0.372585 0.218463
O O13 0.656036 0.545119 0.021472
O O14 0.500000 0.500000 0.000000
O O15 0.791106 0.692716 0.369243
O O16 0.486354 0.053761 0.702670
O O17 0.000000 0.500000 0.000000
#
# Coordination Sequence:
#
# PCOD8032862 Si02
#       8
#     2   2   2   2   2   2   2   2
#     4  12  25  44  68 104 141 179 233 288 338 411
#     4  12  24  46  70 100 144 187 225 285 344 408
#     4  12  24  43  68  97 144 187 226 280 337 409
#     4  12  24  45  72  99 139 185 231 285 344 414
#     4  12  26  41  65 102 143 186 233 280 339 406
#     4  11  25  49  71 102 140 175 231 298 345 404
#     4  11  23  43  78 100 128 186 231 284 360 406
#     4  12  25  39  70 105 139 188 233 269 342 416
#
# _framework density 24.594988000000001
#
# number of rings (size 3 to 8) (size 9 to 14) (size 15 to 20)
#    0.000    0.250    5.000    3.750    1.750    6.000 
#    0.000    5.625    0.000    9.750    0.000    0.000 
#    0.000    0.000    0.000    0.000    0.000    0.000 
#
# Total GULP energy -198317.003456 kJ/mol
# GULP energy per Si atom -12394.812716 kJ/mol
# Density = 2.453901 g / cm^3
# Si number density = 24.594988 Si / 1000 Ang^3
#
#
#
# Elastic Constant Matrix: (Units=GPa)
#
#
# Indices 1 2 3 4 5 6 
#
# 1 93.7920 30.3668 32.2064 3.0416 4.8140 -9.1628
# 2 30.3668 83.1593 43.5348 6.9820 8.8908 -17.9585
# 3 32.2064 43.5348 159.8768 9.5713 7.4744 5.3853
# 4 3.0416 6.9820 9.5713 38.1130 -4.1604 -3.7512
# 5 4.8140 8.8908 7.4744 -4.1604 47.8272 3.4696
# 6 -9.1628 -17.9585 5.3853 -3.7512 3.4696 36.0366
#
#
#
# Elastic Compliance Matrix: (Units=1/GPa)
#
#
# Indices 1 2 3 4 5 6 
#
# 1 0.012492 -0.003230 -0.001685 0.000147 -0.000518 0.001884
# 2 -0.003230 0.017790 -0.004264 -0.001397 -0.003078 0.008833
# 3 -0.001685 -0.004264 0.007981 -0.001486 -0.000132 -0.003888
# 4 0.000147 -0.001397 -0.001486 0.027362 0.002701 0.002151
# 5 -0.000518 -0.003078 -0.000132 0.002701 0.022041 -0.003487
# 6 0.001884 0.008833 -0.003888 0.002151 -0.003487 0.033771
#
#
# Mechanical properties :
#
#
# Convention : Reuss Voigt Hill
#
# Bulk Modulus (GPa) = 50.23395 61.00489 55.61942
# Shear Modulus (GPa) = 34.14591 39.77668 36.96130
#
# Velocity S-wave (km/s) = 3.73007 4.02589 3.88080
# Velocity P-wave (km/s) = 6.24660 6.81675 6.53789
#
# Compressibility (1/GPa) = 0.01990685
#
# Stress axis : x y z
#
# Youngs Moduli (GPa) = 80.05121 56.21010 125.29147
#
# Poissons Ratio (x) = 0.18154 0.21112
# Poissons Ratio (y) = 0.25854 0.53421
# Poissons Ratio (z) = 0.13489 0.23966
#
# Static dielectric constant tensor:
#      x y z
#    x 4.536740 -0.114320 0.074270 
#    y -0.114320 4.475090 0.179560 
#    z 0.074270 0.179560 4.889290 
# 
# 
# High freq. dielectric constant tensor:
#      x y z
#    x 1.981710 0.000880 0.000300 
#    y 0.000880 1.967810 0.011860 
#    z 0.000300 0.011860 1.997230 
# 
# From -- ./inp_files/315215.got.cif
#   From: 2010.06.25/outbox.cif.g09.slc.cpg/sg2_158_cif.got.tgz:315215.got - 2010.06.27 13:26:56.
