data_PCOD8032669
_publ_section_title
;
Structure prediction by ZEFSAII (Michael W. Deem and Ramdas Pophale) SiO2 
 PCOD8032669
Probable space group: P -1
;
_chemical_formula_sum "Si O2"
_cell_formula_units_Z 16
_cell_length_a 8.659589
_cell_length_b 11.636246
_cell_length_c 18.598050
_cell_angle_alpha 149.627674
_cell_angle_beta 125.463821
_cell_angle_gamma 54.054214
_cell_volume 754.558186
_symmetry_space_group_name_H-M "P -1"
_symmetry_group_IT_number 2
_symmetry_cell_setting 'triclinic'
loop_
_space_group_symop_operation_xyz
x,y,z
-x,-y,-z
loop_
_atom_site_type_symbol
_atom_site_label
_atom_site_fract_x
_atom_site_fract_y
_atom_site_fract_z
Si Si1 0.282219 0.563046 0.715224
Si Si2 0.940361 0.923559 0.758710
Si Si3 0.250115 0.743285 0.520889
Si Si4 0.357821 0.208819 0.288150
Si Si5 0.531750 0.089544 0.977420
Si Si6 0.700887 0.329035 0.666748
Si Si7 0.122305 0.349995 0.013318
Si Si8 0.847913 0.890450 0.554997
O O1 0.480025 0.470846 0.674206
O O2 0.206732 0.349233 0.614955
O O3 0.124320 0.707350 0.695914
O O4 0.323902 0.730254 0.881344
O O5 0.788578 0.918656 0.778616
O O6 0.832357 0.906783 0.645535
O O7 0.007794 0.165727 0.915541
O O8 0.273434 0.482145 0.414771
O O9 0.433793 0.851006 0.649400
O O10 0.214616 0.758808 0.434754
O O11 0.064193 0.900744 0.593799
O O12 0.374934 0.120783 0.162969
O O13 0.323944 0.220311 0.961219
O O14 0.500000 0.000000 0.000000
O O15 0.836650 0.489228 0.823445
O O16 0.699528 0.108234 0.598442
O O17 0.000000 0.500000 0.000000
#
# Coordination Sequence:
#
# PCOD8032669 Si02
#       8
#     2   2   2   2   2   2   2   2
#     4  11  24  40  68 100 130 171 223 271 330 388
#     4  12  24  42  70  99 135 174 224 277 327 394
#     4  11  25  41  67  98 135 176 225 270 331 394
#     4  11  25  42  67 103 132 170 227 280 326 387
#     4  11  23  43  69  96 131 175 218 275 331 394
#     4  11  25  43  69  97 136 176 220 271 333 396
#     4  11  23  44  70  96 131 178 218 267 340 399
#     4  12  24  44  68  96 138 176 220 273 334 394
#
# _framework density 21.204460999999998
#
# number of rings (size 3 to 8) (size 9 to 14) (size 15 to 20)
#    0.000    0.750    3.750    4.125    3.500    1.500 
#    0.000    0.625    0.000    0.000    0.000    0.000 
#    0.000    0.000    0.000    0.000    0.000    0.000 
#
# Total GULP energy -198505.042715 kJ/mol
# GULP energy per Si atom -12406.565170 kJ/mol
# Density = 2.115620 g / cm^3
# Si number density = 21.204461 Si / 1000 Ang^3
#
#
#
# Elastic Constant Matrix: (Units=GPa)
#
#
# Indices 1 2 3 4 5 6 
#
# 1 104.1584 40.1645 43.2607 -6.9703 3.9505 10.4427
# 2 40.1645 104.8315 28.9903 0.5825 4.4570 9.9357
# 3 43.2607 28.9903 113.4609 0.1579 17.1967 12.8005
# 4 -6.9703 0.5825 0.1579 34.6893 7.3552 1.9739
# 5 3.9505 4.4570 17.1967 7.3552 47.5774 2.3535
# 6 10.4427 9.9357 12.8005 1.9739 2.3535 26.0671
#
#
#
# Elastic Compliance Matrix: (Units=1/GPa)
#
#
# Indices 1 2 3 4 5 6 
#
# 1 0.013022 -0.003760 -0.003816 0.002749 0.000332 -0.002148
# 2 -0.003760 0.011544 -0.001253 -0.000800 -0.000083 -0.002210
# 3 -0.003816 -0.001253 0.011508 0.000151 -0.003584 -0.003332
# 4 0.002749 -0.000800 0.000151 0.030566 -0.004797 -0.002752
# 5 0.000332 -0.000083 -0.003584 -0.004797 0.023038 -0.000058
# 6 -0.002148 -0.002210 -0.003332 -0.002752 -0.000058 0.041916
#
#
# Mechanical properties :
#
#
# Convention : Reuss Voigt Hill
#
# Bulk Modulus (GPa) = 54.30105 60.80910 57.55508
# Shear Modulus (GPa) = 32.17704 35.66912 33.92308
#
# Velocity S-wave (km/s) = 3.89969 4.10585 4.00410
# Velocity P-wave (km/s) = 6.77796 7.15661 6.96986
#
# Compressibility (1/GPa) = 0.01841585
#
# Stress axis : x y z
#
# Youngs Moduli (GPa) = 76.79107 86.62845 86.89808
#
# Poissons Ratio (x) = 0.32570 0.33163
# Poissons Ratio (y) = 0.28871 0.10887
# Poissons Ratio (z) = 0.29306 0.10853
#
# Static dielectric constant tensor:
#      x y z
#    x 3.707490 -0.163210 0.246290 
#    y -0.163210 3.948570 0.036290 
#    z 0.246290 0.036290 4.038950 
# 
# 
# High freq. dielectric constant tensor:
#      x y z
#    x 1.819990 -0.008750 0.014630 
#    y -0.008750 1.837160 0.000710 
#    z 0.014630 0.000710 1.841310 
# 
# From -- ./inp_files/223865.got.cif
#   From: 2010.06.25/outbox.cif.g09.slc.cpg/sg2_112_cif.got.tgz:223865.got - 2010.06.27 13:26:56.
