data_PCOD8032689
_publ_section_title
;
Structure prediction by ZEFSAII (Michael W. Deem and Ramdas Pophale) SiO2 
 PCOD8032689
Probable space group: P -1
;
_chemical_formula_sum "Si O2"
_cell_formula_units_Z 16
_cell_length_a 14.435752
_cell_length_b 9.394726
_cell_length_c 11.146093
_cell_angle_alpha 66.572845
_cell_angle_beta 33.077567
_cell_angle_gamma 63.130224
_cell_volume 735.385433
_symmetry_space_group_name_H-M "P -1"
_symmetry_group_IT_number 2
_symmetry_cell_setting 'triclinic'
loop_
_space_group_symop_operation_xyz
x,y,z
-x,-y,-z
loop_
_atom_site_type_symbol
_atom_site_label
_atom_site_fract_x
_atom_site_fract_y
_atom_site_fract_z
Si Si1 0.666522 0.365932 0.833565
Si Si2 0.126949 0.458517 0.603810
Si Si3 0.058952 0.891013 0.750998
Si Si4 0.255573 0.190201 0.737880
Si Si5 0.572842 0.030179 0.036955
Si Si6 0.392264 0.928072 0.481700
Si Si7 0.003266 0.240772 0.628488
Si Si8 0.913656 0.776776 0.731385
O O1 0.749130 0.423864 0.605574
O O2 0.804186 0.344611 0.801205
O O3 0.500000 0.500000 0.000000
O O4 0.626409 0.195888 0.913067
O O5 0.205258 0.358571 0.667816
O O6 0.114316 0.345902 0.542182
O O7 0.940749 0.585150 0.790878
O O8 0.252249 0.829230 0.621080
O O9 0.062084 0.837855 0.626005
O O10 0.008881 0.083130 0.752610
O O11 0.914397 0.820126 0.999187
O O12 0.426529 0.190580 0.632932
O O13 0.302851 0.040315 0.648613
O O14 0.429921 0.039461 0.293875
O O15 0.731819 0.880050 0.945728
O O16 0.500000 0.000000 0.000000
O O17 0.075571 0.191870 0.432800
#
# Coordination Sequence:
#
# PCOD8032689 Si02
#       8
#     2   2   2   2   2   2   2   2
#     4  11  24  41  64 101 139 173 220 288 343 406
#     4  11  26  43  68  97 143 182 226 277 347 415
#     4  12  23  44  74 100 133 184 233 282 344 399
#     4  11  24  47  67 102 135 186 234 281 330 416
#     4  12  26  42  70 103 136 177 228 286 353 406
#     4  11  24  43  73  99 133 176 238 282 332 413
#     4  11  23  43  70 101 135 183 226 280 349 416
#     4  11  24  44  68  99 138 178 223 292 346 401
#
# _framework density 21.757297000000001
#
# number of rings (size 3 to 8) (size 9 to 14) (size 15 to 20)
#    0.000    0.750    3.750    3.750    8.750    1.500 
#    0.000    0.625    0.000    0.000    0.000    0.000 
#    0.000    0.000    0.000    0.000    0.000    0.000 
#
# Total GULP energy -198336.553391 kJ/mol
# GULP energy per Si atom -12396.034587 kJ/mol
# Density = 2.170778 g / cm^3
# Si number density = 21.757297 Si / 1000 Ang^3
#
#
#
# Elastic Constant Matrix: (Units=GPa)
#
#
# Indices 1 2 3 4 5 6 
#
# 1 139.2830 42.3260 52.9904 -8.6289 -13.0990 -8.0570
# 2 42.3260 114.8024 45.2678 -0.8184 1.5678 -15.7393
# 3 52.9904 45.2678 108.4721 -5.8535 -11.2369 -5.2941
# 4 -8.6289 -0.8184 -5.8535 30.7358 -4.8721 6.4476
# 5 -13.0990 1.5678 -11.2369 -4.8721 29.8659 2.8857
# 6 -8.0570 -15.7393 -5.2941 6.4476 2.8857 37.0616
#
#
#
# Elastic Compliance Matrix: (Units=1/GPa)
#
#
# Indices 1 2 3 4 5 6 
#
# 1 0.009597 -0.002310 -0.003220 0.002600 0.003551 -0.000083
# 2 -0.002310 0.011901 -0.004183 -0.002781 -0.004125 0.004759
# 3 -0.003220 -0.004183 0.013042 0.002427 0.004242 -0.001366
# 4 0.002600 -0.002781 0.002427 0.036598 0.008878 -0.007327
# 5 0.003551 -0.004125 0.004242 0.008878 0.038778 -0.004938
# 6 -0.000083 0.004759 -0.001366 -0.007327 -0.004938 0.030449
#
#
# Mechanical properties :
#
#
# Convention : Reuss Voigt Hill
#
# Bulk Modulus (GPa) = 66.16927 71.52509 68.84718
# Shear Modulus (GPa) = 30.33461 34.33087 32.33274
#
# Velocity S-wave (km/s) = 3.73799 3.97659 3.85913
# Velocity P-wave (km/s) = 7.00775 7.35050 7.18117
#
# Compressibility (1/GPa) = 0.01511275
#
# Stress axis : x y z
#
# Youngs Moduli (GPa) = 104.20034 84.02885 76.67816
#
# Poissons Ratio (x) = 0.19410 0.24692
# Poissons Ratio (y) = 0.24069 0.32075
# Poissons Ratio (z) = 0.33555 0.35150
#
# Static dielectric constant tensor:
#      x y z
#    x 4.483060 0.072310 -0.662690 
#    y 0.072310 4.279100 -0.176460 
#    z -0.662690 -0.176460 4.947400 
# 
# 
# High freq. dielectric constant tensor:
#      x y z
#    x 1.869840 -0.006560 -0.005980 
#    y -0.006560 1.850390 0.009310 
#    z -0.005980 0.009310 1.846040 
# 
# From -- ./inp_files/447039.got.cif
#   From: 2010.06.25/outbox.cif.g09.slc.cpg/sg2_224_cif.got.tgz:447039.got - 2010.06.27 13:26:56.
