data_PCOD8032271
_publ_section_title
;
Structure prediction by ZEFSAII (Michael W. Deem and Ramdas Pophale) SiO2 
 PCOD8032271
Probable space group: P -1
;
_chemical_formula_sum "Si O2"
_cell_formula_units_Z 16
_cell_length_a 9.572563
_cell_length_b 12.300411
_cell_length_c 9.565397
_cell_angle_alpha 96.580353
_cell_angle_beta 41.528564
_cell_angle_gamma 99.780066
_cell_volume 735.735561
_symmetry_space_group_name_H-M "P -1"
_symmetry_group_IT_number 2
_symmetry_cell_setting 'triclinic'
loop_
_space_group_symop_operation_xyz
x,y,z
-x,-y,-z
loop_
_atom_site_type_symbol
_atom_site_label
_atom_site_fract_x
_atom_site_fract_y
_atom_site_fract_z
Si Si1 0.637198 0.960763 0.761196
Si Si2 0.628756 0.234605 0.162126
Si Si3 0.229486 0.281851 0.057261
Si Si4 0.334471 0.710745 0.177214
Si Si5 0.766838 0.524844 0.702983
Si Si6 0.370518 0.415368 0.479741
Si Si7 0.971166 0.152655 0.437103
Si Si8 0.046087 0.373786 0.937965
O O1 0.470637 0.894070 0.766046
O O2 0.813913 0.882170 0.661896
O O3 0.766795 0.060342 0.591685
O O4 0.500000 0.000000 0.000000
O O5 0.477423 0.307287 0.363241
O O6 0.637027 0.244469 0.991755
O O7 0.854484 0.274280 0.069169
O O8 0.241537 0.363124 0.192709
O O9 0.037351 0.185336 0.230531
O O10 0.460688 0.237522 0.873880
O O11 0.193095 0.345890 0.951809
O O12 0.345637 0.579404 0.141105
O O13 0.110928 0.740663 0.411279
O O14 0.652133 0.523614 0.639201
O O15 0.000000 0.500000 0.500000
O O16 0.500000 0.500000 0.500000
O O17 0.148497 0.367876 0.708749
O O18 0.000000 0.500000 0.000000
#
# Coordination Sequence:
#
# PCOD8032271 Si02
#       8
#     2   2   2   2   2   2   2   2
#     4  11  23  45  72 109 134 172 234 304 350 404
#     4  12  25  42  68 102 137 184 228 281 358 408
#     4  12  24  44  63 102 137 190 231 283 340 411
#     4  12  23  39  68 103 135 177 233 287 339 411
#     4  12  23  37  65  93 137 180 234 275 337 406
#     4  12  25  43  62  98 141 185 226 275 341 414
#     4  11  23  41  74 101 136 168 234 298 346 397
#     4  12  27  43  64  97 150 190 225 275 341 417
#
# _framework density 21.746943999999999
#
# number of rings (size 3 to 8) (size 9 to 14) (size 15 to 20)
#    0.000    0.250    6.250    3.375    1.750    1.000 
#    0.000    0.625    0.000    3.750    0.000    0.000 
#    0.000    0.000    0.000    0.000    0.000    0.000 
#
# Total GULP energy -198238.845737 kJ/mol
# GULP energy per Si atom -12389.927859 kJ/mol
# Density = 2.169745 g / cm^3
# Si number density = 21.746944 Si / 1000 Ang^3
#
#
#
# Elastic Constant Matrix: (Units=GPa)
#
#
# Indices 1 2 3 4 5 6 
#
# 1 95.3377 23.1899 16.3232 7.5374 -1.6189 5.2798
# 2 23.1899 89.7195 21.4601 -4.3226 -4.2246 12.9831
# 3 16.3232 21.4601 90.2341 5.3451 -22.8870 -2.6299
# 4 7.5374 -4.3226 5.3451 43.5659 -2.3928 -2.7812
# 5 -1.6189 -4.2246 -22.8870 -2.3928 35.3504 -5.8648
# 6 5.2798 12.9831 -2.6299 -2.7812 -5.8648 38.4697
#
#
#
# Elastic Compliance Matrix: (Units=1/GPa)
#
#
# Indices 1 2 3 4 5 6 
#
# 1 0.011630 -0.002591 -0.001702 -0.002203 -0.001225 -0.001184
# 2 -0.002591 0.013254 -0.003232 0.001812 -0.001234 -0.004395
# 3 -0.001702 -0.003232 0.014779 -0.001071 0.009650 0.003728
# 4 -0.002203 0.001812 -0.001071 0.023815 0.001289 0.001536
# 5 -0.001225 -0.001234 0.009650 0.001289 0.035540 0.006756
# 6 -0.001184 -0.004395 0.003728 0.001536 0.006756 0.029036
#
#
# Mechanical properties :
#
#
# Convention : Reuss Voigt Hill
#
# Bulk Modulus (GPa) = 40.63080 44.13752 42.38416
# Shear Modulus (GPa) = 33.04521 37.76507 35.40514
#
# Velocity S-wave (km/s) = 3.90235 4.17174 4.03929
# Velocity P-wave (km/s) = 6.24727 6.59883 6.42546
#
# Compressibility (1/GPa) = 0.02461187
#
# Stress axis : x y z
#
# Youngs Moduli (GPa) = 85.98654 75.44979 67.66577
#
# Poissons Ratio (x) = 0.19551 0.11518
# Poissons Ratio (y) = 0.22282 0.21867
# Poissons Ratio (z) = 0.14636 0.24383
#
# Static dielectric constant tensor:
#      x y z
#    x 3.894240 0.065350 -0.233710 
#    y 0.065350 4.259330 -0.083580 
#    z -0.233710 -0.083580 4.538620 
# 
# 
# High freq. dielectric constant tensor:
#      x y z
#    x 1.833020 0.000600 -0.028740 
#    y 0.000600 1.856130 -0.013310 
#    z -0.028740 -0.013310 1.876350 
# 
# From -- ./inp_files/188205.got.cif
#   From: 2010.06.25/outbox.cif.g09.slc.cpg/sg2_95_cif.got.tgz:188205.got - 2010.06.27 13:26:56.
