data_PCOD8032911
_publ_section_title
;
Structure prediction by ZEFSAII (Michael W. Deem and Ramdas Pophale) SiO2 
 PCOD8032911
Probable space group: P -1
;
_chemical_formula_sum "Si O2"
_cell_formula_units_Z 16
_cell_length_a 9.354485
_cell_length_b 14.416677
_cell_length_c 11.876624
_cell_angle_alpha 60.714053
_cell_angle_beta 117.389060
_cell_angle_gamma 66.872271
_cell_volume 747.889091
_symmetry_space_group_name_H-M "P -1"
_symmetry_group_IT_number 2
_symmetry_cell_setting 'triclinic'
loop_
_space_group_symop_operation_xyz
x,y,z
-x,-y,-z
loop_
_atom_site_type_symbol
_atom_site_label
_atom_site_fract_x
_atom_site_fract_y
_atom_site_fract_z
Si Si1 0.777693 0.394795 0.116436
Si Si2 0.263685 0.206175 0.556851
Si Si3 0.710032 0.806374 0.939146
Si Si4 0.589123 0.442284 0.440097
Si Si5 0.294370 0.354308 0.148073
Si Si6 0.081116 0.336527 0.652793
Si Si7 0.619998 0.174382 0.579716
Si Si8 0.061069 0.777682 0.943692
O O1 0.950530 0.227251 0.194639
O O2 0.972054 0.341376 0.314922
O O3 0.500000 0.500000 0.000000
O O4 0.655984 0.547645 0.900255
O O5 0.260705 0.205926 0.690752
O O6 0.403511 0.244565 0.550099
O O7 0.446713 0.013000 0.699678
O O8 0.663536 0.718227 0.916049
O O9 0.948802 0.737084 0.998478
O O10 0.761371 0.755294 0.118570
O O11 0.500000 0.500000 0.500000
O O12 0.647354 0.286814 0.530059
O O13 0.848452 0.373867 0.552096
O O14 0.372610 0.615317 0.181535
O O15 0.506822 0.194357 0.406989
O O16 0.000000 0.500000 0.000000
O O17 0.000000 0.500000 0.500000
O O18 0.910132 0.964758 0.819303
#
# Coordination Sequence:
#
# PCOD8032911 Si02
#       8
#     2   2   2   2   2   2   2   2
#     4  12  24  41  66 101 140 177 224 279 346 400
#     4  11  24  43  67 100 138 175 226 285 337 403
#     4  11  23  44  68 101 130 180 234 275 335 406
#     4  12  24  45  69  97 138 176 227 278 331 410
#     4  12  21  41  74  95 133 176 227 282 333 404
#     4  12  26  45  68  97 139 183 223 274 344 402
#     4  11  24  44  73 104 130 178 233 280 342 398
#     4  11  23  44  70 102 134 176 230 283 337 401
#
# _framework density 21.393547000000002
#
# number of rings (size 3 to 8) (size 9 to 14) (size 15 to 20)
#    0.000    0.500    5.000    3.375    0.000    2.500 
#    6.750    1.250    0.000    0.000    0.000    0.000 
#    0.000    0.000    0.000    0.000    0.000    0.000 
#
# Total GULP energy -198295.437204 kJ/mol
# GULP energy per Si atom -12393.464825 kJ/mol
# Density = 2.134485 g / cm^3
# Si number density = 21.393547 Si / 1000 Ang^3
#
#
#
# Elastic Constant Matrix: (Units=GPa)
#
#
# Indices 1 2 3 4 5 6 
#
# 1 144.1973 50.1313 39.1045 -1.8815 2.2913 -1.7899
# 2 50.1313 120.4038 34.5098 9.7875 -0.7639 -4.2497
# 3 39.1045 34.5098 87.4368 3.2955 -11.2394 8.0468
# 4 -1.8815 9.7875 3.2955 35.4544 -4.0615 -12.7421
# 5 2.2913 -0.7639 -11.2394 -4.0615 26.0918 5.3099
# 6 -1.7899 -4.2497 8.0468 -12.7421 5.3099 39.8976
#
#
#
# Elastic Compliance Matrix: (Units=1/GPa)
#
#
# Indices 1 2 3 4 5 6 
#
# 1 0.008936 -0.002855 -0.003406 0.001922 -0.002385 0.001715
# 2 -0.002855 0.010614 -0.003080 -0.002602 -0.001369 0.000975
# 3 -0.003406 -0.003080 0.015727 -0.001792 0.007775 -0.005260
# 4 0.001922 -0.002602 -0.001792 0.033198 0.002013 0.010505
# 5 -0.002385 -0.001369 0.007775 0.002013 0.043578 -0.006978
# 6 0.001715 0.000975 -0.005260 0.010505 -0.006978 0.030590
#
#
# Mechanical properties :
#
#
# Convention : Reuss Voigt Hill
#
# Bulk Modulus (GPa) = 60.26291 66.61435 63.43863
# Shear Modulus (GPa) = 29.96592 35.50823 32.73708
#
# Velocity S-wave (km/s) = 3.74665 4.07844 3.91606
# Velocity P-wave (km/s) = 6.85175 7.30640 7.08272
#
# Compressibility (1/GPa) = 0.01659395
#
# Stress axis : x y z
#
# Youngs Moduli (GPa) = 111.91298 94.21475 63.58522
#
# Poissons Ratio (x) = 0.26897 0.21660
# Poissons Ratio (y) = 0.31950 0.19584
# Poissons Ratio (z) = 0.38122 0.29018
#
# Static dielectric constant tensor:
#      x y z
#    x 3.755560 -0.120960 -0.088620 
#    y -0.120960 4.048780 0.050710 
#    z -0.088620 0.050710 3.829410 
# 
# 
# High freq. dielectric constant tensor:
#      x y z
#    x 1.838790 -0.006560 -0.008990 
#    y -0.006560 1.852180 0.001520 
#    z -0.008990 0.001520 1.842530 
# 
# From -- ./inp_files/346073.got.cif
#   From: 2010.06.25/outbox.cif.g09.slc.cpg/sg2_174_cif.got.tgz:346073.got - 2010.06.27 13:26:56.
