data_PCOD8032088
_publ_section_title
;
Structure prediction by ZEFSAII (Michael W. Deem and Ramdas Pophale) SiO2 
 PCOD8032088
Probable space group: P -1
;
_chemical_formula_sum "Si O2"
_cell_formula_units_Z 16
_cell_length_a 11.772316
_cell_length_b 16.505306
_cell_length_c 10.352898
_cell_angle_alpha 34.123324
_cell_angle_beta 57.113345
_cell_angle_gamma 41.954857
_cell_volume 740.142783
_symmetry_space_group_name_H-M "P -1"
_symmetry_group_IT_number 2
_symmetry_cell_setting 'triclinic'
loop_
_space_group_symop_operation_xyz
x,y,z
-x,-y,-z
loop_
_atom_site_type_symbol
_atom_site_label
_atom_site_fract_x
_atom_site_fract_y
_atom_site_fract_z
Si Si1 0.151018 0.010845 0.421263
Si Si2 0.324159 0.024962 0.064962
Si Si3 0.346312 0.933647 0.645256
Si Si4 0.385057 0.782720 0.109654
Si Si5 0.272306 0.294007 0.288521
Si Si6 0.744982 0.436104 0.457344
Si Si7 0.937645 0.547673 0.333615
Si Si8 0.924643 0.393709 0.162941
O O1 0.296827 0.925955 0.329536
O O2 0.054544 0.227885 0.205737
O O3 0.243113 0.906715 0.638792
O O4 0.000000 0.000000 0.500000
O O5 0.313042 0.950623 0.032378
O O6 0.161662 0.236550 0.905282
O O7 0.500000 0.000000 0.000000
O O8 0.537548 0.829212 0.602927
O O9 0.250422 0.152974 0.417570
O O10 0.362539 0.856715 0.880293
O O11 0.577670 0.616351 0.254850
O O12 0.275848 0.708075 0.280047
O O13 0.113962 0.420782 0.313991
O O14 0.260735 0.441084 0.006184
O O15 0.808227 0.501666 0.443223
O O16 0.891820 0.323821 0.404639
O O17 0.000000 0.500000 0.500000
O O18 0.000000 0.500000 0.000000
#
# Coordination Sequence:
#
# PCOD8032088 Si02
#       8
#     2   2   2   2   2   2   2   2
#     4  12  27  46  71 106 144 185 229 296 365 421
#     4  12  26  44  71 104 147 185 233 290 362 423
#     4  11  25  43  75 105 136 180 248 288 340 418
#     4  11  25  44  69 103 140 188 228 293 353 426
#     4  11  23  40  72 104 131 177 242 295 330 408
#     4  11  23  43  70  99 141 182 234 283 361 419
#     4  12  25  42  68 105 141 181 236 292 351 413
#     4  12  20  43  73  99 126 183 236 276 341 417
#
# _framework density 21.617450999999999
#
# number of rings (size 3 to 8) (size 9 to 14) (size 15 to 20)
#    0.000    0.500    6.250    1.500    5.250    1.000 
#    0.000    4.375    0.000    0.000    0.000    0.000 
#    0.000    0.000    0.000    0.000    0.000    0.000 
#
# Total GULP energy -198253.753543 kJ/mol
# GULP energy per Si atom -12390.859596 kJ/mol
# Density = 2.156825 g / cm^3
# Si number density = 21.617451 Si / 1000 Ang^3
#
#
#
# Elastic Constant Matrix: (Units=GPa)
#
#
# Indices 1 2 3 4 5 6 
#
# 1 159.9418 56.3984 58.6598 21.4606 -0.5580 11.8883
# 2 56.3984 123.5755 44.8996 3.0326 -3.4708 -5.3588
# 3 58.6598 44.8996 95.7774 12.9288 0.1839 3.3813
# 4 21.4606 3.0326 12.9288 38.5637 1.1710 -2.0061
# 5 -0.5580 -3.4708 0.1839 1.1710 36.8326 2.6231
# 6 11.8883 -5.3588 3.3813 -2.0061 2.6231 26.7540
#
#
#
# Elastic Compliance Matrix: (Units=1/GPa)
#
#
# Indices 1 2 3 4 5 6 
#
# 1 0.009629 -0.003148 -0.003695 -0.004131 0.000340 -0.004785
# 2 -0.003148 0.011015 -0.003698 0.002324 0.000637 0.004185
# 3 -0.003695 -0.003698 0.014840 -0.002678 -0.000312 -0.001144
# 4 -0.004131 0.002324 -0.002678 0.029236 -0.001112 0.004941
# 5 0.000340 0.000637 -0.000312 -0.001112 0.027448 -0.002758
# 6 -0.004785 0.004185 -0.001144 0.004941 -0.002758 0.041128
#
#
# Mechanical properties :
#
#
# Convention : Reuss Voigt Hill
#
# Bulk Modulus (GPa) = 69.44274 77.69004 73.56639
# Shear Modulus (GPa) = 31.41081 35.05252 33.23166
#
# Velocity S-wave (km/s) = 3.81600 4.03114 3.92505
# Velocity P-wave (km/s) = 7.18394 7.59496 7.39231
#
# Compressibility (1/GPa) = 0.01440035
#
# Stress axis : x y z
#
# Youngs Moduli (GPa) = 103.85279 90.78412 67.38377
#
# Poissons Ratio (x) = 0.28583 0.24901
# Poissons Ratio (y) = 0.32698 0.24920
# Poissons Ratio (z) = 0.38378 0.33573
#
# Static dielectric constant tensor:
#      x y z
#    x 3.911300 -0.252220 -0.077050 
#    y -0.252220 3.861280 -0.451700 
#    z -0.077050 -0.451700 3.167020 
# 
# 
# High freq. dielectric constant tensor:
#      x y z
#    x 1.850180 -0.005740 0.009370 
#    y -0.005740 1.867150 -0.000280 
#    z 0.009370 -0.000280 1.845190 
# 
# From -- ./inp_files/436333.got.cif
#   From: 2010.06.25/outbox.cif.g09.slc.cpg/sg2_219_cif.got.tgz:436333.got - 2010.06.27 13:26:56.
