data_PCOD8032388
_publ_section_title
;
Structure prediction by ZEFSAII (Michael W. Deem and Ramdas Pophale) SiO2 
 PCOD8032388
Probable space group: P -1
;
_chemical_formula_sum "Si O2"
_cell_formula_units_Z 16
_cell_length_a 16.612092
_cell_length_b 15.972589
_cell_length_c 15.747371
_cell_angle_alpha 136.337091
_cell_angle_beta 153.598094
_cell_angle_gamma 25.563315
_cell_volume 719.592885
_symmetry_space_group_name_H-M "P -1"
_symmetry_group_IT_number 2
_symmetry_cell_setting 'triclinic'
loop_
_space_group_symop_operation_xyz
x,y,z
-x,-y,-z
loop_
_atom_site_type_symbol
_atom_site_label
_atom_site_fract_x
_atom_site_fract_y
_atom_site_fract_z
Si Si1 0.354989 0.310278 0.158717
Si Si2 0.535086 0.579990 0.521334
Si Si3 0.553040 0.793324 0.463289
Si Si4 0.511919 0.905170 0.319115
Si Si5 0.122786 0.155937 0.666053
Si Si6 0.797516 0.246517 0.837891
Si Si7 0.554936 0.322918 0.188595
Si Si8 0.767154 0.687509 0.230631
O O1 0.534245 0.259241 0.375107
O O2 0.358894 0.394554 0.141628
O O3 0.555833 0.076092 0.153794
O O4 0.000000 0.500000 0.000000
O O5 0.500000 0.500000 0.500000
O O6 0.261644 0.726142 0.298791
O O7 0.900409 0.362980 0.669282
O O8 0.432151 0.981692 0.534505
O O9 0.303973 0.822738 0.264930
O O10 0.899273 0.565332 0.661591
O O11 0.578167 0.800543 0.392314
O O12 0.753144 0.714924 0.338471
O O13 0.162088 0.070282 0.074157
O O14 0.247886 0.171497 0.720551
O O15 0.918629 0.154171 0.435809
O O16 0.591023 0.474931 0.844616
O O17 0.526534 0.231414 0.025096
#
# Coordination Sequence:
#
# PCOD8032388 Si02
#       8
#     2   2   2   2   2   2   2   2
#     4  12  27  42  69 100 139 185 239 282 340 409
#     4  11  23  42  68  96 135 185 230 281 335 406
#     4  11  24  50  69 102 142 173 237 291 342 418
#     4  11  27  43  75 103 134 186 226 291 355 410
#     4  11  26  45  65 100 139 187 229 286 340 409
#     4  11  23  45  72  98 142 183 228 284 347 404
#     4  11  24  45  67  98 143 183 225 292 337 411
#     4  12  25  43  72 101 140 178 229 284 356 412
#
# _framework density 22.234794000000001
#
# number of rings (size 3 to 8) (size 9 to 14) (size 15 to 20)
#    0.000    0.750    6.250    1.875    5.250    2.000 
#    0.000    0.625    0.000    0.000    0.000    0.000 
#    0.000    0.000    0.000    0.000    0.000    0.000 
#
# Total GULP energy -198307.752969 kJ/mol
# GULP energy per Si atom -12394.234561 kJ/mol
# Density = 2.218419 g / cm^3
# Si number density = 22.234794 Si / 1000 Ang^3
#
#
#
# Elastic Constant Matrix: (Units=GPa)
#
#
# Indices 1 2 3 4 5 6 
#
# 1 102.1584 38.0706 27.1409 31.0002 2.7418 13.6415
# 2 38.0706 76.7427 34.3504 8.8031 -9.1304 3.0987
# 3 27.1409 34.3504 43.2491 15.9848 7.3363 9.4492
# 4 31.0002 8.8031 15.9848 42.3215 -1.0401 -7.5101
# 5 2.7418 -9.1304 7.3363 -1.0401 24.3500 8.9522
# 6 13.6415 3.0987 9.4492 -7.5101 8.9522 40.8428
#
#
#
# Elastic Compliance Matrix: (Units=1/GPa)
#
#
# Indices 1 2 3 4 5 6 
#
# 1 0.017425 -0.008814 0.003477 -0.013688 -0.004116 -0.007570
# 2 -0.008814 0.030362 -0.027283 0.011788 0.019303 0.004889
# 3 0.003477 -0.027283 0.056830 -0.020834 -0.024717 -0.010652
# 4 -0.013688 0.011788 -0.020834 0.041819 0.008781 0.014262
# 5 -0.004116 0.019303 -0.024717 0.008781 0.058655 -0.005613
# 6 -0.007570 0.004889 -0.010652 0.014262 -0.005613 0.032959
#
#
# Mechanical properties :
#
#
# Convention : Reuss Voigt Hill
#
# Bulk Modulus (GPa) = 25.39598 46.80824 36.10211
# Shear Modulus (GPa) = 15.80201 29.67541 22.73871
#
# Velocity S-wave (km/s) = 2.66877 3.65723 3.20138
# Velocity P-wave (km/s) = 4.57635 6.23950 5.47148
#
# Compressibility (1/GPa) = 0.03937632
#
# Stress axis : x y z
#
# Youngs Moduli (GPa) = 57.38994 32.93562 17.59643
#
# Poissons Ratio (x) = 0.29031 -0.06119
# Poissons Ratio (y) = 0.50586 0.48008
# Poissons Ratio (z) = -0.19956 0.89858
#
# Static dielectric constant tensor:
#      x y z
#    x 3.964170 0.166870 0.023470 
#    y 0.166870 3.847930 0.045890 
#    z 0.023470 0.045890 4.069950 
# 
# 
# High freq. dielectric constant tensor:
#      x y z
#    x 1.870960 0.007390 -0.002990 
#    y 0.007390 1.880660 0.010970 
#    z -0.002990 0.010970 1.882620 
# 
# From -- ./inp_files/534384.got.cif
#   From: 2010.06.25/outbox.cif.g09.slc.cpg/sg2_268_cif.got.tgz:534384.got - 2010.06.27 13:26:56.
