data_PCOD8032315
_publ_section_title
;
Structure prediction by ZEFSAII (Michael W. Deem and Ramdas Pophale) SiO2 
 PCOD8032315
Probable space group: P -1
;
_chemical_formula_sum "Si O2"
_cell_formula_units_Z 14
_cell_length_a 8.803527
_cell_length_b 8.655108
_cell_length_c 13.938620
_cell_angle_alpha 117.626997
_cell_angle_beta 41.924835
_cell_angle_gamma 96.524422
_cell_volume 578.696275
_symmetry_space_group_name_H-M "P -1"
_symmetry_group_IT_number 2
_symmetry_cell_setting 'triclinic'
loop_
_space_group_symop_operation_xyz
x,y,z
-x,-y,-z
loop_
_atom_site_type_symbol
_atom_site_label
_atom_site_fract_x
_atom_site_fract_y
_atom_site_fract_z
Si Si1 0.666834 0.782365 0.350741
Si Si2 0.337002 0.851462 0.208781
Si Si3 0.730821 0.545241 0.430935
Si Si4 0.191955 0.176056 0.138110
Si Si5 0.151716 0.264858 0.398350
Si Si6 0.585488 0.408545 0.720545
Si Si7 0.840557 0.211327 0.918587
O O1 0.755826 0.696253 0.388725
O O2 0.497775 0.684106 0.355495
O O3 0.910401 0.753983 0.164856
O O4 0.500000 0.000000 0.500000
O O5 0.415096 0.703908 0.215312
O O6 0.179326 0.790181 0.188098
O O7 0.178388 0.067201 0.380555
O O8 0.580405 0.851748 0.044064
O O9 0.500000 0.500000 0.500000
O O10 0.706410 0.632896 0.575054
O O11 0.964338 0.350751 0.254190
O O12 0.261492 0.214592 0.224935
O O13 0.130959 0.989437 0.108129
O O14 0.860058 0.403548 0.571188
O O15 0.397596 0.624558 0.878031
#
# Coordination Sequence:
#
# PCOD8032315 Si02
#       7
#     2   2   2   2   2   2   2
#     4  12  25  44  66  98 137 176 219 272 328 390
#     4  11  23  43  69 100 131 172 221 275 327 388
#     4  12  25  43  67  98 132 173 219 272 328 390
#     4  11  25  44  68  98 134 173 218 274 331 389
#     4  11  23  43  70  99 129 173 222 271 328 395
#     4  12  24  43  70  98 131 178 223 267 325 395
#     4  11  23  42  65  97 135 173 217 273 329 389
#
# _framework density 24.192309999999999
#
# number of rings (size 3 to 8) (size 9 to 14) (size 15 to 20)
#    0.000    0.571    0.000   10.286    0.000    3.429 
#    0.000    2.143    0.000    0.000    0.000    0.000 
#    0.000    0.000    0.000    0.000    0.000    0.000 
#
# Total GULP energy -173681.962772 kJ/mol
# GULP energy per Si atom -12405.854484 kJ/mol
# Density = 2.413725 g / cm^3
# Si number density = 24.192310 Si / 1000 Ang^3
#
#
#
# Elastic Constant Matrix: (Units=GPa)
#
#
# Indices 1 2 3 4 5 6 
#
# 1 124.8007 41.9227 28.6614 8.1511 -4.5657 18.0683
# 2 41.9227 97.4038 18.0205 22.2330 2.6680 -15.0204
# 3 28.6614 18.0205 79.2992 24.3585 -6.6553 3.4045
# 4 8.1511 22.2330 24.3585 61.8684 0.8481 -4.4985
# 5 -4.5657 2.6680 -6.6553 0.8481 39.6021 0.3895
# 6 18.0683 -15.0204 3.4045 -4.4985 0.3895 60.3563
#
#
#
# Elastic Compliance Matrix: (Units=1/GPa)
#
#
# Indices 1 2 3 4 5 6 
#
# 1 0.011008 -0.005182 -0.002893 0.001220 0.001149 -0.004338
# 2 -0.005182 0.014269 -0.000527 -0.003862 -0.001612 0.004854
# 3 -0.002893 -0.000527 0.015765 -0.005714 0.002479 -0.000596
# 4 0.001220 -0.003862 -0.005714 0.019688 -0.000986 0.000470
# 5 0.001149 -0.001612 0.002479 -0.000986 0.025941 -0.001126
# 6 -0.004338 0.004854 -0.000596 0.000470 -0.001126 0.019151
#
#
# Mechanical properties :
#
#
# Convention : Reuss Voigt Hill
#
# Bulk Modulus (GPa) = 41.95015 53.19032 47.57024
# Shear Modulus (GPa) = 38.17647 46.55864 42.36755
#
# Velocity S-wave (km/s) = 3.97677 4.39170 4.18937
# Velocity P-wave (km/s) = 6.20195 6.91015 6.56561
#
# Compressibility (1/GPa) = 0.02383782
#
# Stress axis : x y z
#
# Youngs Moduli (GPa) = 90.84104 70.08442 63.43297
#
# Poissons Ratio (x) = 0.36314 0.18353
# Poissons Ratio (y) = 0.47070 0.03343
# Poissons Ratio (z) = 0.26283 0.03693
#
# Static dielectric constant tensor:
#      x y z
#    x 5.435940 -1.011870 -0.816260 
#    y -1.011870 6.144410 1.003640 
#    z -0.816260 1.003640 4.979730 
# 
# 
# High freq. dielectric constant tensor:
#      x y z
#    x 1.955610 -0.001780 -0.012200 
#    y -0.001780 1.993730 0.009140 
#    z -0.012200 0.009140 1.967510 
# 
# From -- ./inp_files/185208.got.cif
#   From: 2010.06.25/outbox.cif.g09.slc.cpg/sg2_93_cif.got.tgz:185208.got - 2010.06.27 13:26:56.
