data_PCOD8032946
_publ_section_title
;
Structure prediction by ZEFSAII (Michael W. Deem and Ramdas Pophale) SiO2 
 PCOD8032946
Probable space group: P -1
;
_chemical_formula_sum "Si O2"
_cell_formula_units_Z 14
_cell_length_a 5.734271
_cell_length_b 6.684303
_cell_length_c 19.456378
_cell_angle_alpha 59.612951
_cell_angle_beta 93.029540
_cell_angle_gamma 72.379171
_cell_volume 593.572045
_symmetry_space_group_name_H-M "P -1"
_symmetry_group_IT_number 2
_symmetry_cell_setting 'triclinic'
loop_
_space_group_symop_operation_xyz
x,y,z
-x,-y,-z
loop_
_atom_site_type_symbol
_atom_site_label
_atom_site_fract_x
_atom_site_fract_y
_atom_site_fract_z
Si Si1 0.630447 0.167973 0.938425
Si Si2 0.605555 0.976970 0.678126
Si Si3 0.024601 0.946219 0.779242
Si Si4 0.160039 0.378941 0.664981
Si Si5 0.791798 0.906760 0.547475
Si Si6 0.088120 0.727679 0.961113
Si Si7 0.391459 0.576166 0.751756
O O1 0.468297 0.346054 0.845687
O O2 0.676247 0.334558 0.972310
O O3 0.883945 0.991047 0.936491
O O4 0.500000 0.000000 0.000000
O O5 0.762629 0.000095 0.610005
O O6 0.600152 0.697834 0.723642
O O7 0.730503 0.003265 0.749164
O O8 0.330375 0.206894 0.635653
O O9 0.150047 0.770869 0.876526
O O10 0.147922 0.796722 0.738811
O O11 0.066617 0.204810 0.742758
O O12 0.325740 0.496013 0.691096
O O13 0.914069 0.604556 0.592722
O O14 0.500000 0.000000 0.500000
O O15 0.000000 0.000000 0.500000
O O16 0.000000 0.500000 0.000000
#
# Coordination Sequence:
#
# PCOD8032946 Si02
#       7
#     2   2   2   2   2   2   2
#     4  11  24  39  63  95 143 192 243 306 371 417
#     4  11  26  46  75 107 143 193 251 295 379 452
#     4  11  24  42  71 103 137 192 249 299 365 446
#     4  11  26  46  76 104 147 192 247 303 369 451
#     4  12  29  51  79 114 155 193 244 317 386 461
#     4  11  24  40  61  99 141 187 243 307 363 426
#     4  11  23  44  69 102 143 194 247 307 361 443
#
# _framework density 23.586013999999999
#
# number of rings (size 3 to 8) (size 9 to 14) (size 15 to 20)
#    0.000    0.857    1.429    4.286    8.000    8.000 
#    0.000    0.000    0.000    0.000    0.000    0.000 
#    0.000    0.000    0.000    0.000    0.000    0.000 
#
# Total GULP energy -173525.396884 kJ/mol
# GULP energy per Si atom -12394.671206 kJ/mol
# Density = 2.353233 g / cm^3
# Si number density = 23.586014 Si / 1000 Ang^3
#
#
#
# Elastic Constant Matrix: (Units=GPa)
#
#
# Indices 1 2 3 4 5 6 
#
# 1 111.2827 34.5175 50.7207 -3.2074 -9.2887 18.8362
# 2 34.5175 107.4139 38.1445 -10.9149 -7.5824 12.2352
# 3 50.7207 38.1445 126.9665 -10.1453 -6.4295 -1.1053
# 4 -3.2074 -10.9149 -10.1453 40.1338 1.6093 2.3616
# 5 -9.2887 -7.5824 -6.4295 1.6093 47.1482 -2.4768
# 6 18.8362 12.2352 -1.1053 2.3616 -2.4768 46.6603
#
#
#
# Elastic Compliance Matrix: (Units=1/GPa)
#
#
# Indices 1 2 3 4 5 6 
#
# 1 0.012446 -0.001861 -0.004418 -0.000414 0.001325 -0.004550
# 2 -0.001861 0.011357 -0.002449 0.002423 0.000919 -0.002359
# 3 -0.004418 -0.002449 0.010531 0.001479 0.000259 0.002614
# 4 -0.000414 0.002423 0.001479 0.026040 -0.000472 -0.001776
# 5 0.001325 0.000919 0.000259 -0.000472 0.021691 0.000405
# 6 -0.004550 -0.002359 0.002614 -0.001776 0.000405 0.024060
#
#
# Mechanical properties :
#
#
# Convention : Reuss Voigt Hill
#
# Bulk Modulus (GPa) = 59.25006 65.82539 62.53773
# Shear Modulus (GPa) = 38.69739 41.60716 40.15227
#
# Velocity S-wave (km/s) = 4.05494 4.20463 4.13046
# Velocity P-wave (km/s) = 6.86285 7.17921 7.02282
#
# Compressibility (1/GPa) = 0.01687762
#
# Stress axis : x y z
#
# Youngs Moduli (GPa) = 80.34745 88.04976 94.95786
#
# Poissons Ratio (x) = 0.16383 0.41957
# Poissons Ratio (y) = 0.14950 0.23256
# Poissons Ratio (z) = 0.35501 0.21564
#
# Static dielectric constant tensor:
#      x y z
#    x 4.360350 -0.059170 -0.009950 
#    y -0.059170 4.368940 0.036050 
#    z -0.009950 0.036050 3.922980 
# 
# 
# High freq. dielectric constant tensor:
#      x y z
#    x 1.939880 -0.003640 0.003190 
#    y -0.003640 1.947920 -0.004230 
#    z 0.003190 -0.004230 1.931320 
# 
# From -- ./inp_files/7376.got.cif
#   From: 2010.06.25/outbox.cif.g09.slc.cpg/sg2_4_cif.got.tgz:7376.got - 2010.06.27 13:26:56.
