data_PCOD8032668
_publ_section_title
;
Structure prediction by ZEFSAII (Michael W. Deem and Ramdas Pophale) SiO2 
 PCOD8032668
Probable space group: P -1
;
_chemical_formula_sum "Si O2"
_cell_formula_units_Z 14
_cell_length_a 6.468274
_cell_length_b 22.000004
_cell_length_c 13.366193
_cell_angle_alpha 21.526384
_cell_angle_beta 108.246543
_cell_angle_gamma 98.036192
_cell_volume 596.934876
_symmetry_space_group_name_H-M "P -1"
_symmetry_group_IT_number 2
_symmetry_cell_setting 'triclinic'
loop_
_space_group_symop_operation_xyz
x,y,z
-x,-y,-z
loop_
_atom_site_type_symbol
_atom_site_label
_atom_site_fract_x
_atom_site_fract_y
_atom_site_fract_z
Si Si1 0.495039 0.477479 0.650601
Si Si2 0.032188 0.705363 0.719275
Si Si3 0.992524 0.434696 0.857003
Si Si4 0.793433 0.022022 0.739184
Si Si5 0.841036 0.275409 0.625531
Si Si6 0.582520 0.680934 0.646562
Si Si7 0.656145 0.821789 0.858177
O O1 0.500000 0.500000 0.500000
O O2 0.245589 0.630114 0.423802
O O3 0.707037 0.510696 0.683622
O O4 0.513186 0.277493 0.987273
O O5 0.052932 0.896354 0.427120
O O6 0.814231 0.718663 0.591650
O O7 0.291777 0.541060 0.975394
O O8 0.942287 0.675274 0.860761
O O9 0.065390 0.603944 0.613470
O O10 0.117713 0.304300 0.982025
O O11 0.542706 0.194511 0.466467
O O12 0.748381 0.873495 0.895164
O O13 0.941570 0.923837 0.012396
O O14 0.618829 0.260069 0.560215
O O15 0.500000 0.000000 0.500000
#
# Coordination Sequence:
#
# PCOD8032668 Si02
#       7
#     2   2   2   2   2   2   2
#     4  11  23  43  69  95 135 178 221 268 332 403
#     4  11  26  44  72  99 128 183 229 272 330 399
#     4  11  24  44  70  97 133 180 220 274 334 396
#     4  12  26  44  68 103 138 173 223 282 331 394
#     4  11  26  44  69 101 137 176 220 278 338 394
#     4  11  26  46  68  98 137 178 225 273 337 398
#     4  11  25  42  67 101 136 173 222 278 333 390
#
# _framework density 23.453146
#
# number of rings (size 3 to 8) (size 9 to 14) (size 15 to 20)
#    0.000    0.857    1.429    4.286    8.000    9.714 
#    0.000    0.000    0.000    0.000    0.000    0.000 
#    0.000    0.000    0.000    0.000    0.000    0.000 
#
# Total GULP energy -173598.195697 kJ/mol
# GULP energy per Si atom -12399.871121 kJ/mol
# Density = 2.339977 g / cm^3
# Si number density = 23.453146 Si / 1000 Ang^3
#
#
#
# Elastic Constant Matrix: (Units=GPa)
#
#
# Indices 1 2 3 4 5 6 
#
# 1 119.2097 44.3427 51.5562 6.4071 -1.3306 1.1934
# 2 44.3427 93.1021 29.0928 2.3709 5.2592 7.0286
# 3 51.5562 29.0928 96.8921 11.5406 5.5645 -6.3625
# 4 6.4071 2.3709 11.5406 35.1372 -0.6732 10.6110
# 5 -1.3306 5.2592 5.5645 -0.6732 32.8373 13.0017
# 6 1.1934 7.0286 -6.3625 10.6110 13.0017 39.9801
#
#
#
# Elastic Compliance Matrix: (Units=1/GPa)
#
#
# Indices 1 2 3 4 5 6 
#
# 1 0.012420 -0.004199 -0.005652 0.000389 0.002747 -0.001529
# 2 -0.004199 0.013628 -0.002141 0.001339 -0.000904 -0.002673
# 3 -0.005652 -0.002141 0.015363 -0.005835 -0.005057 0.006183
# 4 0.000389 0.001339 -0.005835 0.034044 0.006348 -0.012275
# 5 0.002747 -0.000904 -0.005057 0.006348 0.037477 -0.014601
# 6 -0.001529 -0.002673 0.006183 -0.012275 -0.014601 0.034518
#
#
# Mechanical properties :
#
#
# Convention : Reuss Voigt Hill
#
# Bulk Modulus (GPa) = 57.38296 62.13194 59.75745
# Shear Modulus (GPa) = 28.20975 33.87173 31.04074
#
# Velocity S-wave (km/s) = 3.47192 3.80442 3.64197
# Velocity P-wave (km/s) = 6.37122 6.77109 6.57420
#
# Compressibility (1/GPa) = 0.01742678
#
# Stress axis : x y z
#
# Youngs Moduli (GPa) = 80.51494 73.37583 65.09272
#
# Poissons Ratio (x) = 0.30809 0.36794
# Poissons Ratio (y) = 0.33807 0.13936
# Poissons Ratio (z) = 0.45511 0.15709
#
# Static dielectric constant tensor:
#      x y z
#    x 4.497170 0.214970 0.077140 
#    y 0.214970 4.901940 -0.263840 
#    z 0.077140 -0.263840 4.297250 
# 
# 
# High freq. dielectric constant tensor:
#      x y z
#    x 1.939260 0.004830 0.007090 
#    y 0.004830 1.937750 -0.004960 
#    z 0.007090 -0.004960 1.921470 
# 
# From -- ./inp_files/36550.got.cif
#   From: 2010.06.25/outbox.cif.g09.slc.cpg/sg2_19_cif.got.tgz:36550.got - 2010.06.27 13:26:56.
