data_PCOD8032329
_publ_section_title
;
Structure prediction by ZEFSAII (Michael W. Deem and Ramdas Pophale) SiO2 
 PCOD8032329
Probable space group: P -1
;
_chemical_formula_sum "Si O2"
_cell_formula_units_Z 16
_cell_length_a 18.746907
_cell_length_b 8.024533
_cell_length_c 9.675328
_cell_angle_alpha 47.145009
_cell_angle_beta 128.887329
_cell_angle_gamma 99.012713
_cell_volume 731.412680
_symmetry_space_group_name_H-M "P -1"
_symmetry_group_IT_number 2
_symmetry_cell_setting 'triclinic'
loop_
_space_group_symop_operation_xyz
x,y,z
-x,-y,-z
loop_
_atom_site_type_symbol
_atom_site_label
_atom_site_fract_x
_atom_site_fract_y
_atom_site_fract_z
Si Si1 0.235637 0.987451 0.696358
Si Si2 0.465337 0.162939 0.226974
Si Si3 0.243486 0.810317 0.281398
Si Si4 0.908491 0.420168 0.805281
Si Si5 0.602471 0.229330 0.742441
Si Si6 0.356225 0.738811 0.735600
Si Si7 0.967655 0.748059 0.232513
Si Si8 0.035588 0.028539 0.376495
O O1 0.148007 0.275722 0.461501
O O2 0.160739 0.866626 0.630200
O O3 0.302819 0.963326 0.657248
O O4 0.310032 0.840098 0.996183
O O5 0.554286 0.196962 0.238867
O O6 0.500000 0.000000 0.500000
O O7 0.423132 0.010532 0.162428
O O8 0.385939 0.460567 0.999012
O O9 0.188027 0.642264 0.266079
O O10 0.345003 0.743697 0.349539
O O11 0.282410 0.747114 0.519422
O O12 0.158202 0.112286 0.006526
O O13 0.981689 0.292714 0.833292
O O14 0.977806 0.330646 0.083610
O O15 0.500000 0.500000 0.500000
O O16 0.000000 0.500000 0.500000
O O17 0.001144 0.922458 0.264083
O O18 0.000000 0.000000 0.500000
#
# Coordination Sequence:
#
# PCOD8032329 Si02
#       8
#     2   2   2   2   2   2   2   2
#     4  12  25  42  67 104 135 180 227 282 357 410
#     4  11  24  49  69  97 137 182 237 298 339 408
#     4  11  23  44  68 100 135 184 234 273 352 423
#     4  11  23  43  68 100 142 177 226 290 346 422
#     4  12  27  45  70 101 145 182 233 294 348 412
#     4  11  25  43  74  99 133 185 237 281 352 410
#     4  11  23  43  71  99 137 185 226 284 349 422
#     4  11  23  42  66  99 140 172 228 285 342 419
#
# _framework density 21.875474000000001
#
# number of rings (size 3 to 8) (size 9 to 14) (size 15 to 20)
#    0.000    0.750    1.250    7.875    3.500    2.500 
#    4.500    0.000    0.000    0.000    0.000    0.000 
#    0.000    0.000    0.000    0.000    0.000    0.000 
#
# Total GULP energy -198237.343211 kJ/mol
# GULP energy per Si atom -12389.833951 kJ/mol
# Density = 2.182568 g / cm^3
# Si number density = 21.875474 Si / 1000 Ang^3
#
#
#
# Elastic Constant Matrix: (Units=GPa)
#
#
# Indices 1 2 3 4 5 6 
#
# 1 89.3154 41.2834 46.8561 -15.0602 -6.1618 -12.1472
# 2 41.2834 65.7725 37.6131 1.4567 1.4437 -17.0750
# 3 46.8561 37.6131 160.1503 9.2213 -3.8780 -10.2647
# 4 -15.0602 1.4567 9.2213 39.5257 -3.4824 2.0792
# 5 -6.1618 1.4437 -3.8780 -3.4824 43.4971 3.5488
# 6 -12.1472 -17.0750 -10.2647 2.0792 3.5488 45.3261
#
#
#
# Elastic Compliance Matrix: (Units=1/GPa)
#
#
# Indices 1 2 3 4 5 6 
#
# 1 0.019855 -0.010656 -0.003763 0.009165 0.003585 -0.000247
# 2 -0.010656 0.025007 -0.002121 -0.005140 -0.003478 0.006592
# 3 -0.003763 -0.002121 0.008040 -0.003242 -0.000019 0.000163
# 4 0.009165 -0.005140 -0.003242 0.030168 0.003749 -0.001892
# 5 0.003585 -0.003478 -0.000019 0.003749 0.024109 -0.002413
# 6 -0.000247 0.006592 0.000163 -0.001892 -0.002413 0.024792
#
#
# Mechanical properties :
#
#
# Convention : Reuss Voigt Hill
#
# Bulk Modulus (GPa) = 50.45060 62.97150 56.71105
# Shear Modulus (GPa) = 29.12760 38.30216 33.71488
#
# Velocity S-wave (km/s) = 3.65296 4.18894 3.93009
# Velocity P-wave (km/s) = 6.39569 7.22808 6.82458
#
# Compressibility (1/GPa) = 0.01982137
#
# Stress axis : x y z
#
# Youngs Moduli (GPa) = 50.36518 39.98869 124.37843
#
# Poissons Ratio (x) = 0.42612 0.46805
# Poissons Ratio (y) = 0.53669 0.26383
# Poissons Ratio (z) = 0.18953 0.08482
#
# Static dielectric constant tensor:
#      x y z
#    x 4.061750 0.075900 0.213840 
#    y 0.075900 4.208360 -0.074950 
#    z 0.213840 -0.074950 4.127910 
# 
# 
# High freq. dielectric constant tensor:
#      x y z
#    x 1.869420 0.002280 0.004200 
#    y 0.002280 1.865070 0.007170 
#    z 0.004200 0.007170 1.881780 
# 
# From -- ./inp_files/328482.got.cif
#   From: 2010.06.25/outbox.cif.g09.slc.cpg/sg2_165_cif.got.tgz:328482.got - 2010.06.27 13:26:56.
