data_PCOD8032964
_publ_section_title
;
Structure prediction by ZEFSAII (Michael W. Deem and Ramdas Pophale) SiO2 
 PCOD8032964
Probable space group: P -1
;
_chemical_formula_sum "Si O2"
_cell_formula_units_Z 16
_cell_length_a 18.312929
_cell_length_b 9.264188
_cell_length_c 12.058195
_cell_angle_alpha 105.235274
_cell_angle_beta 47.122899
_cell_angle_gamma 142.075277
_cell_volume 731.377791
_symmetry_space_group_name_H-M "P -1"
_symmetry_group_IT_number 2
_symmetry_cell_setting 'triclinic'
loop_
_space_group_symop_operation_xyz
x,y,z
-x,-y,-z
loop_
_atom_site_type_symbol
_atom_site_label
_atom_site_fract_x
_atom_site_fract_y
_atom_site_fract_z
Si Si1 0.114760 0.284690 0.385929
Si Si2 0.745938 0.945893 0.384618
Si Si3 0.334824 0.492712 0.610936
Si Si4 0.029571 0.519021 0.100928
Si Si5 0.747709 0.385318 0.471155
Si Si6 0.838579 0.165974 0.569736
Si Si7 0.639870 0.258109 0.183447
Si Si8 0.449345 0.767059 0.970907
O O1 0.208640 0.506871 0.428465
O O2 0.943318 0.144114 0.468350
O O3 0.291830 0.479489 0.155349
O O4 0.000000 0.000000 0.500000
O O5 0.557402 0.738512 0.462762
O O6 0.776020 0.808817 0.350401
O O7 0.930514 0.234845 0.180298
O O8 0.751239 0.055450 0.512987
O O9 0.314159 0.555429 0.529554
O O10 0.244169 0.479177 0.799725
O O11 0.943365 0.552707 0.259100
O O12 0.000000 0.500000 0.000000
O O13 0.258856 0.775946 0.940778
O O14 0.567843 0.037112 0.598075
O O15 0.000000 0.500000 0.500000
O O16 0.653700 0.939588 0.798805
O O17 0.631349 0.331589 0.090405
O O18 0.500000 0.000000 0.000000
#
# Coordination Sequence:
#
# PCOD8032964 Si02
#       8
#     2   2   2   2   2   2   2   2
#     4  12  28  46  68 104 146 181 229 294 355 405
#     4  11  24  43  67 102 137 179 225 284 350 407
#     4  11  23  44  69  96 142 179 215 281 358 402
#     4  12  24  40  67  99 128 176 233 270 338 415
#     4  12  24  46  68  99 141 179 224 287 347 408
#     4  12  23  45  76 101 135 185 240 288 338 417
#     4  12  23  43  73  99 133 177 233 286 334 422
#     4  12  24  44  72 104 129 187 239 285 343 409
#
# _framework density 21.876519999999999
#
# number of rings (size 3 to 8) (size 9 to 14) (size 15 to 20)
#    0.000    0.250    6.250    3.375    1.750    1.000 
#    2.250    1.250    0.000    0.000    0.000    0.000 
#    0.000    0.000    0.000    0.000    0.000    0.000 
#
# Total GULP energy -198308.139557 kJ/mol
# GULP energy per Si atom -12394.258722 kJ/mol
# Density = 2.182673 g / cm^3
# Si number density = 21.876520 Si / 1000 Ang^3
#
#
#
# Elastic Constant Matrix: (Units=GPa)
#
#
# Indices 1 2 3 4 5 6 
#
# 1 98.0749 13.9607 42.3604 -0.2196 1.0774 -3.6227
# 2 13.9607 79.1357 25.6134 3.1839 10.3518 -7.4430
# 3 42.3604 25.6134 152.3127 4.1040 0.9491 -6.7879
# 4 -0.2196 3.1839 4.1040 29.8653 -2.7656 8.1273
# 5 1.0774 10.3518 0.9491 -2.7656 48.3424 -0.2147
# 6 -3.6227 -7.4430 -6.7879 8.1273 -0.2147 36.2668
#
#
#
# Elastic Compliance Matrix: (Units=1/GPa)
#
#
# Indices 1 2 3 4 5 6 
#
# 1 0.011687 -0.001074 -0.003074 0.000562 0.000063 0.000246
# 2 -0.001074 0.014214 -0.001876 -0.002361 -0.003105 0.002969
# 3 -0.003074 -0.001876 0.007811 -0.001153 0.000256 0.001030
# 4 0.000562 -0.002361 -0.001153 0.036535 0.002567 -0.008816
# 5 0.000063 -0.003105 0.000256 0.002567 0.021486 -0.001031
# 6 0.000246 0.002969 0.001030 -0.008816 -0.001031 0.030370
#
#
# Mechanical properties :
#
#
# Convention : Reuss Voigt Hill
#
# Bulk Modulus (GPa) = 46.16330 54.82138 50.49234
# Shear Modulus (GPa) = 35.36749 39.40081 37.38415
#
# Velocity S-wave (km/s) = 4.02517 4.24849 4.13833
# Velocity P-wave (km/s) = 6.53836 7.01285 6.77976
#
# Compressibility (1/GPa) = 0.02166223
#
# Stress axis : x y z
#
# Youngs Moduli (GPa) = 85.56772 70.35465 128.02054
#
# Poissons Ratio (x) = 0.07559 0.39355
# Poissons Ratio (y) = 0.09194 0.24018
# Poissons Ratio (z) = 0.26305 0.13199
#
# Static dielectric constant tensor:
#      x y z
#    x 4.019870 -0.218030 -0.063640 
#    y -0.218030 4.163520 0.179260 
#    z -0.063640 0.179260 4.069260 
# 
# 
# High freq. dielectric constant tensor:
#      x y z
#    x 1.877960 0.007200 -0.003770 
#    y 0.007200 1.847360 0.010660 
#    z -0.003770 0.010660 1.865790 
# 
# From -- ./inp_files/382269.got.cif
#   From: 2010.06.25/outbox.cif.g09.slc.cpg/sg2_192_cif.got.tgz:382269.got - 2010.06.27 13:26:56.
