data_PCOD8032336
_publ_section_title
;
Structure prediction by ZEFSAII (Michael W. Deem and Ramdas Pophale) SiO2 
 PCOD8032336
Probable space group: P -1
;
_chemical_formula_sum "Si O2"
_cell_formula_units_Z 14
_cell_length_a 13.128885
_cell_length_b 11.506810
_cell_length_c 19.646001
_cell_angle_alpha 31.016240
_cell_angle_beta 31.997212
_cell_angle_gamma 21.625716
_cell_volume 542.602843
_symmetry_space_group_name_H-M "P -1"
_symmetry_group_IT_number 2
_symmetry_cell_setting 'triclinic'
loop_
_space_group_symop_operation_xyz
x,y,z
-x,-y,-z
loop_
_atom_site_type_symbol
_atom_site_label
_atom_site_fract_x
_atom_site_fract_y
_atom_site_fract_z
Si Si1 0.203430 0.305110 0.247876
Si Si2 0.924983 0.840947 0.914270
Si Si3 0.979894 0.220964 0.774375
Si Si4 0.590726 0.715858 0.638220
Si Si5 0.400380 0.386941 0.564596
Si Si6 0.667107 0.832077 0.907982
Si Si7 0.522822 0.511187 0.295915
O O1 0.131193 0.601904 0.178330
O O2 0.312737 0.276786 0.125568
O O3 0.940832 0.355598 0.368263
O O4 0.458692 0.967962 0.313927
O O5 0.138857 0.750012 0.781103
O O6 0.053480 0.494964 0.045565
O O7 0.869080 0.069044 0.892245
O O8 0.614189 0.036842 0.961337
O O9 0.872224 0.491449 0.639499
O O10 0.321595 0.915170 0.740619
O O11 0.635068 0.453121 0.699028
O O12 0.500000 0.000000 0.500000
O O13 0.500000 0.500000 0.500000
O O14 0.501899 0.348648 0.449733
O O15 0.648047 0.117600 0.771321
#
# Coordination Sequence:
#
# PCOD8032336 Si02
#       7
#     2   2   2   2   2   2   2
#     4  12  26  46  72 104 140 183 228 285 347 416
#     4  11  26  45  67 103 137 186 235 282 338 403
#     4  11  24  44  67  98 139 180 232 279 340 406
#     4  11  23  42  67 102 136 180 228 281 344 411
#     4  12  26  46  70 106 142 175 226 282 357 420
#     4  12  26  44  70 101 140 183 236 282 340 407
#     4  11  25  44  74 100 141 180 229 292 347 406
#
# _framework density 25.801562000000001
#
# number of rings (size 3 to 8) (size 9 to 14) (size 15 to 20)
#    0.000    0.571    1.429    6.857    0.000    8.000 
#    0.000    0.000    0.000    0.000    0.000    0.000 
#    0.000    0.000    0.000    0.000    0.000    0.000 
#
# Total GULP energy -173674.564146 kJ/mol
# GULP energy per Si atom -12405.326010 kJ/mol
# Density = 2.574284 g / cm^3
# Si number density = 25.801562 Si / 1000 Ang^3
#
#
#
# Elastic Constant Matrix: (Units=GPa)
#
#
# Indices 1 2 3 4 5 6 
#
# 1 91.7132 33.7310 -7.3332 11.4758 0.4322 -2.0243
# 2 33.7310 101.9551 7.6157 -8.3805 3.2801 10.9907
# 3 -7.3332 7.6157 56.3721 10.1706 8.0990 -12.0751
# 4 11.4758 -8.3805 10.1706 31.5313 7.3763 2.9159
# 5 0.4322 3.2801 8.0990 7.3763 47.9205 -2.8705
# 6 -2.0243 10.9907 -12.0751 2.9159 -2.8705 45.6825
#
#
#
# Elastic Compliance Matrix: (Units=1/GPa)
#
#
# Indices 1 2 3 4 5 6 
#
# 1 0.015110 -0.006713 0.005399 -0.009706 0.001169 0.004405
# 2 -0.006713 0.013809 -0.005291 0.008737 -0.001676 -0.005681
# 3 0.005399 -0.005291 0.023161 -0.011287 -0.001368 0.008269
# 4 -0.009706 0.008737 -0.011287 0.043365 -0.005796 -0.008648
# 5 0.001169 -0.001676 -0.001368 -0.005796 0.022207 0.001859
# 6 0.004405 -0.005681 0.008269 -0.008648 0.001859 0.026307
#
#
# Mechanical properties :
#
#
# Convention : Reuss Voigt Hill
#
# Bulk Modulus (GPa) = 25.72673 35.34080 30.53376
# Shear Modulus (GPa) = 29.39018 39.42863 34.40941
#
# Velocity S-wave (km/s) = 3.37870 3.91340 3.65583
# Velocity P-wave (km/s) = 5.02130 5.84350 5.44793
#
# Compressibility (1/GPa) = 0.03887008
#
# Stress axis : x y z
#
# Youngs Moduli (GPa) = 66.18035 72.41735 43.17684
#
# Poissons Ratio (x) = 0.48611 -0.23312
# Poissons Ratio (y) = 0.44424 0.22846
# Poissons Ratio (z) = -0.35732 0.38319
#
# Static dielectric constant tensor:
#      x y z
#    x 4.822610 0.102510 -0.019730 
#    y 0.102510 4.970540 -0.113570 
#    z -0.019730 -0.113570 4.394180 
# 
# 
# High freq. dielectric constant tensor:
#      x y z
#    x 2.047280 0.005720 -0.000640 
#    y 0.005720 2.051890 -0.013580 
#    z -0.000640 -0.013580 2.012250 
# 
# From -- ./inp_files/524123.got.cif
#   From: 2010.06.25/outbox.cif.g09.slc.cpg/sg2_263_cif.got.tgz:524123.got - 2010.06.27 13:26:56.
