data_PCOD8032714
_publ_section_title
;
Structure prediction by ZEFSAII (Michael W. Deem and Ramdas Pophale) SiO2 
 PCOD8032714
Probable space group: P -1
;
_chemical_formula_sum "Si O2"
_cell_formula_units_Z 16
_cell_length_a 9.066163
_cell_length_b 13.290130
_cell_length_c 12.994669
_cell_angle_alpha 33.058990
_cell_angle_beta 87.040478
_cell_angle_gamma 107.753760
_cell_volume 655.997795
_symmetry_space_group_name_H-M "P -1"
_symmetry_group_IT_number 2
_symmetry_cell_setting 'triclinic'
loop_
_space_group_symop_operation_xyz
x,y,z
-x,-y,-z
loop_
_atom_site_type_symbol
_atom_site_label
_atom_site_fract_x
_atom_site_fract_y
_atom_site_fract_z
Si Si1 0.918513 0.727903 0.615751
Si Si2 0.423874 0.972719 0.778164
Si Si3 0.983048 0.817223 0.080447
Si Si4 0.213177 0.626561 0.245344
Si Si5 0.268650 0.582186 0.911718
Si Si6 0.607729 0.411349 0.529148
Si Si7 0.068334 0.880628 0.797133
Si Si8 0.328145 0.987284 0.441155
O O1 0.927271 0.628393 0.590867
O O2 0.137739 0.944924 0.455663
O O3 0.842355 0.877584 0.478747
O O4 0.796376 0.512073 0.887814
O O5 0.452025 0.173223 0.676333
O O6 0.596898 0.066736 0.614666
O O7 0.228176 0.847845 0.826047
O O8 0.393050 0.785662 0.023218
O O9 0.762745 0.582754 0.290923
O O10 0.114113 0.745491 0.167035
O O11 0.026920 0.926505 0.872242
O O12 0.000000 0.000000 0.000000
O O13 0.286706 0.613599 0.362157
O O14 0.256588 0.789711 0.702675
O O15 0.501997 0.735292 0.765623
O O16 0.134759 0.358869 0.032409
O O17 0.500000 0.500000 0.500000
#
# Coordination Sequence:
#
# PCOD8032714 Si02
#       8
#     2   2   2   2   2   2   2   2
#     4  12  24  46  69 104 140 183 230 287 354 415
#     4  11  23  44  64 102 133 179 233 285 347 413
#     4  11  24  45  66  97 135 185 232 282 357 417
#     4  11  23  43  70  96 140 185 229 284 355 417
#     4  11  25  46  69 103 139 183 233 287 351 415
#     4  12  24  40  67 102 137 178 234 292 347 415
#     4  11  26  45  69  97 146 183 222 295 354 413
#     4  11  25  42  74  99 134 182 241 283 342 427
#
# _framework density 24.390325000000001
#
# number of rings (size 3 to 8) (size 9 to 14) (size 15 to 20)
#    0.000    0.750    1.250    7.500    3.500    2.500 
#    4.500    0.000    0.000    0.000    0.000    0.000 
#    0.000    0.000    0.000    0.000    0.000    0.000 
#
# Total GULP energy -198263.991417 kJ/mol
# GULP energy per Si atom -12391.499464 kJ/mol
# Density = 2.433481 g / cm^3
# Si number density = 24.390325 Si / 1000 Ang^3
#
#
#
# Elastic Constant Matrix: (Units=GPa)
#
#
# Indices 1 2 3 4 5 6 
#
# 1 60.1228 1.4771 31.8265 9.8136 -2.1936 16.0470
# 2 1.4771 99.7566 22.1439 -4.9887 -7.9023 11.1967
# 3 31.8265 22.1439 119.8729 4.6060 -2.6181 17.4153
# 4 9.8136 -4.9887 4.6060 47.1163 -3.3451 -5.9457
# 5 -2.1936 -7.9023 -2.6181 -3.3451 30.7190 -0.2276
# 6 16.0470 11.1967 17.4153 -5.9457 -0.2276 23.0577
#
#
#
# Elastic Compliance Matrix: (Units=1/GPa)
#
#
# Indices 1 2 3 4 5 6 
#
# 1 0.024267 0.002182 -0.004189 -0.006407 0.001118 -0.016426
# 2 0.002182 0.011262 -0.001817 0.000431 0.002904 -0.005475
# 3 -0.004189 -0.001817 0.010453 -0.000888 -0.000005 -0.004326
# 4 -0.006407 0.000431 -0.000888 0.024268 0.002303 0.011201
# 5 0.001118 0.002904 -0.000005 0.002303 0.033621 -0.001259
# 6 -0.016426 -0.005475 -0.004326 0.011201 -0.001259 0.063603
#
#
# Mechanical properties :
#
#
# Convention : Reuss Voigt Hill
#
# Bulk Modulus (GPa) = 26.08725 43.40527 34.74626
# Shear Modulus (GPa) = 26.60992 35.13223 30.87108
#
# Velocity S-wave (km/s) = 3.30662 3.79940 3.56154
# Velocity P-wave (km/s) = 5.02964 6.08950 5.58477
#
# Compressibility (1/GPa) = 0.03833291
#
# Stress axis : x y z
#
# Youngs Moduli (GPa) = 41.20769 88.79694 95.66970
#
# Poissons Ratio (x) = -0.19379 0.40078
# Poissons Ratio (y) = -0.08993 0.17388
# Poissons Ratio (z) = 0.17263 0.16139
#
# Static dielectric constant tensor:
#      x y z
#    x 4.200280 0.210550 -0.172980 
#    y 0.210550 4.567950 0.115820 
#    z -0.172980 0.115820 4.634470 
# 
# 
# High freq. dielectric constant tensor:
#      x y z
#    x 1.949860 0.001820 -0.003570 
#    y 0.001820 1.992090 0.000550 
#    z -0.003570 0.000550 1.985510 
# 
# From -- ./inp_files/505039.got.cif
#   From: 2010.06.25/outbox.cif.g09.slc.cpg/sg2_253_cif.got.tgz:505039.got - 2010.06.27 13:26:56.
