data_PCOD8032502
_publ_section_title
;
Structure prediction by ZEFSAII (Michael W. Deem and Ramdas Pophale) SiO2 
 PCOD8032502
Probable space group: P -1
;
_chemical_formula_sum "Si O2"
_cell_formula_units_Z 14
_cell_length_a 13.202748
_cell_length_b 18.817920
_cell_length_c 8.577437
_cell_angle_alpha 138.682929
_cell_angle_beta 49.465745
_cell_angle_gamma 153.911112
_cell_volume 616.505223
_symmetry_space_group_name_H-M "P -1"
_symmetry_group_IT_number 2
_symmetry_cell_setting 'triclinic'
loop_
_space_group_symop_operation_xyz
x,y,z
-x,-y,-z
loop_
_atom_site_type_symbol
_atom_site_label
_atom_site_fract_x
_atom_site_fract_y
_atom_site_fract_z
Si Si1 0.229302 0.346513 0.003731
Si Si2 0.865522 0.485594 0.486878
Si Si3 0.410990 0.059385 0.180390
Si Si4 0.139855 0.737811 0.349938
Si Si5 0.402967 0.068415 0.862274
Si Si6 0.035663 0.223812 0.660393
Si Si7 0.091148 0.040214 0.144104
O O1 0.082971 0.149184 0.891959
O O2 0.184401 0.345180 0.864898
O O3 0.500000 0.500000 0.000000
O O4 0.154545 0.403420 0.264861
O O5 0.610947 0.276555 0.364110
O O6 0.000000 0.500000 0.500000
O O7 0.000786 0.568170 0.324316
O O8 0.231504 0.969862 0.346955
O O9 0.290010 0.979333 0.000383
O O10 0.500000 0.000000 0.000000
O O11 0.326618 0.782645 0.153985
O O12 0.966965 0.678791 0.300141
O O13 0.273335 0.916811 0.608888
O O14 0.344128 0.155357 0.042597
O O15 0.137261 0.182641 0.417798
O O16 0.000000 0.000000 0.000000
#
# Coordination Sequence:
#
# PCOD8032502 Si02
#       7
#     2   2   2   2   2   2   2
#     4  12  27  48  67 105 142 181 232 294 353 416
#     4  12  27  46  70 104 145 184 233 297 348 408
#     4  12  24  45  74 103 134 185 237 288 355 420
#     4  11  24  46  72 106 139 184 237 292 346 414
#     4  11  23  42  73 100 143 179 237 281 350 417
#     4  12  24  46  75 102 139 189 236 284 351 426
#     4  12  24  45  71 103 138 190 234 279 344 427
#
# _framework density 22.708648
#
# number of rings (size 3 to 8) (size 9 to 14) (size 15 to 20)
#    0.000    0.286    5.714    3.000    4.000    1.714 
#    2.571    1.429    0.000    0.000    0.000    0.000 
#    0.000    0.000    0.000    0.000    0.000    0.000 
#
# Total GULP energy -173515.446689 kJ/mol
# GULP energy per Si atom -12393.960478 kJ/mol
# Density = 2.265696 g / cm^3
# Si number density = 22.708648 Si / 1000 Ang^3
#
#
#
# Elastic Constant Matrix: (Units=GPa)
#
#
# Indices 1 2 3 4 5 6 
#
# 1 174.8337 36.6651 29.9741 -8.5616 2.1071 -3.9100
# 2 36.6651 78.2554 11.8571 -5.9454 -6.9103 -0.5699
# 3 29.9741 11.8571 87.9710 -15.0115 -10.2403 7.9966
# 4 -8.5616 -5.9454 -15.0115 28.8917 6.5536 0.5122
# 5 2.1071 -6.9103 -10.2403 6.5536 49.6269 -12.7734
# 6 -3.9100 -0.5699 7.9966 0.5122 -12.7734 40.4720
#
#
#
# Elastic Compliance Matrix: (Units=1/GPa)
#
#
# Indices 1 2 3 4 5 6 
#
# 1 0.006720 -0.002888 -0.001979 0.000584 -0.000999 0.000677
# 2 -0.002888 0.014503 -0.000563 0.001368 0.002014 0.000655
# 3 -0.001979 -0.000563 0.013540 0.006072 0.001348 -0.002526
# 4 0.000584 0.001368 0.006072 0.039310 -0.004560 -0.003061
# 5 -0.000999 0.002014 0.001348 -0.004560 0.023164 0.007034
# 6 0.000677 0.000655 -0.002526 -0.003061 0.007034 0.027541
#
#
# Mechanical properties :
#
#
# Convention : Reuss Voigt Hill
#
# Bulk Modulus (GPa) = 41.83101 55.33918 48.58510
# Shear Modulus (GPa) = 34.81761 41.30238 38.06000
#
# Velocity S-wave (km/s) = 3.91990 4.26936 4.09836
# Velocity P-wave (km/s) = 6.24085 6.98036 6.62093
#
# Compressibility (1/GPa) = 0.02390571
#
# Stress axis : x y z
#
# Youngs Moduli (GPa) = 148.80228 68.94908 73.85504
#
# Poissons Ratio (x) = 0.19911 0.14614
# Poissons Ratio (y) = 0.42971 0.04154
# Poissons Ratio (z) = 0.29444 0.03879
#
# Static dielectric constant tensor:
#      x y z
#    x 4.401520 -0.005290 0.103580 
#    y -0.005290 3.996860 -0.243230 
#    z 0.103580 -0.243230 3.700000 
# 
# 
# High freq. dielectric constant tensor:
#      x y z
#    x 1.922790 0.006110 0.000660 
#    y 0.006110 1.884440 -0.022760 
#    z 0.000660 -0.022760 1.905230 
# 
# From -- ./inp_files/242628.got.cif
#   From: 2010.06.25/outbox.cif.g09.slc.cpg/sg2_122_cif.got.tgz:242628.got - 2010.06.27 13:26:56.
