data_PCOD8032273
_publ_section_title
;
Structure prediction by ZEFSAII (Michael W. Deem and Ramdas Pophale) SiO2 
 PCOD8032273
Probable space group: P -1
;
_chemical_formula_sum "Si O2"
_cell_formula_units_Z 16
_cell_length_a 14.812692
_cell_length_b 9.487155
_cell_length_c 15.682242
_cell_angle_alpha 39.948340
_cell_angle_beta 36.510128
_cell_angle_gamma 38.804738
_cell_volume 761.320016
_symmetry_space_group_name_H-M "P -1"
_symmetry_group_IT_number 2
_symmetry_cell_setting 'triclinic'
loop_
_space_group_symop_operation_xyz
x,y,z
-x,-y,-z
loop_
_atom_site_type_symbol
_atom_site_label
_atom_site_fract_x
_atom_site_fract_y
_atom_site_fract_z
Si Si1 0.891332 0.408317 0.410279
Si Si2 0.559387 0.498436 0.051044
Si Si3 0.788746 0.030994 0.574546
Si Si4 0.079651 0.709965 0.062258
Si Si5 0.483769 0.017721 0.906693
Si Si6 0.835030 0.492067 0.096047
Si Si7 0.548604 0.717492 0.603382
Si Si8 0.622220 0.311617 0.427230
O O1 0.747344 0.558357 0.517885
O O2 0.045731 0.218262 0.435381
O O3 0.944539 0.602222 0.233730
O O4 0.831938 0.260694 0.455774
O O5 0.510466 0.346551 0.231085
O O6 0.500000 0.500000 0.000000
O O7 0.760607 0.405199 0.942853
O O8 0.461429 0.782420 0.007059
O O9 0.655161 0.028067 0.744590
O O10 0.698309 0.055187 0.539048
O O11 0.146814 0.630737 0.952810
O O12 0.000000 0.000000 0.000000
O O13 0.317580 0.245214 0.900737
O O14 0.500000 0.000000 0.000000
O O15 0.793582 0.335628 0.269645
O O16 0.000000 0.500000 0.000000
O O17 0.464931 0.658217 0.611752
O O18 0.500000 0.000000 0.500000
O O19 0.500000 0.500000 0.500000
#
# Coordination Sequence:
#
# PCOD8032273 Si02
#       8
#     2   2   2   2   2   2   2   2
#     4  11  23  44  72 106 141 182 244 297 362 422
#     4  12  28  49  73 104 143 201 245 296 372 433
#     4  11  23  41  74 104 138 187 237 305 356 426
#     4  12  26  48  69 104 149 189 239 303 361 439
#     4  12  22  46  73 100 145 184 246 303 358 431
#     4  12  26  42  71 109 140 186 242 296 365 428
#     4  12  27  47  72 103 146 195 239 294 363 441
#     4  12  23  44  70 102 144 183 240 293 365 430
#
# _framework density 21.01613
#
# number of rings (size 3 to 8) (size 9 to 14) (size 15 to 20)
#    0.000    0.250    6.250    2.250    3.500    3.000 
#    0.000    1.250    0.000    0.000    0.000    0.000 
#    0.000    0.000    0.000    0.000    0.000    0.000 
#
# Total GULP energy -198231.245172 kJ/mol
# GULP energy per Si atom -12389.452823 kJ/mol
# Density = 2.096830 g / cm^3
# Si number density = 21.016130 Si / 1000 Ang^3
#
#
#
# Elastic Constant Matrix: (Units=GPa)
#
#
# Indices 1 2 3 4 5 6 
#
# 1 132.3690 46.8401 54.9930 14.1333 17.1030 -3.5766
# 2 46.8401 144.7578 45.4538 -3.6738 -4.5794 -7.1827
# 3 54.9930 45.4538 159.6350 6.4773 0.7405 4.6792
# 4 14.1333 -3.6738 6.4773 38.3468 -1.5503 -8.8895
# 5 17.1030 -4.5794 0.7405 -1.5503 39.7471 2.1923
# 6 -3.5766 -7.1827 4.6792 -8.8895 2.1923 40.2478
#
#
#
# Elastic Compliance Matrix: (Units=1/GPa)
#
#
# Indices 1 2 3 4 5 6 
#
# 1 0.010791 -0.002893 -0.002714 -0.003965 -0.005090 0.000160
# 2 -0.002893 0.008592 -0.001627 0.002705 0.002264 0.001940
# 3 -0.002714 -0.001627 0.007740 -0.000811 0.000896 -0.001659
# 4 -0.003965 0.002705 -0.000811 0.029580 0.002822 0.006605
# 5 -0.005090 0.002264 0.000896 0.002822 0.027761 -0.001041
# 6 0.000160 0.001940 -0.001659 0.006605 -0.001041 0.026915
#
#
# Mechanical properties :
#
#
# Convention : Reuss Voigt Hill
#
# Bulk Modulus (GPa) = 79.02160 81.25952 80.14056
# Shear Modulus (GPa) = 38.44242 42.96667 40.70455
#
# Velocity S-wave (km/s) = 4.28154 4.52648 4.40571
# Velocity P-wave (km/s) = 7.88189 8.12822 8.00600
#
# Compressibility (1/GPa) = 0.01265477
#
# Stress axis : x y z
#
# Youngs Moduli (GPa) = 92.66796 116.39271 129.20265
#
# Poissons Ratio (x) = 0.33676 0.35064
# Poissons Ratio (y) = 0.26812 0.21018
# Poissons Ratio (z) = 0.25149 0.18934
#
# Static dielectric constant tensor:
#      x y z
#    x 1.969570 1.219950 1.432420 
#    y 1.219950 3.057070 -0.886840 
#    z 1.432420 -0.886840 3.257610 
# 
# 
# High freq. dielectric constant tensor:
#      x y z
#    x 1.825460 -0.014400 0.000400 
#    y -0.014400 1.831100 0.001150 
#    z 0.000400 0.001150 1.844390 
# 
# From -- ./inp_files/529282.got.cif
#   From: 2010.06.25/outbox.cif.g09.slc.cpg/sg2_265_cif.got.tgz:529282.got - 2010.06.27 13:26:56.
