data_PCOD8032618
_publ_section_title
;
Structure prediction by ZEFSAII (Michael W. Deem and Ramdas Pophale) SiO2 
 PCOD8032618
Probable space group: P -1
;
_chemical_formula_sum "Si O2"
_cell_formula_units_Z 16
_cell_length_a 14.575390
_cell_length_b 11.315125
_cell_length_c 9.750931
_cell_angle_alpha 61.048598
_cell_angle_beta 66.306230
_cell_angle_gamma 117.676767
_cell_volume 732.983411
_symmetry_space_group_name_H-M "P -1"
_symmetry_group_IT_number 2
_symmetry_cell_setting 'triclinic'
loop_
_space_group_symop_operation_xyz
x,y,z
-x,-y,-z
loop_
_atom_site_type_symbol
_atom_site_label
_atom_site_fract_x
_atom_site_fract_y
_atom_site_fract_z
Si Si1 0.219130 0.715082 0.616047
Si Si2 0.572060 0.844137 0.609051
Si Si3 0.112939 0.312820 0.000791
Si Si4 0.787716 0.587785 0.808683
Si Si5 0.441689 0.061854 0.734280
Si Si6 0.392762 0.508849 0.512709
Si Si7 0.756331 0.779572 0.501774
Si Si8 0.936489 0.480983 0.693990
O O1 0.411001 0.885997 0.345014
O O2 0.090685 0.614499 0.629420
O O3 0.253415 0.882776 0.598362
O O4 0.129346 0.493684 0.879059
O O5 0.511223 0.833976 0.505207
O O6 0.602374 0.717101 0.656078
O O7 0.410364 0.688736 0.898116
O O8 0.131277 0.289454 0.160542
O O9 0.253378 0.393069 0.777365
O O10 0.925338 0.054684 0.202855
O O11 0.791262 0.730304 0.642819
O O12 0.903674 0.605304 0.647731
O O13 0.466801 0.212821 0.741979
O O14 0.243602 0.792740 0.006177
O O15 0.500000 0.500000 0.500000
O O16 0.296483 0.379552 0.499280
O O17 0.000000 0.500000 0.500000
#
# Coordination Sequence:
#
# PCOD8032618 Si02
#       8
#     2   2   2   2   2   2   2   2
#     4  11  24  44  78 101 135 189 240 297 348 414
#     4  12  22  47  74 107 136 190 247 290 354 425
#     4  11  24  45  72 102 140 186 246 291 352 425
#     4  12  25  46  69 106 149 184 237 296 357 430
#     4  11  23  46  75  99 144 181 245 300 341 423
#     4  11  23  43  68 103 137 191 241 284 355 426
#     4  12  26  41  71 105 149 188 230 297 363 418
#     4  12  29  45  69 110 146 187 237 295 371 423
#
# _framework density 21.828599000000001
#
# number of rings (size 3 to 8) (size 9 to 14) (size 15 to 20)
#    0.000    0.500    5.000    3.750    3.500    4.000 
#    0.000    1.250    0.000    0.000    0.000    0.000 
#    0.000    0.000    0.000    0.000    0.000    0.000 
#
# Total GULP energy -198442.449115 kJ/mol
# GULP energy per Si atom -12402.653070 kJ/mol
# Density = 2.177892 g / cm^3
# Si number density = 21.828599 Si / 1000 Ang^3
#
#
#
# Elastic Constant Matrix: (Units=GPa)
#
#
# Indices 1 2 3 4 5 6 
#
# 1 120.7963 45.7681 45.0080 0.3641 -11.2501 -0.3777
# 2 45.7681 154.8284 31.4643 -6.6742 -1.8172 4.2710
# 3 45.0080 31.4643 72.5453 0.6826 -3.9785 0.7541
# 4 0.3641 -6.6742 0.6826 40.1516 -0.9095 -7.3119
# 5 -11.2501 -1.8172 -3.9785 -0.9095 29.0030 -3.4443
# 6 -0.3777 4.2710 0.7541 -7.3119 -3.4443 38.7186
#
#
#
# Elastic Compliance Matrix: (Units=1/GPa)
#
#
# Indices 1 2 3 4 5 6 
#
# 1 0.011745 -0.002210 -0.006134 -0.000145 0.003664 0.000776
# 2 -0.002210 0.007570 -0.001954 0.001176 -0.000692 -0.000658
# 3 -0.006134 -0.001954 0.018446 -0.000643 -0.000031 -0.000328
# 4 -0.000145 0.001176 -0.000643 0.026039 0.001330 0.004917
# 5 0.003664 -0.000692 -0.000031 0.001330 0.036321 0.003595
# 6 0.000776 -0.000658 -0.000328 0.004917 0.003595 0.027162
#
#
# Mechanical properties :
#
#
# Convention : Reuss Voigt Hill
#
# Bulk Modulus (GPa) = 58.26205 65.85009 62.05607
# Shear Modulus (GPa) = 32.55167 36.63661 34.59414
#
# Velocity S-wave (km/s) = 3.86585 4.10124 3.98528
# Velocity P-wave (km/s) = 6.83191 7.25667 7.04749
#
# Compressibility (1/GPa) = 0.01716383
#
# Stress axis : x y z
#
# Youngs Moduli (GPa) = 85.13954 132.10133 54.21342
#
# Poissons Ratio (x) = 0.29195 0.33256
# Poissons Ratio (y) = 0.18817 0.10595
# Poissons Ratio (z) = 0.52227 0.25816
#
# Static dielectric constant tensor:
#      x y z
#    x 4.116400 0.066860 -0.246470 
#    y 0.066860 4.646080 -0.276400 
#    z -0.246470 -0.276400 3.888130 
# 
# 
# High freq. dielectric constant tensor:
#      x y z
#    x 1.870440 -0.002420 -0.015280 
#    y -0.002420 1.875810 -0.014970 
#    z -0.015280 -0.014970 1.844610 
# 
# From -- ./inp_files/306729.got.cif
#   From: 2010.06.25/outbox.cif.g09.slc.cpg/sg2_154_cif.got.tgz:306729.got - 2010.06.27 13:26:56.
