data_PCOD8032019
_publ_section_title
;
Structure prediction by ZEFSAII (Michael W. Deem and Ramdas Pophale) SiO2 
 PCOD8032019
Probable space group: P -1
;
_chemical_formula_sum "Si O2"
_cell_formula_units_Z 16
_cell_length_a 11.624076
_cell_length_b 6.672133
_cell_length_c 22.366022
_cell_angle_alpha 68.952372
_cell_angle_beta 29.935974
_cell_angle_gamma 56.342745
_cell_volume 689.214634
_symmetry_space_group_name_H-M "P -1"
_symmetry_group_IT_number 2
_symmetry_cell_setting 'triclinic'
loop_
_space_group_symop_operation_xyz
x,y,z
-x,-y,-z
loop_
_atom_site_type_symbol
_atom_site_label
_atom_site_fract_x
_atom_site_fract_y
_atom_site_fract_z
Si Si1 0.934010 0.212431 0.395703
Si Si2 0.734788 0.547988 0.083326
Si Si3 0.517761 0.405442 0.365679
Si Si4 0.778074 0.001475 0.379790
Si Si5 0.385088 0.879155 0.302429
Si Si6 0.652471 0.131919 0.216584
Si Si7 0.796461 0.373517 0.950747
Si Si8 0.213822 0.471586 0.190971
O O1 0.719904 0.485462 0.490169
O O2 0.799103 0.101012 0.425110
O O3 0.149801 0.257849 0.260085
O O4 0.063858 0.028006 0.415563
O O5 0.493126 0.796955 0.194917
O O6 0.693946 0.316195 0.136914
O O7 0.754360 0.572111 0.000611
O O8 0.000000 0.500000 0.000000
O O9 0.775929 0.194669 0.310011
O O10 0.523267 0.645152 0.311476
O O11 0.487735 0.263291 0.337683
O O12 0.500000 0.000000 0.500000
O O13 0.041063 0.727406 0.279920
O O14 0.456799 0.076138 0.273347
O O15 0.946546 0.897162 0.122037
O O16 0.859162 0.470650 0.851892
O O17 0.532117 0.353133 0.068586
#
# Coordination Sequence:
#
# PCOD8032019 Si02
#       8
#     2   2   2   2   2   2   2   2
#     4  12  27  46  73 103 143 180 235 292 352 409
#     4  11  23  40  66 100 134 186 227 277 340 414
#     4  11  26  45  73 103 134 188 235 287 348 420
#     4  12  26  48  73 101 139 185 235 289 351 416
#     4  11  26  45  70 107 141 182 234 289 350 413
#     4  11  24  43  73  99 144 183 233 284 349 415
#     4  11  23  45  67 100 142 179 234 283 345 410
#     4  11  26  44  70 103 138 184 230 292 347 410
#
# _framework density 23.214829000000002
#
# number of rings (size 3 to 8) (size 9 to 14) (size 15 to 20)
#    0.000    0.750    3.750    2.625    5.250    1.500 
#    0.000    1.875    0.000    0.000    0.000    0.000 
#    0.000    0.000    0.000    0.000    0.000    0.000 
#
# Total GULP energy -198313.536841 kJ/mol
# GULP energy per Si atom -12394.596053 kJ/mol
# Density = 2.316199 g / cm^3
# Si number density = 23.214829 Si / 1000 Ang^3
#
#
#
# Elastic Constant Matrix: (Units=GPa)
#
#
# Indices 1 2 3 4 5 6 
#
# 1 148.1093 56.9663 37.4287 2.4925 7.4083 19.0019
# 2 56.9663 93.7625 15.5176 -3.5707 -1.6209 7.4598
# 3 37.4287 15.5176 52.5193 -5.2945 6.0822 8.6662
# 4 2.4925 -3.5707 -5.2945 28.9023 -0.2127 -5.8567
# 5 7.4083 -1.6209 6.0822 -0.2127 45.1444 1.8724
# 6 19.0019 7.4598 8.6662 -5.8567 1.8724 33.0618
#
#
#
# Elastic Compliance Matrix: (Units=1/GPa)
#
#
# Indices 1 2 3 4 5 6 
#
# 1 0.010974 -0.005544 -0.005735 -0.003524 -0.001073 -0.004117
# 2 -0.005544 0.014153 -0.000231 0.002271 0.001444 0.000374
# 3 -0.005735 -0.000231 0.024249 0.004468 -0.002226 -0.002090
# 4 -0.003524 0.002271 0.004468 0.037415 -0.000055 0.006973
# 5 -0.001073 0.001444 -0.002226 -0.000055 0.022696 -0.000421
# 6 -0.004117 0.000374 -0.002090 0.006973 -0.000421 0.034335
#
#
# Mechanical properties :
#
#
# Convention : Reuss Voigt Hill
#
# Bulk Modulus (GPa) = 37.93942 57.13516 47.53729
# Shear Modulus (GPa) = 28.46929 33.72028 31.09478
#
# Velocity S-wave (km/s) = 3.50571 3.81534 3.66380
# Velocity P-wave (km/s) = 5.72407 6.63883 6.19835
#
# Compressibility (1/GPa) = 0.02635781
#
# Stress axis : x y z
#
# Youngs Moduli (GPa) = 91.12110 70.65483 41.23875
#
# Poissons Ratio (x) = 0.39169 0.23649
# Poissons Ratio (y) = 0.50515 0.00953
# Poissons Ratio (z) = 0.52256 0.01632
#
# Static dielectric constant tensor:
#      x y z
#    x 4.424230 -0.123930 0.435460 
#    y -0.123930 4.198610 0.287690 
#    z 0.435460 0.287690 4.923140 
# 
# 
# High freq. dielectric constant tensor:
#      x y z
#    x 1.931520 -0.005180 0.014480 
#    y -0.005180 1.921990 0.014910 
#    z 0.014480 0.014910 1.918060 
# 
# From -- ./inp_files/123778.got.cif
#   From: 2010.06.25/outbox.cif.g09.slc.cpg/sg2_62_cif.got.tgz:123778.got - 2010.06.27 13:26:56.
