data_PCOD8032084
_publ_section_title
;
Structure prediction by ZEFSAII (Michael W. Deem and Ramdas Pophale) SiO2 
 PCOD8032084
Probable space group: P -1
;
_chemical_formula_sum "Si O2"
_cell_formula_units_Z 16
_cell_length_a 12.351711
_cell_length_b 9.158488
_cell_length_c 13.835921
_cell_angle_alpha 118.950252
_cell_angle_beta 111.625435
_cell_angle_gamma 120.250929
_cell_volume 693.512083
_symmetry_space_group_name_H-M "P -1"
_symmetry_group_IT_number 2
_symmetry_cell_setting 'triclinic'
loop_
_space_group_symop_operation_xyz
x,y,z
-x,-y,-z
loop_
_atom_site_type_symbol
_atom_site_label
_atom_site_fract_x
_atom_site_fract_y
_atom_site_fract_z
Si Si1 0.069119 0.488796 0.761776
Si Si2 0.637108 0.447368 0.451912
Si Si3 0.086353 0.327109 0.208568
Si Si4 0.742582 0.652405 0.906472
Si Si5 0.778316 0.307539 0.330772
Si Si6 0.629472 0.290910 0.908662
Si Si7 0.299354 0.135889 0.494073
Si Si8 0.751096 0.157266 0.789162
O O1 0.221676 0.672164 0.777723
O O2 0.946495 0.516256 0.741628
O O3 0.212529 0.624478 0.945255
O O4 0.898213 0.130532 0.582038
O O5 0.725382 0.514332 0.609771
O O6 0.728113 0.426068 0.397797
O O7 0.723196 0.731012 0.539353
O O8 0.374749 0.127350 0.271468
O O9 0.139948 0.345184 0.120765
O O10 0.866183 0.974416 0.052941
O O11 0.727555 0.579836 0.991715
O O12 0.507782 0.405706 0.712096
O O13 0.000000 0.500000 0.500000
O O14 0.596895 0.956767 0.191960
O O15 0.607954 0.152061 0.758962
O O16 0.280999 0.945885 0.362665
O O17 0.000000 0.500000 0.000000
#
# Coordination Sequence:
#
# PCOD8032084 Si02
#       8
#     2   2   2   2   2   2   2   2
#     4  12  25  45  72  97 135 186 236 281 346 401
#     4  11  25  45  71 102 141 182 227 285 347 405
#     4  11  25  42  70 103 142 185 225 282 347 414
#     4  11  26  41  66 107 145 178 228 280 348 415
#     4  11  24  47  73  96 134 179 238 292 338 402
#     4  11  25  43  69 100 137 183 228 282 342 412
#     4  12  25  41  71 102 143 180 226 284 347 414
#     4  11  23  40  71 104 140 177 223 274 348 417
#
# _framework density 23.070974
#
# number of rings (size 3 to 8) (size 9 to 14) (size 15 to 20)
#    0.000    0.750    3.750    3.000    5.250    1.500 
#    0.000    0.625    0.000    0.000    0.000    0.000 
#    0.000    0.000    0.000    0.000    0.000    0.000 
#
# Total GULP energy -198306.092127 kJ/mol
# GULP energy per Si atom -12394.130758 kJ/mol
# Density = 2.301846 g / cm^3
# Si number density = 23.070974 Si / 1000 Ang^3
#
#
#
# Elastic Constant Matrix: (Units=GPa)
#
#
# Indices 1 2 3 4 5 6 
#
# 1 69.2954 45.4258 28.4868 8.1935 11.8977 8.0253
# 2 45.4258 193.2499 63.8955 26.0082 13.5495 3.8336
# 3 28.4868 63.8955 120.7145 25.7383 17.1141 -4.2497
# 4 8.1935 26.0082 25.7383 49.8743 5.0600 8.3696
# 5 11.8977 13.5495 17.1141 5.0600 33.3026 -0.0887
# 6 8.0253 3.8336 -4.2497 8.3696 -0.0887 28.6416
#
#
#
# Elastic Compliance Matrix: (Units=1/GPa)
#
#
# Indices 1 2 3 4 5 6 
#
# 1 0.018923 -0.003371 -0.002559 0.001352 -0.004294 -0.005639
# 2 -0.003371 0.007053 -0.002528 -0.001838 -0.000087 0.000162
# 3 -0.002559 -0.002528 0.011871 -0.004743 -0.003426 0.004192
# 4 0.001352 -0.001838 -0.004743 0.024695 -0.001071 -0.008056
# 5 -0.004294 -0.000087 -0.003426 -0.001071 0.033523 0.001123
# 6 -0.005639 0.000162 0.004192 -0.008056 0.001123 0.039452
#
#
# Mechanical properties :
#
#
# Convention : Reuss Voigt Hill
#
# Bulk Modulus (GPa) = 47.77647 73.20843 60.49245
# Shear Modulus (GPa) = 31.36545 38.72716 35.04631
#
# Velocity S-wave (km/s) = 3.69117 4.10153 3.90175
# Velocity P-wave (km/s) = 6.23857 7.36415 6.82461
#
# Compressibility (1/GPa) = 0.02093080
#
# Stress axis : x y z
#
# Youngs Moduli (GPa) = 52.84454 141.78228 84.24186
#
# Poissons Ratio (x) = 0.47794 0.21560
# Poissons Ratio (y) = 0.17814 0.21295
# Poissons Ratio (z) = 0.13525 0.35841
#
# Static dielectric constant tensor:
#      x y z
#    x 4.014680 0.297910 0.033870 
#    y 0.297910 4.696270 0.422180 
#    z 0.033870 0.422180 4.265140 
# 
# 
# High freq. dielectric constant tensor:
#      x y z
#    x 1.883860 0.008460 0.009110 
#    y 0.008460 1.933710 0.021360 
#    z 0.009110 0.021360 1.916930 
# 
# From -- ./inp_files/516109.got.cif
#   From: 2010.06.25/outbox.cif.g09.slc.cpg/sg2_259_cif.got.tgz:516109.got - 2010.06.27 13:26:56.
