data_PCOD8032161
_publ_section_title
;
Structure prediction by ZEFSAII (Michael W. Deem and Ramdas Pophale) SiO2 
 PCOD8032161
Probable space group: P -1
;
_chemical_formula_sum "Si O2"
_cell_formula_units_Z 14
_cell_length_a 12.630487
_cell_length_b 17.530926
_cell_length_c 18.244050
_cell_angle_alpha 150.352584
_cell_angle_beta 20.897507
_cell_angle_gamma 136.972840
_cell_volume 633.467815
_symmetry_space_group_name_H-M "P -1"
_symmetry_group_IT_number 2
_symmetry_cell_setting 'triclinic'
loop_
_space_group_symop_operation_xyz
x,y,z
-x,-y,-z
loop_
_atom_site_type_symbol
_atom_site_label
_atom_site_fract_x
_atom_site_fract_y
_atom_site_fract_z
Si Si1 0.396539 0.340771 0.019446
Si Si2 0.088249 0.530882 0.187951
Si Si3 0.280237 0.863512 0.756331
Si Si4 0.747461 0.824595 0.156415
Si Si5 0.282724 0.353398 0.334014
Si Si6 0.616432 0.074892 0.785057
Si Si7 0.249868 0.502459 0.898470
O O1 0.017711 0.492660 0.387396
O O2 0.621366 0.435606 0.935914
O O3 0.444118 0.196308 0.807978
O O4 0.507549 0.241721 0.941734
O O5 0.770314 0.638781 0.536831
O O6 0.177715 0.329731 0.964338
O O7 0.047429 0.581838 0.171470
O O8 0.463713 0.696084 0.445495
O O9 0.538348 0.928319 0.676315
O O10 0.099315 0.820357 0.904679
O O11 0.000000 0.000000 0.000000
O O12 0.500000 0.000000 0.500000
O O13 0.612812 0.371399 0.116846
O O14 0.370030 0.160711 0.086415
O O15 0.000000 0.000000 0.500000
O O16 0.000000 0.500000 0.000000
#
# Coordination Sequence:
#
# PCOD8032161 Si02
#       7
#     2   2   2   2   2   2   2
#     4  11  23  44  71  99 137 187 235 281 345 415
#     4  11  25  43  72 103 134 181 237 287 339 421
#     4  12  24  43  69 102 139 183 230 290 350 401
#     4  11  23  41  67 109 137 174 237 300 342 399
#     4  11  23  47  69 100 131 183 238 278 340 417
#     4  12  26  44  68 103 144 185 228 285 357 417
#     4  12  25  45  69  98 140 180 230 284 349 417
#
# _framework density 22.100569
#
# number of rings (size 3 to 8) (size 9 to 14) (size 15 to 20)
#    0.000    0.571    5.714    3.857    6.000    0.571 
#    0.000    0.714    0.000    0.000    0.000    0.000 
#    0.000    0.000    0.000    0.000    0.000    0.000 
#
# Total GULP energy -173526.524977 kJ/mol
# GULP energy per Si atom -12394.751784 kJ/mol
# Density = 2.205027 g / cm^3
# Si number density = 22.100569 Si / 1000 Ang^3
#
#
#
# Elastic Constant Matrix: (Units=GPa)
#
#
# Indices 1 2 3 4 5 6 
#
# 1 114.6719 22.0951 47.0713 -27.1489 15.2901 9.3999
# 2 22.0951 105.7488 13.5763 -25.1113 8.5225 10.8291
# 3 47.0713 13.5763 89.5548 -1.5627 24.2913 0.3833
# 4 -27.1489 -25.1113 -1.5627 35.7217 7.5540 9.9030
# 5 15.2901 8.5225 24.2913 7.5540 47.7539 -5.0164
# 6 9.3999 10.8291 0.3833 9.9030 -5.0164 38.1635
#
#
#
# Elastic Compliance Matrix: (Units=1/GPa)
#
#
# Indices 1 2 3 4 5 6 
#
# 1 0.017994 0.003987 -0.007720 0.020927 -0.007101 -0.011849
# 2 0.003987 0.014712 -0.002153 0.017633 -0.006709 -0.010593
# 3 -0.007720 -0.002153 0.016531 -0.006778 -0.004106 0.003566
# 4 0.020927 0.017633 -0.006778 0.068831 -0.020507 -0.030646
# 5 -0.007101 -0.006709 -0.004106 -0.020507 0.031121 0.013106
# 6 -0.011849 -0.010593 0.003566 -0.030646 0.013106 0.041767
#
#
# Mechanical properties :
#
#
# Convention : Reuss Voigt Hill
#
# Bulk Modulus (GPa) = 26.69234 52.82899 39.76067
# Shear Modulus (GPa) = 23.23234 39.47667 31.35451
#
# Velocity S-wave (km/s) = 3.24575 4.23097 3.77068
# Velocity P-wave (km/s) = 5.11375 6.91548 6.08171
#
# Compressibility (1/GPa) = 0.03746393
#
# Stress axis : x y z
#
# Youngs Moduli (GPa) = 55.57345 67.96960 60.49291
#
# Poissons Ratio (x) = -0.27096 0.46703
# Poissons Ratio (y) = -0.22155 0.13024
# Poissons Ratio (z) = 0.42905 0.14633
#
# Static dielectric constant tensor:
#      x y z
#    x 3.887840 -0.046960 -0.023310 
#    y -0.046960 4.048350 -0.503540 
#    z -0.023310 -0.503540 3.249350 
# 
# 
# High freq. dielectric constant tensor:
#      x y z
#    x 1.866050 0.013700 0.018040 
#    y 0.013700 1.885170 0.000880 
#    z 0.018040 0.000880 1.863600 
# 
# From -- ./inp_files/570355.got.cif
#   From: 2010.06.25/outbox.cif.g09.slc.cpg/sg2_286_cif.got.tgz:570355.got - 2010.06.27 13:26:56.
