data_PCOD8032800
_publ_section_title
;
Structure prediction by ZEFSAII (Michael W. Deem and Ramdas Pophale) SiO2 
 PCOD8032800
Probable space group: P -1
;
_chemical_formula_sum "Si O2"
_cell_formula_units_Z 14
_cell_length_a 16.718928
_cell_length_b 9.213781
_cell_length_c 10.262194
_cell_angle_alpha 108.923606
_cell_angle_beta 35.520475
_cell_angle_gamma 132.336117
_cell_volume 579.420680
_symmetry_space_group_name_H-M "P -1"
_symmetry_group_IT_number 2
_symmetry_cell_setting 'triclinic'
loop_
_space_group_symop_operation_xyz
x,y,z
-x,-y,-z
loop_
_atom_site_type_symbol
_atom_site_label
_atom_site_fract_x
_atom_site_fract_y
_atom_site_fract_z
Si Si1 0.088954 0.742527 0.469314
Si Si2 0.751693 0.515664 0.042394
Si Si3 0.462157 0.013691 0.223883
Si Si4 0.475427 0.480712 0.233669
Si Si5 0.715973 0.150370 0.327630
Si Si6 0.349627 0.145311 0.081859
Si Si7 0.867642 0.603040 0.216223
O O1 0.332776 0.929500 0.238100
O O2 0.000000 0.500000 0.500000
O O3 0.119254 0.878686 0.340592
O O4 0.959473 0.723440 0.745440
O O5 0.583853 0.507115 0.228267
O O6 0.793464 0.547836 0.148937
O O7 0.674332 0.285397 0.025650
O O8 0.322249 0.958434 0.513299
O O9 0.495944 0.862903 0.162376
O O10 0.431946 0.303099 0.145165
O O11 0.254504 0.371204 0.531995
O O12 0.639052 0.732970 0.022242
O O13 0.823160 0.402357 0.280282
O O14 0.500000 0.000000 0.500000
O O15 0.880454 0.172064 0.043562
#
# Coordination Sequence:
#
# PCOD8032800 Si02
#       7
#     2   2   2   2   2   2   2
#     4  12  24  42  73 107 138 190 248 294 350 419
#     4  12  24  43  73 106 143 189 239 299 350 425
#     4  12  22  45  71 104 143 181 249 300 348 415
#     4  11  25  46  68 105 155 189 229 290 367 430
#     4  11  23  43  73 105 136 182 239 305 350 416
#     4  11  24  45  70 101 147 191 233 301 349 427
#     4  11  24  45  71 105 141 185 242 288 362 431
#
# _framework density 24.162064000000001
#
# number of rings (size 3 to 8) (size 9 to 14) (size 15 to 20)
#    0.000    0.571    7.143    1.714    0.000    0.571 
#    2.571    1.429    0.000    0.000    0.000    0.000 
#    0.000    0.000    0.000    0.000    0.000    0.000 
#
# Total GULP energy -173498.844757 kJ/mol
# GULP energy per Si atom -12392.774625 kJ/mol
# Density = 2.410707 g / cm^3
# Si number density = 24.162064 Si / 1000 Ang^3
#
#
#
# Elastic Constant Matrix: (Units=GPa)
#
#
# Indices 1 2 3 4 5 6 
#
# 1 85.2781 24.8949 20.9604 -11.3652 -1.5048 -7.2739
# 2 24.8949 98.5863 38.9962 -11.6299 4.8642 -18.2664
# 3 20.9604 38.9962 139.6033 -7.8129 -0.1965 -7.3097
# 4 -11.3652 -11.6299 -7.8129 34.7319 -6.7030 1.8853
# 5 -1.5048 4.8642 -0.1965 -6.7030 44.7360 -5.9964
# 6 -7.2739 -18.2664 -7.3097 1.8853 -5.9964 34.3476
#
#
#
# Elastic Compliance Matrix: (Units=1/GPa)
#
#
# Indices 1 2 3 4 5 6 
#
# 1 0.013282 -0.002324 -0.001073 0.003523 0.001411 0.001401
# 2 -0.002324 0.013276 -0.002911 0.002647 -0.000369 0.005739
# 3 -0.001073 -0.002911 0.008171 0.000590 0.000405 0.000002
# 4 0.003523 0.002647 0.000590 0.031813 0.004783 0.001368
# 5 0.001411 -0.000369 0.000405 0.004783 0.023704 0.004065
# 6 0.001401 0.005739 0.000002 0.001368 0.004065 0.033098
#
#
# Mechanical properties :
#
#
# Convention : Reuss Voigt Hill
#
# Bulk Modulus (GPa) = 45.22180 54.79674 50.00927
# Shear Modulus (GPa) = 34.88432 38.67084 36.77758
#
# Velocity S-wave (km/s) = 3.80381 4.00494 3.90567
# Velocity P-wave (km/s) = 6.16836 6.64184 6.40947
#
# Compressibility (1/GPa) = 0.02211323
#
# Stress axis : x y z
#
# Youngs Moduli (GPa) = 75.28777 75.32608 122.38227
#
# Poissons Ratio (x) = 0.17507 0.13126
# Poissons Ratio (y) = 0.17498 0.35629
# Poissons Ratio (z) = 0.08075 0.21930
#
# Static dielectric constant tensor:
#      x y z
#    x 4.361380 -0.231290 0.255270 
#    y -0.231290 4.182170 -0.139370 
#    z 0.255270 -0.139370 4.941770 
# 
# 
# High freq. dielectric constant tensor:
#      x y z
#    x 1.952130 -0.017510 0.021170 
#    y -0.017510 1.940440 -0.003140 
#    z 0.021170 -0.003140 1.984150 
# 
# From -- ./inp_files/405304.got.cif
#   From: 2010.06.25/outbox.cif.g09.slc.cpg/sg2_203_cif.got.tgz:405304.got - 2010.06.27 13:26:56.
