data_PCOD8032988
_publ_section_title
;
Structure prediction by ZEFSAII (Michael W. Deem and Ramdas Pophale) SiO2 
 PCOD8032988
Probable space group: P -1
;
_chemical_formula_sum "Si O2"
_cell_formula_units_Z 12
_cell_length_a 17.286078
_cell_length_b 13.539083
_cell_length_c 10.940549
_cell_angle_alpha 146.652577
_cell_angle_beta 36.080708
_cell_angle_gamma 156.753798
_cell_volume 545.695085
_symmetry_space_group_name_H-M "P -1"
_symmetry_group_IT_number 2
_symmetry_cell_setting 'triclinic'
loop_
_space_group_symop_operation_xyz
x,y,z
-x,-y,-z
loop_
_atom_site_type_symbol
_atom_site_label
_atom_site_fract_x
_atom_site_fract_y
_atom_site_fract_z
Si Si1 0.589817 0.701199 0.767109
Si Si2 0.100690 0.795163 0.966610
Si Si3 0.466705 0.600442 0.258466
Si Si4 0.076157 0.384164 0.501131
Si Si5 0.904356 0.096905 0.196939
Si Si6 0.812345 0.797079 0.347256
O O1 0.637588 0.593692 0.690834
O O2 0.699638 0.781858 0.583188
O O3 0.350682 0.464431 0.806250
O O4 0.687211 0.976093 0.994691
O O5 0.943694 0.768201 0.204908
O O6 0.105770 0.870031 0.898395
O O7 0.027323 0.513794 0.774065
O O8 0.314448 0.601321 0.419873
O O9 0.682249 0.892453 0.323282
O O10 0.500000 0.500000 0.000000
O O11 0.027660 0.364746 0.399131
O O12 0.948871 0.083774 0.400866
O O13 0.000000 0.000000 0.000000
#
# Coordination Sequence:
#
# PCOD8032988 Si02
#       6
#     2   2   2   2   2   2
#     4  11  23  44  70  93 125 181 213 259 330 378
#     4  12  25  42  68  96 132 169 214 271 318 383
#     4  12  21  40  70  90 128 171 212 263 318 383
#     4  12  26  40  67 101 127 171 215 267 325 377
#     4  12  21  42  68  92 132 171 211 263 324 379
#     4  11  24  46  67  91 134 170 218 266 316 387
#
# _framework density 21.990302
#
# number of rings (size 3 to 8) (size 9 to 14) (size 15 to 20)
#    0.000    0.333    8.333    1.000    0.000    2.667 
#    0.000    1.667    0.000    0.000    0.000    0.000 
#    0.000    0.000    0.000    0.000    0.000    0.000 
#
# Total GULP energy -148694.704035 kJ/mol
# GULP energy per Si atom -12391.225336 kJ/mol
# Density = 2.194025 g / cm^3
# Si number density = 21.990302 Si / 1000 Ang^3
#
#
#
# Elastic Constant Matrix: (Units=GPa)
#
#
# Indices 1 2 3 4 5 6 
#
# 1 72.0746 38.5423 21.7724 4.5674 8.5667 20.7903
# 2 38.5423 120.5594 48.1088 5.0236 -10.6653 33.0722
# 3 21.7724 48.1088 90.5553 14.7687 -15.3134 10.5752
# 4 4.5674 5.0236 14.7687 35.4257 2.1059 12.0678
# 5 8.5667 -10.6653 -15.3134 2.1059 30.7334 -1.9489
# 6 20.7903 33.0722 10.5752 12.0678 -1.9489 37.0473
#
#
#
# Elastic Compliance Matrix: (Units=1/GPa)
#
#
# Indices 1 2 3 4 5 6 
#
# 1 0.020494 -0.003455 -0.004246 0.003183 -0.009800 -0.008757
# 2 -0.003455 0.014851 -0.006175 0.004512 0.002038 -0.010918
# 3 -0.004246 -0.006175 0.017486 -0.008471 0.008722 0.006122
# 4 0.003183 0.004512 -0.008471 0.036455 -0.007032 -0.015642
# 5 -0.009800 0.002038 0.008722 -0.007032 0.041163 0.005647
# 6 -0.008757 -0.010918 0.006122 -0.015642 0.005647 0.045298
#
#
# Mechanical properties :
#
#
# Convention : Reuss Voigt Hill
#
# Bulk Modulus (GPa) = 39.87413 55.55958 47.71686
# Shear Modulus (GPa) = 23.60067 32.29232 27.94649
#
# Velocity S-wave (km/s) = 3.27957 3.83623 3.56877
# Velocity P-wave (km/s) = 5.70200 6.70392 6.22316
#
# Compressibility (1/GPa) = 0.02507891
#
# Stress axis : x y z
#
# Youngs Moduli (GPa) = 48.79530 67.33624 57.18894
#
# Poissons Ratio (x) = 0.23264 0.24281
# Poissons Ratio (y) = 0.16858 0.35315
# Poissons Ratio (z) = 0.20717 0.41582
#
# Static dielectric constant tensor:
#      x y z
#    x 4.157330 0.529460 0.235000 
#    y 0.529460 4.501040 0.082590 
#    z 0.235000 0.082590 3.883080 
# 
# 
# High freq. dielectric constant tensor:
#      x y z
#    x 1.867610 0.025940 0.021410 
#    y 0.025940 1.874580 -0.002490 
#    z 0.021410 -0.002490 1.845290 
# 
# From -- ./inp_files/281578.got.cif
#   From: 2010.06.25/outbox.cif.g09.slc.cpg/sg2_141_cif.got.tgz:281578.got - 2010.06.27 13:26:56.
