data_PCOD8032240
_publ_section_title
;
Structure prediction by ZEFSAII (Michael W. Deem and Ramdas Pophale) SiO2 
 PCOD8032240
Probable space group: P -1
;
_chemical_formula_sum "Si O2"
_cell_formula_units_Z 16
_cell_length_a 14.907606
_cell_length_b 12.097717
_cell_length_c 12.081647
_cell_angle_alpha 97.956753
_cell_angle_beta 160.957856
_cell_angle_gamma 79.345971
_cell_volume 694.140591
_symmetry_space_group_name_H-M "P -1"
_symmetry_group_IT_number 2
_symmetry_cell_setting 'triclinic'
loop_
_space_group_symop_operation_xyz
x,y,z
-x,-y,-z
loop_
_atom_site_type_symbol
_atom_site_label
_atom_site_fract_x
_atom_site_fract_y
_atom_site_fract_z
Si Si1 0.748165 0.761148 0.869183
Si Si2 0.893289 0.701067 0.783990
Si Si3 0.572604 0.708747 0.213511
Si Si4 0.211999 0.899950 0.175747
Si Si5 0.465960 0.045562 0.845435
Si Si6 0.134553 0.574559 0.753833
Si Si7 0.281179 0.484413 0.144521
Si Si8 0.877141 0.976275 0.120126
O O1 0.843189 0.714019 0.855303
O O2 0.459994 0.850845 0.542100
O O3 0.742356 0.647820 0.916578
O O4 0.959088 0.839982 0.175025
O O5 0.602463 0.732007 0.383299
O O6 0.087040 0.788461 0.980113
O O7 0.007360 0.568280 0.876440
O O8 0.489444 0.825940 0.070351
O O9 0.876260 0.655729 0.516787
O O10 0.327774 0.635520 0.906354
O O11 0.317232 0.956349 0.194778
O O12 0.000000 0.000000 0.000000
O O13 0.159583 0.029246 0.446840
O O14 0.500000 0.000000 0.000000
O O15 0.713398 0.987751 0.046135
O O16 0.000000 0.500000 0.500000
O O17 0.329851 0.515717 0.075762
O O18 0.500000 0.500000 0.500000
#
# Coordination Sequence:
#
# PCOD8032240 Si02
#       8
#     2   2   2   2   2   2   2   2
#     4  12  25  40  68 103 149 183 228 298 364 435
#     4  11  23  41  71 100 143 188 233 286 363 437
#     4  11  24  45  73  98 136 183 237 297 349 430
#     4  12  23  42  66 105 145 189 229 287 362 446
#     4  12  27  46  70 100 136 182 245 300 360 418
#     4  11  26  48  73 102 136 190 243 292 358 434
#     4  11  24  44  70 106 142 186 240 301 365 423
#     4  12  26  44  68 103 140 188 234 288 365 441
#
# _framework density 23.050084999999999
#
# number of rings (size 3 to 8) (size 9 to 14) (size 15 to 20)
#    0.000    0.500    3.750    4.500    3.500    3.000 
#    0.000    0.000    0.000    0.000    0.000    0.000 
#    0.000    0.000    0.000    0.000    0.000    0.000 
#
# Total GULP energy -198228.334904 kJ/mol
# GULP energy per Si atom -12389.270931 kJ/mol
# Density = 2.299762 g / cm^3
# Si number density = 23.050085 Si / 1000 Ang^3
#
#
#
# Elastic Constant Matrix: (Units=GPa)
#
#
# Indices 1 2 3 4 5 6 
#
# 1 84.5005 23.3966 14.4963 -18.8239 -5.6127 15.2397
# 2 23.3966 162.0197 30.2841 -5.4479 0.5365 26.5174
# 3 14.4963 30.2841 69.1301 5.6644 -0.3590 11.7145
# 4 -18.8239 -5.4479 5.6644 33.6209 0.9581 6.6441
# 5 -5.6127 0.5365 -0.3590 0.9581 43.4671 0.9448
# 6 15.2397 26.5174 11.7145 6.6441 0.9448 36.7207
#
#
#
# Elastic Compliance Matrix: (Units=1/GPa)
#
#
# Indices 1 2 3 4 5 6 
#
# 1 0.016414 -0.000172 -0.002945 0.011145 0.002022 -0.007817
# 2 -0.000172 0.007605 -0.002653 0.002581 -0.000085 -0.005038
# 3 -0.002945 -0.002653 0.016862 -0.004641 -0.000075 -0.001400
# 4 0.011145 0.002581 -0.004641 0.039570 0.000762 -0.012188
# 5 0.002022 -0.000085 -0.000075 0.000762 0.023283 -0.001490
# 6 -0.007817 -0.005038 -0.001400 -0.012188 -0.001490 0.036805
#
#
# Mechanical properties :
#
#
# Convention : Reuss Voigt Hill
#
# Bulk Modulus (GPa) = 34.08292 50.22271 42.15281
# Shear Modulus (GPa) = 30.89085 39.25994 35.07540
#
# Velocity S-wave (km/s) = 3.66479 4.13152 3.90513
# Velocity P-wave (km/s) = 5.72068 6.67795 6.21777
#
# Compressibility (1/GPa) = 0.02934021
#
# Stress axis : x y z
#
# Youngs Moduli (GPa) = 60.92381 131.49895 59.30374
#
# Poissons Ratio (x) = 0.02268 0.17462
# Poissons Ratio (y) = 0.01051 0.15735
# Poissons Ratio (z) = 0.17939 0.34891
#
# Static dielectric constant tensor:
#      x y z
#    x 4.575760 0.119210 0.015890 
#    y 0.119210 4.803990 0.394540 
#    z 0.015890 0.394540 4.734640 
# 
# 
# High freq. dielectric constant tensor:
#      x y z
#    x 1.910290 0.005150 -0.000270 
#    y 0.005150 1.930680 0.010550 
#    z -0.000270 0.010550 1.898960 
# 
# From -- ./inp_files/452528.got.cif
#   From: 2010.06.25/outbox.cif.g09.slc.cpg/sg2_227_cif.got.tgz:452528.got - 2010.06.27 13:26:56.
