data_PCOD8032376
_publ_section_title
;
Structure prediction by ZEFSAII (Michael W. Deem and Ramdas Pophale) SiO2 
 PCOD8032376
Probable space group: P -1
;
_chemical_formula_sum "Si O2"
_cell_formula_units_Z 14
_cell_length_a 26.042922
_cell_length_b 8.678312
_cell_length_c 9.333434
_cell_angle_alpha 131.159084
_cell_angle_beta 150.193751
_cell_angle_gamma 39.943225
_cell_volume 673.021894
_symmetry_space_group_name_H-M "P -1"
_symmetry_group_IT_number 2
_symmetry_cell_setting 'triclinic'
loop_
_space_group_symop_operation_xyz
x,y,z
-x,-y,-z
loop_
_atom_site_type_symbol
_atom_site_label
_atom_site_fract_x
_atom_site_fract_y
_atom_site_fract_z
Si Si1 0.155414 0.774558 0.435283
Si Si2 0.117713 0.456851 0.946247
Si Si3 0.387606 0.763765 0.912583
Si Si4 0.353808 0.952018 0.258384
Si Si5 0.748153 0.368580 0.113290
Si Si6 0.556904 0.912693 0.929305
Si Si7 0.948642 0.292003 0.349223
O O1 0.263283 0.765425 0.599589
O O2 0.210817 0.622909 0.621211
O O3 0.091193 0.663948 0.121674
O O4 0.058220 0.047954 0.401804
O O5 0.130931 0.533833 0.865744
O O6 0.004738 0.418227 0.656543
O O7 0.241000 0.219389 0.140672
O O8 0.500000 0.500000 0.000000
O O9 0.402682 0.852875 0.158224
O O10 0.383096 0.936933 0.882515
O O11 0.455581 0.960055 0.598653
O O12 0.316651 0.783109 0.146575
O O13 0.865072 0.239481 0.215008
O O14 0.658497 0.635096 0.005306
O O15 0.500000 0.000000 0.000000
#
# Coordination Sequence:
#
# PCOD8032376 Si02
#       7
#     2   2   2   2   2   2   2
#     4  11  24  45  65  99 135 170 221 268 327 394
#     4  11  23  42  70  92 133 173 219 267 327 384
#     4  11  23  42  68  93 131 175 221 270 326 393
#     4  11  23  45  66  95 133 174 218 272 332 389
#     4  11  24  42  67  96 136 171 215 273 327 387
#     4  12  25  42  66 100 132 172 223 272 329 392
#     4  11  24  44  66  97 135 169 224 269 323 390
#
# _framework density 20.801701999999999
#
# number of rings (size 3 to 8) (size 9 to 14) (size 15 to 20)
#    0.000    0.857    2.857    6.000    2.000    2.857 
#    2.571    0.000    0.000    0.000    0.000    0.000 
#    0.000    0.000    0.000    0.000    0.000    0.000 
#
# Total GULP energy -173698.797481 kJ/mol
# GULP energy per Si atom -12407.056963 kJ/mol
# Density = 2.075436 g / cm^3
# Si number density = 20.801702 Si / 1000 Ang^3
#
#
#
# Elastic Constant Matrix: (Units=GPa)
#
#
# Indices 1 2 3 4 5 6 
#
# 1 113.3132 37.7238 14.4469 -2.7498 24.6414 10.6390
# 2 37.7238 94.2404 41.9871 -6.5872 9.0552 20.1654
# 3 14.4469 41.9871 64.1772 -0.8517 -7.4179 3.2378
# 4 -2.7498 -6.5872 -0.8517 38.3311 -4.3610 -7.1348
# 5 24.6414 9.0552 -7.4179 -4.3610 32.3468 -2.2498
# 6 10.6390 20.1654 3.2378 -7.1348 -2.2498 37.9678
#
#
#
# Elastic Compliance Matrix: (Units=1/GPa)
#
#
# Indices 1 2 3 4 5 6 
#
# 1 0.012207 -0.002609 -0.002006 -0.001175 -0.009370 -0.002639
# 2 -0.002609 0.020100 -0.012923 0.000454 -0.007180 -0.009182
# 3 -0.002006 -0.012923 0.025521 0.000638 0.011506 0.006051
# 4 -0.001175 0.000454 0.000638 0.027700 0.005034 0.005537
# 5 -0.009370 -0.007180 0.011506 0.005034 0.044007 0.009012
# 6 -0.002639 -0.009182 0.006051 0.005537 0.009012 0.033013
#
#
# Mechanical properties :
#
#
# Convention : Reuss Voigt Hill
#
# Bulk Modulus (GPa) = 43.95567 51.11624 47.53595
# Shear Modulus (GPa) = 24.36539 33.56733 28.96636
#
# Velocity S-wave (km/s) = 3.42616 4.02142 3.73567
# Velocity P-wave (km/s) = 6.06862 6.79624 6.44271
#
# Compressibility (1/GPa) = 0.02275020
#
# Stress axis : x y z
#
# Youngs Moduli (GPa) = 81.92286 49.75150 39.18275
#
# Poissons Ratio (x) = 0.12982 0.07861
# Poissons Ratio (y) = 0.21377 0.50637
# Poissons Ratio (z) = 0.16435 0.64296
#
# Static dielectric constant tensor:
#      x y z
#    x 4.074280 0.027630 -0.276940 
#    y 0.027630 3.901170 0.192270 
#    z -0.276940 0.192270 4.474720 
# 
# 
# High freq. dielectric constant tensor:
#      x y z
#    x 1.819850 0.007560 0.001430 
#    y 0.007560 1.831260 -0.003220 
#    z 0.001430 -0.003220 1.818810 
# 
# From -- ./inp_files/168194.got.cif
#   From: 2010.06.25/outbox.cif.g09.slc.cpg/sg2_85_cif.got.tgz:168194.got - 2010.06.27 13:26:56.
