data_PCOD8032953
_publ_section_title
;
Structure prediction by ZEFSAII (Michael W. Deem and Ramdas Pophale) SiO2 
 PCOD8032953
Probable space group: P -1
;
_chemical_formula_sum "Si O2"
_cell_formula_units_Z 16
_cell_length_a 8.773356
_cell_length_b 17.118425
_cell_length_c 11.507774
_cell_angle_alpha 139.129071
_cell_angle_beta 51.635700
_cell_angle_gamma 98.460163
_cell_volume 690.066226
_symmetry_space_group_name_H-M "P -1"
_symmetry_group_IT_number 2
_symmetry_cell_setting 'triclinic'
loop_
_space_group_symop_operation_xyz
x,y,z
-x,-y,-z
loop_
_atom_site_type_symbol
_atom_site_label
_atom_site_fract_x
_atom_site_fract_y
_atom_site_fract_z
Si Si1 0.563727 0.097581 0.515690
Si Si2 0.883926 0.650995 0.873465
Si Si3 0.739974 0.349569 0.159929
Si Si4 0.455529 0.219692 0.455632
Si Si5 0.388648 0.517326 0.875860
Si Si6 0.866153 0.064905 0.899345
Si Si7 0.034662 0.643940 0.549486
Si Si8 0.926375 0.777285 0.514641
O O1 0.485265 0.126154 0.449911
O O2 0.500000 0.000000 0.500000
O O3 0.400952 0.257440 0.845647
O O4 0.849614 0.020145 0.300250
O O5 0.015136 0.473842 0.594939
O O6 0.016773 0.675341 0.938722
O O7 0.904982 0.718625 0.819389
O O8 0.500000 0.500000 0.500000
O O9 0.721584 0.368422 0.052616
O O10 0.755413 0.203607 0.018052
O O11 0.360755 0.386699 0.725738
O O12 0.252037 0.242204 0.491899
O O13 0.716916 0.129525 0.163324
O O14 0.673337 0.440967 0.677079
O O15 0.214749 0.629883 0.189852
O O16 0.849883 0.942331 0.706757
O O17 0.894815 0.777451 0.669556
#
# Coordination Sequence:
#
# PCOD8032953 Si02
#       8
#     2   2   2   2   2   2   2   2
#     4  12  26  46  74 106 143 182 249 291 358 428
#     4  11  23  44  69 108 139 191 237 298 353 430
#     4  12  23  46  72 105 139 193 244 284 356 427
#     4  12  26  49  75 104 143 197 240 293 361 435
#     4  12  24  46  76 102 146 192 245 294 349 435
#     4  12  27  47  73 108 150 190 234 302 362 427
#     4  11  24  42  72 104 146 189 237 293 363 425
#     4  12  27  45  71 110 148 185 241 301 362 422
#
# _framework density 23.186181000000001
#
# number of rings (size 3 to 8) (size 9 to 14) (size 15 to 20)
#    0.000    0.250    3.750    5.250    1.750    0.500 
#    2.250    0.000    0.000    0.000    0.000    0.000 
#    0.000    0.000    0.000    0.000    0.000    0.000 
#
# Total GULP energy -198480.006661 kJ/mol
# GULP energy per Si atom -12405.000416 kJ/mol
# Density = 2.313341 g / cm^3
# Si number density = 23.186181 Si / 1000 Ang^3
#
#
#
# Elastic Constant Matrix: (Units=GPa)
#
#
# Indices 1 2 3 4 5 6 
#
# 1 89.6222 65.2259 16.1555 2.5834 -1.8341 -8.6681
# 2 65.2259 149.7618 30.1801 10.0638 -3.7481 -13.1358
# 3 16.1555 30.1801 107.0161 -1.1273 -11.4889 1.7910
# 4 2.5834 10.0638 -1.1273 44.1857 12.0686 7.4788
# 5 -1.8341 -3.7481 -11.4889 12.0686 28.8793 3.5709
# 6 -8.6681 -13.1358 1.7910 7.4788 3.5709 42.1481
#
#
#
# Elastic Compliance Matrix: (Units=1/GPa)
#
#
# Indices 1 2 3 4 5 6 
#
# 1 0.016435 -0.006988 -0.000574 0.000545 -0.000464 0.001169
# 2 -0.006988 0.010506 -0.001866 -0.002702 0.001021 0.002309
# 3 -0.000574 -0.001866 0.010421 -0.000151 0.004111 -0.001464
# 4 0.000545 -0.002702 -0.000151 0.027018 -0.011101 -0.004577
# 5 -0.000464 0.001021 0.004111 -0.011101 0.041187 -0.001472
# 6 0.001169 0.002309 -0.001464 -0.004577 -0.001472 0.025685
#
#
# Mechanical properties :
#
#
# Convention : Reuss Voigt Hill
#
# Bulk Modulus (GPa) = 54.03094 63.28033 58.65563
# Shear Modulus (GPa) = 31.99446 38.69853 35.34650
#
# Velocity S-wave (km/s) = 3.71872 4.08981 3.90867
# Velocity P-wave (km/s) = 6.46469 7.04653 6.76187
#
# Compressibility (1/GPa) = 0.01850791
#
# Stress axis : x y z
#
# Youngs Moduli (GPa) = 60.84547 95.18040 95.95606
#
# Poissons Ratio (x) = 0.66512 0.05508
# Poissons Ratio (y) = 0.42519 0.17901
# Poissons Ratio (z) = 0.03492 0.17756
#
# Static dielectric constant tensor:
#      x y z
#    x 5.374310 6.676070 -1.385940 
#    y 6.676070 43.751700 -8.126420 
#    z -1.385940 -8.126420 6.260770 
# 
# 
# High freq. dielectric constant tensor:
#      x y z
#    x 1.912840 0.000630 -0.002100 
#    y 0.000630 1.932340 -0.004540 
#    z -0.002100 -0.004540 1.929320 
# 
# From -- ./inp_files/383366.got.cif
#   From: 2010.06.25/outbox.cif.g09.slc.cpg/sg2_192_cif.got.tgz:383366.got - 2010.06.27 13:26:56.
