data_PCOD8032457
_publ_section_title
;
Structure prediction by ZEFSAII (Michael W. Deem and Ramdas Pophale) SiO2 
 PCOD8032457
Probable space group: P -1
;
_chemical_formula_sum "Si O2"
_cell_formula_units_Z 16
_cell_length_a 12.235253
_cell_length_b 9.563964
_cell_length_c 8.135918
_cell_angle_alpha 115.173703
_cell_angle_beta 125.036372
_cell_angle_gamma 57.395388
_cell_volume 647.320920
_symmetry_space_group_name_H-M "P -1"
_symmetry_group_IT_number 2
_symmetry_cell_setting 'triclinic'
loop_
_space_group_symop_operation_xyz
x,y,z
-x,-y,-z
loop_
_atom_site_type_symbol
_atom_site_label
_atom_site_fract_x
_atom_site_fract_y
_atom_site_fract_z
Si Si1 0.935657 0.191559 0.589227
Si Si2 0.581615 0.046071 0.448023
Si Si3 0.335512 0.025949 0.030564
Si Si4 0.576466 0.406342 0.681933
Si Si5 0.813708 0.418563 0.104746
Si Si6 0.189214 0.228913 0.685290
Si Si7 0.335679 0.679858 0.784421
Si Si8 0.953195 0.864407 0.981270
O O1 0.763780 0.277712 0.445825
O O2 0.961332 0.199174 0.806655
O O3 0.016947 0.278221 0.583618
O O4 0.000000 0.000000 0.500000
O O5 0.474529 0.069041 0.211691
O O6 0.605155 0.211650 0.598530
O O7 0.500000 0.000000 0.500000
O O8 0.739045 0.898661 0.468253
O O9 0.257485 0.142611 0.871522
O O10 0.220793 0.067651 0.106419
O O11 0.391840 0.828780 0.934721
O O12 0.500000 0.500000 0.500000
O O13 0.468088 0.499514 0.786103
O O14 0.725840 0.426573 0.862520
O O15 0.787345 0.601539 0.240163
O O16 0.759701 0.320852 0.142545
O O17 0.985197 0.305582 0.162323
O O18 0.000000 0.000000 0.000000
#
# Coordination Sequence:
#
# PCOD8032457 Si02
#       8
#     2   2   2   2   2   2   2   2
#     4  11  23  42  71  99 134 180 224 270 336 405
#     4  12  26  42  66  99 133 176 225 281 330 397
#     4  11  23  44  68  94 135 180 221 269 338 401
#     4  12  26  42  68  98 133 178 228 279 331 401
#     4  12  25  43  68 100 136 176 222 281 335 397
#     4  11  25  44  68  96 136 178 219 276 338 397
#     4  12  23  44  68  98 135 180 223 274 335 402
#     4  11  23  42  71 101 133 179 224 273 335 403
#
# _framework density 24.71726
#
# number of rings (size 3 to 8) (size 9 to 14) (size 15 to 20)
#    0.000    0.500    3.750    5.250    1.750    4.500 
#    0.000    0.000    0.000    0.000    0.000    0.000 
#    0.000    0.000    0.000    0.000    0.000    0.000 
#
# Total GULP energy -198418.523723 kJ/mol
# GULP energy per Si atom -12401.157733 kJ/mol
# Density = 2.466100 g / cm^3
# Si number density = 24.717260 Si / 1000 Ang^3
#
#
#
# Elastic Constant Matrix: (Units=GPa)
#
#
# Indices 1 2 3 4 5 6 
#
# 1 100.6527 31.7881 -1.4912 12.1354 -5.1838 -20.9263
# 2 31.7881 135.8813 13.3972 39.5309 2.3085 -18.9007
# 3 -1.4912 13.3972 42.1520 20.8422 7.5530 -8.7811
# 4 12.1354 39.5309 20.8422 38.0352 2.1174 -9.4173
# 5 -5.1838 2.3085 7.5530 2.1174 42.1265 -1.4844
# 6 -20.9263 -18.9007 -8.7811 -9.4173 -1.4844 47.0453
#
#
#
# Elastic Compliance Matrix: (Units=1/GPa)
#
#
# Indices 1 2 3 4 5 6 
#
# 1 0.011863 -0.001693 0.002965 -0.002565 0.001315 0.004678
# 2 -0.001693 0.011328 0.002957 -0.012357 -0.000673 0.001855
# 3 0.002965 0.002957 0.035683 -0.022166 -0.004920 0.004575
# 4 -0.002565 -0.012357 -0.022166 0.052061 0.001727 0.000233
# 5 0.001315 -0.000673 -0.004920 0.001727 0.024750 0.000523
# 6 0.004678 0.001855 0.004575 0.000233 0.000523 0.024999
#
#
# Mechanical properties :
#
#
# Convention : Reuss Voigt Hill
#
# Bulk Modulus (GPa) = 14.85163 40.67489 27.76326
# Shear Modulus (GPa) = 28.62502 41.10750 34.86626
#
# Velocity S-wave (km/s) = 3.40678 4.08255 3.75988
# Velocity P-wave (km/s) = 4.63643 6.22212 5.48686
#
# Compressibility (1/GPa) = 0.06733268
#
# Stress axis : x y z
#
# Youngs Moduli (GPa) = 84.29284 88.27416 28.02423
#
# Poissons Ratio (x) = 0.14945 -0.08310
# Poissons Ratio (y) = 0.14271 -0.08286
# Poissons Ratio (z) = -0.24994 -0.26099
#
# Static dielectric constant tensor:
#      x y z
#    x 4.057920 -0.274260 -1.102770 
#    y -0.274260 4.247180 -0.038160 
#    z -1.102770 -0.038160 2.861640 
# 
# 
# High freq. dielectric constant tensor:
#      x y z
#    x 1.998190 -0.012410 -0.009960 
#    y -0.012410 1.981750 -0.004010 
#    z -0.009960 -0.004010 1.987260 
# 
# From -- ./inp_files/245220.got.cif
#   From: 2010.06.25/outbox.cif.g09.slc.cpg/sg2_123_cif.got.tgz:245220.got - 2010.06.27 13:26:56.
