data_PCOD8032919
_publ_section_title
;
Structure prediction by ZEFSAII (Michael W. Deem and Ramdas Pophale) SiO2 
 PCOD8032919
Probable space group: P -1
;
_chemical_formula_sum "Si O2"
_cell_formula_units_Z 16
_cell_length_a 18.105910
_cell_length_b 20.834036
_cell_length_c 8.998047
_cell_angle_alpha 138.014854
_cell_angle_beta 140.123124
_cell_angle_gamma 19.327883
_cell_volume 717.320534
_symmetry_space_group_name_H-M "P -1"
_symmetry_group_IT_number 2
_symmetry_cell_setting 'triclinic'
loop_
_space_group_symop_operation_xyz
x,y,z
-x,-y,-z
loop_
_atom_site_type_symbol
_atom_site_label
_atom_site_fract_x
_atom_site_fract_y
_atom_site_fract_z
Si Si1 0.594904 0.709563 0.866462
Si Si2 0.161874 0.605585 0.484385
Si Si3 0.847554 0.489319 0.154174
Si Si4 0.380054 0.609039 0.660162
Si Si5 0.796255 0.348117 0.037381
Si Si6 0.371164 0.165522 0.476797
Si Si7 0.655596 0.885309 0.186275
Si Si8 0.842912 0.052721 0.236206
O O1 0.635850 0.622058 0.624127
O O2 0.337164 0.877409 0.821334
O O3 0.794292 0.514519 0.941613
O O4 0.646070 0.785359 0.067143
O O5 0.178565 0.678975 0.514008
O O6 0.188950 0.626578 0.728362
O O7 0.918430 0.727372 0.294335
O O8 0.781330 0.445729 0.068739
O O9 0.660628 0.707171 0.284491
O O10 0.116605 0.314656 0.294050
O O11 0.500000 0.500000 0.500000
O O12 0.277054 0.790197 0.798355
O O13 0.555850 0.468278 0.830498
O O14 0.015419 0.123022 0.950202
O O15 0.500000 0.000000 0.500000
O O16 0.538636 0.049452 0.394157
O O17 0.500000 0.000000 0.000000
O O18 0.000000 0.000000 0.500000
#
# Coordination Sequence:
#
# PCOD8032919 Si02
#       8
#     2   2   2   2   2   2   2   2
#     4  12  25  48  72 104 147 201 243 290 366 444
#     4  12  28  46  71 106 152 189 238 308 375 425
#     4  11  24  42  77 100 148 190 245 296 356 435
#     4  12  24  51  77 105 142 192 245 299 370 439
#     4  12  26  45  74 115 142 184 244 312 369 421
#     4  11  23  44  68 105 140 195 246 295 348 436
#     4  12  28  44  70 106 155 192 245 297 370 433
#     4  12  26  46  81 105 137 192 253 296 353 445
#
# _framework density 22.305230000000002
#
# number of rings (size 3 to 8) (size 9 to 14) (size 15 to 20)
#    0.000    0.250    5.000    3.000    7.000    0.500 
#    0.000    0.000    0.000    0.000    0.000    0.000 
#    0.000    0.000    0.000    0.000    0.000    0.000 
#
# Total GULP energy -198361.479598 kJ/mol
# GULP energy per Si atom -12397.592475 kJ/mol
# Density = 2.225446 g / cm^3
# Si number density = 22.305230 Si / 1000 Ang^3
#
#
#
# Elastic Constant Matrix: (Units=GPa)
#
#
# Indices 1 2 3 4 5 6 
#
# 1 135.7926 56.3366 52.8738 1.2880 15.2722 -0.8140
# 2 56.3366 138.9116 55.4155 15.5094 -0.4991 -2.3016
# 3 52.8738 55.4155 118.6716 7.1427 -9.4761 -10.8025
# 4 1.2880 15.5094 7.1427 47.0217 -1.0516 -0.8820
# 5 15.2722 -0.4991 -9.4761 -1.0516 47.6378 -3.9628
# 6 -0.8140 -2.3016 -10.8025 -0.8820 -3.9628 36.6015
#
#
#
# Elastic Compliance Matrix: (Units=1/GPa)
#
#
# Indices 1 2 3 4 5 6 
#
# 1 0.010543 -0.002887 -0.003899 0.001131 -0.004288 -0.001535
# 2 -0.002887 0.009948 -0.003210 -0.002716 0.000297 -0.000419
# 3 -0.003899 -0.003210 0.012357 -0.000552 0.003976 0.003776
# 4 0.001131 -0.002716 -0.000552 0.022220 0.000009 0.000228
# 5 -0.004288 0.000297 0.003976 0.000009 0.023463 0.003637
# 6 -0.001535 -0.000419 0.003776 0.000228 0.003637 0.028774
#
#
# Mechanical properties :
#
#
# Convention : Reuss Voigt Hill
#
# Bulk Modulus (GPa) = 77.79186 80.29196 79.04191
# Shear Modulus (GPa) = 37.99892 41.50218 39.75055
#
# Velocity S-wave (km/s) = 4.13193 4.31820 4.22609
# Velocity P-wave (km/s) = 7.59708 7.80625 7.70237
#
# Compressibility (1/GPa) = 0.01285481
#
# Stress axis : x y z
#
# Youngs Moduli (GPa) = 94.85282 100.52712 80.92442
#
# Poissons Ratio (x) = 0.29025 0.31554
# Poissons Ratio (y) = 0.27387 0.25975
# Poissons Ratio (z) = 0.36985 0.32267
#
# Static dielectric constant tensor:
#      x y z
#    x 4.217880 -0.211630 0.091880 
#    y -0.211630 5.133040 0.699430 
#    z 0.091880 0.699430 4.619550 
# 
# 
# High freq. dielectric constant tensor:
#      x y z
#    x 1.880260 -0.005000 0.003530 
#    y -0.005000 1.888240 0.001730 
#    z 0.003530 0.001730 1.899400 
# 
# From -- ./inp_files/338221.got.cif
#   From: 2010.06.25/outbox.cif.g09.slc.cpg/sg2_170_cif.got.tgz:338221.got - 2010.06.27 13:26:56.
