data_PCOD8032989
_publ_section_title
;
Structure prediction by ZEFSAII (Michael W. Deem and Ramdas Pophale) SiO2 
 PCOD8032989
Probable space group: P -1
;
_chemical_formula_sum "Si O2"
_cell_formula_units_Z 14
_cell_length_a 22.744863
_cell_length_b 19.118684
_cell_length_c 9.408649
_cell_angle_alpha 42.751133
_cell_angle_beta 143.954156
_cell_angle_gamma 164.400349
_cell_volume 621.336147
_symmetry_space_group_name_H-M "P -1"
_symmetry_group_IT_number 2
_symmetry_cell_setting 'triclinic'
loop_
_space_group_symop_operation_xyz
x,y,z
-x,-y,-z
loop_
_atom_site_type_symbol
_atom_site_label
_atom_site_fract_x
_atom_site_fract_y
_atom_site_fract_z
Si Si1 0.410560 0.988013 0.220209
Si Si2 0.568113 0.354906 0.898913
Si Si3 0.147869 0.938767 0.163607
Si Si4 0.776932 0.225271 0.392458
Si Si5 0.137633 0.584496 0.005366
Si Si6 0.907217 0.026908 0.297171
Si Si7 0.404154 0.635991 0.393558
O O1 0.483759 0.992014 0.210749
O O2 0.500000 0.000000 0.500000
O O3 0.567059 0.244269 0.142746
O O4 0.108053 0.724396 0.057900
O O5 0.533732 0.300515 0.746008
O O6 0.328925 0.198400 0.714490
O O7 0.842309 0.673179 0.997430
O O8 0.183243 0.850959 0.362396
O O9 0.347772 0.176878 0.316132
O O10 0.212708 0.044868 0.977143
O O11 0.000000 0.500000 0.500000
O O12 0.808445 0.272648 0.214859
O O13 0.374056 0.725631 0.262255
O O14 0.000000 0.500000 0.000000
O O15 0.148871 0.323471 0.389162
O O16 0.000000 0.000000 0.500000
#
# Coordination Sequence:
#
# PCOD8032989 Si02
#       7
#     2   2   2   2   2   2   2
#     4  12  21  36  64  90 132 187 225 263 325 392
#     4  11  23  44  70  93 137 178 223 282 343 398
#     4  11  25  42  69 103 136 178 226 280 342 407
#     4  12  21  39  60  96 141 182 225 268 321 405
#     4  12  25  38  60 100 142 184 224 269 329 396
#     4  11  26  50  74  98 131 174 229 294 354 407
#     4  11  25  45  67 102 140 175 230 282 336 413
#
# _framework density 22.532087000000001
#
# number of rings (size 3 to 8) (size 9 to 14) (size 15 to 20)
#    0.000    0.571    5.714    2.571    2.000    6.286 
#    0.000    1.429    0.000    0.000    0.000    0.000 
#    0.000    0.000    0.000    0.000    0.000    0.000 
#
# Total GULP energy -173553.563796 kJ/mol
# GULP energy per Si atom -12396.683128 kJ/mol
# Density = 2.248080 g / cm^3
# Si number density = 22.532087 Si / 1000 Ang^3
#
#
#
# Elastic Constant Matrix: (Units=GPa)
#
#
# Indices 1 2 3 4 5 6 
#
# 1 128.2716 39.6190 66.0920 -0.5876 11.9828 23.5329
# 2 39.6190 77.3952 49.7127 15.5717 1.4318 20.9446
# 3 66.0920 49.7127 116.0093 12.8587 -13.1180 2.4467
# 4 -0.5876 15.5717 12.8587 38.2677 -1.6027 4.0715
# 5 11.9828 1.4318 -13.1180 -1.6027 43.9458 1.5431
# 6 23.5329 20.9446 2.4467 4.0715 1.5431 39.6137
#
#
#
# Elastic Compliance Matrix: (Units=1/GPa)
#
#
# Indices 1 2 3 4 5 6 
#
# 1 0.014811 0.000097 -0.009472 0.003998 -0.006427 -0.008425
# 2 0.000097 0.023066 -0.009523 -0.005157 -0.003422 -0.011001
# 3 -0.009472 -0.009523 0.019195 -0.003390 0.008165 0.009506
# 4 0.003998 -0.005157 -0.003390 0.029660 -0.000766 -0.002457
# 5 -0.006427 -0.003422 0.008165 -0.000766 0.026883 0.004155
# 6 -0.008425 -0.011001 0.009506 -0.002457 0.004155 0.035569
#
#
# Mechanical properties :
#
#
# Convention : Reuss Voigt Hill
#
# Bulk Modulus (GPa) = 51.87548 70.28037 61.07793
# Shear Modulus (GPa) = 25.85251 35.44894 30.65073
#
# Velocity S-wave (km/s) = 3.39095 3.97074 3.69225
# Velocity P-wave (km/s) = 6.19712 7.23059 6.73371
#
# Compressibility (1/GPa) = 0.01927693
#
# Stress axis : x y z
#
# Youngs Moduli (GPa) = 67.51855 43.35391 52.09613
#
# Poissons Ratio (x) = -0.00419 0.49343
# Poissons Ratio (y) = -0.00652 0.49609
# Poissons Ratio (z) = 0.63950 0.41284
#
# Static dielectric constant tensor:
#      x y z
#    x 3.931270 -0.156330 -0.349710 
#    y -0.156330 4.227000 0.327030 
#    z -0.349710 0.327030 4.348660 
# 
# 
# High freq. dielectric constant tensor:
#      x y z
#    x 1.877650 0.017080 -0.010340 
#    y 0.017080 1.911050 0.022130 
#    z -0.010340 0.022130 1.886730 
# 
# From -- ./inp_files/348380.got.cif
#   From: 2010.06.25/outbox.cif.g09.slc.cpg/sg2_175_cif.got.tgz:348380.got - 2010.06.27 13:26:56.
