data_PCOD8032037
_publ_section_title
;
Structure prediction by ZEFSAII (Michael W. Deem and Ramdas Pophale) SiO2 
 PCOD8032037
Probable space group: P -1
;
_chemical_formula_sum "Si O2"
_cell_formula_units_Z 16
_cell_length_a 15.118944
_cell_length_b 9.021708
_cell_length_c 15.406091
_cell_angle_alpha 86.891462
_cell_angle_beta 153.230479
_cell_angle_gamma 110.923170
_cell_volume 687.281068
_symmetry_space_group_name_H-M "P -1"
_symmetry_group_IT_number 2
_symmetry_cell_setting 'triclinic'
loop_
_space_group_symop_operation_xyz
x,y,z
-x,-y,-z
loop_
_atom_site_type_symbol
_atom_site_label
_atom_site_fract_x
_atom_site_fract_y
_atom_site_fract_z
Si Si1 0.323744 0.510465 0.785129
Si Si2 0.935736 0.721636 0.594221
Si Si3 0.717989 0.042435 0.496213
Si Si4 0.583248 0.394744 0.805459
Si Si5 0.227604 0.101789 0.940676
Si Si6 0.694142 0.967118 0.802404
Si Si7 0.720575 0.657434 0.760398
Si Si8 0.070272 0.468012 0.730782
O O1 0.102341 0.301710 0.543189
O O2 0.183807 0.548987 0.729768
O O3 0.500000 0.500000 0.000000
O O4 0.503733 0.676252 0.862440
O O5 0.676652 0.637869 0.422558
O O6 0.991506 0.590062 0.688717
O O7 0.163254 0.960891 0.807467
O O8 0.496333 0.819265 0.266189
O O9 0.559413 0.048989 0.435348
O O10 0.980133 0.082308 0.754078
O O11 0.823579 0.222823 0.515457
O O12 0.745573 0.545310 0.861061
O O13 0.730936 0.495459 0.023396
O O14 0.300779 0.043172 0.089104
O O15 0.637593 0.779031 0.715433
O O16 0.976963 0.184594 0.015955
O O17 0.500000 0.500000 0.500000
#
# Coordination Sequence:
#
# PCOD8032037 Si02
#       8
#     2   2   2   2   2   2   2   2
#     4  12  23  42  66  99 136 177 222 277 328 392
#     4  11  24  41  67  96 134 179 220 272 333 390
#     4  11  23  40  67  95 129 173 218 264 332 385
#     4  11  24  43  66  96 134 173 221 276 327 395
#     4  11  24  45  67  95 137 173 221 277 330 385
#     4  11  25  45  70  99 131 174 222 270 329 402
#     4  11  24  46  72  99 136 173 217 275 335 389
#     4  12  24  42  67  97 135 180 224 271 332 390
#
# _framework density 23.280138000000001
#
# number of rings (size 3 to 8) (size 9 to 14) (size 15 to 20)
#    0.000    0.750    2.500    5.625    0.000    4.500 
#    0.000   10.000    0.000    0.000    0.000    0.000 
#    0.000    0.000    0.000    0.000    0.000    0.000 
#
# Total GULP energy -198290.048483 kJ/mol
# GULP energy per Si atom -12393.128030 kJ/mol
# Density = 2.322715 g / cm^3
# Si number density = 23.280138 Si / 1000 Ang^3
#
#
#
# Elastic Constant Matrix: (Units=GPa)
#
#
# Indices 1 2 3 4 5 6 
#
# 1 119.9208 38.2750 41.7939 13.6108 6.6944 -7.1013
# 2 38.2750 97.2771 23.4903 14.2364 13.3548 -21.3754
# 3 41.7939 23.4903 68.1163 20.3434 -7.0871 -11.8368
# 4 13.6108 14.2364 20.3434 29.5233 -0.3411 -2.5849
# 5 6.6944 13.3548 -7.0871 -0.3411 44.4261 -1.8366
# 6 -7.1013 -21.3754 -11.8368 -2.5849 -1.8366 45.7391
#
#
#
# Elastic Compliance Matrix: (Units=1/GPa)
#
#
# Indices 1 2 3 4 5 6 
#
# 1 0.011611 -0.003085 -0.006686 0.000596 -0.001943 -0.001414
# 2 -0.003085 0.014091 -0.001186 -0.004125 -0.003768 0.005415
# 3 -0.006686 -0.001186 0.024240 -0.012622 0.005307 0.004181
# 4 0.000596 -0.004125 -0.012622 0.044045 -0.000634 -0.002638
# 5 -0.001943 -0.003768 0.005307 -0.000634 0.024788 0.000270
# 6 -0.001414 0.005415 0.004181 -0.002638 0.000270 0.025118
#
#
# Mechanical properties :
#
#
# Convention : Reuss Voigt Hill
#
# Bulk Modulus (GPa) = 35.67742 54.71474 45.19608
# Shear Modulus (GPa) = 28.54745 36.05471 32.30108
#
# Velocity S-wave (km/s) = 3.50560 3.93966 3.72895
# Velocity P-wave (km/s) = 5.63419 6.65195 6.16411
#
# Compressibility (1/GPa) = 0.02802893
#
# Stress axis : x y z
#
# Youngs Moduli (GPa) = 86.12782 70.96794 41.25445
#
# Poissons Ratio (x) = 0.21894 0.27581
# Poissons Ratio (y) = 0.26571 0.04891
# Poissons Ratio (z) = 0.57582 0.08413
#
# Static dielectric constant tensor:
#      x y z
#    x 3.967660 -0.427440 0.082320 
#    y -0.427440 4.289860 0.137350 
#    z 0.082320 0.137350 4.313570 
# 
# 
# High freq. dielectric constant tensor:
#      x y z
#    x 1.918720 -0.015350 0.006580 
#    y -0.015350 1.928530 0.003700 
#    z 0.006580 0.003700 1.927610 
# 
# From -- ./inp_files/529848.got.cif
#   From: 2010.06.25/outbox.cif.g09.slc.cpg/sg2_265_cif.got.tgz:529848.got - 2010.06.27 13:26:56.
