data_PCOD8032155
_publ_section_title
;
Structure prediction by ZEFSAII (Michael W. Deem and Ramdas Pophale) SiO2 
 PCOD8032155
Probable space group: P -1
;
_chemical_formula_sum "Si O2"
_cell_formula_units_Z 16
_cell_length_a 21.532826
_cell_length_b 24.492304
_cell_length_c 9.441723
_cell_angle_alpha 29.598690
_cell_angle_beta 151.261970
_cell_angle_gamma 160.862273
_cell_volume 757.696013
_symmetry_space_group_name_H-M "P -1"
_symmetry_group_IT_number 2
_symmetry_cell_setting 'triclinic'
loop_
_space_group_symop_operation_xyz
x,y,z
-x,-y,-z
loop_
_atom_site_type_symbol
_atom_site_label
_atom_site_fract_x
_atom_site_fract_y
_atom_site_fract_z
Si Si1 0.404477 0.842635 0.064046
Si Si2 0.260151 0.961033 0.913418
Si Si3 0.021469 0.126773 0.669805
Si Si4 0.589451 0.649045 0.236888
Si Si5 0.808779 0.328023 0.581677
Si Si6 0.069804 0.770974 0.491831
Si Si7 0.712337 0.428193 0.393395
Si Si8 0.641447 0.914104 0.857051
O O1 0.428453 0.732006 0.417179
O O2 0.513287 0.910940 0.975975
O O3 0.171663 0.721137 0.848375
O O4 0.500000 0.000000 0.000000
O O5 0.147970 0.979776 0.551890
O O6 0.142351 0.769039 0.088118
O O7 0.262226 0.993691 0.007881
O O8 0.236701 0.283350 0.670380
O O9 0.990101 0.205341 0.539161
O O10 0.000000 0.000000 0.000000
O O11 0.500000 0.500000 0.500000
O O12 0.411595 0.575167 0.949121
O O13 0.671760 0.803196 0.149078
O O14 0.813853 0.391633 0.598836
O O15 0.594244 0.206877 0.346953
O O16 0.000000 0.500000 0.500000
O O17 0.869130 0.614005 0.358436
O O18 0.233122 0.946062 0.332549
#
# Coordination Sequence:
#
# PCOD8032155 Si02
#       8
#     2   2   2   2   2   2   2   2
#     4  12  21  44  68 102 142 177 212 285 354 419
#     4  12  25  40  74 101 137 179 227 276 352 411
#     4  12  26  46  72  96 133 192 237 279 343 409
#     4  11  27  48  69  96 142 182 238 294 337 396
#     4  11  23  41  67 101 140 175 217 278 352 415
#     4  12  24  44  73 104 136 178 233 280 350 415
#     4  11  25  43  68  99 139 178 224 288 343 405
#     4  11  25  45  69 104 137 179 227 292 343 410
#
# _framework density 21.116648000000001
#
# number of rings (size 3 to 8) (size 9 to 14) (size 15 to 20)
#    0.000    0.500    5.000    3.000    7.000    3.000 
#    0.000    0.000    0.000    0.000    0.000    0.000 
#    0.000    0.000    0.000    0.000    0.000    0.000 
#
# Total GULP energy -198377.272051 kJ/mol
# GULP energy per Si atom -12398.579503 kJ/mol
# Density = 2.106859 g / cm^3
# Si number density = 21.116648 Si / 1000 Ang^3
#
#
#
# Elastic Constant Matrix: (Units=GPa)
#
#
# Indices 1 2 3 4 5 6 
#
# 1 127.4877 45.8481 40.2609 3.9632 -13.9389 11.3171
# 2 45.8481 104.0654 42.7341 -10.9246 -7.1951 15.6180
# 3 40.2609 42.7341 132.1162 -10.3322 -9.8717 10.6969
# 4 3.9632 -10.9246 -10.3322 34.4117 2.9503 -9.3447
# 5 -13.9389 -7.1951 -9.8717 2.9503 25.8710 -0.0470
# 6 11.3171 15.6180 10.6969 -9.3447 -0.0470 36.4358
#
#
#
# Elastic Compliance Matrix: (Units=1/GPa)
#
#
# Indices 1 2 3 4 5 6 
#
# 1 0.010533 -0.003673 -0.001823 -0.003888 0.004398 -0.002154
# 2 -0.003673 0.013076 -0.002617 0.002964 0.000316 -0.002935
# 3 -0.001823 -0.002617 0.009284 0.001877 0.001617 -0.000554
# 4 -0.003888 0.002964 0.001877 0.033556 -0.004366 0.007986
# 5 0.004398 0.000316 0.001617 -0.004366 0.042220 -0.003041
# 6 -0.002154 -0.002935 -0.000554 0.007986 -0.003041 0.031580
#
#
# Mechanical properties :
#
#
# Convention : Reuss Voigt Hill
#
# Bulk Modulus (GPa) = 60.00033 69.03951 64.51992
# Shear Modulus (GPa) = 30.85853 34.99877 32.92865
#
# Velocity S-wave (km/s) = 3.82689 4.07554 3.95317
# Velocity P-wave (km/s) = 6.92836 7.41026 7.17336
#
# Compressibility (1/GPa) = 0.01666658
#
# Stress axis : x y z
#
# Youngs Moduli (GPa) = 94.93611 76.47740 107.71598
#
# Poissons Ratio (x) = 0.28090 0.19637
# Poissons Ratio (y) = 0.34870 0.28190
# Poissons Ratio (z) = 0.17307 0.20015
#
# Static dielectric constant tensor:
#      x y z
#    x 3.951790 0.064680 0.080340 
#    y 0.064680 3.819160 -0.002300 
#    z 0.080340 -0.002300 4.188220 
# 
# 
# High freq. dielectric constant tensor:
#      x y z
#    x 1.837150 0.007690 -0.005870 
#    y 0.007690 1.825800 -0.004200 
#    z -0.005870 -0.004200 1.837160 
# 
# From -- ./inp_files/349984.got.cif
#   From: 2010.06.25/outbox.cif.g09.slc.cpg/sg2_175_cif.got.tgz:349984.got - 2010.06.27 13:26:56.
