data_PCOD8032034
_publ_section_title
;
Structure prediction by ZEFSAII (Michael W. Deem and Ramdas Pophale) SiO2 
 PCOD8032034
Probable space group: P -1
;
_chemical_formula_sum "Si O2"
_cell_formula_units_Z 16
_cell_length_a 11.570308
_cell_length_b 11.671113
_cell_length_c 8.616251
_cell_angle_alpha 49.595999
_cell_angle_beta 115.389775
_cell_angle_gamma 129.675451
_cell_volume 681.720561
_symmetry_space_group_name_H-M "P -1"
_symmetry_group_IT_number 2
_symmetry_cell_setting 'triclinic'
loop_
_space_group_symop_operation_xyz
x,y,z
-x,-y,-z
loop_
_atom_site_type_symbol
_atom_site_label
_atom_site_fract_x
_atom_site_fract_y
_atom_site_fract_z
Si Si1 0.880822 0.891703 0.207772
Si Si2 0.354982 0.756362 0.051833
Si Si3 0.108945 0.208404 0.241591
Si Si4 0.904152 0.651588 0.199725
Si Si5 0.079534 0.682322 0.790290
Si Si6 0.671433 0.592053 0.570078
Si Si7 0.661996 0.019584 0.888465
Si Si8 0.825130 0.299768 0.517395
O O1 0.916739 0.826962 0.125283
O O2 0.767333 0.704297 0.382093
O O3 0.805038 0.006870 0.031938
O O4 0.029738 0.012304 0.292794
O O5 0.286041 0.552315 0.235628
O O6 0.369332 0.856170 0.131017
O O7 0.252160 0.788745 0.848838
O O8 0.512375 0.826387 0.988856
O O9 0.269984 0.273446 0.363298
O O10 0.998050 0.207032 0.310539
O O11 0.134015 0.350895 0.000335
O O12 0.780979 0.451465 0.364320
O O13 0.062752 0.664854 0.304254
O O14 0.085764 0.678658 0.609977
O O15 0.000000 0.500000 0.000000
O O16 0.500000 0.500000 0.500000
O O17 0.685155 0.103067 0.653345
#
# Coordination Sequence:
#
# PCOD8032034 Si02
#       8
#     2   2   2   2   2   2   2   2
#     4  12  24  43  66 104 140 182 233 291 348 404
#     4  11  23  45  69  95 139 184 232 286 345 417
#     4  12  24  44  69 106 138 176 237 290 346 413
#     4  11  23  41  69 100 141 182 229 291 349 410
#     4  12  22  41  73 102 130 176 238 295 337 414
#     4  12  25  43  70  98 139 186 228 280 353 420
#     4  11  24  42  68  98 139 183 231 286 348 418
#     4  11  23  40  67 104 136 183 231 284 356 408
#
# _framework density 23.470026000000001
#
# number of rings (size 3 to 8) (size 9 to 14) (size 15 to 20)
#    0.000    0.500    6.250    2.250    1.750    0.500 
#    0.000    0.625    2.750    0.000    0.000    0.000 
#    0.000    0.000    0.000    0.000    0.000    0.000 
#
# Total GULP energy -198236.383997 kJ/mol
# GULP energy per Si atom -12389.774000 kJ/mol
# Density = 2.341661 g / cm^3
# Si number density = 23.470026 Si / 1000 Ang^3
#
#
#
# Elastic Constant Matrix: (Units=GPa)
#
#
# Indices 1 2 3 4 5 6 
#
# 1 74.5224 41.9273 34.6503 7.5407 -7.1523 -4.2204
# 2 41.9273 111.1135 42.3255 6.6871 -3.3247 1.9049
# 3 34.6503 42.3255 119.7245 -7.4129 -14.7974 5.1637
# 4 7.5407 6.6871 -7.4129 53.3934 7.5501 6.4220
# 5 -7.1523 -3.3247 -14.7974 7.5501 33.1020 3.6235
# 6 -4.2204 1.9049 5.1637 6.4220 3.6235 37.1203
#
#
#
# Elastic Compliance Matrix: (Units=1/GPa)
#
#
# Indices 1 2 3 4 5 6 
#
# 1 0.018948 -0.005588 -0.003561 -0.003190 0.002311 0.003263
# 2 -0.005588 0.012235 -0.002860 -0.000929 -0.000979 -0.000609
# 3 -0.003561 -0.002860 0.011094 0.002186 0.003682 -0.002539
# 4 -0.003190 -0.000929 0.002186 0.020634 -0.004097 -0.003789
# 5 0.002311 -0.000979 0.003682 -0.004097 0.033493 -0.002760
# 6 0.003263 -0.000609 -0.002539 -0.003789 -0.002760 0.028620
#
#
# Mechanical properties :
#
#
# Convention : Reuss Voigt Hill
#
# Bulk Modulus (GPa) = 54.76880 60.35185 57.56033
# Shear Modulus (GPa) = 32.23129 37.15362 34.69245
#
# Velocity S-wave (km/s) = 3.70982 3.98304 3.84886
# Velocity P-wave (km/s) = 6.46039 6.85004 6.65807
#
# Compressibility (1/GPa) = 0.01825857
#
# Stress axis : x y z
#
# Youngs Moduli (GPa) = 52.77671 81.73276 90.13726
#
# Poissons Ratio (x) = 0.45673 0.32096
# Poissons Ratio (y) = 0.29492 0.25782
# Poissons Ratio (z) = 0.18793 0.23378
#
# Static dielectric constant tensor:
#      x y z
#    x 3.999780 0.159640 -0.141640 
#    y 0.159640 4.387560 -0.208820 
#    z -0.141640 -0.208820 4.583320 
# 
# 
# High freq. dielectric constant tensor:
#      x y z
#    x 1.894010 -0.001180 -0.012760 
#    y -0.001180 1.928280 -0.018560 
#    z -0.012760 -0.018560 1.955060 
# 
# From -- ./inp_files/261759.got.cif
#   From: 2010.06.25/outbox.cif.g09.slc.cpg/sg2_131_cif.got.tgz:261759.got - 2010.06.27 13:26:56.
