data_PCOD8032671
_publ_section_title
;
Structure prediction by ZEFSAII (Michael W. Deem and Ramdas Pophale) SiO2 
 PCOD8032671
Probable space group: P -1
;
_chemical_formula_sum "Si O2"
_cell_formula_units_Z 14
_cell_length_a 8.760584
_cell_length_b 14.602666
_cell_length_c 11.097158
_cell_angle_alpha 148.519090
_cell_angle_beta 123.757877
_cell_angle_gamma 63.280774
_cell_volume 615.392704
_symmetry_space_group_name_H-M "P -1"
_symmetry_group_IT_number 2
_symmetry_cell_setting 'triclinic'
loop_
_space_group_symop_operation_xyz
x,y,z
-x,-y,-z
loop_
_atom_site_type_symbol
_atom_site_label
_atom_site_fract_x
_atom_site_fract_y
_atom_site_fract_z
Si Si1 0.525622 0.126004 0.536602
Si Si2 0.226065 0.189902 0.872955
Si Si3 0.886803 0.006225 0.173678
Si Si4 0.078906 0.672596 0.792730
Si Si5 0.870882 0.372064 0.968267
Si Si6 0.786510 0.748875 0.331777
Si Si7 0.386844 0.863032 0.985663
O O1 0.389159 0.275866 0.684936
O O2 0.500000 0.000000 0.500000
O O3 0.454929 0.037140 0.282905
O O4 0.727440 0.212037 0.689854
O O5 0.153080 0.024515 0.736500
O O6 0.248501 0.141512 0.685683
O O7 0.429918 0.246929 0.079708
O O8 0.080883 0.338621 0.988698
O O9 0.055721 0.150591 0.405925
O O10 0.937555 0.827249 0.926142
O O11 0.708358 0.082511 0.119149
O O12 0.153718 0.604785 0.874706
O O13 0.000000 0.500000 0.500000
O O14 0.248055 0.744763 0.870131
O O15 0.834734 0.555247 0.093567
#
# Coordination Sequence:
#
# PCOD8032671 Si02
#       7
#     2   2   2   2   2   2   2
#     4  12  22  42  70 101 131 173 229 281 329 390
#     4  11  25  45  67  98 138 182 221 272 332 403
#     4  11  25  44  68  99 133 179 228 270 340 393
#     4  11  23  43  69  97 135 174 221 283 335 391
#     4  11  25  42  66 104 135 176 224 274 334 394
#     4  12  23  44  71  98 134 176 228 277 330 397
#     4  12  24  43  70 100 135 175 224 276 336 399
#
# _framework density 22.749700000000001
#
# number of rings (size 3 to 8) (size 9 to 14) (size 15 to 20)
#    0.000    0.571    4.286    3.857    4.000    0.000 
#    0.000    6.429    0.000    0.000    0.000    0.000 
#    0.000    0.000    0.000    0.000    0.000    0.000 
#
# Total GULP energy -173527.015876 kJ/mol
# GULP energy per Si atom -12394.786848 kJ/mol
# Density = 2.269792 g / cm^3
# Si number density = 22.749700 Si / 1000 Ang^3
#
#
#
# Elastic Constant Matrix: (Units=GPa)
#
#
# Indices 1 2 3 4 5 6 
#
# 1 130.2096 38.9103 32.8972 8.9725 13.8769 -19.8210
# 2 38.9103 98.4791 34.9191 -13.4897 10.2713 -12.3538
# 3 32.8972 34.9191 124.1899 -0.1049 14.8227 -5.4235
# 4 8.9725 -13.4897 -0.1049 28.7015 -3.8294 1.8666
# 5 13.8769 10.2713 14.8227 -3.8294 23.8690 -8.5299
# 6 -19.8210 -12.3538 -5.4235 1.8666 -8.5299 39.6708
#
#
#
# Elastic Compliance Matrix: (Units=1/GPa)
#
#
# Indices 1 2 3 4 5 6 
#
# 1 0.010335 -0.003663 -0.001158 -0.005632 -0.003402 0.003398
# 2 -0.003663 0.013870 -0.002816 0.007506 -0.000282 0.001690
# 3 -0.001158 -0.002816 0.009668 -0.001489 -0.004745 -0.001084
# 4 -0.005632 0.007506 -0.001489 0.041153 0.007188 -0.001071
# 5 -0.003402 -0.000282 -0.004745 0.007188 0.051024 0.008196
# 6 0.003398 0.001690 -0.001084 -0.001071 0.008196 0.029096
#
#
# Mechanical properties :
#
#
# Convention : Reuss Voigt Hill
#
# Bulk Modulus (GPa) = 53.76459 62.92575 58.34517
# Shear Modulus (GPa) = 28.30934 34.85841 31.58387
#
# Velocity S-wave (km/s) = 3.53141 3.91865 3.73006
# Velocity P-wave (km/s) = 6.34919 6.94223 6.65232
#
# Compressibility (1/GPa) = 0.01859960
#
# Stress axis : x y z
#
# Youngs Moduli (GPa) = 96.75748 72.09887 103.42943
#
# Poissons Ratio (x) = 0.26411 0.11977
# Poissons Ratio (y) = 0.35444 0.29123
# Poissons Ratio (z) = 0.11204 0.20301
#
# Static dielectric constant tensor:
#      x y z
#    x 4.604860 -0.189070 0.051050 
#    y -0.189070 4.263570 -0.229800 
#    z 0.051050 -0.229800 3.959730 
# 
# 
# High freq. dielectric constant tensor:
#      x y z
#    x 1.918980 -0.004940 0.004760 
#    y -0.004940 1.903870 -0.005870 
#    z 0.004760 -0.005870 1.875730 
# 
# From -- ./inp_files/186587.got.cif
#   From: 2010.06.25/outbox.cif.g09.slc.cpg/sg2_94_cif.got.tgz:186587.got - 2010.06.27 13:26:56.
