data_PCOD8032801
_publ_section_title
;
Structure prediction by ZEFSAII (Michael W. Deem and Ramdas Pophale) SiO2 
 PCOD8032801
Probable space group: P -1
;
_chemical_formula_sum "Si O2"
_cell_formula_units_Z 12
_cell_length_a 8.473128
_cell_length_b 9.352903
_cell_length_c 9.125076
_cell_angle_alpha 111.596607
_cell_angle_beta 50.665009
_cell_angle_gamma 101.134928
_cell_volume 519.242858
_symmetry_space_group_name_H-M "P -1"
_symmetry_group_IT_number 2
_symmetry_cell_setting 'triclinic'
loop_
_space_group_symop_operation_xyz
x,y,z
-x,-y,-z
loop_
_atom_site_type_symbol
_atom_site_label
_atom_site_fract_x
_atom_site_fract_y
_atom_site_fract_z
Si Si1 0.712111 0.686515 0.511743
Si Si2 0.342790 0.466684 0.955837
Si Si3 0.368816 0.652557 0.493063
Si Si4 0.266978 0.053239 0.164661
Si Si5 0.960664 0.766067 0.868125
Si Si6 0.079870 0.753241 0.121718
O O1 0.484293 0.716239 0.591528
O O2 0.714433 0.517377 0.513270
O O3 0.767109 0.809681 0.647561
O O4 0.878398 0.688004 0.285273
O O5 0.147369 0.395212 0.117092
O O6 0.264639 0.620355 0.970576
O O7 0.500000 0.500000 0.000000
O O8 0.468225 0.342880 0.732292
O O9 0.159256 0.757173 0.639570
O O10 0.196666 0.108482 0.064328
O O11 0.144194 0.904925 0.228090
O O12 0.500000 0.000000 0.000000
O O13 0.033123 0.807503 0.003800
#
# Coordination Sequence:
#
# PCOD8032801 Si02
#       6
#     2   2   2   2   2   2
#     4  11  23  44  72 102 141 183 229 289 341 416
#     4  12  25  43  74 106 140 179 235 291 338 413
#     4  11  23  43  73 105 137 181 234 284 350 397
#     4  12  27  47  68 101 146 185 230 284 352 415
#     4  12  25  46  73 103 138 184 235 287 341 414
#     4  12  24  47  70 105 142 184 231 284 349 412
#
# _framework density 23.110574
#
# number of rings (size 3 to 8) (size 9 to 14) (size 15 to 20)
#    0.000    0.333    3.333    7.500    2.333    1.333 
#    3.000    1.667    0.000    0.000    0.000    0.000 
#    0.000    0.000    0.000    0.000    0.000    0.000 
#
# Total GULP energy -148765.690104 kJ/mol
# GULP energy per Si atom -12397.140842 kJ/mol
# Density = 2.305797 g / cm^3
# Si number density = 23.110574 Si / 1000 Ang^3
#
#
#
# Elastic Constant Matrix: (Units=GPa)
#
#
# Indices 1 2 3 4 5 6 
#
# 1 137.0529 36.2655 45.8817 13.7816 -10.9246 -10.5917
# 2 36.2655 75.2104 8.3382 6.5856 -5.8373 8.3926
# 3 45.8817 8.3382 98.5174 -2.7253 -13.4711 -8.3766
# 4 13.7816 6.5856 -2.7253 22.5894 5.4095 2.7854
# 5 -10.9246 -5.8373 -13.4711 5.4095 32.2240 2.6970
# 6 -10.5917 8.3926 -8.3766 2.7854 2.6970 52.9681
#
#
#
# Elastic Compliance Matrix: (Units=1/GPa)
#
#
# Indices 1 2 3 4 5 6 
#
# 1 0.010948 -0.004312 -0.004440 -0.006736 0.002002 0.002422
# 2 -0.004312 0.016042 0.000630 -0.002123 0.002341 -0.003312
# 3 -0.004440 0.000630 0.012771 0.003177 0.003356 0.000694
# 4 -0.006736 -0.002123 0.003177 0.052078 -0.009853 -0.002745
# 5 0.002002 0.002341 0.003356 -0.009853 0.035253 -0.000717
# 6 0.002422 -0.003312 0.000694 -0.002745 -0.000717 0.020179
#
#
# Mechanical properties :
#
#
# Convention : Reuss Voigt Hill
#
# Bulk Modulus (GPa) = 42.52186 54.63904 48.58045
# Shear Modulus (GPa) = 29.17918 36.24265 32.71091
#
# Velocity S-wave (km/s) = 3.55715 3.96438 3.76627
# Velocity P-wave (km/s) = 5.94225 6.68198 6.32294
#
# Compressibility (1/GPa) = 0.02351732
#
# Stress axis : x y z
#
# Youngs Moduli (GPa) = 91.33966 62.33460 78.30267
#
# Poissons Ratio (x) = 0.26878 0.34770
# Poissons Ratio (y) = 0.39384 -0.04934
# Poissons Ratio (z) = 0.40559 -0.03928
#
# Static dielectric constant tensor:
#      x y z
#    x 4.466150 0.266530 -0.079530 
#    y 0.266530 4.213500 -0.055270 
#    z -0.079530 -0.055270 4.282840 
# 
# 
# High freq. dielectric constant tensor:
#      x y z
#    x 1.936320 0.017950 -0.010940 
#    y 0.017950 1.899940 -0.003770 
#    z -0.010940 -0.003770 1.908970 
# 
# From -- ./inp_files/149036.got.cif
#   From: 2010.06.25/outbox.cif.g09.slc.cpg/sg2_75_cif.got.tgz:149036.got - 2010.06.27 13:26:56.
