data_PCOD8032935
_publ_section_title
;
Structure prediction by ZEFSAII (Michael W. Deem and Ramdas Pophale) SiO2 
 PCOD8032935
Probable space group: P -1
;
_chemical_formula_sum "Si O2"
_cell_formula_units_Z 14
_cell_length_a 14.277505
_cell_length_b 5.515271
_cell_length_c 9.133738
_cell_angle_alpha 65.986842
_cell_angle_beta 50.550895
_cell_angle_gamma 67.150461
_cell_volume 498.658639
_symmetry_space_group_name_H-M "P -1"
_symmetry_group_IT_number 2
_symmetry_cell_setting 'triclinic'
loop_
_space_group_symop_operation_xyz
x,y,z
-x,-y,-z
loop_
_atom_site_type_symbol
_atom_site_label
_atom_site_fract_x
_atom_site_fract_y
_atom_site_fract_z
Si Si1 0.917596 0.351899 0.391039
Si Si2 0.818471 0.951863 0.774780
Si Si3 0.613311 0.683189 0.961732
Si Si4 0.578751 0.803284 0.651366
Si Si5 0.423360 0.656952 0.407897
Si Si6 0.700579 0.128210 0.131243
Si Si7 0.887321 0.990294 0.222632
O O1 0.881565 0.677632 0.343833
O O2 0.061305 0.278071 0.310650
O O3 0.842125 0.244599 0.625309
O O4 0.894314 0.185455 0.307316
O O5 0.700929 0.905309 0.808467
O O6 0.781649 0.922582 0.989205
O O7 0.554041 0.667935 0.863602
O O8 0.509450 0.754723 0.172434
O O9 0.703498 0.412474 0.983556
O O10 0.653650 0.559041 0.533992
O O11 0.441249 0.913411 0.693913
O O12 0.652389 0.054611 0.529231
O O13 0.500000 0.500000 0.500000
O O14 0.761858 0.114471 0.232149
O O15 0.000000 0.000000 0.000000
#
# Coordination Sequence:
#
# PCOD8032935 Si02
#       7
#     2   2   2   2   2   2   2
#     4  11  28  47  72 108 137 183 234 301 338 424
#     4  11  25  46  74 100 142 182 242 285 350 412
#     4  11  25  46  71 102 141 193 235 279 356 415
#     4  11  25  47  69 100 142 189 234 280 349 416
#     4  11  23  44  68  99 139 182 230 293 341 403
#     4  11  24  43  74 100 141 189 228 289 352 423
#     4  12  25  47  72 102 143 180 231 287 368 407
#
# _framework density 28.075320000000001
#
# number of rings (size 3 to 8) (size 9 to 14) (size 15 to 20)
#    0.000    0.857    2.857    3.857    6.000    1.143 
#   10.286    0.000    0.000    0.000    0.000    0.000 
#    0.000    0.000    0.000    0.000    0.000    0.000 
#
# Total GULP energy -173474.783203 kJ/mol
# GULP energy per Si atom -12391.055943 kJ/mol
# Density = 2.801142 g / cm^3
# Si number density = 28.075320 Si / 1000 Ang^3
#
#
#
# Elastic Constant Matrix: (Units=GPa)
#
#
# Indices 1 2 3 4 5 6 
#
# 1 95.1460 34.7790 14.0832 7.4259 24.2567 -0.1038
# 2 34.7790 218.0809 26.8284 -18.0088 15.8617 29.5894
# 3 14.0832 26.8284 105.2825 12.4400 4.6007 11.2433
# 4 7.4259 -18.0088 12.4400 34.5578 2.6254 9.0878
# 5 24.2567 15.8617 4.6007 2.6254 38.8140 -0.7519
# 6 -0.1038 29.5894 11.2433 9.0878 -0.7519 47.8735
#
#
#
# Elastic Compliance Matrix: (Units=1/GPa)
#
#
# Indices 1 2 3 4 5 6 
#
# 1 0.013535 -0.002146 -0.000730 -0.003778 -0.007198 0.002132
# 2 -0.002146 0.006309 -0.001418 0.005601 -0.001538 -0.004658
# 3 -0.000730 -0.001418 0.010533 -0.004165 0.000053 -0.000808
# 4 -0.003778 0.005601 -0.004165 0.036830 -0.002110 -0.009516
# 5 -0.007198 -0.001538 0.000053 -0.002110 0.031062 0.001811
# 6 0.002132 -0.004658 -0.000808 -0.009516 0.001811 0.025797
#
#
# Mechanical properties :
#
#
# Convention : Reuss Voigt Hill
#
# Bulk Modulus (GPa) = 45.89585 63.32118 54.60851
# Shear Modulus (GPa) = 35.73553 47.10363 41.41958
#
# Velocity S-wave (km/s) = 3.57157 4.10049 3.84513
# Velocity P-wave (km/s) = 5.77849 6.70982 6.26150
#
# Compressibility (1/GPa) = 0.02178846
#
# Stress axis : x y z
#
# Youngs Moduli (GPa) = 73.88195 158.51574 94.93746
#
# Poissons Ratio (x) = 0.34023 0.06933
# Poissons Ratio (y) = 0.15857 0.13458
# Poissons Ratio (z) = 0.05396 0.22471
#
# Static dielectric constant tensor:
#      x y z
#    x 5.295590 0.272170 0.166240 
#    y 0.272170 5.526340 0.072150 
#    z 0.166240 0.072150 5.273360 
# 
# 
# High freq. dielectric constant tensor:
#      x y z
#    x 2.138390 0.004440 0.010250 
#    y 0.004440 2.141820 -0.003070 
#    z 0.010250 -0.003070 2.165340 
# 
# From -- ./inp_files/98030.got.cif
#   From: 2010.06.25/outbox.cif.g09.slc.cpg/sg2_50_cif.got.tgz:98030.got - 2010.06.27 13:26:56.
