data_PCOD8032869
_publ_section_title
;
Structure prediction by ZEFSAII (Michael W. Deem and Ramdas Pophale) SiO2 
 PCOD8032869
Probable space group: P -1
;
_chemical_formula_sum "Si O2"
_cell_formula_units_Z 14
_cell_length_a 12.014621
_cell_length_b 11.840927
_cell_length_c 9.775546
_cell_angle_alpha 126.438206
_cell_angle_beta 35.589983
_cell_angle_gamma 134.312736
_cell_volume 578.013505
_symmetry_space_group_name_H-M "P -1"
_symmetry_group_IT_number 2
_symmetry_cell_setting 'triclinic'
loop_
_space_group_symop_operation_xyz
x,y,z
-x,-y,-z
loop_
_atom_site_type_symbol
_atom_site_label
_atom_site_fract_x
_atom_site_fract_y
_atom_site_fract_z
Si Si1 0.805597 0.857113 0.516724
Si Si2 0.278284 0.520620 0.384599
Si Si3 0.998798 0.639676 0.190275
Si Si4 0.738275 0.589175 0.969684
Si Si5 0.201128 0.802463 0.687254
Si Si6 0.582517 0.981893 0.615429
Si Si7 0.599107 0.251563 0.979605
O O1 0.711245 0.912113 0.524550
O O2 0.888725 0.733615 0.289497
O O3 0.621230 0.768469 0.749348
O O4 0.000000 0.000000 0.500000
O O5 0.245240 0.402044 0.206306
O O6 0.220645 0.657424 0.491059
O O7 0.129294 0.423515 0.586928
O O8 0.529672 0.604450 0.239188
O O9 0.246062 0.762498 0.068288
O O10 0.000000 0.500000 0.000000
O O11 0.726139 0.424331 0.911626
O O12 0.948422 0.737765 0.928786
O O13 0.341997 0.848410 0.719177
O O14 0.280950 0.950086 0.610955
O O15 0.548168 0.116294 0.822989
#
# Coordination Sequence:
#
# PCOD8032869 Si02
#       7
#     2   2   2   2   2   2   2
#     4  12  28  48  74 106 152 202 246 300 377 459
#     4  11  23  44  76 112 141 188 254 310 369 432
#     4  12  28  46  75 110 148 195 253 314 365 437
#     4  11  23  43  81 108 143 188 256 309 370 429
#     4  11  24  46  73 108 148 193 240 316 364 444
#     4  11  26  48  71 106 157 195 244 297 389 453
#     4  12  24  47  73 109 143 201 247 306 374 446
#
# _framework density 24.220887000000001
#
# number of rings (size 3 to 8) (size 9 to 14) (size 15 to 20)
#    0.000    0.571    5.714    1.714    2.000    1.714 
#    2.571    1.429    0.000    0.000    0.000    0.000 
#    0.000    0.000    0.000    0.000    0.000    0.000 
#
# Total GULP energy -173657.538241 kJ/mol
# GULP energy per Si atom -12404.109874 kJ/mol
# Density = 2.416576 g / cm^3
# Si number density = 24.220887 Si / 1000 Ang^3
#
#
#
# Elastic Constant Matrix: (Units=GPa)
#
#
# Indices 1 2 3 4 5 6 
#
# 1 146.9044 44.2102 42.5308 -16.1246 -18.4430 12.7048
# 2 44.2102 89.8620 27.8712 -9.7175 -11.0446 11.0912
# 3 42.5308 27.8712 95.2584 -0.9440 -19.8099 9.2435
# 4 -16.1246 -9.7175 -0.9440 28.0773 6.1731 -13.4999
# 5 -18.4430 -11.0446 -19.8099 6.1731 44.1640 -6.0407
# 6 12.7048 11.0912 9.2435 -13.4999 -6.0407 53.1385
#
#
#
# Elastic Compliance Matrix: (Units=1/GPa)
#
#
# Indices 1 2 3 4 5 6 
#
# 1 0.009132 -0.003033 -0.002905 0.003865 0.001222 0.000076
# 2 -0.003033 0.013836 -0.002435 0.002306 0.000631 -0.001082
# 3 -0.002905 -0.002435 0.013579 -0.003838 0.004585 -0.001613
# 4 0.003865 0.002306 -0.003838 0.044277 -0.004350 0.010016
# 5 0.001222 0.000631 0.004585 -0.004350 0.026063 0.000636
# 6 0.000076 -0.001082 -0.001613 0.010016 0.000636 0.021924
#
#
# Mechanical properties :
#
#
# Convention : Reuss Voigt Hill
#
# Bulk Modulus (GPa) = 50.50096 62.36102 56.43099
# Shear Modulus (GPa) = 32.86089 39.57014 36.21551
#
# Velocity S-wave (km/s) = 3.68736 4.04631 3.87100
# Velocity P-wave (km/s) = 6.24694 6.90166 6.58245
#
# Compressibility (1/GPa) = 0.01980160
#
# Stress axis : x y z
#
# Youngs Moduli (GPa) = 109.50535 72.27510 73.64284
#
# Poissons Ratio (x) = 0.21921 0.21391
# Poissons Ratio (y) = 0.33213 0.17932
# Poissons Ratio (z) = 0.31808 0.17599
#
# Static dielectric constant tensor:
#      x y z
#    x 4.621910 0.027400 -0.285890 
#    y 0.027400 4.335020 -0.084670 
#    z -0.285890 -0.084670 4.314120 
# 
# 
# High freq. dielectric constant tensor:
#      x y z
#    x 1.974300 0.001630 -0.013160 
#    y 0.001630 1.957220 -0.010620 
#    z -0.013160 -0.010620 1.963580 
# 
# From -- ./inp_files/262871.got.cif
#   From: 2010.06.25/outbox.cif.g09.slc.cpg/sg2_132_cif.got.tgz:262871.got - 2010.06.27 13:26:56.
