data_PCOD8032151
_publ_section_title
;
Structure prediction by ZEFSAII (Michael W. Deem and Ramdas Pophale) SiO2 
 PCOD8032151
Probable space group: P -1
;
_chemical_formula_sum "Si O2"
_cell_formula_units_Z 16
_cell_length_a 11.233426
_cell_length_b 14.133642
_cell_length_c 8.018346
_cell_angle_alpha 104.562782
_cell_angle_beta 37.144443
_cell_angle_gamma 91.625438
_cell_volume 711.039073
_symmetry_space_group_name_H-M "P -1"
_symmetry_group_IT_number 2
_symmetry_cell_setting 'triclinic'
loop_
_space_group_symop_operation_xyz
x,y,z
-x,-y,-z
loop_
_atom_site_type_symbol
_atom_site_label
_atom_site_fract_x
_atom_site_fract_y
_atom_site_fract_z
Si Si1 0.422838 0.459077 0.903531
Si Si2 0.821181 0.349256 0.910943
Si Si3 0.214128 0.846461 0.279299
Si Si4 0.512451 0.851855 0.220905
Si Si5 0.159641 0.905887 0.867719
Si Si6 0.109175 0.342138 0.268665
Si Si7 0.838910 0.318325 0.254739
Si Si8 0.226950 0.021666 0.142721
O O1 0.594197 0.364069 0.585615
O O2 0.500000 0.500000 0.000000
O O3 0.364797 0.548791 0.870421
O O4 0.217042 0.431618 0.176728
O O5 0.733875 0.250571 0.946899
O O6 0.998780 0.343937 0.571942
O O7 0.895201 0.352656 0.022220
O O8 0.353088 0.808012 0.271351
O O9 0.967316 0.876120 0.595207
O O10 0.273589 0.951636 0.224119
O O11 0.391468 0.893949 0.542472
O O12 0.718095 0.764639 0.994351
O O13 0.571928 0.946909 0.114169
O O14 0.091480 0.804408 0.874684
O O15 0.165700 0.935330 0.064635
O O16 0.000000 0.000000 0.000000
O O17 0.956116 0.358007 0.288545
#
# Coordination Sequence:
#
# PCOD8032151 Si02
#       8
#     2   2   2   2   2   2   2   2
#     4  12  26  51  80 104 147 192 234 302 369 425
#     4  12  25  49  77 105 147 192 238 304 361 421
#     4  11  23  44  65  99 142 179 239 294 352 427
#     4  12  23  42  69  99 141 190 238 290 360 426
#     4  12  23  44  69  96 146 190 234 299 354 418
#     4  12  26  49  74 107 145 187 238 301 363 429
#     4  12  27  50  73 110 147 186 247 298 354 439
#     4  11  23  41  66  99 137 187 236 290 357 419
#
# _framework density 22.502281
#
# number of rings (size 3 to 8) (size 9 to 14) (size 15 to 20)
#    0.000    0.250    6.250    3.750    0.000    0.500 
#    9.000    0.000    0.000    0.000    0.000    0.000 
#    0.000    0.000    0.000    0.000    0.000    0.000 
#
# Total GULP energy -198310.775388 kJ/mol
# GULP energy per Si atom -12394.423462 kJ/mol
# Density = 2.245106 g / cm^3
# Si number density = 22.502281 Si / 1000 Ang^3
#
#
#
# Elastic Constant Matrix: (Units=GPa)
#
#
# Indices 1 2 3 4 5 6 
#
# 1 108.9858 36.6019 34.1343 -8.4423 6.0719 -7.8504
# 2 36.6019 109.4938 41.7395 -0.5208 -10.0973 -0.5907
# 3 34.1343 41.7395 74.2677 6.3657 9.8696 -18.8737
# 4 -8.4423 -0.5208 6.3657 42.4927 -3.3787 -3.4247
# 5 6.0719 -10.0973 9.8696 -3.3787 32.4702 0.6520
# 6 -7.8504 -0.5907 -18.8737 -3.4247 0.6520 38.3684
#
#
#
# Elastic Compliance Matrix: (Units=1/GPa)
#
#
# Indices 1 2 3 4 5 6 
#
# 1 0.011556 -0.002586 -0.003686 0.002754 -0.001574 0.000784
# 2 -0.002586 0.014215 -0.009198 0.001278 0.007930 -0.004855
# 3 -0.003686 -0.009198 0.024935 -0.004513 -0.010443 0.011145
# 4 0.002754 0.001278 -0.004513 0.025123 0.003857 0.000540
# 5 -0.001574 0.007930 -0.010443 0.003857 0.037246 -0.005626
# 6 0.000784 -0.004855 0.011145 0.000540 -0.005626 0.031775
#
#
# Mechanical properties :
#
#
# Convention : Reuss Voigt Hill
#
# Bulk Modulus (GPa) = 50.58869 57.52208 54.05539
# Shear Modulus (GPa) = 27.41591 34.68438 31.05015
#
# Velocity S-wave (km/s) = 3.49429 3.93029 3.71869
# Velocity P-wave (km/s) = 6.22981 6.79813 6.52016
#
# Compressibility (1/GPa) = 0.01976726
#
# Stress axis : x y z
#
# Youngs Moduli (GPa) = 86.53696 70.34996 40.10472
#
# Poissons Ratio (x) = 0.18191 0.14781
# Poissons Ratio (y) = 0.22376 0.36887
# Poissons Ratio (z) = 0.31894 0.64705
#
# Static dielectric constant tensor:
#      x y z
#    x 2.429840 0.356640 -0.245430 
#    y 0.356640 4.014950 0.175690 
#    z -0.245430 0.175690 4.117110 
# 
# 
# High freq. dielectric constant tensor:
#      x y z
#    x 1.883890 -0.007750 0.002200 
#    y -0.007750 1.905490 0.008190 
#    z 0.002200 0.008190 1.884510 
# 
# From -- ./inp_files/273284.got.cif
#   From: 2010.06.25/outbox.cif.g09.slc.cpg/sg2_137_cif.got.tgz:273284.got - 2010.06.27 13:26:56.
