data_PCOD8032631
_publ_section_title
;
Structure prediction by ZEFSAII (Michael W. Deem and Ramdas Pophale) SiO2 
 PCOD8032631
Probable space group: P -1
;
_chemical_formula_sum "Si O2"
_cell_formula_units_Z 16
_cell_length_a 8.749015
_cell_length_b 19.996287
_cell_length_c 5.541188
_cell_angle_alpha 83.139883
_cell_angle_beta 98.533701
_cell_angle_gamma 137.768039
_cell_volume 644.298405
_symmetry_space_group_name_H-M "P -1"
_symmetry_group_IT_number 2
_symmetry_cell_setting 'triclinic'
loop_
_space_group_symop_operation_xyz
x,y,z
-x,-y,-z
loop_
_atom_site_type_symbol
_atom_site_label
_atom_site_fract_x
_atom_site_fract_y
_atom_site_fract_z
Si Si1 0.908136 0.631309 0.995838
Si Si2 0.751602 0.686652 0.557075
Si Si3 0.498035 0.155770 0.357374
Si Si4 0.106014 0.122185 0.399314
Si Si5 0.850833 0.384798 0.248950
Si Si6 0.832004 0.185028 0.747489
Si Si7 0.158901 0.961623 0.115419
Si Si8 0.265099 0.517612 0.636823
O O1 0.723303 0.551107 0.192052
O O2 0.131412 0.746338 0.072873
O O3 0.789094 0.633418 0.753710
O O4 0.999573 0.585659 0.962942
O O5 0.802196 0.772875 0.670942
O O6 0.480187 0.595280 0.470953
O O7 0.913212 0.736115 0.342944
O O8 0.307894 0.133304 0.482340
O O9 0.674505 0.267253 0.264496
O O10 0.626326 0.138908 0.544618
O O11 0.383425 0.080586 0.133919
O O12 0.960283 0.071031 0.633136
O O13 0.981180 0.059837 0.145256
O O14 0.722177 0.414870 0.201468
O O15 0.018575 0.437166 0.492781
O O16 0.769930 0.093213 0.887126
#
# Coordination Sequence:
#
# PCOD8032631 Si02
#       8
#     2   2   2   2   2   2   2   2
#     4  12  22  42  67  96 139 179 244 285 364 424
#     4  11  23  43  68  96 144 189 233 297 355 434
#     4  12  23  48  71 104 144 190 235 302 365 423
#     4  11  25  48  72 111 143 192 246 295 365 439
#     4  11  25  43  66 101 135 178 241 295 359 428
#     4  11  25  45  68 108 142 187 238 295 362 439
#     4  11  26  48  76 107 148 191 242 297 367 439
#     4  11  24  45  65  96 139 182 238 293 364 418
#
# _framework density 24.833214999999999
#
# number of rings (size 3 to 8) (size 9 to 14) (size 15 to 20)
#    0.000    0.750    5.000    1.875    0.000    5.000 
#    0.000    2.500    0.000    0.000    0.000    0.000 
#    0.000    0.000    0.000    0.000    0.000    0.000 
#
# Total GULP energy -198261.122911 kJ/mol
# GULP energy per Si atom -12391.320182 kJ/mol
# Density = 2.477669 g / cm^3
# Si number density = 24.833215 Si / 1000 Ang^3
#
#
#
# Elastic Constant Matrix: (Units=GPa)
#
#
# Indices 1 2 3 4 5 6 
#
# 1 95.7059 40.4502 2.0277 0.0937 -2.3189 -11.2312
# 2 40.4502 108.7162 39.9900 33.6100 5.0776 34.7595
# 3 2.0277 39.9900 71.3989 -6.1527 -2.2438 -11.4926
# 4 0.0937 33.6100 -6.1527 4.7924 -15.1658 -23.6622
# 5 -2.3189 5.0776 -2.2438 -15.1658 25.7989 6.0488
# 6 -11.2312 34.7595 -11.4926 -23.6622 6.0488 -14.8404
#
#
#
# Elastic Compliance Matrix: (Units=1/GPa)
#
#
# Indices 1 2 3 4 5 6 
#
# 1 0.010772 -0.001278 -0.000455 -0.006374 -0.002208 -0.001530
# 2 -0.001278 0.005998 -0.001410 0.002572 -0.002484 0.010994
# 3 -0.000455 -0.001410 0.013404 -0.004008 0.000616 -0.006697
# 4 -0.006374 0.002572 -0.004008 0.053669 0.042821 -0.054166
# 5 -0.002208 -0.002484 0.000616 0.042821 0.074272 -0.042627
# 6 -0.001530 0.010994 -0.006697 -0.054166 -0.042627 0.033701
#
#
# Mechanical properties :
#
#
# Convention : Reuss Voigt Hill
#
# Bulk Modulus (GPa) = 41.86108 48.97300 45.41704
# Shear Modulus (GPa) = 24.26422 16.04040 20.15231
#
# Velocity S-wave (km/s) = 3.12923 2.54426 2.85179
# Velocity P-wave (km/s) = 5.47262 5.32866 5.40112
#
# Compressibility (1/GPa) = 0.02388854
#
# Stress axis : x y z
#
# Youngs Moduli (GPa) = 92.83680 166.72200 74.60191
#
# Poissons Ratio (x) = 0.21303 0.03395
# Poissons Ratio (y) = 0.11862 0.10518
# Poissons Ratio (z) = 0.04225 0.23506
#
# Static dielectric constant tensor:
#      x y z
#    x 4.807760 -0.297420 -0.214060 
#    y -0.297420 4.903040 0.152130 
#    z -0.214060 0.152130 4.067870 
# 
# 
# High freq. dielectric constant tensor:
#      x y z
#    x 1.998500 -0.019190 -0.009980 
#    y -0.019190 2.014350 0.003210 
#    z -0.009980 0.003210 1.960850 
# 
# From -- ./inp_files/39233.got.cif
#   From: 2010.06.25/outbox.cif.g09.slc.cpg/sg2_20_cif.got.tgz:39233.got - 2010.06.27 13:26:56.
