data_PCOD8032484
_publ_section_title
;
Structure prediction by ZEFSAII (Michael W. Deem and Ramdas Pophale) SiO2 
 PCOD8032484
Probable space group: P -1
;
_chemical_formula_sum "Si O2"
_cell_formula_units_Z 16
_cell_length_a 11.176676
_cell_length_b 19.185411
_cell_length_c 8.167695
_cell_angle_alpha 132.686732
_cell_angle_beta 126.324735
_cell_angle_gamma 32.190706
_cell_volume 685.073860
_symmetry_space_group_name_H-M "P -1"
_symmetry_group_IT_number 2
_symmetry_cell_setting 'triclinic'
loop_
_space_group_symop_operation_xyz
x,y,z
-x,-y,-z
loop_
_atom_site_type_symbol
_atom_site_label
_atom_site_fract_x
_atom_site_fract_y
_atom_site_fract_z
Si Si1 0.210449 0.027733 0.614721
Si Si2 0.569162 0.801410 0.296855
Si Si3 0.085550 0.487648 0.726581
Si Si4 0.246380 0.854132 0.605472
Si Si5 0.256969 0.605952 0.550816
Si Si6 0.421625 0.445982 0.759241
Si Si7 0.230982 0.833216 0.912499
Si Si8 0.118164 0.272540 0.818875
O O1 0.125031 0.177072 0.792056
O O2 0.014445 0.051087 0.430075
O O3 0.424559 0.931216 0.514518
O O4 0.276662 0.948751 0.717683
O O5 0.808844 0.655497 0.332361
O O6 0.643707 0.829386 0.246012
O O7 0.417061 0.782105 0.106491
O O8 0.277241 0.471662 0.827240
O O9 0.000000 0.500000 0.500000
O O10 0.907629 0.622032 0.919409
O O11 0.368628 0.723720 0.373989
O O12 0.353133 0.793535 0.774039
O O13 0.500000 0.500000 0.500000
O O14 0.276525 0.533261 0.615055
O O15 0.171997 0.751417 0.764283
O O16 0.088186 0.639934 0.337307
O O17 0.500000 0.500000 0.000000
O O18 0.000000 0.000000 0.000000
#
# Coordination Sequence:
#
# PCOD8032484 Si02
#       8
#     2   2   2   2   2   2   2   2
#     4  11  23  45  70 104 140 187 228 293 352 428
#     4  12  25  45  73 101 145 188 236 292 359 427
#     4  12  28  47  67 102 141 190 238 288 364 421
#     4  11  23  42  72 100 146 177 237 288 357 406
#     4  12  23  42  71 102 140 182 244 294 349 414
#     4  12  24  42  72 105 137 182 236 296 351 416
#     4  12  24  42  69 108 139 185 236 288 357 423
#     4  12  26  47  70 106 142 188 240 296 352 427
#
# _framework density 23.355146000000001
#
# number of rings (size 3 to 8) (size 9 to 14) (size 15 to 20)
#    0.000    0.250    5.000    4.500    1.750    1.000 
#    0.000    3.750    0.000    0.000    0.000    0.000 
#    0.000    0.000    0.000    0.000    0.000    0.000 
#
# Total GULP energy -198349.719971 kJ/mol
# GULP energy per Si atom -12396.857498 kJ/mol
# Density = 2.330199 g / cm^3
# Si number density = 23.355146 Si / 1000 Ang^3
#
#
#
# Elastic Constant Matrix: (Units=GPa)
#
#
# Indices 1 2 3 4 5 6 
#
# 1 103.0072 18.3012 -2.1432 14.0424 -6.5768 2.8550
# 2 18.3012 90.5527 30.9532 15.3805 2.3531 12.2736
# 3 -2.1432 30.9532 81.0800 0.1924 1.4364 0.5618
# 4 14.0424 15.3805 0.1924 40.0348 -2.5386 -2.9227
# 5 -6.5768 2.3531 1.4364 -2.5386 31.6463 3.6517
# 6 2.8550 12.2736 0.5618 -2.9227 3.6517 47.8105
#
#
#
# Elastic Compliance Matrix: (Units=1/GPa)
#
#
# Indices 1 2 3 4 5 6 
#
# 1 0.010624 -0.002000 0.001017 -0.002862 0.002135 -0.000471
# 2 -0.002000 0.014842 -0.005658 -0.005334 -0.001246 -0.003855
# 3 0.001017 -0.005658 0.014507 0.001843 -0.000033 0.001336
# 4 -0.002862 -0.005334 0.001843 0.028354 0.001632 0.003127
# 5 0.002135 -0.001246 -0.000033 0.001632 0.032521 -0.002192
# 6 -0.000471 -0.003855 0.001336 0.003127 -0.002192 0.022277
#
#
# Mechanical properties :
#
#
# Convention : Reuss Voigt Hill
#
# Bulk Modulus (GPa) = 37.46565 40.98472 39.22518
# Shear Modulus (GPa) = 34.41042 39.06690 36.73866
#
# Velocity S-wave (km/s) = 3.84259 4.09434 3.97046
# Velocity P-wave (km/s) = 5.98029 6.31966 6.15232
#
# Compressibility (1/GPa) = 0.02669112
#
# Stress axis : x y z
#
# Youngs Moduli (GPa) = 94.12543 67.37480 68.93127
#
# Poissons Ratio (x) = 0.13477 -0.07008
# Poissons Ratio (y) = 0.18828 0.38999
# Poissons Ratio (z) = -0.09570 0.38118
#
# Static dielectric constant tensor:
#      x y z
#    x 4.173430 0.252150 -0.006730 
#    y 0.252150 4.333610 0.033130 
#    z -0.006730 0.033130 4.047330 
# 
# 
# High freq. dielectric constant tensor:
#      x y z
#    x 1.939530 0.007020 -0.006690 
#    y 0.007020 1.925470 0.009410 
#    z -0.006690 0.009410 1.911890 
# 
# From -- ./inp_files/205152.got.cif
#   From: 2010.06.25/outbox.cif.g09.slc.cpg/sg2_103_cif.got.tgz:205152.got - 2010.06.27 13:26:56.
