data_PCOD8032119
_publ_section_title
;
Structure prediction by ZEFSAII (Michael W. Deem and Ramdas Pophale) SiO2 
 PCOD8032119
Probable space group: P -1
;
_chemical_formula_sum "Si O2"
_cell_formula_units_Z 14
_cell_length_a 9.726226
_cell_length_b 13.161759
_cell_length_c 6.698091
_cell_angle_alpha 107.903252
_cell_angle_beta 126.342920
_cell_angle_gamma 92.571939
_cell_volume 627.722437
_symmetry_space_group_name_H-M "P -1"
_symmetry_group_IT_number 2
_symmetry_cell_setting 'triclinic'
loop_
_space_group_symop_operation_xyz
x,y,z
-x,-y,-z
loop_
_atom_site_type_symbol
_atom_site_label
_atom_site_fract_x
_atom_site_fract_y
_atom_site_fract_z
Si Si1 0.299542 0.244644 0.646673
Si Si2 0.413944 0.616893 0.298618
Si Si3 0.738990 0.129264 0.258752
Si Si4 0.710266 0.639444 0.888463
Si Si5 0.438518 0.049398 0.675166
Si Si6 0.107522 0.728833 0.178379
Si Si7 0.967353 0.114924 0.100589
O O1 0.476787 0.336942 0.780045
O O2 0.301992 0.116620 0.544861
O O3 0.130559 0.229333 0.345702
O O4 0.259873 0.270965 0.854424
O O5 0.551810 0.658347 0.626151
O O6 0.348805 0.484136 0.146609
O O7 0.239454 0.659495 0.179296
O O8 0.845008 0.243259 0.530237
O O9 0.870682 0.081857 0.210758
O O10 0.642075 0.048259 0.300323
O O11 0.596366 0.144328 0.982210
O O12 0.898206 0.657323 0.944978
O O13 0.500000 0.000000 0.500000
O O14 0.142594 0.842918 0.143467
O O15 0.000000 0.000000 0.000000
#
# Coordination Sequence:
#
# PCOD8032119 Si02
#       7
#     2   2   2   2   2   2   2
#     4  12  23  43  67  95 140 178 223 286 344 400
#     4  11  25  46  72  99 135 179 231 290 346 407
#     4  11  23  41  64  97 134 179 228 273 340 410
#     4  11  25  46  71 102 133 179 234 288 347 404
#     4  11  24  41  66  99 136 181 231 279 340 413
#     4  12  24  45  70 100 141 179 228 284 348 406
#     4  12  26  40  66 101 141 179 225 279 336 411
#
# _framework density 22.302852999999999
#
# number of rings (size 3 to 8) (size 9 to 14) (size 15 to 20)
#    0.000    0.571    2.857    6.000    2.000    3.429 
#    0.000    0.714    0.000    0.000    0.000    0.000 
#    0.000    0.000    0.000    0.000    0.000    0.000 
#
# Total GULP energy -173487.893898 kJ/mol
# GULP energy per Si atom -12391.992421 kJ/mol
# Density = 2.225209 g / cm^3
# Si number density = 22.302853 Si / 1000 Ang^3
#
#
#
# Elastic Constant Matrix: (Units=GPa)
#
#
# Indices 1 2 3 4 5 6 
#
# 1 141.4372 26.8256 31.7242 -4.9985 -3.8968 -0.4206
# 2 26.8256 69.9098 20.1383 -11.3641 -3.3293 -9.8412
# 3 31.7242 20.1383 110.3821 1.2410 0.4004 -2.0495
# 4 -4.9985 -11.3641 1.2410 27.5205 -0.3257 1.7292
# 5 -3.8968 -3.3293 0.4004 -0.3257 37.3226 0.1605
# 6 -0.4206 -9.8412 -2.0495 1.7292 0.1605 35.3033
#
#
#
# Elastic Compliance Matrix: (Units=1/GPa)
#
#
# Indices 1 2 3 4 5 6 
#
# 1 0.008000 -0.002518 -0.001862 0.000552 0.000639 -0.000745
# 2 -0.002518 0.017783 -0.002519 0.006737 0.001390 0.004445
# 3 -0.001862 -0.002519 0.010076 -0.001836 -0.000543 -0.000047
# 4 0.000552 0.006737 -0.001836 0.039323 0.001022 -0.000153
# 5 0.000639 0.001390 -0.000543 0.001022 0.026998 0.000191
# 6 -0.000745 0.004445 -0.000047 -0.000153 0.000191 0.029560
#
#
# Mechanical properties :
#
#
# Convention : Reuss Voigt Hill
#
# Bulk Modulus (GPa) = 45.32958 53.23393 49.28175
# Shear Modulus (GPa) = 32.70268 36.23202 34.46735
#
# Velocity S-wave (km/s) = 3.83338 4.03494 3.93545
# Velocity P-wave (km/s) = 6.32153 6.75486 6.54179
#
# Compressibility (1/GPa) = 0.02206065
#
# Stress axis : x y z
#
# Youngs Moduli (GPa) = 124.99260 56.23360 99.24623
#
# Poissons Ratio (x) = 0.14161 0.18482
# Poissons Ratio (y) = 0.31476 0.24999
# Poissons Ratio (z) = 0.23277 0.14164
#
# Static dielectric constant tensor:
#      x y z
#    x 4.207080 0.108090 0.264280 
#    y 0.108090 3.714200 -0.120240 
#    z 0.264280 -0.120240 4.444150 
# 
# 
# High freq. dielectric constant tensor:
#      x y z
#    x 1.893220 0.007840 0.008990 
#    y 0.007840 1.858050 -0.004920 
#    z 0.008990 -0.004920 1.900690 
# 
# From -- ./inp_files/40097.got.cif
#   From: 2010.06.25/outbox.cif.g09.slc.cpg/sg2_21_cif.got.tgz:40097.got - 2010.06.27 13:26:56.
