data_PCOD8032850
_publ_section_title
;
Structure prediction by ZEFSAII (Michael W. Deem and Ramdas Pophale) SiO2 
 PCOD8032850
Probable space group: P -1
;
_chemical_formula_sum "Si O2"
_cell_formula_units_Z 16
_cell_length_a 12.598741
_cell_length_b 9.703327
_cell_length_c 20.053970
_cell_angle_alpha 135.360454
_cell_angle_beta 153.763076
_cell_angle_gamma 46.616321
_cell_volume 752.135970
_symmetry_space_group_name_H-M "P -1"
_symmetry_group_IT_number 2
_symmetry_cell_setting 'triclinic'
loop_
_space_group_symop_operation_xyz
x,y,z
-x,-y,-z
loop_
_atom_site_type_symbol
_atom_site_label
_atom_site_fract_x
_atom_site_fract_y
_atom_site_fract_z
Si Si1 0.821992 0.274405 0.880070
Si Si2 0.657242 0.504892 0.525208
Si Si3 0.514701 0.405286 0.875167
Si Si4 0.791390 0.672398 0.207409
Si Si5 0.616801 0.051368 0.152012
Si Si6 0.732637 0.889729 0.630807
Si Si7 0.100063 0.666936 0.656030
Si Si8 0.328808 0.380529 0.185751
O O1 0.662701 0.267166 0.854826
O O2 0.681164 0.423828 0.797978
O O3 0.868804 0.052048 0.800209
O O4 0.071367 0.357054 0.066299
O O5 0.500000 0.500000 0.500000
O O6 0.661044 0.735938 0.591589
O O7 0.530220 0.394590 0.358708
O O8 0.922255 0.377673 0.637905
O O9 0.344875 0.285107 0.783203
O O10 0.345991 0.586437 0.806405
O O11 0.706610 0.484032 0.059135
O O12 0.730301 0.860776 0.191264
O O13 0.841412 0.168829 0.306413
O O14 0.401847 0.183135 0.116130
O O15 0.500000 0.000000 0.000000
O O16 0.904066 0.763943 0.631195
O O17 0.500000 0.000000 0.500000
O O18 0.000000 0.500000 0.500000
#
# Coordination Sequence:
#
# PCOD8032850 Si02
#       8
#     2   2   2   2   2   2   2   2
#     4  11  23  43  76 102 140 182 236 290 344 414
#     4  12  27  47  66 101 147 185 226 293 360 405
#     4  11  23  46  70 103 139 186 229 291 353 402
#     4  11  26  44  71  99 145 183 234 291 348 420
#     4  12  24  44  73 102 130 182 240 282 347 416
#     4  12  25  44  71 105 136 183 237 277 341 426
#     4  12  24  44  73 101 138 180 234 290 340 412
#     4  11  24  44  68 106 143 179 234 292 346 413
#
# _framework density 21.272749000000001
#
# number of rings (size 3 to 8) (size 9 to 14) (size 15 to 20)
#    0.000    0.500    5.000    3.000    1.750    3.500 
#    0.000    1.875    0.000    0.000    0.000    0.000 
#    0.000    0.000    0.000    0.000    0.000    0.000 
#
# Total GULP energy -198478.251889 kJ/mol
# GULP energy per Si atom -12404.890743 kJ/mol
# Density = 2.122433 g / cm^3
# Si number density = 21.272749 Si / 1000 Ang^3
#
#
#
# Elastic Constant Matrix: (Units=GPa)
#
#
# Indices 1 2 3 4 5 6 
#
# 1 179.4126 65.2900 68.5252 1.3458 6.3083 0.4699
# 2 65.2900 129.2798 55.8969 -1.0038 -3.4634 9.5597
# 3 68.5252 55.8969 131.2372 -4.0295 1.1017 -7.5345
# 4 1.3458 -1.0038 -4.0295 34.6335 -3.0148 -2.0723
# 5 6.3083 -3.4634 1.1017 -3.0148 31.4203 6.6067
# 6 0.4699 9.5597 -7.5345 -2.0723 6.6067 46.9864
#
#
#
# Elastic Compliance Matrix: (Units=1/GPa)
#
#
# Indices 1 2 3 4 5 6 
#
# 1 0.007741 -0.002744 -0.002869 -0.000864 -0.001891 0.000249
# 2 -0.002744 0.010888 -0.003401 0.000062 0.002525 -0.003085
# 3 -0.002869 -0.003401 0.010762 0.001369 -0.000589 0.002590
# 4 -0.000864 0.000062 0.001369 0.029372 0.002713 0.001130
# 5 -0.001891 0.002525 -0.000589 0.002713 0.033866 -0.005231
# 6 0.000249 -0.003085 0.002590 0.001130 -0.005231 0.023109
#
#
# Mechanical properties :
#
#
# Convention : Reuss Voigt Hill
#
# Bulk Modulus (GPa) = 88.01550 91.03932 89.52741
# Shear Modulus (GPa) = 36.34954 39.28921 37.81937
#
# Velocity S-wave (km/s) = 4.13817 4.30225 4.22101
# Velocity P-wave (km/s) = 8.01855 8.21999 8.11990
#
# Compressibility (1/GPa) = 0.01136164
#
# Stress axis : x y z
#
# Youngs Moduli (GPa) = 129.18764 91.84511 92.91878
#
# Poissons Ratio (x) = 0.25207 0.26660
# Poissons Ratio (y) = 0.35455 0.31600
# Poissons Ratio (z) = 0.37067 0.31235
#
# Static dielectric constant tensor:
#      x y z
#    x 4.564110 -0.242060 1.672010 
#    y -0.242060 4.076720 -0.970240 
#    z 1.672010 -0.970240 8.737100 
# 
# 
# High freq. dielectric constant tensor:
#      x y z
#    x 1.851790 0.001710 0.004790 
#    y 0.001710 1.831890 -0.000590 
#    z 0.004790 -0.000590 1.844280 
# 
# From -- ./inp_files/383381.got.cif
#   From: 2010.06.25/outbox.cif.g09.slc.cpg/sg2_192_cif.got.tgz:383381.got - 2010.06.27 13:26:56.
