data_PCOD8032886
_publ_section_title
;
Structure prediction by ZEFSAII (Michael W. Deem and Ramdas Pophale) SiO2 
 PCOD8032886
Probable space group: P -1
;
_chemical_formula_sum "Si O2"
_cell_formula_units_Z 16
_cell_length_a 19.664807
_cell_length_b 16.170448
_cell_length_c 9.545709
_cell_angle_alpha 123.640211
_cell_angle_beta 44.967073
_cell_angle_gamma 158.490666
_cell_volume 720.035431
_symmetry_space_group_name_H-M "P -1"
_symmetry_group_IT_number 2
_symmetry_cell_setting 'triclinic'
loop_
_space_group_symop_operation_xyz
x,y,z
-x,-y,-z
loop_
_atom_site_type_symbol
_atom_site_label
_atom_site_fract_x
_atom_site_fract_y
_atom_site_fract_z
Si Si1 0.830421 0.603428 0.861043
Si Si2 0.701506 0.906859 0.836714
Si Si3 0.846585 0.267707 0.573137
Si Si4 0.614515 0.142506 0.318627
Si Si5 0.369595 0.379643 0.432581
Si Si6 0.299562 0.313894 0.000592
Si Si7 0.910097 0.297907 0.817570
Si Si8 0.023939 0.880029 0.109825
O O1 0.806639 0.678004 0.868547
O O2 0.005519 0.694109 0.614185
O O3 0.568862 0.308891 0.986504
O O4 0.927375 0.712866 0.979191
O O5 0.731534 0.823922 0.655093
O O6 0.874815 0.145387 0.724287
O O7 0.757461 0.960603 0.973062
O O8 0.806692 0.249694 0.780192
O O9 0.000000 0.500000 0.500000
O O10 0.595951 0.017789 0.625371
O O11 0.806214 0.411913 0.314932
O O12 0.500000 0.000000 0.500000
O O13 0.762006 0.195470 0.073399
O O14 0.500000 0.500000 0.500000
O O15 0.165760 0.270498 0.634016
O O16 0.570670 0.608683 0.250325
O O17 0.500000 0.500000 0.000000
O O18 0.081102 0.036918 0.095701
#
# Coordination Sequence:
#
# PCOD8032886 Si02
#       8
#     2   2   2   2   2   2   2   2
#     4  11  26  43  71 108 143 188 249 298 358 437
#     4  11  25  44  68 108 144 187 247 297 359 438
#     4  12  26  47  78 105 148 195 234 306 371 430
#     4  11  25  51  77 108 144 188 244 300 368 439
#     4  11  23  44  66  97 142 188 236 299 351 422
#     4  11  23  45  70  99 140 190 237 294 359 420
#     4  11  27  46  78 108 145 190 243 301 368 436
#     4  12  24  44  71  98 148 190 238 303 359 423
#
# _framework density 22.221129000000001
#
# number of rings (size 3 to 8) (size 9 to 14) (size 15 to 20)
#    0.000    0.750    6.250    1.875    3.500    1.000 
#    2.250    0.000    0.000    0.000    0.000    0.000 
#    0.000    0.000    0.000    0.000    0.000    0.000 
#
# Total GULP energy -198377.236627 kJ/mol
# GULP energy per Si atom -12398.577289 kJ/mol
# Density = 2.217055 g / cm^3
# Si number density = 22.221129 Si / 1000 Ang^3
#
#
#
# Elastic Constant Matrix: (Units=GPa)
#
#
# Indices 1 2 3 4 5 6 
#
# 1 102.9870 61.5490 31.8217 4.1335 25.1407 10.7863
# 2 61.5490 140.0121 22.9552 -8.0210 9.7789 24.7972
# 3 31.8217 22.9552 105.8959 -0.7582 9.6471 7.1815
# 4 4.1335 -8.0210 -0.7582 27.7651 2.8660 11.5642
# 5 25.1407 9.7789 9.6471 2.8660 38.5010 1.6607
# 6 10.7863 24.7972 7.1815 11.5642 1.6607 46.6198
#
#
#
# Elastic Compliance Matrix: (Units=1/GPa)
#
#
# Indices 1 2 3 4 5 6 
#
# 1 0.016696 -0.006818 -0.002933 -0.004351 -0.008180 0.001586
# 2 -0.006818 0.011575 -0.000102 0.006850 0.001300 -0.006309
# 3 -0.002933 -0.000102 0.010502 0.001257 -0.000734 -0.001171
# 4 -0.004351 0.006850 0.001257 0.044640 -0.001940 -0.013834
# 5 -0.008180 0.001300 -0.000734 -0.001940 0.031284 0.000681
# 6 0.001586 -0.006309 -0.001171 -0.013834 0.000681 0.028027
#
#
# Mechanical properties :
#
#
# Convention : Reuss Voigt Hill
#
# Bulk Modulus (GPa) = 52.44298 64.61632 58.52965
# Shear Modulus (GPa) = 29.62373 38.08176 33.85275
#
# Velocity S-wave (km/s) = 3.65517 4.14425 3.90737
# Velocity P-wave (km/s) = 6.43937 7.21399 6.83766
#
# Compressibility (1/GPa) = 0.01906833
#
# Stress axis : x y z
#
# Youngs Moduli (GPa) = 59.89428 86.39349 95.22120
#
# Poissons Ratio (x) = 0.58899 0.27926
# Poissons Ratio (y) = 0.40833 0.00971
# Poissons Ratio (z) = 0.17566 0.00881
#
# Static dielectric constant tensor:
#      x y z
#    x 4.137320 0.034840 -0.249290 
#    y 0.034840 4.406120 0.237860 
#    z -0.249290 0.237860 4.908370 
# 
# 
# High freq. dielectric constant tensor:
#      x y z
#    x 1.871810 0.017340 0.012600 
#    y 0.017340 1.891360 -0.003080 
#    z 0.012600 -0.003080 1.874610 
# 
# From -- ./inp_files/348508.got.cif
#   From: 2010.06.25/outbox.cif.g09.slc.cpg/sg2_175_cif.got.tgz:348508.got - 2010.06.27 13:26:56.
