data_PCOD8032489
_publ_section_title
;
Structure prediction by ZEFSAII (Michael W. Deem and Ramdas Pophale) SiO2 
 PCOD8032489
Probable space group: P -1
;
_chemical_formula_sum "Si O2"
_cell_formula_units_Z 14
_cell_length_a 14.902672
_cell_length_b 30.197968
_cell_length_c 23.960612
_cell_angle_alpha 10.099780
_cell_angle_beta 19.972605
_cell_angle_gamma 19.420680
_cell_volume 616.675543
_symmetry_space_group_name_H-M "P -1"
_symmetry_group_IT_number 2
_symmetry_cell_setting 'triclinic'
loop_
_space_group_symop_operation_xyz
x,y,z
-x,-y,-z
loop_
_atom_site_type_symbol
_atom_site_label
_atom_site_fract_x
_atom_site_fract_y
_atom_site_fract_z
Si Si1 0.437645 0.778237 0.656936
Si Si2 0.899156 0.065512 0.673303
Si Si3 0.671797 0.633697 0.379211
Si Si4 0.278820 0.764810 0.640011
Si Si5 0.210028 0.248544 0.713047
Si Si6 0.215906 0.234996 0.367765
Si Si7 0.969686 0.801680 0.363740
O O1 0.423084 0.750094 0.634210
O O2 0.682073 0.907871 0.366438
O O3 0.500000 0.500000 0.000000
O O4 0.156330 0.996070 0.567907
O O5 0.655444 0.328425 0.471983
O O6 0.999774 0.105314 0.627038
O O7 0.753047 0.835185 0.039442
O O8 0.795960 0.685854 0.299937
O O9 0.808485 0.351471 0.621195
O O10 0.484797 0.807294 0.420036
O O11 0.236310 0.475001 0.018156
O O12 0.000000 0.000000 0.500000
O O13 0.000000 0.500000 0.500000
O O14 0.083089 0.017033 0.059231
O O15 0.097824 0.358051 0.344657
O O16 0.500000 0.000000 0.500000
#
# Coordination Sequence:
#
# PCOD8032489 Si02
#       7
#     2   2   2   2   2   2   2
#     4  12  22  45  77 103 138 195 261 297 351 454
#     4  11  23  42  72 105 142 179 255 308 350 426
#     4  11  25  44  68 107 144 186 234 311 369 429
#     4  12  28  47  71 111 154 188 241 315 381 427
#     4  12  28  48  69 103 156 189 239 308 377 439
#     4  12  23  46  80 107 139 202 258 299 353 453
#     4  12  25  45  79 104 138 197 259 292 360 451
#
# _framework density 22.702376999999998
#
# number of rings (size 3 to 8) (size 9 to 14) (size 15 to 20)
#    0.000    0.286    5.714    2.571    2.000    4.000 
#    0.000    1.429    0.000    0.000    0.000    0.000 
#    0.000    0.000    0.000    0.000    0.000    0.000 
#
# Total GULP energy -173500.350398 kJ/mol
# GULP energy per Si atom -12392.882171 kJ/mol
# Density = 2.265071 g / cm^3
# Si number density = 22.702377 Si / 1000 Ang^3
#
#
#
# Elastic Constant Matrix: (Units=GPa)
#
#
# Indices 1 2 3 4 5 6 
#
# 1 109.5760 35.3323 27.3880 -11.7776 -23.5440 5.5224
# 2 35.3323 173.7611 30.0056 -12.0482 -9.1786 -7.4577
# 3 27.3880 30.0056 68.0508 -9.8136 -3.1383 -6.0081
# 4 -11.7776 -12.0482 -9.8136 26.0997 1.7337 -1.5608
# 5 -23.5440 -9.1786 -3.1383 1.7337 34.9687 -0.9201
# 6 5.5224 -7.4577 -6.0081 -1.5608 -0.9201 48.3754
#
#
#
# Elastic Compliance Matrix: (Units=1/GPa)
#
#
# Indices 1 2 3 4 5 6 
#
# 1 0.012567 -0.001367 -0.003843 0.002980 0.007560 -0.001883
# 2 -0.001367 0.006566 -0.001988 0.001688 0.000567 0.000986
# 3 -0.003843 -0.001988 0.017884 0.004329 -0.001654 0.002462
# 4 0.002980 0.001688 0.004329 0.042123 0.000798 0.001832
# 5 0.007560 0.000567 -0.001654 0.000798 0.033640 -0.000315
# 6 -0.001883 0.000986 0.002462 0.001832 -0.000315 0.021397
#
#
# Mechanical properties :
#
#
# Convention : Reuss Voigt Hill
#
# Bulk Modulus (GPa) = 44.20764 59.64886 51.92825
# Shear Modulus (GPa) = 32.02826 39.13290 35.58058
#
# Velocity S-wave (km/s) = 3.76012 4.15629 3.96316
# Velocity P-wave (km/s) = 6.19406 7.02598 6.62309
#
# Compressibility (1/GPa) = 0.02262052
#
# Stress axis : x y z
#
# Youngs Moduli (GPa) = 79.57421 152.30971 55.91703
#
# Poissons Ratio (x) = 0.20813 0.21489
# Poissons Ratio (y) = 0.10874 0.11118
# Poissons Ratio (z) = 0.30580 0.30284
#
# Static dielectric constant tensor:
#      x y z
#    x 4.168090 -0.105470 -0.202770 
#    y -0.105470 4.385680 0.084270 
#    z -0.202770 0.084270 3.937750 
# 
# 
# High freq. dielectric constant tensor:
#      x y z
#    x 1.908530 -0.000430 -0.020070 
#    y -0.000430 1.910700 0.007910 
#    z -0.020070 0.007910 1.878740 
# 
# From -- ./inp_files/545152.got.cif
#   From: 2010.06.25/outbox.cif.g09.slc.cpg/sg2_273_cif.got.tgz:545152.got - 2010.06.27 13:26:56.
