data_PCOD8032851
_publ_section_title
;
Structure prediction by ZEFSAII (Michael W. Deem and Ramdas Pophale) SiO2 
 PCOD8032851
Probable space group: P -1
;
_chemical_formula_sum "Si O2"
_cell_formula_units_Z 14
_cell_length_a 8.301074
_cell_length_b 17.554407
_cell_length_c 8.869738
_cell_angle_alpha 50.344175
_cell_angle_beta 70.006806
_cell_angle_gamma 109.482284
_cell_volume 604.934011
_symmetry_space_group_name_H-M "P -1"
_symmetry_group_IT_number 2
_symmetry_cell_setting 'triclinic'
loop_
_space_group_symop_operation_xyz
x,y,z
-x,-y,-z
loop_
_atom_site_type_symbol
_atom_site_label
_atom_site_fract_x
_atom_site_fract_y
_atom_site_fract_z
Si Si1 0.404420 0.206973 0.191136
Si Si2 0.135932 0.060177 0.162172
Si Si3 0.220723 0.523292 0.457649
Si Si4 0.850436 0.726988 0.264066
Si Si5 0.658933 0.000196 0.056968
Si Si6 0.279000 0.729528 0.728775
Si Si7 0.306057 0.557670 0.719240
O O1 0.300022 0.103671 0.205274
O O2 0.634324 0.247113 0.154197
O O3 0.538335 0.366170 0.881278
O O4 0.159364 0.115774 0.498609
O O5 0.112783 0.168021 0.001564
O O6 0.264497 0.068346 0.963130
O O7 0.128513 0.369517 0.703733
O O8 0.318543 0.608728 0.480495
O O9 0.000000 0.500000 0.500000
O O10 0.566219 0.604585 0.594559
O O11 0.077003 0.829525 0.187900
O O12 0.466250 0.895670 0.390933
O O13 0.500000 0.000000 0.000000
O O14 0.317091 0.644566 0.733970
O O15 0.970152 0.625350 0.948926
#
# Coordination Sequence:
#
# PCOD8032851 Si02
#       7
#     2   2   2   2   2   2   2
#     4  11  23  43  76 103 141 185 232 295 351 408
#     4  11  24  47  73 104 141 182 240 290 348 420
#     4  12  26  45  71 103 143 186 235 289 351 418
#     4  12  25  44  77  98 142 189 234 286 353 412
#     4  12  27  46  72 104 141 190 232 289 351 421
#     4  11  23  44  73 103 144 184 231 292 348 412
#     4  11  24  43  72 100 141 185 228 289 348 414
#
# _framework density 23.143018999999999
#
# number of rings (size 3 to 8) (size 9 to 14) (size 15 to 20)
#    0.000    0.571    5.714    1.714    4.000    1.143 
#    2.571    4.286    0.000    0.000    0.000    0.000 
#    0.000    0.000    0.000    0.000    0.000    0.000 
#
# Total GULP energy -173540.424287 kJ/mol
# GULP energy per Si atom -12395.744592 kJ/mol
# Density = 2.309034 g / cm^3
# Si number density = 23.143019 Si / 1000 Ang^3
#
#
#
# Elastic Constant Matrix: (Units=GPa)
#
#
# Indices 1 2 3 4 5 6 
#
# 1 106.0693 41.4611 53.5975 -12.8042 -13.2708 16.6893
# 2 41.4611 81.0410 37.8730 -6.4417 -2.4086 21.5233
# 3 53.5975 37.8730 149.5372 6.0518 -14.7476 2.8788
# 4 -12.8042 -6.4417 6.0518 37.0200 7.0651 -5.4498
# 5 -13.2708 -2.4086 -14.7476 7.0651 44.4759 -8.8420
# 6 16.6893 21.5233 2.8788 -5.4498 -8.8420 42.0845
#
#
#
# Elastic Compliance Matrix: (Units=1/GPa)
#
#
# Indices 1 2 3 4 5 6 
#
# 1 0.014208 -0.004470 -0.003928 0.004149 0.001597 -0.002207
# 2 -0.004470 0.018256 -0.003256 0.001631 -0.003237 -0.007810
# 3 -0.003928 -0.003256 0.009293 -0.003587 0.002844 0.002721
# 4 0.004149 0.001631 -0.003587 0.030290 -0.004528 0.000737
# 5 0.001597 -0.003237 0.002844 -0.004528 0.025563 0.005612
# 6 -0.002207 -0.007810 0.002721 0.000737 0.005612 0.029720
#
#
# Mechanical properties :
#
#
# Convention : Reuss Voigt Hill
#
# Bulk Modulus (GPa) = 54.20632 66.94562 60.57597
# Shear Modulus (GPa) = 31.89026 38.29714 35.09370
#
# Velocity S-wave (km/s) = 3.71612 4.07234 3.89830
# Velocity P-wave (km/s) = 6.47193 7.14854 6.81863
#
# Compressibility (1/GPa) = 0.01844804
#
# Stress axis : x y z
#
# Youngs Moduli (GPa) = 70.38395 54.77771 107.60476
#
# Poissons Ratio (x) = 0.24483 0.42271
# Poissons Ratio (y) = 0.31459 0.35041
# Poissons Ratio (z) = 0.27649 0.17838
#
# Static dielectric constant tensor:
#      x y z
#    x 3.976840 0.304470 -0.392440 
#    y 0.304470 4.125560 0.030080 
#    z -0.392440 0.030080 4.746710 
# 
# 
# High freq. dielectric constant tensor:
#      x y z
#    x 1.895810 0.028670 -0.027580 
#    y 0.028670 1.910540 0.001080 
#    z -0.027580 0.001080 1.935430 
# 
# From -- ./inp_files/216702.got.cif
#   From: 2010.06.25/outbox.cif.g09.slc.cpg/sg2_109_cif.got.tgz:216702.got - 2010.06.27 13:26:56.
