data_PCOD8032958
_publ_section_title
;
Structure prediction by ZEFSAII (Michael W. Deem and Ramdas Pophale) SiO2 
 PCOD8032958
Probable space group: P -1
;
_chemical_formula_sum "Si O2"
_cell_formula_units_Z 14
_cell_length_a 9.485423
_cell_length_b 9.561439
_cell_length_c 8.768275
_cell_angle_alpha 80.361028
_cell_angle_beta 101.469173
_cell_angle_gamma 122.531108
_cell_volume 655.307925
_symmetry_space_group_name_H-M "P -1"
_symmetry_group_IT_number 2
_symmetry_cell_setting 'triclinic'
loop_
_space_group_symop_operation_xyz
x,y,z
-x,-y,-z
loop_
_atom_site_type_symbol
_atom_site_label
_atom_site_fract_x
_atom_site_fract_y
_atom_site_fract_z
Si Si1 0.088293 0.534550 0.353877
Si Si2 0.023785 0.762156 0.095304
Si Si3 0.336762 0.412127 0.086408
Si Si4 0.896712 0.187542 0.228918
Si Si5 0.143823 0.069864 0.259071
Si Si6 0.364039 0.028385 0.552034
Si Si7 0.566225 0.397439 0.620180
O O1 0.099173 0.690167 0.243516
O O2 0.271374 0.576532 0.436806
O O3 0.000000 0.500000 0.500000
O O4 0.001617 0.381501 0.249744
O O5 0.035505 0.924275 0.141243
O O6 0.140856 0.825152 0.957625
O O7 0.829200 0.624754 0.036689
O O8 0.296018 0.235571 0.179816
O O9 0.381512 0.544944 0.205570
O O10 0.500000 0.500000 0.000000
O O11 0.014737 0.112019 0.305626
O O12 0.726439 0.104281 0.306861
O O13 0.222060 0.001054 0.407352
O O14 0.431228 0.202901 0.618102
O O15 0.500000 0.000000 0.500000
O O16 0.500000 0.500000 0.500000
#
# Coordination Sequence:
#
# PCOD8032958 Si02
#       7
#     2   2   2   2   2   2   2
#     4  12  25  45  71  98 134 184 223 279 333 404
#     4  11  25  45  71 102 135 172 236 276 338 401
#     4  11  25  42  71 104 135 175 222 289 338 389
#     4  11  23  44  69  95 132 176 226 276 329 401
#     4  11  23  47  67  99 133 179 230 271 330 411
#     4  12  26  44  65 102 138 177 224 277 338 398
#     4  12  25  46  68 101 138 175 229 274 337 405
#
# _framework density 21.364001999999999
#
# number of rings (size 3 to 8) (size 9 to 14) (size 15 to 20)
#    0.000    0.571    4.286    5.143    6.000    1.143 
#    0.000    1.429    0.000    0.000    0.000    0.000 
#    0.000    0.000    0.000    0.000    0.000    0.000 
#
# Total GULP energy -173589.483498 kJ/mol
# GULP energy per Si atom -12399.248821 kJ/mol
# Density = 2.131538 g / cm^3
# Si number density = 21.364002 Si / 1000 Ang^3
#
#
#
# Elastic Constant Matrix: (Units=GPa)
#
#
# Indices 1 2 3 4 5 6 
#
# 1 127.6112 22.8966 61.3343 -16.1585 -14.7994 6.7541
# 2 22.8966 109.3401 29.6787 13.4580 -0.6009 -2.2594
# 3 61.3343 29.6787 111.4889 -5.0216 -7.5268 3.3938
# 4 -16.1585 13.4580 -5.0216 47.4381 2.3008 -4.6793
# 5 -14.7994 -0.6009 -7.5268 2.3008 37.0627 -5.8477
# 6 6.7541 -2.2594 3.3938 -4.6793 -5.8477 38.2015
#
#
#
# Elastic Compliance Matrix: (Units=1/GPa)
#
#
# Indices 1 2 3 4 5 6 
#
# 1 0.011644 -0.001334 -0.005658 0.003522 0.003146 -0.000722
# 2 -0.001334 0.010492 -0.002272 -0.003593 -0.000516 0.000539
# 3 -0.005658 -0.002272 0.012712 0.000029 0.000249 -0.000222
# 4 0.003522 -0.003593 0.000029 0.023496 0.000223 0.002074
# 5 0.003146 -0.000516 0.000249 0.000223 0.028872 0.003838
# 6 -0.000722 0.000539 -0.000222 0.002074 0.003838 0.027198
#
#
# Mechanical properties :
#
#
# Convention : Reuss Voigt Hill
#
# Bulk Modulus (GPa) = 61.27297 64.02881 62.65089
# Shear Modulus (GPa) = 36.13194 40.17581 38.15388
#
# Velocity S-wave (km/s) = 4.11695 4.34122 4.23057
# Velocity P-wave (km/s) = 7.16531 7.42723 7.29745
#
# Compressibility (1/GPa) = 0.01632041
#
# Stress axis : x y z
#
# Youngs Moduli (GPa) = 85.88152 95.30624 78.66685
#
# Poissons Ratio (x) = 0.12711 0.44507
# Poissons Ratio (y) = 0.11454 0.17877
# Poissons Ratio (z) = 0.48589 0.21658
#
# Static dielectric constant tensor:
#      x y z
#    x 4.217950 0.451340 0.616010 
#    y 0.451340 4.505240 0.779400 
#    z 0.616010 0.779400 4.812610 
# 
# 
# High freq. dielectric constant tensor:
#      x y z
#    x 1.834260 -0.005670 -0.004950 
#    y -0.005670 1.856220 0.010480 
#    z -0.004950 0.010480 1.844280 
# 
# From -- ./inp_files/156691.got.cif
#   From: 2010.06.25/outbox.cif.g09.slc.cpg/sg2_79_cif.got.tgz:156691.got - 2010.06.27 13:26:56.
