data_PCOD8032127
_publ_section_title
;
Structure prediction by ZEFSAII (Michael W. Deem and Ramdas Pophale) SiO2 
 PCOD8032127
Probable space group: P -1
;
_chemical_formula_sum "Si O2"
_cell_formula_units_Z 16
_cell_length_a 5.618432
_cell_length_b 11.538451
_cell_length_c 12.934483
_cell_angle_alpha 77.110583
_cell_angle_beta 73.105455
_cell_angle_gamma 62.616838
_cell_volume 708.471565
_symmetry_space_group_name_H-M "P -1"
_symmetry_group_IT_number 2
_symmetry_cell_setting 'triclinic'
loop_
_space_group_symop_operation_xyz
x,y,z
-x,-y,-z
loop_
_atom_site_type_symbol
_atom_site_label
_atom_site_fract_x
_atom_site_fract_y
_atom_site_fract_z
Si Si1 0.553527 0.896900 0.924310
Si Si2 0.203536 0.374243 0.936780
Si Si3 0.544821 0.079743 0.572016
Si Si4 0.189894 0.669583 0.179009
Si Si5 0.037679 0.100437 0.301322
Si Si6 0.683898 0.306617 0.446250
Si Si7 0.835355 0.950185 0.217845
Si Si8 0.188727 0.563594 0.418959
O O1 0.765574 0.904289 0.814300
O O2 0.269166 0.950769 0.886203
O O3 0.663472 0.749820 0.979565
O O4 0.500000 0.000000 0.000000
O O5 0.475414 0.395989 0.863792
O O6 0.007961 0.350405 0.879822
O O7 0.000000 0.500000 0.000000
O O8 0.515633 0.220132 0.507053
O O9 0.359470 0.109771 0.693769
O O10 0.500000 0.000000 0.500000
O O11 0.844171 0.987577 0.594935
O O12 0.114419 0.610652 0.302052
O O13 0.110022 0.825502 0.171443
O O14 0.882554 0.247878 0.334577
O O15 0.840163 0.041810 0.292079
O O16 0.498808 0.453818 0.404884
O O17 0.844232 0.312523 0.529566
O O18 0.000000 0.500000 0.500000
#
# Coordination Sequence:
#
# PCOD8032127 Si02
#       8
#     2   2   2   2   2   2   2   2
#     4  11  25  47  73 104 144 189 253 313 382 442
#     4  12  30  52  78 109 148 200 255 325 379 452
#     4  11  23  41  65 106 148 187 232 303 371 446
#     4  12  28  49  79 108 151 195 259 305 389 456
#     4  11  25  39  70 105 141 189 243 310 369 454
#     4  11  25  43  67 104 146 191 249 297 377 456
#     4  11  24  42  74 108 144 193 243 307 380 453
#     4  11  28  45  73 101 150 203 244 307 373 462
#
# _framework density 22.583826999999999
#
# number of rings (size 3 to 8) (size 9 to 14) (size 15 to 20)
#    0.000    0.750    2.500    3.000   14.000    2.000 
#    0.000    0.000    0.000    0.000    0.000    0.000 
#    0.000    0.000    0.000    0.000    0.000    0.000 
#
# Total GULP energy -198227.213932 kJ/mol
# GULP energy per Si atom -12389.200871 kJ/mol
# Density = 2.253243 g / cm^3
# Si number density = 22.583827 Si / 1000 Ang^3
#
#
#
# Elastic Constant Matrix: (Units=GPa)
#
#
# Indices 1 2 3 4 5 6 
#
# 1 108.8740 37.3862 52.5087 7.4643 19.3905 2.1137
# 2 37.3862 150.2819 67.8440 17.7384 12.3543 -0.6945
# 3 52.5087 67.8440 148.6999 2.3734 17.3978 -3.4669
# 4 7.4643 17.7384 2.3734 48.1173 1.6537 -1.2599
# 5 19.3905 12.3543 17.3978 1.6537 44.7945 4.2582
# 6 2.1137 -0.6945 -3.4669 -1.2599 4.2582 36.4379
#
#
#
# Elastic Compliance Matrix: (Units=1/GPa)
#
#
# Indices 1 2 3 4 5 6 
#
# 1 0.011842 -0.001034 -0.003302 -0.001192 -0.003452 -0.000659
# 2 -0.001034 0.008926 -0.003607 -0.002940 -0.000490 -0.000157
# 3 -0.003302 -0.003607 0.009722 0.001448 -0.001526 0.001276
# 4 -0.001192 -0.002940 0.001448 0.022009 -0.000137 0.000928
# 5 -0.003452 -0.000490 -0.001526 -0.000137 0.024823 -0.002860
# 6 -0.000659 -0.000157 0.001276 0.000928 -0.002860 0.027967
#
#
# Mechanical properties :
#
#
# Convention : Reuss Voigt Hill
#
# Bulk Modulus (GPa) = 68.47516 80.37041 74.42278
# Shear Modulus (GPa) = 39.66898 42.54439 41.10669
#
# Velocity S-wave (km/s) = 4.19563 4.34504 4.27099
# Velocity P-wave (km/s) = 7.33876 7.79983 7.57280
#
# Compressibility (1/GPa) = 0.01460384
#
# Stress axis : x y z
#
# Youngs Moduli (GPa) = 84.44616 112.02986 102.85945
#
# Poissons Ratio (x) = 0.11581 0.33969
# Poissons Ratio (y) = 0.08729 0.37101
# Poissons Ratio (z) = 0.27888 0.40409
#
# Static dielectric constant tensor:
#      x y z
#    x 4.123530 -0.212270 0.174960 
#    y -0.212270 4.413500 0.120300 
#    z 0.174960 0.120300 4.265950 
# 
# 
# High freq. dielectric constant tensor:
#      x y z
#    x 1.893050 -0.008510 0.004620 
#    y -0.008510 1.896960 0.007050 
#    z 0.004620 0.007050 1.909940 
# 
# From -- ./inp_files/364269.got.cif
#   From: 2010.06.25/outbox.cif.g09.slc.cpg/sg2_183_cif.got.tgz:364269.got - 2010.06.27 13:26:56.
