data_PCOD8032805
_publ_section_title
;
Structure prediction by ZEFSAII (Michael W. Deem and Ramdas Pophale) SiO2 
 PCOD8032805
Probable space group: P -1
;
_chemical_formula_sum "Si O2"
_cell_formula_units_Z 12
_cell_length_a 11.290487
_cell_length_b 8.669693
_cell_length_c 10.871668
_cell_angle_alpha 88.818693
_cell_angle_beta 117.416164
_cell_angle_gamma 39.510799
_cell_volume 448.588939
_symmetry_space_group_name_H-M "P -1"
_symmetry_group_IT_number 2
_symmetry_cell_setting 'triclinic'
loop_
_space_group_symop_operation_xyz
x,y,z
-x,-y,-z
loop_
_atom_site_type_symbol
_atom_site_label
_atom_site_fract_x
_atom_site_fract_y
_atom_site_fract_z
Si Si1 0.491077 0.721722 0.850793
Si Si2 0.077963 0.216557 0.852873
Si Si3 0.106702 0.530190 0.788923
Si Si4 0.705910 0.217983 0.841315
Si Si5 0.329212 0.192188 0.664475
Si Si6 0.510790 0.226373 0.532477
O O1 0.477549 0.568282 0.783379
O O2 0.215306 0.011033 0.797861
O O3 0.493534 0.863023 0.755141
O O4 0.781019 0.446168 0.071121
O O5 0.091541 0.387231 0.861677
O O6 0.755232 0.478245 0.689947
O O7 0.249514 0.985974 0.058370
O O8 0.341015 0.279329 0.796515
O O9 0.785762 0.897498 0.588787
O O10 0.594041 0.293829 0.649911
O O11 0.000000 0.000000 0.000000
O O12 0.434376 0.170082 0.593943
O O13 0.000000 0.500000 0.500000
#
# Coordination Sequence:
#
# PCOD8032805 Si02
#       6
#     2   2   2   2   2   2
#     4  11  23  46  68  99 142 182 228 291 343 418
#     4  11  25  45  71 102 136 184 239 286 345 412
#     4  11  23  44  73 104 137 177 237 294 342 409
#     4  12  27  45  66 103 145 187 232 276 353 420
#     4  11  23  43  73 107 132 173 237 289 347 404
#     4  12  25  47  74 104 140 185 231 292 346 409
#
# _framework density 26.750546
#
# number of rings (size 3 to 8) (size 9 to 14) (size 15 to 20)
#    0.000    0.667    5.000    5.000    2.333    2.667 
#    3.000    0.000    0.000    0.000    0.000    0.000 
#    0.000    0.000    0.000    0.000    0.000    0.000 
#
# Total GULP energy -148772.288111 kJ/mol
# GULP energy per Si atom -12397.690676 kJ/mol
# Density = 2.668966 g / cm^3
# Si number density = 26.750546 Si / 1000 Ang^3
#
#
#
# Elastic Constant Matrix: (Units=GPa)
#
#
# Indices 1 2 3 4 5 6 
#
# 1 31.7478 13.0101 5.0070 0.4375 17.2574 -5.8543
# 2 13.0101 118.0181 24.6976 -19.4489 -1.4401 12.8310
# 3 5.0070 24.6976 101.6459 -6.4544 11.6896 12.7946
# 4 0.4375 -19.4489 -6.4544 36.5866 -9.8287 7.6190
# 5 17.2574 -1.4401 11.6896 -9.8287 36.0652 -4.5983
# 6 -5.8543 12.8310 12.7946 7.6190 -4.5983 30.9681
#
#
#
# Elastic Compliance Matrix: (Units=1/GPa)
#
#
# Indices 1 2 3 4 5 6 
#
# 1 0.055122 -0.011015 0.000435 -0.017516 -0.029859 0.014680
# 2 -0.011015 0.012761 -0.001836 0.010455 0.008209 -0.007964
# 3 0.000435 -0.001836 0.011412 0.000847 -0.004352 -0.004727
# 4 -0.017516 0.010455 0.000847 0.041257 0.017791 -0.015502
# 5 -0.029859 0.008209 -0.004352 0.017791 0.048029 -0.004493
# 6 0.014680 -0.007964 -0.004727 -0.015502 -0.004493 0.043466
#
#
# Mechanical properties :
#
#
# Convention : Reuss Voigt Hill
#
# Bulk Modulus (GPa) = 18.36073 37.42679 27.89376
# Shear Modulus (GPa) = 19.60535 34.63711 27.12123
#
# Velocity S-wave (km/s) = 2.71014 3.60226 3.18757
# Velocity P-wave (km/s) = 4.08310 5.59671 4.89872
#
# Compressibility (1/GPa) = 0.05446405
#
# Stress axis : x y z
#
# Youngs Moduli (GPa) = 18.14148 78.36598 87.62737
#
# Poissons Ratio (x) = 0.86317 -0.03810
# Poissons Ratio (y) = 0.19982 0.16085
# Poissons Ratio (z) = -0.00789 0.14385
#
# Static dielectric constant tensor:
#      x y z
#    x -33.101930 62.149610 29.210270 
#    y 62.149610 -94.698660 -47.525720 
#    z 29.210270 -47.525720 -17.295220 
# 
# 
# High freq. dielectric constant tensor:
#      x y z
#    x 2.059320 -0.004690 0.015630 
#    y -0.004690 2.084010 0.002590 
#    z 0.015630 0.002590 2.088550 
# 
# From -- ./inp_files/149295.got.cif
#   From: 2010.06.25/outbox.cif.g09.slc.cpg/sg2_75_cif.got.tgz:149295.got - 2010.06.27 13:26:56.
