data_PCOD8032734
_publ_section_title
;
Structure prediction by ZEFSAII (Michael W. Deem and Ramdas Pophale) SiO2 
 PCOD8032734
Probable space group: P -1
;
_chemical_formula_sum "Si O2"
_cell_formula_units_Z 14
_cell_length_a 10.122936
_cell_length_b 18.442849
_cell_length_c 21.154119
_cell_angle_alpha 19.306057
_cell_angle_beta 133.555635
_cell_angle_gamma 145.541701
_cell_volume 649.571560
_symmetry_space_group_name_H-M "P -1"
_symmetry_group_IT_number 2
_symmetry_cell_setting 'triclinic'
loop_
_space_group_symop_operation_xyz
x,y,z
-x,-y,-z
loop_
_atom_site_type_symbol
_atom_site_label
_atom_site_fract_x
_atom_site_fract_y
_atom_site_fract_z
Si Si1 0.914288 0.305430 0.568276
Si Si2 0.158295 0.639542 0.634329
Si Si3 0.349714 0.611031 0.988454
Si Si4 0.311018 0.647931 0.202794
Si Si5 0.804753 0.298720 0.015655
Si Si6 0.449421 0.556993 0.504872
Si Si7 0.497896 0.345574 0.188075
O O1 0.893332 0.459767 0.375450
O O2 0.000000 0.500000 0.500000
O O3 0.138873 0.326372 0.605172
O O4 0.635197 0.940157 0.786503
O O5 0.223760 0.476043 0.831091
O O6 0.915127 0.561698 0.646740
O O7 0.393991 0.021074 0.399135
O O8 0.318649 0.626587 0.039829
O O9 0.328244 0.331621 0.196205
O O10 0.112862 0.527650 0.943180
O O11 0.457944 0.543492 0.331272
O O12 0.192715 0.600590 0.135382
O O13 0.500000 0.000000 0.000000
O O14 0.623783 0.925840 0.269141
O O15 0.500000 0.500000 0.500000
O O16 0.500000 0.500000 0.000000
#
# Coordination Sequence:
#
# PCOD8032734 Si02
#       7
#     2   2   2   2   2   2   2
#     4  12  25  46  71 104 146 183 233 297 351 420
#     4  11  25  42  70 107 134 180 239 287 346 420
#     4  11  25  45  71  97 144 187 229 293 355 411
#     4  12  25  41  71 102 137 183 233 283 348 424
#     4  11  25  48  67 103 141 184 236 290 350 422
#     4  12  24  46  71 100 142 184 230 287 351 413
#     4  11  23  43  71 101 137 175 231 296 351 410
#
# _framework density 21.552668000000001
#
# number of rings (size 3 to 8) (size 9 to 14) (size 15 to 20)
#    0.000    0.571    5.714    1.714    4.000    1.143 
#    0.000    3.571    0.000    0.000    0.000    0.000 
#    0.000    0.000    0.000    0.000    0.000    0.000 
#
# Total GULP energy -173524.344223 kJ/mol
# GULP energy per Si atom -12394.596016 kJ/mol
# Density = 2.150361 g / cm^3
# Si number density = 21.552668 Si / 1000 Ang^3
#
#
#
# Elastic Constant Matrix: (Units=GPa)
#
#
# Indices 1 2 3 4 5 6 
#
# 1 151.3547 66.3647 23.8342 5.4464 0.2028 -6.0231
# 2 66.3647 128.2263 39.6334 15.0202 -12.7560 -8.4111
# 3 23.8342 39.6334 65.6981 14.5333 -2.1156 -3.0183
# 4 5.4464 15.0202 14.5333 38.7530 3.7971 -4.0716
# 5 0.2028 -12.7560 -2.1156 3.7971 36.6002 -6.1076
# 6 -6.0231 -8.4111 -3.0183 -4.0716 -6.1076 52.4363
#
#
#
# Elastic Compliance Matrix: (Units=1/GPa)
#
#
# Indices 1 2 3 4 5 6 
#
# 1 0.008689 -0.004578 -0.000661 0.000984 -0.001768 0.000096
# 2 -0.004578 0.012634 -0.005162 -0.002612 0.004659 0.001543
# 3 -0.000661 -0.005162 0.019738 -0.005316 -0.000136 -0.000196
# 4 0.000984 -0.002612 -0.005316 0.029193 -0.004054 0.001183
# 5 -0.001768 0.004659 -0.000136 -0.004054 0.029988 0.003715
# 6 0.000096 0.001543 -0.000196 0.001183 0.003715 0.019843
#
#
# Mechanical properties :
#
#
# Convention : Reuss Voigt Hill
#
# Bulk Modulus (GPa) = 49.36079 67.21596 58.28837
# Shear Modulus (GPa) = 33.86611 39.92102 36.89357
#
# Velocity S-wave (km/s) = 3.96829 4.30845 4.14186
# Velocity P-wave (km/s) = 6.62937 7.48364 7.06942
#
# Compressibility (1/GPa) = 0.02025900
#
# Stress axis : x y z
#
# Youngs Moduli (GPa) = 115.08780 79.15030 50.66447
#
# Poissons Ratio (x) = 0.36232 0.03349
# Poissons Ratio (y) = 0.52683 0.26155
# Poissons Ratio (z) = 0.07607 0.40860
#
# Static dielectric constant tensor:
#      x y z
#    x 4.267560 0.010990 0.171240 
#    y 0.010990 4.294690 0.185430 
#    z 0.171240 0.185430 3.847790 
# 
# 
# High freq. dielectric constant tensor:
#      x y z
#    x 1.857240 -0.000250 -0.002250 
#    y -0.000250 1.870310 0.001770 
#    z -0.002250 0.001770 1.827930 
# 
# From -- ./inp_files/467014.got.cif
#   From: 2010.06.25/outbox.cif.g09.slc.cpg/sg2_234_cif.got.tgz:467014.got - 2010.06.27 13:26:56.
