data_PCOD8032759
_publ_section_title
;
Structure prediction by ZEFSAII (Michael W. Deem and Ramdas Pophale) SiO2 
 PCOD8032759
Probable space group: P -1
;
_chemical_formula_sum "Si O2"
_cell_formula_units_Z 16
_cell_length_a 11.584008
_cell_length_b 8.924377
_cell_length_c 9.271996
_cell_angle_alpha 95.975207
_cell_angle_beta 118.160303
_cell_angle_gamma 61.335113
_cell_volume 732.182184
_symmetry_space_group_name_H-M "P -1"
_symmetry_group_IT_number 2
_symmetry_cell_setting 'triclinic'
loop_
_space_group_symop_operation_xyz
x,y,z
-x,-y,-z
loop_
_atom_site_type_symbol
_atom_site_label
_atom_site_fract_x
_atom_site_fract_y
_atom_site_fract_z
Si Si1 0.193077 0.079269 0.290420
Si Si2 0.125439 0.058085 0.581807
Si Si3 0.584268 0.234043 0.776447
Si Si4 0.935009 0.412419 0.058397
Si Si5 0.391864 0.439736 0.200421
Si Si6 0.336573 0.304052 0.433172
Si Si7 0.571408 0.125717 0.075610
Si Si8 0.989006 0.432566 0.638668
O O1 0.159657 0.081024 0.439785
O O2 0.308156 0.152418 0.343171
O O3 0.042246 0.207586 0.127348
O O4 0.268757 0.888934 0.245973
O O5 0.051666 0.230119 0.650798
O O6 0.282281 0.936953 0.742697
O O7 0.000000 0.000000 0.500000
O O8 0.536618 0.435801 0.756484
O O9 0.438505 0.231126 0.627980
O O10 0.615956 0.165667 0.950610
O O11 0.904981 0.520429 0.198363
O O12 0.784499 0.430846 0.907275
O O13 0.000000 0.500000 0.000000
O O14 0.426127 0.345636 0.366487
O O15 0.445945 0.301844 0.090256
O O16 0.180578 0.475105 0.393342
O O17 0.500000 0.000000 0.000000
O O18 0.000000 0.500000 0.500000
#
# Coordination Sequence:
#
# PCOD8032759 Si02
#       8
#     2   2   2   2   2   2   2   2
#     4  11  24  46  68  99 136 181 226 275 337 412
#     4  12  28  44  70 103 141 177 227 286 340 399
#     4  12  28  42  70 101 138 172 227 287 340 396
#     4  11  23  43  72 100 131 178 231 275 336 413
#     4  12  26  45  70 100 138 175 224 285 345 400
#     4  11  23  45  71  95 134 185 224 270 340 415
#     4  12  28  48  71  99 138 186 229 278 337 416
#     4  11  23  43  71  97 131 180 229 274 333 405
#
# _framework density 21.852485000000001
#
# number of rings (size 3 to 8) (size 9 to 14) (size 15 to 20)
#    0.000    0.500    5.000    4.125    8.750    0.500 
#    0.000    0.000    0.000    0.000    0.000    0.000 
#    0.000    0.000    0.000    0.000    0.000    0.000 
#
# Total GULP energy -198389.880639 kJ/mol
# GULP energy per Si atom -12399.367540 kJ/mol
# Density = 2.180275 g / cm^3
# Si number density = 21.852485 Si / 1000 Ang^3
#
#
#
# Elastic Constant Matrix: (Units=GPa)
#
#
# Indices 1 2 3 4 5 6 
#
# 1 75.4837 24.6975 28.7778 -0.6165 -6.2531 4.6858
# 2 24.6975 119.6989 13.6965 11.1026 -3.2092 -4.0163
# 3 28.7778 13.6965 111.5130 -18.5782 -4.0192 -3.3036
# 4 -0.6165 11.1026 -18.5782 35.3564 -6.2382 -3.6843
# 5 -6.2531 -3.2092 -4.0192 -6.2382 49.9452 -1.6325
# 6 4.6858 -4.0163 -3.3036 -3.6843 -1.6325 36.6542
#
#
#
# Elastic Compliance Matrix: (Units=1/GPa)
#
#
# Indices 1 2 3 4 5 6 
#
# 1 0.015947 -0.002802 -0.003971 -0.000988 0.001284 -0.002746
# 2 -0.002802 0.009392 -0.000987 -0.003459 -0.000228 0.000941
# 3 -0.003971 -0.000987 0.011328 0.006637 0.001250 0.002143
# 4 -0.000988 -0.003459 0.006637 0.034060 0.004572 0.003973
# 5 0.001284 -0.000228 0.001250 0.004572 0.020883 0.001313
# 6 -0.002746 0.000941 0.002143 0.003973 0.001313 0.028387
#
#
# Mechanical properties :
#
#
# Convention : Reuss Voigt Hill
#
# Bulk Modulus (GPa) = 47.28892 49.00435 48.14664
# Shear Modulus (GPa) = 35.07145 40.35940 37.71542
#
# Velocity S-wave (km/s) = 4.01049 4.30222 4.15891
# Velocity P-wave (km/s) = 6.56753 6.86677 6.71882
#
# Compressibility (1/GPa) = 0.02114660
#
# Stress axis : x y z
#
# Youngs Moduli (GPa) = 62.70622 106.47742 88.27807
#
# Poissons Ratio (x) = 0.29836 0.35056
# Poissons Ratio (y) = 0.17571 0.08713
# Poissons Ratio (z) = 0.24901 0.10509
#
# Static dielectric constant tensor:
#      x y z
#    x 4.078670 0.267140 0.515680 
#    y 0.267140 3.297810 -0.594610 
#    z 0.515680 -0.594610 4.075510 
# 
# 
# High freq. dielectric constant tensor:
#      x y z
#    x 1.854180 -0.005330 -0.006220 
#    y -0.005330 1.867610 -0.002460 
#    z -0.006220 -0.002460 1.877590 
# 
# From -- ./inp_files/244735.got.cif
#   From: 2010.06.25/outbox.cif.g09.slc.cpg/sg2_123_cif.got.tgz:244735.got - 2010.06.27 13:26:56.
