data_PCOD8032334
_publ_section_title
;
Structure prediction by ZEFSAII (Michael W. Deem and Ramdas Pophale) SiO2 
 PCOD8032334
Probable space group: P -1
;
_chemical_formula_sum "Si O2"
_cell_formula_units_Z 16
_cell_length_a 13.654947
_cell_length_b 6.788919
_cell_length_c 11.184109
_cell_angle_alpha 105.583141
_cell_angle_beta 51.491824
_cell_angle_gamma 83.206544
_cell_volume 723.238503
_symmetry_space_group_name_H-M "P -1"
_symmetry_group_IT_number 2
_symmetry_cell_setting 'triclinic'
loop_
_space_group_symop_operation_xyz
x,y,z
-x,-y,-z
loop_
_atom_site_type_symbol
_atom_site_label
_atom_site_fract_x
_atom_site_fract_y
_atom_site_fract_z
Si Si1 0.460304 0.317513 0.370492
Si Si2 0.232748 0.138875 0.190718
Si Si3 0.768092 0.477984 0.599230
Si Si4 0.993005 0.124601 0.219865
Si Si5 0.970180 0.283070 0.006803
Si Si6 0.668198 0.539644 0.271923
Si Si7 0.612357 0.273287 0.832479
Si Si8 0.397486 0.167503 0.851679
O O1 0.374945 0.367420 0.322339
O O2 0.536719 0.484003 0.343720
O O3 0.360180 0.330498 0.559582
O O4 0.579037 0.080317 0.240310
O O5 0.172501 0.347462 0.361853
O O6 0.111634 0.082124 0.218361
O O7 0.335484 0.912669 0.134647
O O8 0.308367 0.230171 0.049513
O O9 0.741532 0.317681 0.691580
O O10 0.862050 0.322734 0.400585
O O11 0.036359 0.187928 0.068609
O O12 0.967219 0.897324 0.177082
O O13 0.809793 0.333233 0.140355
O O14 0.000000 0.500000 0.000000
O O15 0.682530 0.684650 0.173733
O O16 0.542433 0.185115 0.766339
O O17 0.500000 0.500000 0.000000
#
# Coordination Sequence:
#
# PCOD8032334 Si02
#       8
#     2   2   2   2   2   2   2   2
#     4  11  23  42  67 101 138 173 222 287 343 405
#     4  12  26  44  70  98 142 186 226 279 337 409
#     4  12  24  46  69  98 145 183 226 283 338 408
#     4  11  27  46  69 101 134 183 238 278 334 407
#     4  11  25  47  72  98 138 181 228 288 339 405
#     4  11  24  42  70 100 134 175 225 286 346 401
#     4  12  25  41  66 101 136 176 224 274 340 408
#     4  12  23  40  68  99 133 174 224 274 347 404
#
# _framework density 22.122717000000002
#
# number of rings (size 3 to 8) (size 9 to 14) (size 15 to 20)
#    0.000    0.500    5.000    3.375    1.750    4.500 
#    0.000    0.000    0.000    0.000    0.000    0.000 
#    0.000    0.000    0.000    0.000    0.000    0.000 
#
# Total GULP energy -198415.377247 kJ/mol
# GULP energy per Si atom -12400.961078 kJ/mol
# Density = 2.207237 g / cm^3
# Si number density = 22.122717 Si / 1000 Ang^3
#
#
#
# Elastic Constant Matrix: (Units=GPa)
#
#
# Indices 1 2 3 4 5 6 
#
# 1 86.1924 32.7642 20.9279 2.8811 11.0574 0.0577
# 2 32.7642 118.8621 39.1381 5.5258 15.8972 2.3339
# 3 20.9279 39.1381 104.5562 20.6899 17.2299 6.3592
# 4 2.8811 5.5258 20.6899 38.4867 0.3672 7.2987
# 5 11.0574 15.8972 17.2299 0.3672 30.5475 5.3253
# 6 0.0577 2.3339 6.3592 7.2987 5.3253 39.8661
#
#
#
# Elastic Compliance Matrix: (Units=1/GPa)
#
#
# Indices 1 2 3 4 5 6 
#
# 1 0.013358 -0.002944 -0.001142 -0.000073 -0.002783 0.000720
# 2 -0.002944 0.010559 -0.002973 0.000295 -0.002787 0.000179
# 3 -0.001142 -0.002973 0.013062 -0.006456 -0.005327 -0.000014
# 4 -0.000073 0.000295 -0.006456 0.030342 0.004035 -0.005081
# 5 -0.002783 -0.002787 -0.005327 0.004035 0.039010 -0.004933
# 6 0.000720 0.000179 -0.000014 -0.005081 -0.004933 0.026664
#
#
# Mechanical properties :
#
#
# Convention : Reuss Voigt Hill
#
# Bulk Modulus (GPa) = 43.74623 55.03011 49.38817
# Shear Modulus (GPa) = 32.31359 36.23210 34.27285
#
# Velocity S-wave (km/s) = 3.82599 4.05134 3.94028
# Velocity P-wave (km/s) = 6.27176 6.84203 6.56309
#
# Compressibility (1/GPa) = 0.02285911
#
# Stress axis : x y z
#
# Youngs Moduli (GPa) = 74.86404 94.70358 76.55788
#
# Poissons Ratio (x) = 0.27885 0.08744
# Poissons Ratio (y) = 0.22043 0.22763
# Poissons Ratio (z) = 0.08550 0.28158
#
# Static dielectric constant tensor:
#      x y z
#    x 4.019010 0.003540 0.185650 
#    y 0.003540 4.013460 0.043040 
#    z 0.185650 0.043040 3.985270 
# 
# 
# High freq. dielectric constant tensor:
#      x y z
#    x 1.877330 -0.003250 0.012860 
#    y -0.003250 1.875220 0.008330 
#    z 0.012860 0.008330 1.864980 
# 
# From -- ./inp_files/94542.got.cif
#   From: 2010.06.25/outbox.cif.g09.slc.cpg/sg2_48_cif.got.tgz:94542.got - 2010.06.27 13:26:56.
