data_PCOD8032771
_publ_section_title
;
Structure prediction by ZEFSAII (Michael W. Deem and Ramdas Pophale) SiO2 
 PCOD8032771
Probable space group: P -1
;
_chemical_formula_sum "Si O2"
_cell_formula_units_Z 16
_cell_length_a 15.628159
_cell_length_b 8.401219
_cell_length_c 11.311634
_cell_angle_alpha 110.393604
_cell_angle_beta 148.292630
_cell_angle_gamma 62.554865
_cell_volume 689.685607
_symmetry_space_group_name_H-M "P -1"
_symmetry_group_IT_number 2
_symmetry_cell_setting 'triclinic'
loop_
_space_group_symop_operation_xyz
x,y,z
-x,-y,-z
loop_
_atom_site_type_symbol
_atom_site_label
_atom_site_fract_x
_atom_site_fract_y
_atom_site_fract_z
Si Si1 0.408393 0.448266 0.989227
Si Si2 0.283567 0.630415 0.492654
Si Si3 0.904123 0.205687 0.908718
Si Si4 0.229409 0.781825 0.996957
Si Si5 0.633611 0.901255 0.226000
Si Si6 0.750148 0.744457 0.721488
Si Si7 0.056677 0.960267 0.421610
Si Si8 0.522256 0.011276 0.683923
O O1 0.535934 0.379476 0.235233
O O2 0.250656 0.621540 0.888177
O O3 0.500000 0.500000 0.000000
O O4 0.321355 0.309978 0.798988
O O5 0.247841 0.747740 0.357846
O O6 0.278223 0.432826 0.409622
O O7 0.134675 0.744110 0.438944
O O8 0.820131 0.290109 0.955989
O O9 0.044345 0.293016 0.047132
O O10 0.000000 0.000000 0.000000
O O11 0.402994 0.830384 0.225779
O O12 0.095630 0.964133 0.832232
O O13 0.522745 0.979352 0.231126
O O14 0.807080 0.945653 0.432718
O O15 0.500000 0.000000 0.000000
O O16 0.661211 0.925057 0.584542
O O17 0.653605 0.809550 0.751803
O O18 0.000000 0.000000 0.500000
#
# Coordination Sequence:
#
# PCOD8032771 Si02
#       8
#     2   2   2   2   2   2   2   2
#     4  12  25  47  72 107 144 187 243 302 348 428
#     4  12  25  46  73 105 143 189 242 296 354 427
#     4  12  25  43  69 104 147 184 237 295 363 421
#     4  12  24  44  70 104 144 186 231 300 358 420
#     4  12  25  44  72 103 140 190 238 291 358 427
#     4  11  24  44  73 103 141 190 234 296 352 427
#     4  12  26  45  73 104 145 188 236 298 361 422
#     4  11  23  43  72 102 142 187 235 285 367 419
#
# _framework density 23.198976999999999
#
# number of rings (size 3 to 8) (size 9 to 14) (size 15 to 20)
#    0.000    0.250    6.250    2.625    0.000    3.000 
#    0.000    0.000    0.000    0.000    0.000    0.000 
#    0.000    0.000    0.000    0.000    0.000    0.000 
#
# Total GULP energy -198293.679828 kJ/mol
# GULP energy per Si atom -12393.354989 kJ/mol
# Density = 2.314618 g / cm^3
# Si number density = 23.198977 Si / 1000 Ang^3
#
#
#
# Elastic Constant Matrix: (Units=GPa)
#
#
# Indices 1 2 3 4 5 6 
#
# 1 162.1067 57.7440 32.6426 17.1099 -12.6027 -27.6925
# 2 57.7440 134.3755 6.4072 16.9364 2.6602 -30.1187
# 3 32.6426 6.4072 86.0813 -2.3599 -9.9167 4.0960
# 4 17.1099 16.9364 -2.3599 35.9656 -1.4039 -9.0990
# 5 -12.6027 2.6602 -9.9167 -1.4039 35.8559 -1.3039
# 6 -27.6925 -30.1187 4.0960 -9.0990 -1.3039 39.4081
#
#
#
# Elastic Compliance Matrix: (Units=1/GPa)
#
#
# Indices 1 2 3 4 5 6 
#
# 1 0.008817 -0.002480 -0.003130 -0.002064 0.002490 0.004231
# 2 -0.002480 0.010049 -0.000310 -0.002271 -0.001596 0.005392
# 3 -0.003130 -0.000310 0.013328 0.001767 0.002557 -0.003329
# 4 -0.002064 -0.002271 0.001767 0.030990 0.001284 0.003828
# 5 0.002490 -0.001596 0.002557 0.001284 0.029697 0.001544
# 6 0.004231 0.005392 -0.003329 0.003828 0.001544 0.033751
#
#
# Mechanical properties :
#
#
# Convention : Reuss Voigt Hill
#
# Bulk Modulus (GPa) = 49.13145 64.01681 56.57413
# Shear Modulus (GPa) = 34.42175 41.29721 37.85948
#
# Velocity S-wave (km/s) = 3.85614 4.22374 4.04412
# Velocity P-wave (km/s) = 6.40708 7.17225 6.80044
#
# Compressibility (1/GPa) = 0.02035356
#
# Stress axis : x y z
#
# Youngs Moduli (GPa) = 113.41979 99.51378 75.02833
#
# Poissons Ratio (x) = 0.24683 0.23482
# Poissons Ratio (y) = 0.28132 0.02326
# Poissons Ratio (z) = 0.35498 0.03086
#
# Static dielectric constant tensor:
#      x y z
#    x 4.442850 -0.146150 0.114460 
#    y -0.146150 4.098340 -0.035050 
#    z 0.114460 -0.035050 4.526710 
# 
# 
# High freq. dielectric constant tensor:
#      x y z
#    x 1.918610 -0.022790 -0.009430 
#    y -0.022790 1.922160 0.002120 
#    z -0.009430 0.002120 1.925360 
# 
# From -- ./inp_files/461494.got.cif
#   From: 2010.06.25/outbox.cif.g09.slc.cpg/sg2_231_cif.got.tgz:461494.got - 2010.06.27 13:26:56.
