data_PCOD8032450
_publ_section_title
;
Structure prediction by ZEFSAII (Michael W. Deem and Ramdas Pophale) SiO2 
 PCOD8032450
Probable space group: P -1
;
_chemical_formula_sum "Si O2"
_cell_formula_units_Z 16
_cell_length_a 20.854839
_cell_length_b 6.692800
_cell_length_c 9.064606
_cell_angle_alpha 54.098826
_cell_angle_beta 44.457701
_cell_angle_gamma 72.965905
_cell_volume 699.981188
_symmetry_space_group_name_H-M "P -1"
_symmetry_group_IT_number 2
_symmetry_cell_setting 'triclinic'
loop_
_space_group_symop_operation_xyz
x,y,z
-x,-y,-z
loop_
_atom_site_type_symbol
_atom_site_label
_atom_site_fract_x
_atom_site_fract_y
_atom_site_fract_z
Si Si1 0.959445 0.694958 0.377255
Si Si2 0.228272 0.690013 0.759117
Si Si3 0.624749 0.600113 0.061150
Si Si4 0.713362 0.799333 0.126766
Si Si5 0.781110 0.318229 0.892250
Si Si6 0.418338 0.037031 0.229759
Si Si7 0.541618 0.784351 0.597342
Si Si8 0.950473 0.242058 0.116495
O O1 0.849757 0.562968 0.604046
O O2 0.000000 0.500000 0.500000
O O3 0.966484 0.990611 0.287622
O O4 0.005896 0.724690 0.130654
O O5 0.215396 0.386471 0.897745
O O6 0.162192 0.780816 0.706618
O O7 0.341676 0.786949 0.512626
O O8 0.191707 0.749964 0.956014
O O9 0.643755 0.734177 0.130024
O O10 0.514549 0.481495 0.263778
O O11 0.678767 0.378203 0.044102
O O12 0.651531 0.813179 0.800487
O O13 0.650626 0.801377 0.375043
O O14 0.778863 0.082182 0.888439
O O15 0.468833 0.192459 0.219572
O O16 0.500000 0.000000 0.000000
O O17 0.500000 0.000000 0.500000
O O18 0.000000 0.500000 0.000000
#
# Coordination Sequence:
#
# PCOD8032450 Si02
#       8
#     2   2   2   2   2   2   2   2
#     4  11  25  47  78 103 147 186 238 295 363 441
#     4  11  24  45  68 100 144 180 242 290 355 440
#     4  11  24  40  64  98 137 173 238 291 354 425
#     4  11  23  42  70  97 131 192 233 289 357 426
#     4  11  23  45  71 100 134 191 234 289 358 427
#     4  12  25  42  66 100 139 184 233 298 355 416
#     4  12  21  43  66  93 136 185 236 290 353 422
#     4  11  27  48  74 115 144 187 238 305 365 430
#
# _framework density 22.857756999999999
#
# number of rings (size 3 to 8) (size 9 to 14) (size 15 to 20)
#    0.000    0.750    3.750    3.750    1.750    3.500 
#    2.250    0.000    0.000    0.000    0.000    0.000 
#    0.000    0.000    0.000    0.000    0.000    0.000 
#
# Total GULP energy -198281.351351 kJ/mol
# GULP energy per Si atom -12392.584459 kJ/mol
# Density = 2.280573 g / cm^3
# Si number density = 22.857757 Si / 1000 Ang^3
#
#
#
# Elastic Constant Matrix: (Units=GPa)
#
#
# Indices 1 2 3 4 5 6 
#
# 1 111.7039 60.0032 32.6403 -6.8410 11.1971 -2.0016
# 2 60.0032 151.5547 42.6854 -27.9650 5.5430 16.9396
# 3 32.6403 42.6854 100.9734 -15.9613 -7.5130 7.1692
# 4 -6.8410 -27.9650 -15.9613 41.6435 1.0130 2.2557
# 5 11.1971 5.5430 -7.5130 1.0130 41.1698 -8.3173
# 6 -2.0016 16.9396 7.1692 2.2557 -8.3173 31.9325
#
#
#
# Elastic Compliance Matrix: (Units=1/GPa)
#
#
# Indices 1 2 3 4 5 6 
#
# 1 0.012600 -0.004964 -0.002805 -0.002472 -0.002486 0.003580
# 2 -0.004964 0.011050 -0.001730 0.006355 -0.001973 -0.006747
# 3 -0.002805 -0.001730 0.012356 0.003125 0.002869 -0.001506
# 4 -0.002472 0.006355 0.003125 0.029480 -0.001703 -0.006754
# 5 -0.002486 -0.001973 0.002869 -0.001703 0.027308 0.007480
# 6 0.003580 -0.006747 -0.001506 -0.006754 0.007480 0.037883
#
#
# Mechanical properties :
#
#
# Convention : Reuss Voigt Hill
#
# Bulk Modulus (GPa) = 58.79101 70.54329 64.66715
# Shear Modulus (GPa) = 32.18675 38.20936 35.19805
#
# Velocity S-wave (km/s) = 3.75658 4.09297 3.92838
# Velocity P-wave (km/s) = 6.67773 7.29832 6.99491
#
# Compressibility (1/GPa) = 0.01700940
#
# Stress axis : x y z
#
# Youngs Moduli (GPa) = 79.36364 90.49942 80.93374
#
# Poissons Ratio (x) = 0.44925 0.22698
# Poissons Ratio (y) = 0.39397 0.13998
# Poissons Ratio (z) = 0.22258 0.15653
#
# Static dielectric constant tensor:
#      x y z
#    x 4.412700 0.483270 -0.549360 
#    y 0.483270 5.323590 -1.358520 
#    z -0.549360 -1.358520 5.517730 
# 
# 
# High freq. dielectric constant tensor:
#      x y z
#    x 1.895200 -0.004910 -0.003010 
#    y -0.004910 1.909220 -0.013730 
#    z -0.003010 -0.013730 1.904330 
# 
# From -- ./inp_files/340114.got.cif
#   From: 2010.06.25/outbox.cif.g09.slc.cpg/sg2_171_cif.got.tgz:340114.got - 2010.06.27 13:26:56.
