data_PCOD8032703
_publ_section_title
;
Structure prediction by ZEFSAII (Michael W. Deem and Ramdas Pophale) SiO2 
 PCOD8032703
Probable space group: P -1
;
_chemical_formula_sum "Si O2"
_cell_formula_units_Z 16
_cell_length_a 9.004242
_cell_length_b 11.430852
_cell_length_c 14.559816
_cell_angle_alpha 99.126497
_cell_angle_beta 31.613200
_cell_angle_gamma 86.988972
_cell_volume 722.837976
_symmetry_space_group_name_H-M "P -1"
_symmetry_group_IT_number 2
_symmetry_cell_setting 'triclinic'
loop_
_space_group_symop_operation_xyz
x,y,z
-x,-y,-z
loop_
_atom_site_type_symbol
_atom_site_label
_atom_site_fract_x
_atom_site_fract_y
_atom_site_fract_z
Si Si1 0.218400 0.069928 0.427076
Si Si2 0.755911 0.323432 0.056425
Si Si3 0.295489 0.292013 0.064522
Si Si4 0.464705 0.399341 0.739861
Si Si5 0.951031 0.269839 0.746605
Si Si6 0.156399 0.286200 0.344671
Si Si7 0.770374 0.539046 0.326493
Si Si8 0.281885 0.179971 0.883214
O O1 0.228535 0.158833 0.348728
O O2 0.120993 0.141536 0.584636
O O3 0.549159 0.962894 0.260067
O O4 0.000000 0.000000 0.500000
O O5 0.748081 0.468248 0.083783
O O6 0.403660 0.343997 0.253372
O O7 0.930205 0.250553 0.864799
O O8 0.937078 0.237141 0.034970
O O9 0.199630 0.258147 0.209893
O O10 0.059644 0.411884 0.151909
O O11 0.602308 0.324388 0.903895
O O12 0.303064 0.172937 0.982397
O O13 0.333242 0.393362 0.707589
O O14 0.458497 0.274476 0.777205
O O15 0.817623 0.386822 0.552319
O O16 0.133374 0.365561 0.645463
O O17 0.500000 0.500000 0.500000
#
# Coordination Sequence:
#
# PCOD8032703 Si02
#       8
#     2   2   2   2   2   2   2   2
#     4  12  26  48  72  95 140 192 241 277 336 411
#     4  11  25  44  71 110 138 172 233 291 357 406
#     4  11  23  43  70 105 139 179 230 289 351 407
#     4  12  22  44  72 103 146 177 220 288 358 416
#     4  11  25  45  69 103 137 187 232 282 342 416
#     4  11  26  44  69 105 137 185 229 284 341 416
#     4  12  24  40  70 111 144 176 225 288 356 416
#     4  12  24  46  73  99 139 191 227 287 344 409
#
# _framework density 22.134974
#
# number of rings (size 3 to 8) (size 9 to 14) (size 15 to 20)
#    0.000    0.500    6.250    1.875    1.750    4.500 
#    0.000    0.000    0.000    0.000    0.000    0.000 
#    0.000    0.000    0.000    0.000    0.000    0.000 
#
# Total GULP energy -198325.669981 kJ/mol
# GULP energy per Si atom -12395.354374 kJ/mol
# Density = 2.208459 g / cm^3
# Si number density = 22.134974 Si / 1000 Ang^3
#
#
#
# Elastic Constant Matrix: (Units=GPa)
#
#
# Indices 1 2 3 4 5 6 
#
# 1 126.0715 34.4450 55.4025 8.4265 -1.2095 2.8634
# 2 34.4450 92.8015 37.8076 19.8111 10.0127 -1.7124
# 3 55.4025 37.8076 104.9883 19.6825 -7.2821 5.9184
# 4 8.4265 19.8111 19.6825 37.2714 0.2887 -1.3344
# 5 -1.2095 10.0127 -7.2821 0.2887 44.4572 2.7613
# 6 2.8634 -1.7124 5.9184 -1.3344 2.7613 39.4343
#
#
#
# Elastic Compliance Matrix: (Units=1/GPa)
#
#
# Indices 1 2 3 4 5 6 
#
# 1 0.010684 -0.002180 -0.005126 0.001449 -0.000064 -0.000048
# 2 -0.002180 0.014589 -0.003453 -0.005357 -0.003963 0.001406
# 3 -0.005126 -0.003453 0.014752 -0.004906 0.003235 -0.002384
# 4 0.001449 -0.005357 -0.004906 0.031993 0.000143 0.001471
# 5 -0.000064 -0.003963 0.003235 0.000143 0.024058 -0.002333
# 6 -0.000048 0.001406 -0.002384 0.001471 -0.002333 0.025994
#
#
# Mechanical properties :
#
#
# Convention : Reuss Voigt Hill
#
# Bulk Modulus (GPa) = 54.03726 64.35237 59.19481
# Shear Modulus (GPa) = 33.38724 37.31299 35.35012
#
# Velocity S-wave (km/s) = 3.88796 4.11019 4.00062
# Velocity P-wave (km/s) = 6.67986 7.18753 6.93834
#
# Compressibility (1/GPa) = 0.01850575
#
# Stress axis : x y z
#
# Youngs Moduli (GPa) = 93.59687 68.54527 67.78728
#
# Poissons Ratio (x) = 0.14946 0.34750
# Poissons Ratio (y) = 0.20409 0.23406
# Poissons Ratio (z) = 0.47981 0.23668
#
# Static dielectric constant tensor:
#      x y z
#    x 4.395540 0.086100 -0.038040 
#    y 0.086100 3.994820 -0.042070 
#    z -0.038040 -0.042070 4.259050 
# 
# 
# High freq. dielectric constant tensor:
#      x y z
#    x 1.890660 0.003710 -0.008570 
#    y 0.003710 1.847270 -0.002300 
#    z -0.008570 -0.002300 1.883150 
# 
# From -- ./inp_files/274361.got.cif
#   From: 2010.06.25/outbox.cif.g09.slc.cpg/sg2_138_cif.got.tgz:274361.got - 2010.06.27 13:26:56.
