data_PCOD8032079
_publ_section_title
;
Structure prediction by ZEFSAII (Michael W. Deem and Ramdas Pophale) SiO2 
 PCOD8032079
Probable space group: P -1
;
_chemical_formula_sum "Si O2"
_cell_formula_units_Z 16
_cell_length_a 18.329712
_cell_length_b 9.679764
_cell_length_c 9.073570
_cell_angle_alpha 87.378692
_cell_angle_beta 93.311340
_cell_angle_gamma 152.060601
_cell_volume 752.990259
_symmetry_space_group_name_H-M "P -1"
_symmetry_group_IT_number 2
_symmetry_cell_setting 'triclinic'
loop_
_space_group_symop_operation_xyz
x,y,z
-x,-y,-z
loop_
_atom_site_type_symbol
_atom_site_label
_atom_site_fract_x
_atom_site_fract_y
_atom_site_fract_z
Si Si1 0.736802 0.853882 0.446321
Si Si2 0.634980 0.140516 0.430021
Si Si3 0.219728 0.808564 0.086396
Si Si4 0.894034 0.842212 0.132055
Si Si5 0.425913 0.214215 0.368584
Si Si6 0.113732 0.842039 0.837754
Si Si7 0.348807 0.781196 0.906610
Si Si8 0.029011 0.184298 0.578547
O O1 0.615446 0.541033 0.371903
O O2 0.647615 0.767584 0.580510
O O3 0.797132 0.052224 0.308476
O O4 0.889979 0.053542 0.532417
O O5 0.606995 0.087379 0.254971
O O6 0.805477 0.481349 0.471495
O O7 0.500000 0.000000 0.500000
O O8 0.628825 0.979043 0.501720
O O9 0.061905 0.510531 0.172000
O O10 0.360876 0.065806 0.206159
O O11 0.201232 0.919259 0.984020
O O12 0.247913 0.727240 0.983935
O O13 0.726065 0.496540 0.097430
O O14 0.972291 0.863289 0.250882
O O15 0.883843 0.985860 0.169954
O O16 0.000000 0.000000 0.000000
O O17 0.500000 0.000000 0.000000
O O18 0.000000 0.000000 0.500000
#
# Coordination Sequence:
#
# PCOD8032079 Si02
#       8
#     2   2   2   2   2   2   2   2
#     4  11  25  45  66  98 135 173 226 272 338 394
#     4  11  24  42  68  97 136 172 220 274 329 394
#     4  11  25  44  69  98 132 177 225 272 341 390
#     4  11  24  42  66 100 134 169 221 272 334 394
#     4  11  26  44  66  98 135 177 220 279 330 398
#     4  11  24  44  70  97 134 173 224 281 325 410
#     4  11  25  43  65 100 136 175 217 271 333 401
#     4  11  23  40  70  97 128 175 220 273 328 396
#
# _framework density 21.248615999999998
#
# number of rings (size 3 to 8) (size 9 to 14) (size 15 to 20)
#    0.000    1.000    2.500    3.000    5.250    5.500 
#    2.250    0.000    0.000    0.000    0.000    0.000 
#    0.000    0.000    0.000    0.000    0.000    0.000 
#
# Total GULP energy -198285.244181 kJ/mol
# GULP energy per Si atom -12392.827761 kJ/mol
# Density = 2.120025 g / cm^3
# Si number density = 21.248616 Si / 1000 Ang^3
#
#
#
# Elastic Constant Matrix: (Units=GPa)
#
#
# Indices 1 2 3 4 5 6 
#
# 1 72.4192 45.1069 22.2554 1.2638 14.3008 8.4619
# 2 45.1069 134.3950 73.4684 4.9313 28.1703 14.2299
# 3 22.2554 73.4684 107.6682 -6.1096 7.7169 9.9402
# 4 1.2638 4.9313 -6.1096 42.1239 0.6236 3.9452
# 5 14.3008 28.1703 7.7169 0.6236 41.8991 -0.2860
# 6 8.4619 14.2299 9.9402 3.9452 -0.2860 37.0533
#
#
#
# Elastic Compliance Matrix: (Units=1/GPa)
#
#
# Indices 1 2 3 4 5 6 
#
# 1 0.017830 -0.005510 0.000474 0.000417 -0.002489 -0.002147
# 2 -0.005510 0.016315 -0.009421 -0.002793 -0.007328 -0.002239
# 3 0.000474 -0.009421 0.015676 0.003411 0.003227 -0.001034
# 4 0.000417 -0.002793 0.003411 0.024779 0.000721 -0.002571
# 5 -0.002489 -0.007328 0.003227 0.000721 0.029056 0.002664
# 6 -0.002147 -0.002239 -0.001034 -0.002571 0.002664 0.028910
#
#
# Mechanical properties :
#
#
# Convention : Reuss Voigt Hill
#
# Bulk Modulus (GPa) = 47.82654 66.23822 57.03238
# Shear Modulus (GPa) = 29.68291 35.79203 32.73747
#
# Velocity S-wave (km/s) = 3.74161 4.10865 3.92942
# Velocity P-wave (km/s) = 6.42053 7.33134 6.89100
#
# Compressibility (1/GPa) = 0.02090889
#
# Stress axis : x y z
#
# Youngs Moduli (GPa) = 56.08647 61.29206 63.79294
#
# Poissons Ratio (x) = 0.33770 -0.03026
# Poissons Ratio (y) = 0.30902 0.60097
# Poissons Ratio (z) = -0.02661 0.57741
#
# Static dielectric constant tensor:
#      x y z
#    x 9.320700 -8.942360 -2.575110 
#    y -8.942360 19.206160 4.017080 
#    z -2.575110 4.017080 5.136880 
# 
# 
# High freq. dielectric constant tensor:
#      x y z
#    x 1.834460 0.004700 0.002710 
#    y 0.004700 1.846820 -0.004950 
#    z 0.002710 -0.004950 1.848650 
# 
# From -- ./inp_files/329042.got.cif
#   From: 2010.06.25/outbox.cif.g09.slc.cpg/sg2_165_cif.got.tgz:329042.got - 2010.06.27 13:26:56.
