data_PCOD8032819
_publ_section_title
;
Structure prediction by ZEFSAII (Michael W. Deem and Ramdas Pophale) SiO2 
 PCOD8032819
Probable space group: P -1
;
_chemical_formula_sum "Si O2"
_cell_formula_units_Z 12
_cell_length_a 9.647570
_cell_length_b 12.364844
_cell_length_c 13.006607
_cell_angle_alpha 32.107855
_cell_angle_beta 140.617508
_cell_angle_gamma 127.048960
_cell_volume 516.946687
_symmetry_space_group_name_H-M "P -1"
_symmetry_group_IT_number 2
_symmetry_cell_setting 'triclinic'
loop_
_space_group_symop_operation_xyz
x,y,z
-x,-y,-z
loop_
_atom_site_type_symbol
_atom_site_label
_atom_site_fract_x
_atom_site_fract_y
_atom_site_fract_z
Si Si1 0.575497 0.477656 0.445813
Si Si2 0.202493 0.337722 0.210266
Si Si3 0.141369 0.913705 0.054344
Si Si4 0.692653 0.410199 0.106329
Si Si5 0.988508 0.964770 0.343075
Si Si6 0.458642 0.862970 0.940532
O O1 0.500000 0.500000 0.500000
O O2 0.412785 0.358710 0.382337
O O3 0.813974 0.332809 0.702178
O O4 0.591750 0.701765 0.228134
O O5 0.145924 0.107576 0.375124
O O6 0.238546 0.388698 0.070030
O O7 0.000000 0.500000 0.000000
O O8 0.378706 0.989460 0.126472
O O9 0.015373 0.973039 0.828468
O O10 0.000000 0.000000 0.000000
O O11 0.613079 0.265696 0.090807
O O12 0.901392 0.274154 0.392328
O O13 0.500000 0.500000 0.000000
O O14 0.747926 0.003312 0.226938
#
# Coordination Sequence:
#
# PCOD8032819 Si02
#       6
#     2   2   2   2   2   2
#     4  11  23  45  72 101 138 177 227 279 338 410
#     4  11  23  43  74 103 131 178 232 277 336 408
#     4  12  29  44  68 102 140 181 224 288 347 402
#     4  11  27  44  70 103 139 176 225 289 342 399
#     4  12  25  46  72 101 135 185 230 279 339 412
#     4  11  25  48  69 100 136 184 230 277 342 413
#
# _framework density 23.213227
#
# number of rings (size 3 to 8) (size 9 to 14) (size 15 to 20)
#    0.000    0.667    5.000    2.000    9.333    2.667 
#    0.000    0.000    0.000    0.000    0.000    0.000 
#    0.000    0.000    0.000    0.000    0.000    0.000 
#
# Total GULP energy -148809.003448 kJ/mol
# GULP energy per Si atom -12400.750287 kJ/mol
# Density = 2.316039 g / cm^3
# Si number density = 23.213227 Si / 1000 Ang^3
#
#
#
# Elastic Constant Matrix: (Units=GPa)
#
#
# Indices 1 2 3 4 5 6 
#
# 1 181.9507 25.5202 64.6407 -17.4603 11.1219 -24.0668
# 2 25.5202 42.1492 12.1256 -5.8285 2.5481 -1.2441
# 3 64.6407 12.1256 169.1821 -22.9278 -0.4740 -19.3041
# 4 -17.4603 -5.8285 -22.9278 35.4113 -10.5031 -2.8385
# 5 11.1219 2.5481 -0.4740 -10.5031 30.8993 -8.5248
# 6 -24.0668 -1.2441 -19.3041 -2.8385 -8.5248 47.2281
#
#
#
# Elastic Compliance Matrix: (Units=1/GPa)
#
#
# Indices 1 2 3 4 5 6 
#
# 1 0.007271 -0.003457 -0.002006 0.001616 -0.001069 0.002698
# 2 -0.003457 0.026224 -0.000417 0.002080 -0.000553 -0.001216
# 3 -0.002006 -0.000417 0.007787 0.005278 0.003526 0.003103
# 4 0.001616 0.002080 0.005278 0.037672 0.014308 0.007883
# 5 -0.001069 -0.000553 0.003526 0.014308 0.040193 0.008997
# 6 0.002698 -0.001216 0.003103 0.007883 0.008997 0.025883
#
#
# Mechanical properties :
#
#
# Convention : Reuss Voigt Hill
#
# Bulk Modulus (GPa) = 33.87559 66.42835 50.15197
# Shear Modulus (GPa) = 30.00644 42.10743 36.05694
#
# Velocity S-wave (km/s) = 3.59924 4.26366 3.94546
# Velocity P-wave (km/s) = 5.64779 7.27441 6.51209
#
# Compressibility (1/GPa) = 0.02951978
#
# Stress axis : x y z
#
# Youngs Moduli (GPa) = 137.53117 38.13334 128.42686
#
# Poissons Ratio (x) = 0.13184 0.25768
# Poissons Ratio (y) = 0.47551 0.05354
# Poissons Ratio (z) = 0.27594 0.01590
#
# Static dielectric constant tensor:
#      x y z
#    x 4.701270 0.456300 0.072340 
#    y 0.456300 4.834320 0.424120 
#    z 0.072340 0.424120 4.680800 
# 
# 
# High freq. dielectric constant tensor:
#      x y z
#    x 1.914270 -0.004850 -0.016530 
#    y -0.004850 1.918640 -0.002470 
#    z -0.016530 -0.002470 1.939740 
# 
# From -- ./inp_files/160496.got.cif
#   From: 2010.06.25/outbox.cif.g09.slc.cpg/sg2_81_cif.got.tgz:160496.got - 2010.06.27 13:26:56.
