data_PCOD8032245
_publ_section_title
;
Structure prediction by ZEFSAII (Michael W. Deem and Ramdas Pophale) SiO2 
 PCOD8032245
Probable space group: P -1
;
_chemical_formula_sum "Si O2"
_cell_formula_units_Z 16
_cell_length_a 11.313644
_cell_length_b 23.391590
_cell_length_c 11.006083
_cell_angle_alpha 147.740404
_cell_angle_beta 39.014653
_cell_angle_gamma 152.648037
_cell_volume 710.309724
_symmetry_space_group_name_H-M "P -1"
_symmetry_group_IT_number 2
_symmetry_cell_setting 'triclinic'
loop_
_space_group_symop_operation_xyz
x,y,z
-x,-y,-z
loop_
_atom_site_type_symbol
_atom_site_label
_atom_site_fract_x
_atom_site_fract_y
_atom_site_fract_z
Si Si1 0.079761 0.394063 0.376131
Si Si2 0.169377 0.173917 0.180566
Si Si3 0.370373 0.619685 0.974705
Si Si4 0.006444 0.663165 0.382045
Si Si5 0.538051 0.599948 0.039417
Si Si6 0.288931 0.840490 0.941235
Si Si7 0.880472 0.846493 0.366929
Si Si8 0.481601 0.266563 0.332422
O O1 0.970055 0.348245 0.515188
O O2 0.269116 0.570052 0.525555
O O3 0.839284 0.292925 0.292626
O O4 0.248415 0.355961 0.146583
O O5 0.324210 0.248073 0.062858
O O6 0.985342 0.205090 0.410235
O O7 0.400387 0.259805 0.248558
O O8 0.000000 0.000000 0.000000
O O9 0.255947 0.486980 0.735279
O O10 0.316135 0.552334 0.036175
O O11 0.242625 0.687358 0.179457
O O12 0.634150 0.742347 0.287503
O O13 0.500000 0.500000 0.000000
O O14 0.445758 0.829871 0.892274
O O15 0.072617 0.821249 0.153504
O O16 0.500000 0.000000 0.000000
O O17 0.777351 0.809599 0.519907
O O18 0.000000 0.000000 0.500000
#
# Coordination Sequence:
#
# PCOD8032245 Si02
#       8
#     2   2   2   2   2   2   2   2
#     4  11  23  45  72 100 139 178 229 292 346 415
#     4  12  28  47  72 100 145 188 236 295 349 415
#     4  11  25  46  73 102 139 184 237 289 351 415
#     4  11  25  46  73 100 137 187 236 288 349 420
#     4  11  23  41  71 104 135 176 230 286 345 413
#     4  11  26  42  68 103 141 179 228 288 353 422
#     4  11  25  42  65  98 137 183 220 282 350 408
#     4  12  25  46  70 101 137 183 238 284 350 415
#
# _framework density 22.525383999999999
#
# number of rings (size 3 to 8) (size 9 to 14) (size 15 to 20)
#    0.000    0.750    5.000    1.500    5.250    3.500 
#    0.000    0.000    0.000    0.000    0.000    0.000 
#    0.000    0.000    0.000    0.000    0.000    0.000 
#
# Total GULP energy -198228.081988 kJ/mol
# GULP energy per Si atom -12389.255124 kJ/mol
# Density = 2.247411 g / cm^3
# Si number density = 22.525384 Si / 1000 Ang^3
#
#
#
# Elastic Constant Matrix: (Units=GPa)
#
#
# Indices 1 2 3 4 5 6 
#
# 1 120.0726 27.4677 48.0038 2.8235 -11.6499 -10.5254
# 2 27.4677 90.7925 43.9974 16.4008 2.1588 -5.6228
# 3 48.0038 43.9974 127.9492 10.7788 -17.1004 -2.6964
# 4 2.8235 16.4008 10.7788 41.9349 0.0038 -1.9407
# 5 -11.6499 2.1588 -17.1004 0.0038 35.8978 -0.1166
# 6 -10.5254 -5.6228 -2.6964 -1.9407 -0.1166 28.2965
#
#
#
# Elastic Compliance Matrix: (Units=1/GPa)
#
#
# Indices 1 2 3 4 5 6 
#
# 1 0.010400 -0.001666 -0.003064 0.000892 0.002027 0.003315
# 2 -0.001666 0.014670 -0.004492 -0.004399 -0.003557 0.001551
# 3 -0.003064 -0.004492 0.011184 -0.000959 0.004600 -0.001013
# 4 0.000892 -0.004399 -0.000959 0.025806 0.000098 0.001137
# 5 0.002027 -0.003557 0.004600 0.000098 0.030922 0.000620
# 6 0.003315 0.001551 -0.001013 0.001137 0.000620 0.036865
#
#
# Mechanical properties :
#
#
# Convention : Reuss Voigt Hill
#
# Bulk Modulus (GPa) = 56.14216 64.19468 60.16842
# Shear Modulus (GPa) = 32.41980 35.84888 34.13434
#
# Velocity S-wave (km/s) = 3.79787 3.99367 3.89700
# Velocity P-wave (km/s) = 6.64905 7.05880 6.85698
#
# Compressibility (1/GPa) = 0.01781193
#
# Stress axis : x y z
#
# Youngs Moduli (GPa) = 96.14975 68.16663 89.41528
#
# Poissons Ratio (x) = 0.11356 0.27393
# Poissons Ratio (y) = 0.16018 0.40162
# Poissons Ratio (z) = 0.29456 0.30618
#
# Static dielectric constant tensor:
#      x y z
#    x 4.226240 -0.026570 0.076330 
#    y -0.026570 4.046400 -0.168870 
#    z 0.076330 -0.168870 4.406290 
# 
# 
# High freq. dielectric constant tensor:
#      x y z
#    x 1.892050 -0.004980 -0.002650 
#    y -0.004980 1.873790 -0.004600 
#    z -0.002650 -0.004600 1.901720 
# 
# From -- ./inp_files/439164.got.cif
#   From: 2010.06.25/outbox.cif.g09.slc.cpg/sg2_220_cif.got.tgz:439164.got - 2010.06.27 13:26:56.
