data_PCOD8032569
_publ_section_title
;
Structure prediction by ZEFSAII (Michael W. Deem and Ramdas Pophale) SiO2 
 PCOD8032569
Probable space group: P -1
;
_chemical_formula_sum "Si O2"
_cell_formula_units_Z 14
_cell_length_a 18.163138
_cell_length_b 8.821965
_cell_length_c 6.066229
_cell_angle_alpha 49.658247
_cell_angle_beta 76.376695
_cell_angle_gamma 60.281202
_cell_volume 638.048064
_symmetry_space_group_name_H-M "P -1"
_symmetry_group_IT_number 2
_symmetry_cell_setting 'triclinic'
loop_
_space_group_symop_operation_xyz
x,y,z
-x,-y,-z
loop_
_atom_site_type_symbol
_atom_site_label
_atom_site_fract_x
_atom_site_fract_y
_atom_site_fract_z
Si Si1 0.562459 0.608213 0.325596
Si Si2 0.994098 0.402771 0.848083
Si Si3 0.847495 0.077372 0.784967
Si Si4 0.449500 0.028780 0.725093
Si Si5 0.265536 0.731239 0.704103
Si Si6 0.825683 0.449385 0.764857
Si Si7 0.274082 0.042831 0.749662
O O1 0.500000 0.500000 0.500000
O O2 0.581073 0.709292 0.439384
O O3 0.651713 0.422810 0.347646
O O4 0.519620 0.834543 0.004488
O O5 0.000000 0.500000 0.500000
O O6 0.901645 0.413242 0.912343
O O7 0.000000 0.500000 0.000000
O O8 0.066935 0.150227 0.036186
O O9 0.822568 0.149257 0.483305
O O10 0.863541 0.267307 0.714951
O O11 0.765034 0.063324 0.950326
O O12 0.368883 0.981571 0.813857
O O13 0.500000 0.000000 0.500000
O O14 0.279524 0.930133 0.614834
O O15 0.250480 0.573430 0.037076
O O16 0.786755 0.693576 0.457317
#
# Coordination Sequence:
#
# PCOD8032569 Si02
#       7
#     2   2   2   2   2   2   2
#     4  11  24  42  63  97 133 174 228 282 349 414
#     4  12  27  47  76 106 146 190 237 295 358 424
#     4  11  25  44  70  99 136 180 232 281 354 417
#     4  11  24  40  65  93 131 175 223 283 346 415
#     4  11  25  41  67  99 131 180 227 288 346 423
#     4  11  25  44  70  99 138 179 233 284 352 419
#     4  11  23  43  65  96 134 175 227 284 348 418
#
# _framework density 21.941921000000001
#
# number of rings (size 3 to 8) (size 9 to 14) (size 15 to 20)
#    0.000    0.857    1.429    4.714    4.000   10.857 
#    0.000    0.000    0.000    0.000    0.000    0.000 
#    0.000    0.000    0.000    0.000    0.000    0.000 
#
# Total GULP energy -173457.575078 kJ/mol
# GULP energy per Si atom -12389.826791 kJ/mol
# Density = 2.189198 g / cm^3
# Si number density = 21.941921 Si / 1000 Ang^3
#
#
#
# Elastic Constant Matrix: (Units=GPa)
#
#
# Indices 1 2 3 4 5 6 
#
# 1 89.8906 21.4216 6.3145 -2.5769 4.8759 9.0481
# 2 21.4216 146.9547 38.1959 -8.2890 3.4160 14.5739
# 3 6.3145 38.1959 67.5877 -7.1347 2.5190 10.7820
# 4 -2.5769 -8.2890 -7.1347 37.5938 -2.2048 3.8657
# 5 4.8759 3.4160 2.5190 -2.2048 37.2141 -2.0877
# 6 9.0481 14.5739 10.7820 3.8657 -2.0877 46.3972
#
#
#
# Elastic Compliance Matrix: (Units=1/GPa)
#
#
# Indices 1 2 3 4 5 6 
#
# 1 0.011767 -0.001496 0.000185 0.000629 -0.001491 -0.001987
# 2 -0.001496 0.008328 -0.004212 0.001066 -0.000301 -0.001448
# 3 0.000185 -0.004212 0.017988 0.002772 -0.000868 -0.003163
# 4 0.000629 0.001066 0.002772 0.027815 0.001091 -0.003370
# 5 -0.001491 -0.000301 -0.000868 0.001091 0.027315 0.001725
# 6 -0.001987 -0.001448 -0.003163 -0.003370 0.001725 0.023489
#
#
# Mechanical properties :
#
#
# Convention : Reuss Voigt Hill
#
# Bulk Modulus (GPa) = 36.98576 48.47744 42.73160
# Shear Modulus (GPa) = 36.56003 40.14107 38.35055
#
# Velocity S-wave (km/s) = 4.08636 4.28182 4.18523
# Velocity P-wave (km/s) = 6.25758 6.82545 6.54767
#
# Compressibility (1/GPa) = 0.02703743
#
# Stress axis : x y z
#
# Youngs Moduli (GPa) = 84.98249 120.07064 55.59148
#
# Poissons Ratio (x) = 0.17965 -0.01029
# Poissons Ratio (y) = 0.12715 0.23416
# Poissons Ratio (z) = -0.01574 0.50576
#
# Static dielectric constant tensor:
#      x y z
#    x 4.014360 0.247140 0.116640 
#    y 0.247140 4.332500 0.099610 
#    z 0.116640 0.099610 4.039000 
# 
# 
# High freq. dielectric constant tensor:
#      x y z
#    x 1.877910 0.003950 0.004510 
#    y 0.003950 1.881280 -0.005670 
#    z 0.004510 -0.005670 1.867200 
# 
# From -- ./inp_files/6496.got.cif
#   From: 2010.06.25/outbox.cif.g09.slc.cpg/sg2_4_cif.got.tgz:6496.got - 2010.06.27 13:26:56.
