data_PCOD8032309
_publ_section_title
;
Structure prediction by ZEFSAII (Michael W. Deem and Ramdas Pophale) SiO2 
 PCOD8032309
Probable space group: P -1
;
_chemical_formula_sum "Si O2"
_cell_formula_units_Z 14
_cell_length_a 8.955426
_cell_length_b 9.124236
_cell_length_c 20.292980
_cell_angle_alpha 48.708613
_cell_angle_beta 49.621297
_cell_angle_gamma 31.592014
_cell_volume 637.005316
_symmetry_space_group_name_H-M "P -1"
_symmetry_group_IT_number 2
_symmetry_cell_setting 'triclinic'
loop_
_space_group_symop_operation_xyz
x,y,z
-x,-y,-z
loop_
_atom_site_type_symbol
_atom_site_label
_atom_site_fract_x
_atom_site_fract_y
_atom_site_fract_z
Si Si1 0.494180 0.612254 0.114759
Si Si2 0.269188 0.950215 0.269361
Si Si3 0.122444 0.694276 0.305343
Si Si4 0.681781 0.174861 0.557257
Si Si5 0.991990 0.153556 0.017417
Si Si6 0.486944 0.062723 0.409406
Si Si7 0.174218 0.431569 0.850437
O O1 0.259218 0.651472 0.208516
O O2 0.718192 0.561729 0.112731
O O3 0.698724 0.330266 0.091962
O O4 0.293428 0.912067 0.043292
O O5 0.246138 0.745730 0.310818
O O6 0.319827 0.908763 0.344394
O O7 0.549756 0.845117 0.188196
O O8 0.988023 0.281378 0.230109
O O9 0.210552 0.407722 0.379175
O O10 0.771361 0.963968 0.328390
O O11 0.500000 0.500000 0.500000
O O12 0.557900 0.100986 0.568151
O O13 0.000000 0.000000 0.500000
O O14 0.967602 0.396950 0.929444
O O15 0.000000 0.000000 0.000000
O O16 0.500000 0.000000 0.500000
#
# Coordination Sequence:
#
# PCOD8032309 Si02
#       7
#     2   2   2   2   2   2   2
#     4  11  23  43  66  91 127 171 213 260 318 385
#     4  11  23  42  65  93 126 165 211 265 316 377
#     4  11  23  42  65  93 123 163 213 261 312 373
#     4  12  25  43  65  94 130 169 208 258 317 379
#     4  12  25  41  64  96 131 167 212 269 318 372
#     4  12  24  41  66  95 127 167 209 259 312 375
#     4  11  23  42  66  92 124 170 215 258 316 383
#
# _framework density 21.977837999999998
#
# number of rings (size 3 to 8) (size 9 to 14) (size 15 to 20)
#    0.000    0.571    0.000   10.286    0.000    3.429 
#    0.000    0.000    0.000    0.000    0.000    0.000 
#    0.000    0.000    0.000    0.000    0.000    0.000 
#
# Total GULP energy -173654.452613 kJ/mol
# GULP energy per Si atom -12403.889472 kJ/mol
# Density = 2.192782 g / cm^3
# Si number density = 21.977838 Si / 1000 Ang^3
#
#
#
# Elastic Constant Matrix: (Units=GPa)
#
#
# Indices 1 2 3 4 5 6 
#
# 1 120.3881 43.5598 68.8089 3.2768 12.2230 15.2904
# 2 43.5598 121.8056 35.3604 1.8524 8.7647 -1.2223
# 3 68.8089 35.3604 103.6864 6.8910 8.6024 10.7276
# 4 3.2768 1.8524 6.8910 62.6903 -4.2476 -0.7287
# 5 12.2230 8.7647 8.6024 -4.2476 38.6011 0.9567
# 6 15.2904 -1.2223 10.7276 -0.7287 0.9567 38.2531
#
#
#
# Elastic Compliance Matrix: (Units=1/GPa)
#
#
# Indices 1 2 3 4 5 6 
#
# 1 0.014694 -0.002739 -0.008275 0.000039 -0.002094 -0.003587
# 2 -0.002739 0.009752 -0.001617 -0.000016 -0.001035 0.001885
# 3 -0.008275 -0.001617 0.015960 -0.001335 -0.000686 -0.001228
# 4 0.000039 -0.000016 -0.001335 0.016243 0.002061 0.000616
# 5 -0.002094 -0.001035 -0.000686 0.002061 0.027175 0.000356
# 6 -0.003587 0.001885 -0.001228 0.000616 0.000356 0.027983
#
#
# Mechanical properties :
#
#
# Convention : Reuss Voigt Hill
#
# Bulk Modulus (GPa) = 66.02511 71.25982 68.64247
# Shear Modulus (GPa) = 35.18228 41.11898 38.15063
#
# Velocity S-wave (km/s) = 4.00535 4.33012 4.17090
# Velocity P-wave (km/s) = 7.17616 7.58246 7.38211
#
# Compressibility (1/GPa) = 0.01514575
#
# Stress axis : x y z
#
# Youngs Moduli (GPa) = 68.05361 102.54217 62.65623
#
# Poissons Ratio (x) = 0.28081 0.51850
# Poissons Ratio (y) = 0.18637 0.10129
# Poissons Ratio (z) = 0.56316 0.16576
#
# Static dielectric constant tensor:
#      x y z
#    x 3.833120 -0.034190 0.107050 
#    y -0.034190 4.294550 0.146750 
#    z 0.107050 0.146750 4.121250 
# 
# 
# High freq. dielectric constant tensor:
#      x y z
#    x 1.857280 -0.002480 0.003480 
#    y -0.002480 1.887510 0.005250 
#    z 0.003480 0.005250 1.876400 
# 
# From -- ./inp_files/217961.got.cif
#   From: 2010.06.25/outbox.cif.g09.slc.cpg/sg2_109_cif.got.tgz:217961.got - 2010.06.27 13:26:56.
