data_PCOD8032955
_publ_section_title
;
Structure prediction by ZEFSAII (Michael W. Deem and Ramdas Pophale) SiO2 
 PCOD8032955
Probable space group: P -1
;
_chemical_formula_sum "Si O2"
_cell_formula_units_Z 14
_cell_length_a 11.544932
_cell_length_b 8.341935
_cell_length_c 9.847916
_cell_angle_alpha 99.087066
_cell_angle_beta 98.231132
_cell_angle_gamma 40.014159
_cell_volume 601.792775
_symmetry_space_group_name_H-M "P -1"
_symmetry_group_IT_number 2
_symmetry_cell_setting 'triclinic'
loop_
_space_group_symop_operation_xyz
x,y,z
-x,-y,-z
loop_
_atom_site_type_symbol
_atom_site_label
_atom_site_fract_x
_atom_site_fract_y
_atom_site_fract_z
Si Si1 0.139274 0.772442 0.211692
Si Si2 0.511762 0.804586 0.423832
Si Si3 0.270306 0.955868 0.154743
Si Si4 0.647330 0.958322 0.078828
Si Si5 0.511895 0.323691 0.324995
Si Si6 0.772635 0.326513 0.272032
Si Si7 0.107803 0.592195 0.929456
O O1 0.248723 0.787160 0.143741
O O2 0.292155 0.551356 0.312750
O O3 0.072787 0.700395 0.089630
O O4 0.964282 0.034711 0.294393
O O5 0.392509 0.911963 0.282735
O O6 0.436944 0.756316 0.518868
O O7 0.720918 0.534530 0.388686
O O8 0.500000 0.000000 0.500000
O O9 0.071043 0.242921 0.168030
O O10 0.337223 0.909675 0.005932
O O11 0.824527 0.662857 0.083703
O O12 0.587087 0.085694 0.231018
O O13 0.500000 0.000000 0.000000
O O14 0.605016 0.381913 0.280063
O O15 0.767116 0.407873 0.129544
#
# Coordination Sequence:
#
# PCOD8032955 Si02
#       7
#     2   2   2   2   2   2   2
#     4  11  24  43  73 106 138 174 232 285 340 405
#     4  12  27  48  69  98 142 182 232 280 343 409
#     4  11  24  44  70  99 140 180 226 287 340 407
#     4  12  23  40  71 101 137 184 226 279 345 400
#     4  12  25  45  72 100 140 185 226 282 341 407
#     4  11  24  45  71  98 139 180 229 279 342 409
#     4  11  23  44  69 109 138 171 234 287 339 407
#
# _framework density 23.263819999999999
#
# number of rings (size 3 to 8) (size 9 to 14) (size 15 to 20)
#    0.000    0.571    2.857    6.857    0.000    1.714 
#    2.571    3.571    0.000    0.000    0.000    0.000 
#    0.000    0.000    0.000    0.000    0.000    0.000 
#
# Total GULP energy -173473.143636 kJ/mol
# GULP energy per Si atom -12390.938831 kJ/mol
# Density = 2.321087 g / cm^3
# Si number density = 23.263820 Si / 1000 Ang^3
#
#
#
# Elastic Constant Matrix: (Units=GPa)
#
#
# Indices 1 2 3 4 5 6 
#
# 1 59.1200 23.4723 17.5884 1.9707 -5.0804 -9.9046
# 2 23.4723 165.5320 53.2046 22.1695 13.3166 -8.1470
# 3 17.5884 53.2046 98.0351 1.8522 -9.6218 -10.5163
# 4 1.9707 22.1695 1.8522 45.8015 5.1632 -0.2369
# 5 -5.0804 13.3166 -9.6218 5.1632 33.3750 0.9678
# 6 -9.9046 -8.1470 -10.5163 -0.2369 0.9678 29.4169
#
#
#
# Elastic Compliance Matrix: (Units=1/GPa)
#
#
# Indices 1 2 3 4 5 6 
#
# 1 0.019412 -0.002339 -0.001315 -0.000001 0.003355 0.005308
# 2 -0.002339 0.008717 -0.004697 -0.003403 -0.004664 0.000074
# 3 -0.001315 -0.004697 0.013817 0.001180 0.005387 0.003028
# 4 -0.000001 -0.003403 0.001180 0.023652 -0.001954 -0.000266
# 5 0.003355 -0.004664 0.005387 -0.001954 0.034171 0.000624
# 6 0.005308 0.000074 0.003028 -0.000266 0.000624 0.036861
#
#
# Mechanical properties :
#
#
# Convention : Reuss Voigt Hill
#
# Bulk Modulus (GPa) = 39.61155 56.80196 48.20675
# Shear Modulus (GPa) = 30.91289 36.94680 33.92984
#
# Velocity S-wave (km/s) = 3.64922 3.98950 3.82315
# Velocity P-wave (km/s) = 5.90083 6.75951 6.34471
#
# Compressibility (1/GPa) = 0.02524517
#
# Stress axis : x y z
#
# Youngs Moduli (GPa) = 51.51458 114.72025 72.37716
#
# Poissons Ratio (x) = 0.26828 0.09516
# Poissons Ratio (y) = 0.12047 0.33993
# Poissons Ratio (z) = 0.06773 0.53881
#
# Static dielectric constant tensor:
#      x y z
#    x 3.916890 -0.179240 -0.014440 
#    y -0.179240 4.041120 0.059570 
#    z -0.014440 0.059570 4.064300 
# 
# 
# High freq. dielectric constant tensor:
#      x y z
#    x 1.915730 0.006970 -0.011400 
#    y 0.006970 1.939220 0.004010 
#    z -0.011400 0.004010 1.906320 
# 
# From -- ./inp_files/188500.got.cif
#   From: 2010.06.25/outbox.cif.g09.slc.cpg/sg2_95_cif.got.tgz:188500.got - 2010.06.27 13:26:56.
