data_PCOD8032521
_publ_section_title
;
Structure prediction by ZEFSAII (Michael W. Deem and Ramdas Pophale) SiO2 
 PCOD8032521
Probable space group: P -1
;
_chemical_formula_sum "Si O2"
_cell_formula_units_Z 16
_cell_length_a 17.560182
_cell_length_b 9.555063
_cell_length_c 16.891712
_cell_angle_alpha 41.332151
_cell_angle_beta 149.201872
_cell_angle_gamma 150.258840
_cell_volume 719.757702
_symmetry_space_group_name_H-M "P -1"
_symmetry_group_IT_number 2
_symmetry_cell_setting 'triclinic'
loop_
_space_group_symop_operation_xyz
x,y,z
-x,-y,-z
loop_
_atom_site_type_symbol
_atom_site_label
_atom_site_fract_x
_atom_site_fract_y
_atom_site_fract_z
Si Si1 0.888768 0.492611 0.216284
Si Si2 0.822591 0.714016 0.921900
Si Si3 0.486830 0.580963 0.755685
Si Si4 0.383805 0.510256 0.458042
Si Si5 0.051480 0.305689 0.130956
Si Si6 0.648614 0.104061 0.517676
Si Si7 0.201941 0.078902 0.624985
Si Si8 0.296469 0.316875 0.942280
O O1 0.798189 0.538849 0.190276
O O2 0.127423 0.749022 0.321739
O O3 0.826735 0.193424 0.303622
O O4 0.796617 0.480909 0.054321
O O5 0.632526 0.697962 0.757974
O O6 0.851507 0.677156 0.872505
O O7 0.000000 0.000000 0.000000
O O8 0.349870 0.655755 0.618553
O O9 0.338919 0.241766 0.756486
O O10 0.654133 0.723555 0.910400
O O11 0.500000 0.500000 0.500000
O O12 0.188073 0.417413 0.282022
O O13 0.311071 0.300144 0.555867
O O14 0.540795 0.842362 0.474813
O O15 0.858294 0.981244 0.112886
O O16 0.000000 0.500000 0.000000
O O17 0.500000 0.000000 0.500000
O O18 0.000000 0.000000 0.500000
O O19 0.500000 0.500000 0.000000
#
# Coordination Sequence:
#
# PCOD8032521 Si02
#       8
#     2   2   2   2   2   2   2   2
#     4  11  25  45  78 104 141 194 242 297 359 432
#     4  11  23  45  77 102 139 185 246 291 355 437
#     4  11  23  42  74 101 135 187 243 288 353 434
#     4  12  28  46  71 108 149 186 239 305 366 427
#     4  12  27  44  73 108 143 183 240 306 358 418
#     4  12  23  43  77 104 137 189 242 291 362 435
#     4  12  26  45  70 111 145 186 244 306 359 434
#     4  11  27  46  67 100 147 193 234 287 364 433
#
# _framework density 22.229703000000001
#
# number of rings (size 3 to 8) (size 9 to 14) (size 15 to 20)
#    0.000    0.500    5.000    3.000    5.250    5.000 
#    0.000    1.875    0.000    0.000    0.000    0.000 
#    0.000    0.000    0.000    0.000    0.000    0.000 
#
# Total GULP energy -198212.883708 kJ/mol
# GULP energy per Si atom -12388.305232 kJ/mol
# Density = 2.217911 g / cm^3
# Si number density = 22.229703 Si / 1000 Ang^3
#
#
#
# Elastic Constant Matrix: (Units=GPa)
#
#
# Indices 1 2 3 4 5 6 
#
# 1 107.6362 32.8455 15.7377 -9.2515 22.8033 3.5699
# 2 32.8455 141.8548 24.6631 -4.1359 0.7670 -11.3094
# 3 15.7377 24.6631 79.1381 1.3087 6.0551 -0.6444
# 4 -9.2515 -4.1359 1.3087 42.3356 -6.4049 4.8357
# 5 22.8033 0.7670 6.0551 -6.4049 41.5173 5.9143
# 6 3.5699 -11.3094 -0.6444 4.8357 5.9143 39.8455
#
#
#
# Elastic Compliance Matrix: (Units=1/GPa)
#
#
# Indices 1 2 3 4 5 6 
#
# 1 0.011613 -0.002505 -0.001123 0.001582 -0.005767 -0.001105
# 2 -0.002505 0.008184 -0.002133 0.000244 0.001246 0.002298
# 3 -0.001123 -0.002133 0.013659 -0.001115 -0.001519 0.000077
# 4 0.001582 0.000244 -0.001115 0.024999 0.003669 -0.003669
# 5 -0.005767 0.001246 -0.001519 0.003669 0.028565 -0.003839
# 6 -0.001105 0.002298 0.000077 -0.003669 -0.003839 0.026865
#
#
# Mechanical properties :
#
#
# Convention : Reuss Voigt Hill
#
# Bulk Modulus (GPa) = 45.58766 52.79128 49.18947
# Shear Modulus (GPa) = 37.67373 41.76519 39.71946
#
# Velocity S-wave (km/s) = 4.12120 4.33922 4.23161
# Velocity P-wave (km/s) = 6.57250 6.99319 6.78611
#
# Compressibility (1/GPa) = 0.02193576
#
# Stress axis : x y z
#
# Youngs Moduli (GPa) = 86.10723 122.19194 73.20935
#
# Poissons Ratio (x) = 0.30605 0.08220
# Poissons Ratio (y) = 0.21567 0.15616
# Poissons Ratio (z) = 0.09668 0.26064
#
# Static dielectric constant tensor:
#      x y z
#    x 18.718880 -7.330960 -4.162150 
#    y -7.330960 7.462360 2.607480 
#    z -4.162150 2.607480 4.286250 
# 
# 
# High freq. dielectric constant tensor:
#      x y z
#    x 1.876600 -0.008560 0.018240 
#    y -0.008560 1.887470 0.013170 
#    z 0.018240 0.013170 1.890370 
# 
# From -- ./inp_files/206940.got.cif
#   From: 2010.06.25/outbox.cif.g09.slc.cpg/sg2_104_cif.got.tgz:206940.got - 2010.06.27 13:26:56.
