data_PCOD8032681
_publ_section_title
;
Structure prediction by ZEFSAII (Michael W. Deem and Ramdas Pophale) SiO2 
 PCOD8032681
Probable space group: P -1
;
_chemical_formula_sum "Si O2"
_cell_formula_units_Z 16
_cell_length_a 11.454181
_cell_length_b 9.073452
_cell_length_c 9.980825
_cell_angle_alpha 60.655786
_cell_angle_beta 122.858911
_cell_angle_gamma 122.977489
_cell_volume 702.489459
_symmetry_space_group_name_H-M "P -1"
_symmetry_group_IT_number 2
_symmetry_cell_setting 'triclinic'
loop_
_space_group_symop_operation_xyz
x,y,z
-x,-y,-z
loop_
_atom_site_type_symbol
_atom_site_label
_atom_site_fract_x
_atom_site_fract_y
_atom_site_fract_z
Si Si1 0.371934 0.566103 0.054632
Si Si2 0.141753 0.651412 0.717201
Si Si3 0.450917 0.308830 0.636166
Si Si4 0.861647 0.345220 0.587345
Si Si5 0.377332 0.241087 0.080387
Si Si6 0.422174 0.905751 0.360577
Si Si7 0.938149 0.889477 0.148083
Si Si8 0.143242 0.019612 0.664030
O O1 0.420987 0.660351 0.185791
O O2 0.396985 0.373724 0.162382
O O3 0.205253 0.545366 0.912691
O O4 0.478067 0.691966 0.951285
O O5 0.205171 0.653013 0.604656
O O6 0.963209 0.540244 0.629280
O O7 0.187383 0.851416 0.720929
O O8 0.500000 0.500000 0.500000
O O9 0.456226 0.142724 0.624366
O O10 0.281698 0.218264 0.634615
O O11 0.718441 0.280937 0.621214
O O12 0.954109 0.213068 0.696577
O O13 0.349440 0.034850 0.188732
O O14 0.230946 0.255061 0.913599
O O15 0.500000 0.000000 0.500000
O O16 0.916328 0.008592 0.206398
O O17 0.000000 0.000000 0.000000
O O18 0.000000 0.000000 0.500000
#
# Coordination Sequence:
#
# PCOD8032681 Si02
#       8
#     2   2   2   2   2   2   2   2
#     4  11  24  43  70 102 139 185 237 294 361 425
#     4  11  25  44  72 102 143 190 240 296 363 433
#     4  12  29  47  73 107 143 189 244 304 358 435
#     4  11  24  45  69 105 140 192 241 292 361 434
#     4  11  23  43  70 100 137 184 230 289 359 427
#     4  12  26  45  70 101 143 185 239 295 360 429
#     4  12  24  45  74 106 143 187 241 298 361 433
#     4  12  27  48  75 104 146 195 241 300 367 428
#
# _framework density 22.776143000000001
#
# number of rings (size 3 to 8) (size 9 to 14) (size 15 to 20)
#    0.000    0.500    5.000    3.000    3.500    3.000 
#    0.000    1.250    0.000    0.000    0.000    0.000 
#    0.000    0.000    0.000    0.000    0.000    0.000 
#
# Total GULP energy -198223.245637 kJ/mol
# GULP energy per Si atom -12388.952852 kJ/mol
# Density = 2.272430 g / cm^3
# Si number density = 22.776143 Si / 1000 Ang^3
#
#
#
# Elastic Constant Matrix: (Units=GPa)
#
#
# Indices 1 2 3 4 5 6 
#
# 1 83.5253 26.4986 28.7909 4.9222 -9.1641 2.8396
# 2 26.4986 102.5392 38.5120 1.6018 -17.9075 -1.3630
# 3 28.7909 38.5120 114.6699 15.6978 2.0142 -13.2065
# 4 4.9222 1.6018 15.6978 38.7650 -5.3352 -4.0969
# 5 -9.1641 -17.9075 2.0142 -5.3352 29.8235 2.5619
# 6 2.8396 -1.3630 -13.2065 -4.0969 2.5619 29.9433
#
#
#
# Elastic Compliance Matrix: (Units=1/GPa)
#
#
# Indices 1 2 3 4 5 6 
#
# 1 0.014247 -0.001786 -0.003396 -0.000186 0.003783 -0.003279
# 2 -0.001786 0.013407 -0.004749 0.002578 0.008428 -0.001683
# 3 -0.003396 -0.004749 0.012554 -0.004707 -0.006059 0.005517
# 4 -0.000186 0.002578 -0.004707 0.028707 0.006824 0.001403
# 5 0.003783 0.008428 -0.006059 0.006824 0.041838 -0.005293
# 6 -0.003279 -0.001683 0.005517 0.001403 -0.005293 0.036709
#
#
# Mechanical properties :
#
#
# Convention : Reuss Voigt Hill
#
# Bulk Modulus (GPa) = 49.14945 54.25974 51.70459
# Shear Modulus (GPa) = 28.71791 33.50187 31.10989
#
# Velocity S-wave (km/s) = 3.55473 3.83942 3.69982
# Velocity P-wave (km/s) = 6.20277 6.59770 6.40328
#
# Compressibility (1/GPa) = 0.02034611
#
# Stress axis : x y z
#
# Youngs Moduli (GPa) = 70.18924 74.58889 79.65273
#
# Poissons Ratio (x) = 0.13325 0.27049
# Poissons Ratio (y) = 0.12539 0.37827
# Poissons Ratio (z) = 0.23835 0.35422
#
# Static dielectric constant tensor:
#      x y z
#    x 3.989680 -0.088470 0.197400 
#    y -0.088470 4.755540 -0.095190 
#    z 0.197400 -0.095190 4.235690 
# 
# 
# High freq. dielectric constant tensor:
#      x y z
#    x 1.897680 0.002870 0.006820 
#    y 0.002870 1.906910 0.010490 
#    z 0.006820 0.010490 1.902570 
# 
# From -- ./inp_files/243193.got.cif
#   From: 2010.06.25/outbox.cif.g09.slc.cpg/sg2_122_cif.got.tgz:243193.got - 2010.06.27 13:26:56.
