data_PCOD8032115
_publ_section_title
;
Structure prediction by ZEFSAII (Michael W. Deem and Ramdas Pophale) SiO2 
 PCOD8032115
Probable space group: P -1
;
_chemical_formula_sum "Si O2"
_cell_formula_units_Z 16
_cell_length_a 17.716493
_cell_length_b 6.740095
_cell_length_c 8.075784
_cell_angle_alpha 59.100083
_cell_angle_beta 93.182469
_cell_angle_gamma 67.835067
_cell_volume 727.640701
_symmetry_space_group_name_H-M "P -1"
_symmetry_group_IT_number 2
_symmetry_cell_setting 'triclinic'
loop_
_space_group_symop_operation_xyz
x,y,z
-x,-y,-z
loop_
_atom_site_type_symbol
_atom_site_label
_atom_site_fract_x
_atom_site_fract_y
_atom_site_fract_z
Si Si1 0.769303 0.913105 0.984148
Si Si2 0.692527 0.551352 0.118481
Si Si3 0.521290 0.730444 0.844487
Si Si4 0.570779 0.701215 0.315189
Si Si5 0.034820 0.821148 0.917898
Si Si6 0.580883 0.359022 0.744280
Si Si7 0.166494 0.985895 0.720851
Si Si8 0.115343 0.216008 0.253458
O O1 0.761045 0.654054 0.060573
O O2 0.827614 0.862633 0.178149
O O3 0.812738 0.949224 0.806486
O O4 0.675926 0.156802 0.901368
O O5 0.662987 0.582131 0.291569
O O6 0.738539 0.255113 0.188145
O O7 0.604056 0.726229 0.938924
O O8 0.548737 0.647432 0.695380
O O9 0.444051 0.028913 0.713570
O O10 0.500000 0.500000 0.000000
O O11 0.581367 0.440128 0.521167
O O12 0.484122 0.764881 0.167994
O O13 0.094346 0.901468 0.783099
O O14 0.960931 0.850279 0.769333
O O15 0.087658 0.521605 0.109855
O O16 0.000000 0.000000 0.000000
O O17 0.145287 0.145055 0.477923
#
# Coordination Sequence:
#
# PCOD8032115 Si02
#       8
#     2   2   2   2   2   2   2   2
#     4  12  24  46  67 101 142 179 229 292 341 408
#     4  12  24  42  64  95 137 176 231 285 341 406
#     4  12  22  40  63  88 128 178 230 285 344 401
#     4  11  24  40  62  94 127 184 236 285 344 407
#     4  11  24  49  77 105 142 177 222 281 336 413
#     4  11  23  41  64  91 133 176 235 290 342 404
#     4  12  26  46  72 104 139 187 223 278 353 406
#     4  11  26  47  74 106 140 177 231 274 336 425
#
# _framework density 21.988876000000001
#
# number of rings (size 3 to 8) (size 9 to 14) (size 15 to 20)
#    0.000    0.500    6.250    2.625    0.000    1.500 
#    4.500    0.000    0.000    0.000    0.000    0.000 
#    0.000    0.000    0.000    0.000    0.000    0.000 
#
# Total GULP energy -198230.773769 kJ/mol
# GULP energy per Si atom -12389.423361 kJ/mol
# Density = 2.193883 g / cm^3
# Si number density = 21.988876 Si / 1000 Ang^3
#
#
#
# Elastic Constant Matrix: (Units=GPa)
#
#
# Indices 1 2 3 4 5 6 
#
# 1 120.1810 24.0767 38.8936 7.4838 -8.4743 3.7830
# 2 24.0767 107.5332 22.1383 8.8787 -2.7039 -1.5687
# 3 38.8936 22.1383 95.9352 16.8716 -2.6369 6.6766
# 4 7.4838 8.8787 16.8716 28.8283 0.9972 -0.6165
# 5 -8.4743 -2.7039 -2.6369 0.9972 26.0171 4.7617
# 6 3.7830 -1.5687 6.6766 -0.6165 4.7617 41.7215
#
#
#
# Elastic Compliance Matrix: (Units=1/GPa)
#
#
# Indices 1 2 3 4 5 6 
#
# 1 0.009997 -0.001428 -0.003561 -0.000187 0.002886 -0.000722
# 2 -0.001428 0.010094 -0.001455 -0.001886 0.000386 0.000670
# 3 -0.003561 -0.001455 0.013530 -0.006614 0.000693 -0.002074
# 4 -0.000187 -0.001886 -0.006614 0.039325 -0.002783 0.001903
# 5 0.002886 0.000386 0.000693 -0.002783 0.040513 -0.005023
# 6 -0.000722 0.000670 -0.002074 0.001903 -0.005023 0.024992
#
#
# Mechanical properties :
#
#
# Convention : Reuss Voigt Hill
#
# Bulk Modulus (GPa) = 48.23147 54.87405 51.55276
# Shear Modulus (GPa) = 31.59568 35.21610 33.40589
#
# Velocity S-wave (km/s) = 3.79475 4.00627 3.90194
# Velocity P-wave (km/s) = 6.41734 6.81247 6.61786
#
# Compressibility (1/GPa) = 0.02073335
#
# Stress axis : x y z
#
# Youngs Moduli (GPa) = 100.02836 99.07047 73.91162
#
# Poissons Ratio (x) = 0.14145 0.26320
# Poissons Ratio (y) = 0.14282 0.10753
# Poissons Ratio (z) = 0.35621 0.14413
#
# Static dielectric constant tensor:
#      x y z
#    x 4.275690 -0.257900 -0.211130 
#    y -0.257900 4.319170 0.378100 
#    z -0.211130 0.378100 3.890530 
# 
# 
# High freq. dielectric constant tensor:
#      x y z
#    x 1.873720 -0.003540 -0.010210 
#    y -0.003540 1.879430 0.010740 
#    z -0.010210 0.010740 1.851630 
# 
# From -- ./inp_files/321640.got.cif
#   From: 2010.06.25/outbox.cif.g09.slc.cpg/sg2_161_cif.got.tgz:321640.got - 2010.06.27 13:26:56.
