data_PCOD8032425
_publ_section_title
;
Structure prediction by ZEFSAII (Michael W. Deem and Ramdas Pophale) SiO2 
 PCOD8032425
Probable space group: P -1
;
_chemical_formula_sum "Si O2"
_cell_formula_units_Z 16
_cell_length_a 9.320643
_cell_length_b 13.355050
_cell_length_c 11.328251
_cell_angle_alpha 89.071853
_cell_angle_beta 122.767002
_cell_angle_gamma 132.308376
_cell_volume 726.619789
_symmetry_space_group_name_H-M "P -1"
_symmetry_group_IT_number 2
_symmetry_cell_setting 'triclinic'
loop_
_space_group_symop_operation_xyz
x,y,z
-x,-y,-z
loop_
_atom_site_type_symbol
_atom_site_label
_atom_site_fract_x
_atom_site_fract_y
_atom_site_fract_z
Si Si1 0.712390 0.148845 0.882142
Si Si2 0.896124 0.614503 0.733918
Si Si3 0.778525 0.950422 0.236991
Si Si4 0.296561 0.299148 0.512484
Si Si5 0.657143 0.666027 0.210352
Si Si6 0.089033 0.364349 0.839243
Si Si7 0.260467 0.067066 0.056460
Si Si8 0.839424 0.419614 0.308119
O O1 0.414206 0.056708 0.783978
O O2 0.809128 0.233618 0.794880
O O3 0.686392 0.017112 0.861938
O O4 0.940954 0.290485 0.075236
O O5 0.619985 0.418542 0.636249
O O6 0.805485 0.678039 0.638948
O O7 0.093586 0.651076 0.729295
O O8 0.666013 0.789341 0.218909
O O9 0.779493 0.969500 0.098464
O O10 0.094387 0.108634 0.423440
O O11 0.277924 0.346567 0.629925
O O12 0.884428 0.727212 0.220006
O O13 0.349031 0.490723 0.040682
O O14 0.083983 0.451813 0.742444
O O15 0.511260 0.260836 0.190840
O O16 0.000000 0.000000 0.000000
O O17 0.000000 0.500000 0.500000
#
# Coordination Sequence:
#
# PCOD8032425 Si02
#       8
#     2   2   2   2   2   2   2   2
#     4  12  24  45  74 103 136 184 233 284 341 410
#     4  11  23  42  70 100 135 179 235 279 341 405
#     4  12  24  44  70 100 141 178 233 286 343 403
#     4  11  24  40  68 101 136 176 225 291 334 404
#     4  11  23  43  67  97 137 180 229 276 345 404
#     4  11  25  44  71  98 140 183 228 282 346 412
#     4  12  26  44  71 104 141 183 227 281 350 414
#     4  12  27  47  71 101 141 182 231 286 345 412
#
# _framework density 22.019767999999999
#
# number of rings (size 3 to 8) (size 9 to 14) (size 15 to 20)
#    0.000    0.500    5.000    3.000    5.250    1.000 
#    0.000    1.250    0.000    0.000    0.000    0.000 
#    0.000    0.000    0.000    0.000    0.000    0.000 
#
# Total GULP energy -198451.251262 kJ/mol
# GULP energy per Si atom -12403.203204 kJ/mol
# Density = 2.196965 g / cm^3
# Si number density = 22.019768 Si / 1000 Ang^3
#
#
#
# Elastic Constant Matrix: (Units=GPa)
#
#
# Indices 1 2 3 4 5 6 
#
# 1 121.9456 44.9610 14.5828 5.8686 -1.1439 14.7889
# 2 44.9610 107.7914 30.0928 0.0446 -2.3094 14.1166
# 3 14.5828 30.0928 98.8694 1.4845 -12.3342 17.4210
# 4 5.8686 0.0446 1.4845 25.1574 6.7778 -1.4260
# 5 -1.1439 -2.3094 -12.3342 6.7778 31.1874 -1.7651
# 6 14.7889 14.1166 17.4210 -1.4260 -1.7651 42.9046
#
#
#
# Elastic Compliance Matrix: (Units=1/GPa)
#
#
# Indices 1 2 3 4 5 6 
#
# 1 0.010038 -0.003936 0.000244 -0.002647 0.000617 -0.002327
# 2 -0.003936 0.011894 -0.002911 0.001194 -0.000751 -0.001366
# 3 0.000244 -0.002911 0.012322 -0.002339 0.004948 -0.004004
# 4 -0.002647 0.001194 -0.002339 0.043399 -0.010224 0.002491
# 5 0.000617 -0.000751 0.004948 -0.010224 0.036164 -0.000827
# 6 -0.002327 -0.001366 -0.004004 0.002491 -0.000827 0.026234
#
#
# Mechanical properties :
#
#
# Convention : Reuss Voigt Hill
#
# Bulk Modulus (GPa) = 47.50845 56.43109 51.96977
# Shear Modulus (GPa) = 31.19721 35.78121 33.48921
#
# Velocity S-wave (km/s) = 3.76810 4.03545 3.90406
# Velocity P-wave (km/s) = 6.36817 6.88449 6.63136
#
# Compressibility (1/GPa) = 0.02104889
#
# Stress axis : x y z
#
# Youngs Moduli (GPa) = 99.62434 84.07757 81.15444
#
# Poissons Ratio (x) = 0.33093 -0.01981
# Poissons Ratio (y) = 0.39212 0.23620
# Poissons Ratio (z) = -0.02432 0.24471
#
# Static dielectric constant tensor:
#      x y z
#    x 4.068070 0.208840 -0.053980 
#    y 0.208840 4.115660 0.047370 
#    z -0.053980 0.047370 4.089620 
# 
# 
# High freq. dielectric constant tensor:
#      x y z
#    x 1.867740 0.011000 -0.007040 
#    y 0.011000 1.874340 0.000680 
#    z -0.007040 0.000680 1.869760 
# 
# From -- ./inp_files/263383.got.cif
#   From: 2010.06.25/outbox.cif.g09.slc.cpg/sg2_132_cif.got.tgz:263383.got - 2010.06.27 13:26:56.
