data_PCOD8032587
_publ_section_title
;
Structure prediction by ZEFSAII (Michael W. Deem and Ramdas Pophale) SiO2 
 PCOD8032587
Probable space group: P -1
;
_chemical_formula_sum "Si O2"
_cell_formula_units_Z 16
_cell_length_a 12.099342
_cell_length_b 18.232395
_cell_length_c 21.065478
_cell_angle_alpha 161.077244
_cell_angle_beta 29.129164
_cell_angle_gamma 149.470929
_cell_volume 715.263538
_symmetry_space_group_name_H-M "P -1"
_symmetry_group_IT_number 2
_symmetry_cell_setting 'triclinic'
loop_
_space_group_symop_operation_xyz
x,y,z
-x,-y,-z
loop_
_atom_site_type_symbol
_atom_site_label
_atom_site_fract_x
_atom_site_fract_y
_atom_site_fract_z
Si Si1 0.708560 0.017673 0.496539
Si Si2 0.068453 0.461263 0.171582
Si Si3 0.204183 0.009079 0.715055
Si Si4 0.831733 0.603472 0.625730
Si Si5 0.556478 0.159942 0.960436
Si Si6 0.344980 0.631839 0.602073
Si Si7 0.045382 0.196740 0.690496
Si Si8 0.726886 0.408526 0.191509
O O1 0.760600 0.288526 0.711135
O O2 0.428606 0.926730 0.562909
O O3 0.797821 0.978195 0.349538
O O4 0.830041 0.877583 0.370662
O O5 0.877771 0.470703 0.328085
O O6 0.952156 0.392776 0.105152
O O7 0.207725 0.260978 0.950628
O O8 0.970390 0.831887 0.707438
O O9 0.724599 0.403143 0.465447
O O10 0.000000 0.500000 0.500000
O O11 0.627336 0.679491 0.831379
O O12 0.797395 0.253120 0.878540
O O13 0.444576 0.899555 0.784471
O O14 0.606220 0.169336 0.020031
O O15 0.547823 0.491348 0.397689
O O16 0.210902 0.418823 0.758383
O O17 0.000000 0.000000 0.500000
#
# Coordination Sequence:
#
# PCOD8032587 Si02
#       8
#     2   2   2   2   2   2   2   2
#     4  11  25  45  68  96 141 177 223 281 329 402
#     4  12  22  44  67 101 135 174 230 272 333 407
#     4  11  25  45  69  97 132 185 225 271 338 401
#     4  11  26  47  68  98 135 178 227 280 333 400
#     4  11  24  44  68  99 133 173 224 273 344 396
#     4  11  23  43  67 100 133 175 224 277 340 398
#     4  12  23  45  69 103 136 174 227 279 339 397
#     4  11  25  41  69 102 138 177 219 280 342 394
#
# _framework density 22.369378000000001
#
# number of rings (size 3 to 8) (size 9 to 14) (size 15 to 20)
#    0.000    0.750    5.000    1.875    3.500    1.000 
#    4.500    0.000    0.000    0.000    0.000    0.000 
#    0.000    0.000    0.000    0.000    0.000    0.000 
#
# Total GULP energy -198413.037190 kJ/mol
# GULP energy per Si atom -12400.814824 kJ/mol
# Density = 2.231846 g / cm^3
# Si number density = 22.369378 Si / 1000 Ang^3
#
#
#
# Elastic Constant Matrix: (Units=GPa)
#
#
# Indices 1 2 3 4 5 6 
#
# 1 98.8620 22.0562 39.2759 -14.2704 -3.6655 11.9806
# 2 22.0562 61.1811 30.4765 -20.5539 -8.4537 5.5100
# 3 39.2759 30.4765 128.0154 -17.6779 11.6706 7.2882
# 4 -14.2704 -20.5539 -17.6779 41.4191 11.5079 3.8977
# 5 -3.6655 -8.4537 11.6706 11.5079 37.0712 4.2066
# 6 11.9806 5.5100 7.2882 3.8977 4.2066 31.5778
#
#
#
# Elastic Compliance Matrix: (Units=1/GPa)
#
#
# Indices 1 2 3 4 5 6 
#
# 1 0.012599 -0.001679 -0.003079 0.002135 0.001653 -0.004260
# 2 -0.001679 0.022556 -0.003871 0.008196 0.004102 -0.003963
# 3 -0.003079 -0.003871 0.010617 0.003091 -0.005460 -0.000261
# 4 0.002135 0.008196 0.003091 0.033191 -0.008525 -0.005915
# 5 0.001653 0.004102 -0.005460 -0.008525 0.032825 -0.003403
# 6 -0.004260 -0.003963 -0.000261 -0.005915 -0.003403 0.035219
#
#
# Mechanical properties :
#
#
# Convention : Reuss Voigt Hill
#
# Bulk Modulus (GPa) = 35.07118 52.40839 43.73979
# Shear Modulus (GPa) = 28.77378 35.09694 31.93536
#
# Velocity S-wave (km/s) = 3.59040 3.96532 3.78251
# Velocity P-wave (km/s) = 5.73587 6.66667 6.21871
#
# Compressibility (1/GPa) = 0.02851344
#
# Stress axis : x y z
#
# Youngs Moduli (GPa) = 79.37391 44.33487 94.18605
#
# Poissons Ratio (x) = 0.07443 0.28999
# Poissons Ratio (y) = 0.13325 0.36462
# Poissons Ratio (z) = 0.24439 0.17163
#
# Static dielectric constant tensor:
#      x y z
#    x 3.967750 0.241170 0.215480 
#    y 0.241170 4.389990 -0.008780 
#    z 0.215480 -0.008780 4.295860 
# 
# 
# High freq. dielectric constant tensor:
#      x y z
#    x 1.877380 0.019470 0.015330 
#    y 0.019470 1.885460 -0.010110 
#    z 0.015330 -0.010110 1.897690 
# 
# From -- ./inp_files/428882.got.cif
#   From: 2010.06.25/outbox.cif.g09.slc.cpg/sg2_215_cif.got.tgz:428882.got - 2010.06.27 13:26:56.
