data_PCOD8032779
_publ_section_title
;
Structure prediction by ZEFSAII (Michael W. Deem and Ramdas Pophale) SiO2 
 PCOD8032779
Probable space group: P -1
;
_chemical_formula_sum "Si O2"
_cell_formula_units_Z 16
_cell_length_a 8.935510
_cell_length_b 10.803290
_cell_length_c 18.388247
_cell_angle_alpha 133.288413
_cell_angle_beta 139.269981
_cell_angle_gamma 75.357264
_cell_volume 697.494169
_symmetry_space_group_name_H-M "P -1"
_symmetry_group_IT_number 2
_symmetry_cell_setting 'triclinic'
loop_
_space_group_symop_operation_xyz
x,y,z
-x,-y,-z
loop_
_atom_site_type_symbol
_atom_site_label
_atom_site_fract_x
_atom_site_fract_y
_atom_site_fract_z
Si Si1 0.749130 0.516724 0.717430
Si Si2 0.434887 0.321172 0.762480
Si Si3 0.912155 0.784238 0.106976
Si Si4 0.350661 0.117546 0.492697
Si Si5 0.771723 0.189357 0.893814
Si Si6 0.523206 0.794340 0.726341
Si Si7 0.985174 0.570111 0.347792
Si Si8 0.464622 0.803818 0.874844
O O1 0.485684 0.290956 0.549132
O O2 0.635085 0.650067 0.700750
O O3 0.953977 0.523832 0.735779
O O4 0.939347 0.601529 0.893250
O O5 0.365609 0.222895 0.616868
O O6 0.497932 0.196607 0.793742
O O7 0.171808 0.322866 0.692884
O O8 0.717050 0.548613 0.964195
O O9 0.188414 0.840265 0.188409
O O10 0.747641 0.826256 0.004719
O O11 0.027663 0.944648 0.282163
O O12 0.500000 0.000000 0.500000
O O13 0.752096 0.024533 0.876622
O O14 0.420765 0.792617 0.768431
O O15 0.274176 0.733388 0.556284
O O16 0.796815 0.397453 0.267642
O O17 0.500000 0.000000 0.000000
#
# Coordination Sequence:
#
# PCOD8032779 Si02
#       8
#     2   2   2   2   2   2   2   2
#     4  12  25  46  71 102 143 183 237 288 343 421
#     4  11  25  49  69 105 146 178 236 295 341 414
#     4  11  23  43  72 105 135 185 232 286 349 410
#     4  12  24  43  77 106 134 187 235 281 348 419
#     4  12  23  44  74 100 143 185 233 289 343 413
#     4  12  26  45  71 101 140 189 227 291 349 417
#     4  11  27  45  68 101 140 183 230 292 354 403
#     4  11  25  43  68 101 138 181 226 288 357 417
#
# _framework density 22.939260999999998
#
# number of rings (size 3 to 8) (size 9 to 14) (size 15 to 20)
#    0.000    0.500    3.750    4.500    5.250    1.000 
#    0.000    0.000    0.000    0.000    0.000    0.000 
#    0.000    0.000    0.000    0.000    0.000    0.000 
#
# Total GULP energy -198386.004638 kJ/mol
# GULP energy per Si atom -12399.125290 kJ/mol
# Density = 2.288705 g / cm^3
# Si number density = 22.939261 Si / 1000 Ang^3
#
#
#
# Elastic Constant Matrix: (Units=GPa)
#
#
# Indices 1 2 3 4 5 6 
#
# 1 107.6935 41.3709 27.6637 9.2151 -5.3924 -18.7329
# 2 41.3709 140.4799 22.3387 1.9931 -2.6828 -16.9412
# 3 27.6637 22.3387 117.7176 1.1343 -15.0769 2.2840
# 4 9.2151 1.9931 1.1343 27.1828 -7.3538 -2.0918
# 5 -5.3924 -2.6828 -15.0769 -7.3538 23.6291 -1.8849
# 6 -18.7329 -16.9412 2.2840 -2.0918 -1.8849 34.6611
#
#
#
# Elastic Compliance Matrix: (Units=1/GPa)
#
#
# Indices 1 2 3 4 5 6 
#
# 1 0.012075 -0.002484 -0.002394 -0.003313 0.000337 0.005288
# 2 -0.002484 0.008355 -0.001049 0.000520 0.000101 0.002847
# 3 -0.002394 -0.001049 0.010073 0.001997 0.006223 -0.002011
# 4 -0.003313 0.000520 0.001997 0.041605 0.013652 0.001585
# 5 0.000337 0.000101 0.006223 0.013652 0.050901 0.003413
# 6 0.005288 0.002847 -0.002011 0.001585 0.003413 0.033514
#
#
# Mechanical properties :
#
#
# Convention : Reuss Voigt Hill
#
# Bulk Modulus (GPa) = 53.62155 60.95974 57.29064
# Shear Modulus (GPa) = 28.63802 35.39578 32.01690
#
# Velocity S-wave (km/s) = 3.53714 3.93239 3.73999
# Velocity P-wave (km/s) = 6.33309 6.87389 6.60903
#
# Compressibility (1/GPa) = 0.01864922
#
# Stress axis : x y z
#
# Youngs Moduli (GPa) = 82.81540 119.69246 99.27241
#
# Poissons Ratio (x) = 0.29735 0.23763
# Poissons Ratio (y) = 0.20574 0.10413
# Poissons Ratio (z) = 0.19824 0.12555
#
# Static dielectric constant tensor:
#      x y z
#    x 3.976660 -0.265570 -0.207120 
#    y -0.265570 4.104710 -0.085650 
#    z -0.207120 -0.085650 4.345050 
# 
# 
# High freq. dielectric constant tensor:
#      x y z
#    x 1.896400 -0.008340 -0.008100 
#    y -0.008340 1.917990 -0.002410 
#    z -0.008100 -0.002410 1.921700 
# 
# From -- ./inp_files/589660.got.cif
#   From: 2010.06.25/outbox.cif.g09.slc.cpg/sg2_295_cif.got.tgz:589660.got - 2010.06.27 13:26:56.
