data_PCOD8032874
_publ_section_title
;
Structure prediction by ZEFSAII (Michael W. Deem and Ramdas Pophale) SiO2 
 PCOD8032874
Probable space group: P -1
;
_chemical_formula_sum "Si O2"
_cell_formula_units_Z 16
_cell_length_a 16.174434
_cell_length_b 6.423486
_cell_length_c 15.304029
_cell_angle_alpha 44.823661
_cell_angle_beta 140.826787
_cell_angle_gamma 113.408326
_cell_volume 665.143904
_symmetry_space_group_name_H-M "P -1"
_symmetry_group_IT_number 2
_symmetry_cell_setting 'triclinic'
loop_
_space_group_symop_operation_xyz
x,y,z
-x,-y,-z
loop_
_atom_site_type_symbol
_atom_site_label
_atom_site_fract_x
_atom_site_fract_y
_atom_site_fract_z
Si Si1 0.479543 0.020766 0.874700
Si Si2 0.089242 0.947679 0.689876
Si Si3 0.856217 0.113441 0.045588
Si Si4 0.504933 0.675752 0.708914
Si Si5 0.827686 0.820774 0.466722
Si Si6 0.303520 0.334905 0.974344
Si Si7 0.098767 0.853403 0.204998
Si Si8 0.292318 0.203844 0.299222
O O1 0.466566 0.376852 0.734921
O O2 0.337012 0.969753 0.739640
O O3 0.614823 0.752256 0.024972
O O4 0.500000 0.000000 0.000000
O O5 0.158016 0.890400 0.859158
O O6 0.925985 0.985301 0.548605
O O7 0.111534 0.239498 0.567249
O O8 0.173285 0.658041 0.779143
O O9 0.816066 0.456665 0.865490
O O10 0.016554 0.951323 0.199931
O O11 0.758780 0.940279 0.973472
O O12 0.577685 0.641331 0.871098
O O13 0.601367 0.721598 0.699023
O O14 0.368322 0.994114 0.507114
O O15 0.840161 0.521935 0.626136
O O16 0.220333 0.994067 0.250953
O O17 0.000000 0.000000 0.000000
#
# Coordination Sequence:
#
# PCOD8032874 Si02
#       8
#     2   2   2   2   2   2   2   2
#     4  12  26  48  72 106 144 185 237 294 356 418
#     4  11  25  49  73 108 141 180 243 294 363 422
#     4  12  24  45  74 102 141 191 235 299 355 416
#     4  11  24  43  68  98 145 187 235 287 349 427
#     4  11  25  48  73 107 145 183 239 297 353 428
#     4  12  23  45  74 103 141 190 231 291 357 419
#     4  12  25  44  73 104 143 191 240 290 356 423
#     4  11  23  44  64 103 143 183 238 290 346 422
#
# _framework density 24.054946000000001
#
# number of rings (size 3 to 8) (size 9 to 14) (size 15 to 20)
#    0.000    0.500    5.000    3.375    0.000    5.000 
#    4.500    0.000    0.000    0.000    0.000    0.000 
#    0.000    0.000    0.000    0.000    0.000    0.000 
#
# Total GULP energy -198224.100556 kJ/mol
# GULP energy per Si atom -12389.006285 kJ/mol
# Density = 2.400020 g / cm^3
# Si number density = 24.054946 Si / 1000 Ang^3
#
#
#
# Elastic Constant Matrix: (Units=GPa)
#
#
# Indices 1 2 3 4 5 6 
#
# 1 73.2491 20.5790 15.7916 -3.0640 1.9839 7.1040
# 2 20.5790 77.7167 18.5802 10.0896 1.4323 18.3604
# 3 15.7916 18.5802 110.9660 12.3512 4.0198 1.1071
# 4 -3.0640 10.0896 12.3512 30.9716 9.0244 3.0265
# 5 1.9839 1.4323 4.0198 9.0244 25.8601 3.6434
# 6 7.1040 18.3604 1.1071 3.0265 3.6434 49.7340
#
#
#
# Elastic Compliance Matrix: (Units=1/GPa)
#
#
# Indices 1 2 3 4 5 6 
#
# 1 0.015496 -0.003965 -0.001935 0.004272 -0.002044 -0.000817
# 2 -0.003965 0.016157 -0.001595 -0.005148 0.002188 -0.005210
# 3 -0.001935 -0.001595 0.009961 -0.003687 -0.000149 0.000879
# 4 0.004272 -0.005148 -0.003687 0.039749 -0.013331 -0.000070
# 5 -0.002044 0.002188 -0.000149 -0.013331 0.043790 -0.002909
# 6 -0.000817 -0.005210 0.000879 -0.000070 -0.002909 0.022345
#
#
# Mechanical properties :
#
#
# Convention : Reuss Voigt Hill
#
# Bulk Modulus (GPa) = 37.55838 41.31480 39.43659
# Shear Modulus (GPa) = 29.17778 35.11188 32.14483
#
# Velocity S-wave (km/s) = 3.48654 3.82469 3.65952
# Velocity P-wave (km/s) = 5.64406 6.05944 5.85543
#
# Compressibility (1/GPa) = 0.02662521
#
# Stress axis : x y z
#
# Youngs Moduli (GPa) = 64.53163 61.89125 100.38956
#
# Poissons Ratio (x) = 0.24538 0.19422
# Poissons Ratio (y) = 0.25585 0.16017
# Poissons Ratio (z) = 0.12485 0.09875
#
# Static dielectric constant tensor:
#      x y z
#    x 4.453090 0.324470 0.120680 
#    y 0.324470 4.655850 -0.438530 
#    z 0.120680 -0.438530 5.102320 
# 
# 
# High freq. dielectric constant tensor:
#      x y z
#    x 1.956840 0.030150 0.001930 
#    y 0.030150 1.940310 0.000040 
#    z 0.001930 0.000040 1.970220 
# 
# From -- ./inp_files/536250.got.cif
#   From: 2010.06.25/outbox.cif.g09.slc.cpg/sg2_269_cif.got.tgz:536250.got - 2010.06.27 13:26:56.
