data_PCOD8032417
_publ_section_title
;
Structure prediction by ZEFSAII (Michael W. Deem and Ramdas Pophale) SiO2 
 PCOD8032417
Probable space group: P -1
;
_chemical_formula_sum "Si O2"
_cell_formula_units_Z 16
_cell_length_a 15.409416
_cell_length_b 9.797813
_cell_length_c 18.692381
_cell_angle_alpha 29.595018
_cell_angle_beta 142.682727
_cell_angle_gamma 141.925824
_cell_volume 800.633035
_symmetry_space_group_name_H-M "P -1"
_symmetry_group_IT_number 2
_symmetry_cell_setting 'triclinic'
loop_
_space_group_symop_operation_xyz
x,y,z
-x,-y,-z
loop_
_atom_site_type_symbol
_atom_site_label
_atom_site_fract_x
_atom_site_fract_y
_atom_site_fract_z
Si Si1 0.666838 0.930775 0.923391
Si Si2 0.632373 0.304404 0.946481
Si Si3 0.143291 0.001480 0.548399
Si Si4 0.386537 0.604678 0.423845
Si Si5 0.412422 0.166572 0.414038
Si Si6 0.910452 0.167748 0.575189
Si Si7 0.657726 0.360826 0.098619
Si Si8 0.883400 0.191061 0.075132
O O1 0.508840 0.851950 0.896736
O O2 0.665799 0.144582 0.760832
O O3 0.699492 0.648452 0.042944
O O4 0.798009 0.085812 0.993239
O O5 0.604661 0.547931 0.765653
O O6 0.664150 0.448074 0.980074
O O7 0.774407 0.214006 0.056613
O O8 0.500000 0.000000 0.000000
O O9 0.113121 0.884156 0.501206
O O10 0.223852 0.804399 0.732514
O O11 0.238369 0.337758 0.460561
O O12 0.000000 0.000000 0.500000
O O13 0.500000 0.500000 0.500000
O O14 0.471099 0.725782 0.495732
O O15 0.500000 0.000000 0.500000
O O16 0.250566 0.952594 0.433873
O O17 0.000000 0.500000 0.500000
O O18 0.026398 0.018352 0.747548
O O19 0.000000 0.500000 0.000000
#
# Coordination Sequence:
#
# PCOD8032417 Si02
#       8
#     2   2   2   2   2   2   2   2
#     4  11  23  42  69  98 129 176 219 271 334 389
#     4  12  24  42  69 101 133 174 225 275 328 394
#     4  12  26  45  69 101 134 174 227 278 336 396
#     4  12  22  45  73  94 131 176 228 280 324 394
#     4  12  27  45  69 104 136 177 229 276 338 406
#     4  12  27  46  69  99 141 182 218 280 345 399
#     4  11  23  43  67  99 133 169 222 274 327 396
#     4  12  24  44  67  96 137 174 221 273 331 398
#
# _framework density 19.984186999999999
#
# number of rings (size 3 to 8) (size 9 to 14) (size 15 to 20)
#    0.000    0.250    5.000    4.500    3.500    2.000 
#    0.000    1.250    0.000    0.000    0.000    0.000 
#    0.000    0.000    0.000    0.000    0.000    0.000 
#
# Total GULP energy -198408.943950 kJ/mol
# GULP energy per Si atom -12400.558997 kJ/mol
# Density = 1.993870 g / cm^3
# Si number density = 19.984187 Si / 1000 Ang^3
#
#
#
# Elastic Constant Matrix: (Units=GPa)
#
#
# Indices 1 2 3 4 5 6 
#
# 1 175.6952 92.5165 84.8519 2.3067 12.5136 12.1526
# 2 92.5165 191.1835 95.2624 1.6257 -4.4973 6.3693
# 3 84.8519 95.2624 221.7261 4.0208 11.3237 13.9691
# 4 2.3067 1.6257 4.0208 39.8675 -1.6857 -11.7157
# 5 12.5136 -4.4973 11.3237 -1.6857 46.5352 7.4272
# 6 12.1526 6.3693 13.9691 -11.7157 7.4272 44.3661
#
#
#
# Elastic Compliance Matrix: (Units=1/GPa)
#
#
# Indices 1 2 3 4 5 6 
#
# 1 0.008436 -0.003271 -0.001636 -0.000613 -0.002025 -0.001149
# 2 -0.003271 0.008013 -0.002318 0.000239 0.002200 0.000171
# 3 -0.001636 -0.002318 0.006284 -0.000855 -0.001148 -0.001231
# 4 -0.000613 0.000239 -0.000855 0.027442 0.000174 0.007620
# 5 -0.002025 0.002200 -0.001148 0.000174 0.023044 -0.003212
# 6 -0.001149 0.000171 -0.001231 0.007620 -0.003212 0.025767
#
#
# Mechanical properties :
#
#
# Convention : Reuss Voigt Hill
#
# Bulk Modulus (GPa) = 120.74722 125.98514 123.36618
# Shear Modulus (GPa) = 43.03013 47.21870 45.12442
#
# Velocity S-wave (km/s) = 4.64530 4.86614 4.75700
# Velocity P-wave (km/s) = 9.45116 9.73405 9.59364
#
# Compressibility (1/GPa) = 0.00828176
#
# Stress axis : x y z
#
# Youngs Moduli (GPa) = 118.53739 124.80160 159.14030
#
# Poissons Ratio (x) = 0.40827 0.26035
# Poissons Ratio (y) = 0.38778 0.36890
# Poissons Ratio (z) = 0.19392 0.28930
#
# Static dielectric constant tensor:
#      x y z
#    x 3.688200 -0.018850 0.030770 
#    y -0.018850 3.860970 0.058540 
#    z 0.030770 0.058540 3.787340 
# 
# 
# High freq. dielectric constant tensor:
#      x y z
#    x 1.793200 -0.003580 0.000480 
#    y -0.003580 1.799650 0.000460 
#    z 0.000480 0.000460 1.801030 
# 
# From -- ./inp_files/189167.got.cif
#   From: 2010.06.25/outbox.cif.g09.slc.cpg/sg2_95_cif.got.tgz:189167.got - 2010.06.27 13:26:56.
