data_PCOD8032513
_publ_section_title
;
Structure prediction by ZEFSAII (Michael W. Deem and Ramdas Pophale) SiO2 
 PCOD8032513
Probable space group: P -1
;
_chemical_formula_sum "Si O2"
_cell_formula_units_Z 14
_cell_length_a 14.132026
_cell_length_b 13.132082
_cell_length_c 11.222979
_cell_angle_alpha 57.077072
_cell_angle_beta 19.034219
_cell_angle_gamma 55.817827
_cell_volume 561.333370
_symmetry_space_group_name_H-M "P -1"
_symmetry_group_IT_number 2
_symmetry_cell_setting 'triclinic'
loop_
_space_group_symop_operation_xyz
x,y,z
-x,-y,-z
loop_
_atom_site_type_symbol
_atom_site_label
_atom_site_fract_x
_atom_site_fract_y
_atom_site_fract_z
Si Si1 0.324757 0.722472 0.722963
Si Si2 0.537118 0.576941 0.773472
Si Si3 0.776914 0.753105 0.518639
Si Si4 0.495585 0.979916 0.378972
Si Si5 0.101470 0.417288 0.310324
Si Si6 0.460205 0.271458 0.783956
Si Si7 0.982378 0.892679 0.680418
O O1 0.575077 0.639734 0.559974
O O2 0.331015 0.867209 0.621483
O O3 0.376009 0.674694 0.556902
O O4 0.010766 0.709654 0.160799
O O5 0.506197 0.686119 0.840898
O O6 0.798632 0.467351 0.569140
O O7 0.226883 0.520982 0.178587
O O8 0.905508 0.705732 0.524626
O O9 0.684323 0.899137 0.547440
O O10 0.500000 0.000000 0.500000
O O11 0.823679 0.950076 0.953691
O O12 0.347764 0.383925 0.935411
O O13 0.685192 0.167413 0.649443
O O14 0.185220 0.211124 0.107134
O O15 0.000000 0.000000 0.500000
#
# Coordination Sequence:
#
# PCOD8032513 Si02
#       7
#     2   2   2   2   2   2   2
#     4  11  26  45  73 103 147 180 232 290 355 415
#     4  12  26  47  72 103 142 185 238 292 341 410
#     4  12  25  46  72 105 141 183 235 292 350 413
#     4  11  23  42  73 106 139 181 229 285 356 419
#     4  12  28  46  74 102 139 190 239 286 344 412
#     4  11  26  47  68 104 143 182 235 287 347 417
#     4  11  24  45  71 102 144 184 230 287 348 417
#
# _framework density 24.940617
#
# number of rings (size 3 to 8) (size 9 to 14) (size 15 to 20)
#    0.000    0.571    2.857    4.286    4.000    4.571 
#    0.000    0.000    0.000    0.000    0.000    0.000 
#    0.000    0.000    0.000    0.000    0.000    0.000 
#
# Total GULP energy -173595.957389 kJ/mol
# GULP energy per Si atom -12399.711242 kJ/mol
# Density = 2.488385 g / cm^3
# Si number density = 24.940617 Si / 1000 Ang^3
#
#
#
# Elastic Constant Matrix: (Units=GPa)
#
#
# Indices 1 2 3 4 5 6 
#
# 1 105.5629 56.6915 36.2747 2.8275 -3.4734 -23.2599
# 2 56.6915 137.5048 33.1945 -1.5641 -6.3228 -42.8811
# 3 36.2747 33.1945 104.3065 1.7511 -1.9844 -0.8034
# 4 2.8275 -1.5641 1.7511 40.2668 -6.7566 2.3363
# 5 -3.4734 -6.3228 -1.9844 -6.7566 28.6472 8.4966
# 6 -23.2599 -42.8811 -0.8034 2.3363 8.4966 43.2041
#
#
#
# Elastic Compliance Matrix: (Units=1/GPa)
#
#
# Indices 1 2 3 4 5 6 
#
# 1 0.013445 -0.003529 -0.003517 -0.001299 -0.000858 0.003909
# 2 -0.003529 0.012748 -0.002766 0.000059 -0.001025 0.010899
# 3 -0.003517 -0.002766 0.011675 0.000100 0.001177 -0.004659
# 4 -0.001299 0.000059 0.000100 0.026315 0.007094 -0.003457
# 5 -0.000858 -0.001025 0.001177 0.007094 0.039162 -0.009543
# 6 0.003909 0.010899 -0.004659 -0.003457 -0.009543 0.038045
#
#
# Mechanical properties :
#
#
# Convention : Reuss Voigt Hill
#
# Bulk Modulus (GPa) = 54.81437 66.63284 60.72361
# Shear Modulus (GPa) = 29.92299 37.17118 33.54708
#
# Velocity S-wave (km/s) = 3.46753 3.86474 3.67151
# Velocity P-wave (km/s) = 6.16906 6.83298 6.50949
#
# Compressibility (1/GPa) = 0.01824339
#
# Stress axis : x y z
#
# Youngs Moduli (GPa) = 74.37810 78.44477 85.65077
#
# Poissons Ratio (x) = 0.27686 0.30123
# Poissons Ratio (y) = 0.26250 0.23691
# Poissons Ratio (z) = 0.26158 0.21698
#
# Static dielectric constant tensor:
#      x y z
#    x 5.354220 0.271070 0.828150 
#    y 0.271070 5.035810 0.395760 
#    z 0.828150 0.395760 5.289070 
# 
# 
# High freq. dielectric constant tensor:
#      x y z
#    x 2.001400 -0.019790 0.008620 
#    y -0.019790 2.003480 -0.004140 
#    z 0.008620 -0.004140 1.999990 
# 
# From -- ./inp_files/454585.got.cif
#   From: 2010.06.25/outbox.cif.g09.slc.cpg/sg2_228_cif.got.tgz:454585.got - 2010.06.27 13:26:56.
