data_PCOD8032050
_publ_section_title
;
Structure prediction by ZEFSAII (Michael W. Deem and Ramdas Pophale) SiO2 
 PCOD8032050
Probable space group: P -1
;
_chemical_formula_sum "Si O2"
_cell_formula_units_Z 16
_cell_length_a 24.922847
_cell_length_b 8.988555
_cell_length_c 9.644129
_cell_angle_alpha 57.562065
_cell_angle_beta 48.690652
_cell_angle_gamma 29.801748
_cell_volume 802.710996
_symmetry_space_group_name_H-M "P -1"
_symmetry_group_IT_number 2
_symmetry_cell_setting 'triclinic'
loop_
_space_group_symop_operation_xyz
x,y,z
-x,-y,-z
loop_
_atom_site_type_symbol
_atom_site_label
_atom_site_fract_x
_atom_site_fract_y
_atom_site_fract_z
Si Si1 0.767654 0.789734 0.800275
Si Si2 0.255681 0.836215 0.170434
Si Si3 0.054548 0.890749 0.112547
Si Si4 0.505209 0.794855 0.257566
Si Si5 0.767561 0.140062 0.125256
Si Si6 0.113123 0.773699 0.519845
Si Si7 0.744436 0.858854 0.481772
Si Si8 0.494704 0.815767 0.937267
O O1 0.865701 0.441121 0.828090
O O2 0.762216 0.856855 0.615670
O O3 0.805757 0.881955 0.780746
O O4 0.636887 0.990358 0.981932
O O5 0.193048 0.782871 0.349082
O O6 0.398704 0.530372 0.120232
O O7 0.237895 0.905559 0.002905
O O8 0.134431 0.903237 0.999738
O O9 0.933975 0.131798 0.290806
O O10 0.000000 0.000000 0.000000
O O11 0.636788 0.462427 0.246025
O O12 0.398572 0.875212 0.448100
O O13 0.485152 0.029753 0.239538
O O14 0.499928 0.822920 0.088661
O O15 0.805730 0.895523 0.274133
O O16 0.192673 0.445171 0.518926
O O17 0.000000 0.000000 0.500000
#
# Coordination Sequence:
#
# PCOD8032050 Si02
#       8
#     2   2   2   2   2   2   2   2
#     4  11  23  42  66  96 128 165 210 260 315 374
#     4  11  23  40  68  97 127 165 208 260 315 375
#     4  12  28  45  65  89 127 172 214 263 309 368
#     4   9  17  36  67  94 124 163 205 253 317 378
#     4  11  23  42  66  96 128 165 210 260 315 374
#     4  12  24  45  65  89 125 170 220 254 307 376
#     4  11  23  40  68  97 127 165 208 260 315 375
#     4   9  17  36  67  94 124 163 205 253 317 378
#
# _framework density 19.932452999999999
#
# number of rings (size 3 to 8) (size 9 to 14) (size 15 to 20)
#    0.000    1.250    5.000    0.750    3.500    2.000 
#    0.000    0.000    0.000    3.000    0.000    0.000 
#    0.000    0.000    0.000    0.000    0.000    0.000 
#
# Total GULP energy -198413.406916 kJ/mol
# GULP energy per Si atom -12400.837932 kJ/mol
# Density = 1.988709 g / cm^3
# Si number density = 19.932453 Si / 1000 Ang^3
#
#
#
# Elastic Constant Matrix: (Units=GPa)
#
#
# Indices 1 2 3 4 5 6 
#
# 1 37.2314 133.6454 10.5240 -14.9650 48.0643 32.6012
# 2 133.6454 -61.4419 104.8476 11.1095 -75.8398 -19.4955
# 3 10.5240 104.8476 88.0671 -7.5348 31.8898 23.6338
# 4 -14.9650 11.1095 -7.5348 31.8985 8.8950 -3.3580
# 5 48.0643 -75.8398 31.8898 8.8950 -5.2213 -20.5829
# 6 32.6012 -19.4955 23.6338 -3.3580 -20.5829 31.4633
#
#
#
# Elastic Compliance Matrix: (Units=1/GPa)
#
#
# Indices 1 2 3 4 5 6 
#
# 1 0.010221 0.003068 -0.007033 0.000501 0.005768 0.000420
# 2 0.003068 0.004483 -0.000254 0.001881 -0.009832 -0.006441
# 3 -0.007033 -0.000254 0.011181 -0.001336 0.002942 0.000513
# 4 0.000501 0.001881 -0.001336 0.030996 0.000665 0.005394
# 5 0.005768 -0.009832 0.002942 0.000665 0.022212 0.000323
# 6 0.000420 -0.006441 0.000513 0.005394 0.000323 0.027758
#
#
# Mechanical properties :
#
#
# Convention : Reuss Voigt Hill
#
# Bulk Modulus (GPa) = 57.31834 62.43231 59.87533
# Shear Modulus (GPa) = 41.28674 -0.71594 20.28540
#
# Velocity S-wave (km/s) = 4.55613 -0.59997 3.19361
# Velocity P-wave (km/s) = 7.51641 5.55968 6.61084
#
# Compressibility (1/GPa) = 0.01744642
#
# Stress axis : x y z
#
# Youngs Moduli (GPa) = 97.83992 223.06371 89.44078
#
# Poissons Ratio (x) = -0.68435 0.62900
# Poissons Ratio (y) = -0.30017 0.02275
# Poissons Ratio (z) = 0.68807 0.05673
#
# Static dielectric constant tensor:
#      x y z
#    x 3.541200 0.140050 -0.044640 
#    y 0.140050 3.454550 -0.156800 
#    z -0.044640 -0.156800 3.427170 
# 
# 
# High freq. dielectric constant tensor:
#      x y z
#    x 1.772280 0.006080 -0.016100 
#    y 0.006080 1.787710 0.006020 
#    z -0.016100 0.006020 1.774980 
# 
# From -- ./inp_files/184862.got.cif
#   From: 2010.06.25/outbox.cif.g09.slc.cpg/sg2_93_cif.got.tgz:184862.got - 2010.06.27 13:26:56.
