data_PCOD8032514
_publ_section_title
;
Structure prediction by ZEFSAII (Michael W. Deem and Ramdas Pophale) SiO2 
 PCOD8032514
Probable space group: P -1
;
_chemical_formula_sum "Si O2"
_cell_formula_units_Z 14
_cell_length_a 13.341281
_cell_length_b 8.139126
_cell_length_c 7.421958
_cell_angle_alpha 124.934954
_cell_angle_beta 83.219377
_cell_angle_gamma 111.454992
_cell_volume 610.488404
_symmetry_space_group_name_H-M "P -1"
_symmetry_group_IT_number 2
_symmetry_cell_setting 'triclinic'
loop_
_space_group_symop_operation_xyz
x,y,z
-x,-y,-z
loop_
_atom_site_type_symbol
_atom_site_label
_atom_site_fract_x
_atom_site_fract_y
_atom_site_fract_z
Si Si1 0.110609 0.466590 0.923429
Si Si2 0.727573 0.085368 0.304577
Si Si3 0.511464 0.739664 0.187827
Si Si4 0.694230 0.143096 0.754862
Si Si5 0.211942 0.433881 0.536613
Si Si6 0.877511 0.853902 0.974140
Si Si7 0.404315 0.308579 0.487972
O O1 0.112158 0.377618 0.663994
O O2 0.208119 0.696188 0.050520
O O3 0.128972 0.311783 0.970453
O O4 0.000000 0.500000 0.000000
O O5 0.741253 0.095990 0.524959
O O6 0.743685 0.320610 0.379943
O O7 0.607763 0.917054 0.166635
O O8 0.817065 0.008867 0.148178
O O9 0.396233 0.754287 0.189292
O O10 0.544745 0.777580 0.411636
O O11 0.500000 0.500000 0.000000
O O12 0.648788 0.922570 0.748008
O O13 0.176788 0.278367 0.275235
O O14 0.309293 0.397564 0.603409
O O15 0.000000 0.000000 0.000000
O O16 0.500000 0.500000 0.500000
#
# Coordination Sequence:
#
# PCOD8032514 Si02
#       7
#     2   2   2   2   2   2   2
#     4  12  28  48  77 108 144 195 249 303 364 433
#     4  11  24  46  76 103 148 196 234 304 371 429
#     4  11  23  42  73 106 149 194 238 297 371 437
#     4  11  23  46  74 105 151 196 242 300 370 434
#     4  12  27  48  75 111 147 186 251 301 363 442
#     4  12  29  50  76 108 146 197 246 304 373 427
#     4  11  24  40  70 109 145 186 243 297 357 437
#
# _framework density 22.932456999999999
#
# number of rings (size 3 to 8) (size 9 to 14) (size 15 to 20)
#    0.000    0.571    1.429    7.714    8.000    1.714 
#    0.000    2.857    0.000    0.000    0.000    0.000 
#    0.000    0.000    0.000    0.000    0.000    0.000 
#
# Total GULP energy -173564.674924 kJ/mol
# GULP energy per Si atom -12397.476780 kJ/mol
# Density = 2.288026 g / cm^3
# Si number density = 22.932457 Si / 1000 Ang^3
#
#
#
# Elastic Constant Matrix: (Units=GPa)
#
#
# Indices 1 2 3 4 5 6 
#
# 1 156.7903 44.0511 49.2411 13.8571 -20.1487 11.4498
# 2 44.0511 119.9476 39.7235 19.0345 -0.6403 12.3584
# 3 49.2411 39.7235 115.0510 9.6006 -19.5444 6.2607
# 4 13.8571 19.0345 9.6006 48.1135 1.0079 -0.6320
# 5 -20.1487 -0.6403 -19.5444 1.0079 37.0388 0.5079
# 6 11.4498 12.3584 6.2607 -0.6320 0.5079 39.0037
#
#
#
# Elastic Compliance Matrix: (Units=1/GPa)
#
#
# Indices 1 2 3 4 5 6 
#
# 1 0.008245 -0.001960 -0.002084 -0.001275 0.003408 -0.001530
# 2 -0.001960 0.010730 -0.002865 -0.003092 -0.002275 -0.002385
# 3 -0.002084 -0.002865 0.011482 -0.000666 0.004899 -0.000398
# 4 -0.001275 -0.003092 -0.000666 0.022568 -0.001738 0.001849
# 5 0.003408 -0.002275 0.004899 -0.001738 0.031466 -0.001504
# 6 -0.001530 -0.002385 -0.000398 0.001849 -0.001504 0.026957
#
#
# Mechanical properties :
#
#
# Convention : Reuss Voigt Hill
#
# Bulk Modulus (GPa) = 60.09257 73.09115 66.59186
# Shear Modulus (GPa) = 38.22279 42.08275 40.15277
#
# Velocity S-wave (km/s) = 4.08702 4.28842 4.18893
# Velocity P-wave (km/s) = 6.96654 7.51414 7.24552
#
# Compressibility (1/GPa) = 0.01664099
#
# Stress axis : x y z
#
# Youngs Moduli (GPa) = 121.28097 93.19894 87.09164
#
# Poissons Ratio (x) = 0.18266 0.18148
# Poissons Ratio (y) = 0.23769 0.24947
# Poissons Ratio (z) = 0.25272 0.26697
#
# Static dielectric constant tensor:
#      x y z
#    x 4.434660 0.222980 0.125250 
#    y 0.222980 4.726170 0.220070 
#    z 0.125250 0.220070 4.414300 
# 
# 
# High freq. dielectric constant tensor:
#      x y z
#    x 1.911690 0.000310 -0.006870 
#    y 0.000310 1.926660 0.016310 
#    z -0.006870 0.016310 1.912400 
# 
# From -- ./inp_files/241369.got.cif
#   From: 2010.06.25/outbox.cif.g09.slc.cpg/sg2_121_cif.got.tgz:241369.got - 2010.06.27 13:26:56.
