data_PCOD8032656
_publ_section_title
;
Structure prediction by ZEFSAII (Michael W. Deem and Ramdas Pophale) SiO2 
 PCOD8032656
Probable space group: P -1
;
_chemical_formula_sum "Si O2"
_cell_formula_units_Z 12
_cell_length_a 9.021454
_cell_length_b 12.760018
_cell_length_c 7.059193
_cell_angle_alpha 46.918710
_cell_angle_beta 87.133473
_cell_angle_gamma 69.875502
_cell_volume 536.624297
_symmetry_space_group_name_H-M "P -1"
_symmetry_group_IT_number 2
_symmetry_cell_setting 'triclinic'
loop_
_space_group_symop_operation_xyz
x,y,z
-x,-y,-z
loop_
_atom_site_type_symbol
_atom_site_label
_atom_site_fract_x
_atom_site_fract_y
_atom_site_fract_z
Si Si1 0.858178 0.667560 0.237985
Si Si2 0.939044 0.379484 0.058568
Si Si3 0.502090 0.714895 0.210524
Si Si4 0.586915 0.479924 0.820146
Si Si5 0.225563 0.010949 0.974892
Si Si6 0.040491 0.921098 0.391623
O O1 0.691194 0.654106 0.212735
O O2 0.812051 0.804403 0.230805
O O3 0.000000 0.500000 0.500000
O O4 0.924398 0.721987 0.980084
O O5 0.918816 0.264613 0.359499
O O6 0.767395 0.472247 0.846582
O O7 0.000000 0.500000 0.000000
O O8 0.485232 0.627459 0.509479
O O9 0.406929 0.677378 0.089355
O O10 0.412708 0.903362 0.029025
O O11 0.500000 0.500000 0.000000
O O12 0.113949 0.990906 0.842225
O O13 0.193667 0.939265 0.262534
O O14 0.000000 0.000000 0.500000
#
# Coordination Sequence:
#
# PCOD8032656 Si02
#       6
#     2   2   2   2   2   2
#     4  12  24  45  69 101 143 184 235 293 355 420
#     4  12  24  43  73 104 139 188 240 288 346 427
#     4  11  25  44  70 104 142 182 235 294 355 417
#     4  11  24  44  71 101 143 185 233 289 355 421
#     4  11  25  43  72 101 144 184 233 296 355 416
#     4  11  23  43  69 102 141 186 231 286 355 423
#
# _framework density 22.362013999999999
#
# number of rings (size 3 to 8) (size 9 to 14) (size 15 to 20)
#    0.000    0.667    3.333    4.500    2.333    1.333 
#    0.000    0.833    0.000    0.000    0.000    0.000 
#    0.000    0.000    0.000    0.000    0.000    0.000 
#
# Total GULP energy -148814.295376 kJ/mol
# GULP energy per Si atom -12401.191281 kJ/mol
# Density = 2.231112 g / cm^3
# Si number density = 22.362014 Si / 1000 Ang^3
#
#
#
# Elastic Constant Matrix: (Units=GPa)
#
#
# Indices 1 2 3 4 5 6 
#
# 1 128.3139 62.2270 22.0519 4.5952 11.7098 1.3126
# 2 62.2270 156.7647 48.5816 -6.5813 14.4105 0.6812
# 3 22.0519 48.5816 91.4660 8.0009 -4.4011 -0.6191
# 4 4.5952 -6.5813 8.0009 46.7297 1.9942 1.4270
# 5 11.7098 14.4105 -4.4011 1.9942 31.0391 -0.1287
# 6 1.3126 0.6812 -0.6191 1.4270 -0.1287 41.8215
#
#
#
# Elastic Compliance Matrix: (Units=1/GPa)
#
#
# Indices 1 2 3 4 5 6 
#
# 1 0.009872 -0.003660 -0.000418 -0.001323 -0.002001 -0.000217
# 2 -0.003660 0.009788 -0.004750 0.002730 -0.004013 -0.000220
# 3 -0.000418 -0.004750 0.014063 -0.003244 0.004567 0.000423
# 4 -0.001323 0.002730 -0.003244 0.022609 -0.002684 -0.000831
# 5 -0.002001 -0.004013 0.004567 -0.002684 0.035657 0.000397
# 6 -0.000217 -0.000220 0.000423 -0.000831 0.000397 0.023957
#
#
# Mechanical properties :
#
#
# Convention : Reuss Voigt Hill
#
# Bulk Modulus (GPa) = 62.23751 71.36283 66.80017
# Shear Modulus (GPa) = 35.98163 40.16366 38.07265
#
# Velocity S-wave (km/s) = 4.01565 4.24260 4.13068
# Velocity P-wave (km/s) = 7.02800 7.48207 7.25859
#
# Compressibility (1/GPa) = 0.01606748
#
# Stress axis : x y z
#
# Youngs Moduli (GPa) = 101.29362 102.16326 71.10775
#
# Poissons Ratio (x) = 0.37390 0.02974
# Poissons Ratio (y) = 0.37072 0.33776
# Poissons Ratio (z) = 0.04237 0.48528
#
# Static dielectric constant tensor:
#      x y z
#    x 4.052510 0.003230 -0.137390 
#    y 0.003230 4.055610 0.090370 
#    z -0.137390 0.090370 4.199000 
# 
# 
# High freq. dielectric constant tensor:
#      x y z
#    x 1.882550 0.000260 -0.002390 
#    y 0.000260 1.887850 0.005920 
#    z -0.002390 0.005920 1.880240 
# 
# From -- ./inp_files/26211.got.cif
#   From: 2010.06.25/outbox.cif.g09.slc.cpg/sg2_14_cif.got.tgz:26211.got - 2010.06.27 13:26:56.
