data_PCOD8032477
_publ_section_title
;
Structure prediction by ZEFSAII (Michael W. Deem and Ramdas Pophale) SiO2 
 PCOD8032477
Probable space group: P -1
;
_chemical_formula_sum "Si O2"
_cell_formula_units_Z 12
_cell_length_a 14.879597
_cell_length_b 12.088265
_cell_length_c 9.233370
_cell_angle_alpha 148.363100
_cell_angle_beta 130.756027
_cell_angle_gamma 38.323415
_cell_volume 539.613277
_symmetry_space_group_name_H-M "P -1"
_symmetry_group_IT_number 2
_symmetry_cell_setting 'triclinic'
loop_
_space_group_symop_operation_xyz
x,y,z
-x,-y,-z
loop_
_atom_site_type_symbol
_atom_site_label
_atom_site_fract_x
_atom_site_fract_y
_atom_site_fract_z
Si Si1 0.832596 0.828373 0.396690
Si Si2 0.647305 0.622273 0.017264
Si Si3 0.677307 0.107142 0.014908
Si Si4 0.250408 0.715240 0.980765
Si Si5 0.904159 0.518887 0.551466
Si Si6 0.831656 0.118180 0.462830
O O1 0.993833 0.563305 0.289679
O O2 0.808553 0.927179 0.317053
O O3 0.703825 0.803946 0.280506
O O4 0.834594 0.025452 0.726099
O O5 0.481311 0.787870 0.973466
O O6 0.747579 0.395809 0.758209
O O7 0.651226 0.524855 0.075288
O O8 0.655913 0.265561 0.023168
O O9 0.766261 0.154808 0.276269
O O10 0.760653 0.804539 0.735890
O O11 0.136427 0.681431 0.742715
O O12 0.000000 0.500000 0.500000
O O13 0.000000 0.000000 0.500000
#
# Coordination Sequence:
#
# PCOD8032477 Si02
#       6
#     2   2   2   2   2   2
#     4  11  24  44  69  96 135 171 223 272 322 389
#     4  11  25  45  66  99 134 173 220 268 330 391
#     4  12  26  42  68 100 135 174 216 270 331 390
#     4  11  23  42  71  96 135 171 222 270 325 383
#     4  12  23  40  68 100 129 169 222 270 322 383
#     4  11  26  45  70  95 130 176 222 272 325 389
#
# _framework density 22.238147999999999
#
# number of rings (size 3 to 8) (size 9 to 14) (size 15 to 20)
#    0.000    0.667    3.333    3.500    2.333   10.000 
#    0.000    0.000    0.000    0.000    0.000    0.000 
#    0.000    0.000    0.000    0.000    0.000    0.000 
#
# Total GULP energy -148839.382866 kJ/mol
# GULP energy per Si atom -12403.281906 kJ/mol
# Density = 2.218753 g / cm^3
# Si number density = 22.238148 Si / 1000 Ang^3
#
#
#
# Elastic Constant Matrix: (Units=GPa)
#
#
# Indices 1 2 3 4 5 6 
#
# 1 118.3562 60.9293 55.6346 11.3538 6.5024 -14.9277
# 2 60.9293 108.9289 35.4738 -5.0724 2.0027 -17.3207
# 3 55.6346 35.4738 95.4316 -3.6364 8.2078 -7.8068
# 4 11.3538 -5.0724 -3.6364 31.0021 1.9081 -0.4272
# 5 6.5024 2.0027 8.2078 1.9081 38.7376 -1.6391
# 6 -14.9277 -17.3207 -7.8068 -0.4272 -1.6391 56.7122
#
#
#
# Elastic Compliance Matrix: (Units=1/GPa)
#
#
# Indices 1 2 3 4 5 6 
#
# 1 0.016297 -0.006996 -0.007073 -0.007900 -0.000439 0.001107
# 2 -0.006996 0.013931 -0.000767 0.004754 0.000482 0.002357
# 3 -0.007073 -0.000767 0.015243 0.004389 -0.002220 -0.000029
# 4 -0.007900 0.004754 0.004389 0.036546 -0.001641 0.000205
# 5 -0.000439 0.000482 -0.002220 -0.001641 0.026435 0.000478
# 6 0.001107 0.002357 -0.000029 0.000205 0.000478 0.018656
#
#
# Mechanical properties :
#
#
# Convention : Reuss Voigt Hill
#
# Bulk Modulus (GPa) = 63.29774 69.64356 66.47065
# Shear Modulus (GPa) = 30.85546 36.66896 33.76221
#
# Velocity S-wave (km/s) = 3.72896 4.06510 3.90065
# Velocity P-wave (km/s) = 6.86043 7.30880 7.08816
#
# Compressibility (1/GPa) = 0.01579835
#
# Stress axis : x y z
#
# Youngs Moduli (GPa) = 61.36107 71.78344 65.60350
#
# Poissons Ratio (x) = 0.50221 0.46401
# Poissons Ratio (y) = 0.42929 0.05033
# Poissons Ratio (z) = 0.43400 0.05508
#
# Static dielectric constant tensor:
#      x y z
#    x 4.026630 0.202290 0.109770 
#    y 0.202290 4.530660 0.184210 
#    z 0.109770 0.184210 4.051640 
# 
# 
# High freq. dielectric constant tensor:
#      x y z
#    x 1.876590 0.003410 0.008480 
#    y 0.003410 1.883400 -0.001050 
#    z 0.008480 -0.001050 1.876730 
# 
# From -- ./inp_files/25073.got.cif
#   From: 2010.06.25/outbox.cif.g09.slc.cpg/sg2_13_cif.got.tgz:25073.got - 2010.06.27 13:26:56.
