data_PCOD8032893
_publ_section_title
;
Structure prediction by ZEFSAII (Michael W. Deem and Ramdas Pophale) SiO2 
 PCOD8032893
Probable space group: P -1
;
_chemical_formula_sum "Si O2"
_cell_formula_units_Z 16
_cell_length_a 7.495425
_cell_length_b 13.543079
_cell_length_c 9.184478
_cell_angle_alpha 70.447636
_cell_angle_beta 101.039331
_cell_angle_gamma 133.312932
_cell_volume 638.272378
_symmetry_space_group_name_H-M "P -1"
_symmetry_group_IT_number 2
_symmetry_cell_setting 'triclinic'
loop_
_space_group_symop_operation_xyz
x,y,z
-x,-y,-z
loop_
_atom_site_type_symbol
_atom_site_label
_atom_site_fract_x
_atom_site_fract_y
_atom_site_fract_z
Si Si1 0.768730 0.340286 0.223087
Si Si2 0.711435 0.497495 0.717549
Si Si3 0.347628 0.652430 0.487034
Si Si4 0.850699 0.771431 0.514208
Si Si5 0.373300 0.225172 0.971401
Si Si6 0.831615 0.067009 0.031344
Si Si7 0.810103 0.187858 0.681612
Si Si8 0.702538 0.077420 0.323714
O O1 0.710752 0.388111 0.332389
O O2 0.590209 0.300220 0.084858
O O3 0.733214 0.205782 0.328756
O O4 0.060250 0.463584 0.173153
O O5 0.735533 0.478454 0.558748
O O6 0.716595 0.625817 0.657731
O O7 0.459123 0.351354 0.813994
O O8 0.645655 0.781834 0.452764
O O9 0.194158 0.688372 0.374908
O O10 0.947884 0.767228 0.375893
O O11 0.081796 0.907662 0.573610
O O12 0.121423 0.155920 0.047913
O O13 0.327825 0.099858 0.938718
O O14 0.736601 0.085958 0.151347
O O15 0.785155 0.132571 0.865679
O O16 0.570934 0.064628 0.607874
#
# Coordination Sequence:
#
# PCOD8032893 Si02
#       8
#     2   2   2   2   2   2   2   2
#     4  11  24  44  70  99 143 180 233 282 338 420
#     4  11  24  47  69 103 141 181 233 284 344 410
#     4  12  25  44  71 101 137 188 225 285 348 402
#     4  11  26  46  70 103 142 179 233 289 337 417
#     4  11  24  47  70 105 135 185 233 283 350 406
#     4  11  25  44  73 102 141 177 233 289 341 417
#     4  12  24  44  71 105 139 184 226 289 342 415
#     4  11  23  44  67 103 143 180 228 286 348 399
#
# _framework density 25.067667
#
# number of rings (size 3 to 8) (size 9 to 14) (size 15 to 20)
#    0.000    0.750    3.750    4.125    1.750    1.500 
#    0.000    3.125    0.000    0.000    0.000    0.000 
#    0.000    0.000    0.000    0.000    0.000    0.000 
#
# Total GULP energy -198372.173592 kJ/mol
# GULP energy per Si atom -12398.260850 kJ/mol
# Density = 2.501061 g / cm^3
# Si number density = 25.067667 Si / 1000 Ang^3
#
#
#
# Elastic Constant Matrix: (Units=GPa)
#
#
# Indices 1 2 3 4 5 6 
#
# 1 95.9822 -2.0373 10.2444 3.5165 -9.8066 26.6948
# 2 -2.0373 69.4838 19.8479 6.3413 -5.6490 22.5968
# 3 10.2444 19.8479 60.5929 -2.9177 -5.3952 6.8040
# 4 3.5165 6.3413 -2.9177 38.8691 13.1213 3.3376
# 5 -9.8066 -5.6490 -5.3952 13.1213 23.9515 6.6522
# 6 26.6948 22.5968 6.8040 3.3376 6.6522 36.2354
#
#
#
# Elastic Compliance Matrix: (Units=1/GPa)
#
#
# Indices 1 2 3 4 5 6 
#
# 1 0.021338 0.013161 -0.003250 -0.010163 0.024122 -0.026809
# 2 0.013161 0.030137 -0.006881 -0.012960 0.026626 -0.030892
# 3 -0.003250 -0.006881 0.019005 0.002968 -0.001147 0.003054
# 4 -0.010163 -0.012960 0.002968 0.038441 -0.032448 0.017428
# 5 0.024122 0.026626 -0.001147 -0.032448 0.088600 -0.047436
# 6 -0.026809 -0.030892 0.003054 0.017428 -0.047436 0.073142
#
#
# Mechanical properties :
#
#
# Convention : Reuss Voigt Hill
#
# Bulk Modulus (GPa) = 13.06501 31.35211 22.20856
# Shear Modulus (GPa) = 17.23444 33.01147 25.12295
#
# Velocity S-wave (km/s) = 2.62490 3.63284 3.16920
# Velocity P-wave (km/s) = 3.79605 5.48916 4.71916
#
# Compressibility (1/GPa) = 0.07654033
#
# Stress axis : x y z
#
# Youngs Moduli (GPa) = 46.86480 33.18157 52.61784
#
# Poissons Ratio (x) = -0.43671 0.17100
# Poissons Ratio (y) = -0.61680 0.36208
# Poissons Ratio (z) = 0.15230 0.22833
#
# Static dielectric constant tensor:
#      x y z
#    x 4.585600 0.366100 0.018980 
#    y 0.366100 4.595330 0.132810 
#    z 0.018980 0.132810 4.226890 
# 
# 
# High freq. dielectric constant tensor:
#      x y z
#    x 2.002740 0.025680 -0.003230 
#    y 0.025680 2.006250 0.012030 
#    z -0.003230 0.012030 1.991820 
# 
# From -- ./inp_files/206457.got.cif
#   From: 2010.06.25/outbox.cif.g09.slc.cpg/sg2_104_cif.got.tgz:206457.got - 2010.06.27 13:26:56.
