data_PCOD8032102
_publ_section_title
;
Structure prediction by ZEFSAII (Michael W. Deem and Ramdas Pophale) SiO2 
 PCOD8032102
Probable space group: P -1
;
_chemical_formula_sum "Si O2"
_cell_formula_units_Z 16
_cell_length_a 9.285773
_cell_length_b 10.660903
_cell_length_c 13.698177
_cell_angle_alpha 54.452854
_cell_angle_beta 67.379107
_cell_angle_gamma 108.754290
_cell_volume 700.574530
_symmetry_space_group_name_H-M "P -1"
_symmetry_group_IT_number 2
_symmetry_cell_setting 'triclinic'
loop_
_space_group_symop_operation_xyz
x,y,z
-x,-y,-z
loop_
_atom_site_type_symbol
_atom_site_label
_atom_site_fract_x
_atom_site_fract_y
_atom_site_fract_z
Si Si1 0.344437 0.838430 0.020481
Si Si2 0.787835 0.540490 0.513958
Si Si3 0.642148 0.289106 0.129832
Si Si4 0.931849 0.942856 0.198517
Si Si5 0.693429 0.854822 0.117304
Si Si6 0.892504 0.203064 0.213162
Si Si7 0.196595 0.013122 0.465923
Si Si8 0.932685 0.381389 0.431176
O O1 0.452618 0.839206 0.893529
O O2 0.243424 0.925792 0.968294
O O3 0.150373 0.586709 0.220683
O O4 0.500000 0.000000 0.000000
O O5 0.818034 0.741388 0.392802
O O6 0.010174 0.649442 0.464720
O O7 0.771100 0.415514 0.479267
O O8 0.573746 0.367716 0.718912
O O9 0.715854 0.207734 0.223977
O O10 0.442162 0.245829 0.255196
O O11 0.861841 0.552549 0.933048
O O12 0.798647 0.819331 0.187778
O O13 0.915190 0.105783 0.160742
O O14 0.198486 0.099562 0.038241
O O15 0.799465 0.025601 0.403786
O O16 0.184642 0.836949 0.498756
O O17 0.000000 0.000000 0.500000
#
# Coordination Sequence:
#
# PCOD8032102 Si02
#       8
#     2   2   2   2   2   2   2   2
#     4  12  22  44  75 100 135 181 229 290 347 412
#     4  11  23  42  65  98 139 176 217 286 343 403
#     4  11  26  49  73 100 140 191 235 291 349 416
#     4  11  24  40  66  98 137 176 225 278 340 407
#     4  11  23  41  63 102 135 174 221 280 342 406
#     4  11  25  47  72 102 142 189 238 282 346 430
#     4  12  27  47  70 102 141 186 238 291 346 419
#     4  11  24  41  68 101 133 174 232 278 343 412
#
# _framework density 22.838398000000002
#
# number of rings (size 3 to 8) (size 9 to 14) (size 15 to 20)
#    0.000    0.750    5.000    2.250    1.750    3.500 
#    0.000    0.000    0.000    0.000    0.000    0.000 
#    0.000    0.000    0.000    0.000    0.000    0.000 
#
# Total GULP energy -198239.697817 kJ/mol
# GULP energy per Si atom -12389.981114 kJ/mol
# Density = 2.278642 g / cm^3
# Si number density = 22.838398 Si / 1000 Ang^3
#
#
#
# Elastic Constant Matrix: (Units=GPa)
#
#
# Indices 1 2 3 4 5 6 
#
# 1 88.3108 20.8427 33.1593 5.7413 -0.1270 -6.1462
# 2 20.8427 74.6688 21.0392 2.2826 -9.0690 -1.6206
# 3 33.1593 21.0392 92.1173 15.4630 -7.2392 -0.9404
# 4 5.7413 2.2826 15.4630 31.0106 -5.2686 1.3411
# 5 -0.1270 -9.0690 -7.2392 -5.2686 42.3363 6.0860
# 6 -6.1462 -1.6206 -0.9404 1.3411 6.0860 37.0317
#
#
#
# Elastic Compliance Matrix: (Units=1/GPa)
#
#
# Indices 1 2 3 4 5 6 
#
# 1 0.013810 -0.002767 -0.004353 -0.000575 -0.001707 0.002362
# 2 -0.002767 0.015173 -0.002426 0.001136 0.003025 -0.000395
# 3 -0.004353 -0.002426 0.014039 -0.005790 0.001214 -0.000462
# 4 -0.000575 0.001136 -0.005790 0.035935 0.004034 -0.002157
# 5 -0.001707 0.003025 0.001214 0.004034 0.025616 -0.004476
# 6 0.002362 -0.000395 -0.000462 -0.002157 -0.004476 0.028181
#
#
# Mechanical properties :
#
#
# Convention : Reuss Voigt Hill
#
# Bulk Modulus (GPa) = 41.78862 45.01992 43.40427
# Shear Modulus (GPa) = 31.28447 34.07944 32.68196
#
# Velocity S-wave (km/s) = 3.70512 3.86709 3.78697
# Velocity P-wave (km/s) = 6.05319 6.30035 6.17801
#
# Compressibility (1/GPa) = 0.02392996
#
# Stress axis : x y z
#
# Youngs Moduli (GPa) = 72.40914 65.90821 71.22834
#
# Poissons Ratio (x) = 0.18236 0.31005
# Poissons Ratio (y) = 0.20035 0.17283
# Poissons Ratio (z) = 0.31519 0.15992
#
# Static dielectric constant tensor:
#      x y z
#    x 4.174950 -0.133190 -0.039500 
#    y -0.133190 4.136450 0.210330 
#    z -0.039500 0.210330 4.362960 
# 
# 
# High freq. dielectric constant tensor:
#      x y z
#    x 1.898270 -0.006920 0.009280 
#    y -0.006920 1.892450 0.012500 
#    z 0.009280 0.012500 1.913070 
# 
# From -- ./inp_files/500034.got.cif
#   From: 2010.06.25/outbox.cif.g09.slc.cpg/sg2_251_cif.got.tgz:500034.got - 2010.06.27 13:26:56.
