data_PCOD8032453
_publ_section_title
;
Structure prediction by ZEFSAII (Michael W. Deem and Ramdas Pophale) SiO2 
 PCOD8032453
Probable space group: P -1
;
_chemical_formula_sum "Si O2"
_cell_formula_units_Z 16
_cell_length_a 18.414643
_cell_length_b 8.807489
_cell_length_c 11.557574
_cell_angle_alpha 63.967647
_cell_angle_beta 31.904189
_cell_angle_gamma 51.176363
_cell_volume 751.714912
_symmetry_space_group_name_H-M "P -1"
_symmetry_group_IT_number 2
_symmetry_cell_setting 'triclinic'
loop_
_space_group_symop_operation_xyz
x,y,z
-x,-y,-z
loop_
_atom_site_type_symbol
_atom_site_label
_atom_site_fract_x
_atom_site_fract_y
_atom_site_fract_z
Si Si1 0.255183 0.300499 0.256548
Si Si2 0.680598 0.332998 0.339462
Si Si3 0.569101 0.295006 0.906275
Si Si4 0.047221 0.432083 0.274059
Si Si5 0.858254 0.992905 0.761717
Si Si6 0.752426 0.073817 0.528623
Si Si7 0.109782 0.946611 0.048611
Si Si8 0.041012 0.627658 0.986280
O O1 0.198499 0.366291 0.178359
O O2 0.119251 0.475177 0.461753
O O3 0.287313 0.084333 0.315631
O O4 0.422090 0.283857 0.058979
O O5 0.500000 0.500000 0.500000
O O6 0.671948 0.166644 0.482249
O O7 0.773908 0.243887 0.122843
O O8 0.775183 0.416541 0.258400
O O9 0.684856 0.109241 0.894552
O O10 0.683338 0.259642 0.651764
O O11 0.500000 0.500000 0.000000
O O12 0.021996 0.591499 0.158373
O O13 0.078215 0.237930 0.230567
O O14 0.812853 0.089452 0.917696
O O15 0.000000 0.000000 0.500000
O O16 0.944112 0.956967 0.292149
O O17 0.084415 0.140676 0.952089
O O18 0.000000 0.500000 0.000000
#
# Coordination Sequence:
#
# PCOD8032453 Si02
#       8
#     2   2   2   2   2   2   2   2
#     4  11  24  42  69  99 134 174 222 277 336 400
#     4  11  27  44  70 100 132 181 231 281 332 399
#     4  12  27  40  66 102 140 174 216 286 339 389
#     4  11  23  42  70  99 129 178 223 271 335 409
#     4  12  23  42  68  98 137 173 222 275 338 400
#     4  11  23  46  67  95 135 179 224 273 329 402
#     4  11  23  47  70  94 134 182 225 267 335 408
#     4  11  23  43  70  98 133 179 222 275 331 406
#
# _framework density 21.284666000000001
#
# number of rings (size 3 to 8) (size 9 to 14) (size 15 to 20)
#    0.000    0.750    3.750    4.125    3.500    2.000 
#    0.000    0.625    0.000    0.000    0.000    0.000 
#    0.000    0.000    0.000    0.000    0.000    0.000 
#
# Total GULP energy -198332.829821 kJ/mol
# GULP energy per Si atom -12395.801864 kJ/mol
# Density = 2.123622 g / cm^3
# Si number density = 21.284666 Si / 1000 Ang^3
#
#
#
# Elastic Constant Matrix: (Units=GPa)
#
#
# Indices 1 2 3 4 5 6 
#
# 1 154.1040 44.7936 72.4665 5.1235 3.5074 -12.8420
# 2 44.7936 64.7900 56.5305 6.8368 -4.4719 8.9145
# 3 72.4665 56.5305 107.3548 18.2327 6.3439 -5.5508
# 4 5.1235 6.8368 18.2327 40.4610 -4.1850 8.0048
# 5 3.5074 -4.4719 6.3439 -4.1850 41.2522 6.2185
# 6 -12.8420 8.9145 -5.5508 8.0048 6.2185 43.0112
#
#
#
# Elastic Compliance Matrix: (Units=1/GPa)
#
#
# Indices 1 2 3 4 5 6 
#
# 1 0.009998 -0.002948 -0.005162 0.000918 -0.000714 0.002862
# 2 -0.002948 0.036512 -0.019694 0.006824 0.009995 -0.013704
# 3 -0.005162 -0.019694 0.025855 -0.010275 -0.008064 0.008955
# 4 0.000918 0.006824 -0.010275 0.030577 0.006720 -0.009128
# 5 -0.000714 0.009995 -0.008064 0.006720 0.028621 -0.008714
# 6 0.002862 -0.013704 0.008955 -0.009128 -0.008714 0.031059
#
#
# Mechanical properties :
#
#
# Convention : Reuss Voigt Hill
#
# Bulk Modulus (GPa) = 59.68296 74.87000 67.27648
# Shear Modulus (GPa) = 22.33985 35.10874 28.72430
#
# Velocity S-wave (km/s) = 3.24323 4.06579 3.67758
# Velocity P-wave (km/s) = 6.49045 7.56920 7.05049
#
# Compressibility (1/GPa) = 0.01675520
#
# Stress axis : x y z
#
# Youngs Moduli (GPa) = 100.02298 27.38837 38.67794
#
# Poissons Ratio (x) = 0.08075 0.19965
# Poissons Ratio (y) = 0.29489 0.76174
# Poissons Ratio (z) = 0.51631 0.53940
#
# Static dielectric constant tensor:
#      x y z
#    x 4.495780 -0.426880 0.486090 
#    y -0.426880 4.450370 -0.305650 
#    z 0.486090 -0.305650 4.133330 
# 
# 
# High freq. dielectric constant tensor:
#      x y z
#    x 1.850820 -0.008000 0.010590 
#    y -0.008000 1.840860 0.003210 
#    z 0.010590 0.003210 1.825930 
# 
# From -- ./inp_files/461977.got.cif
#   From: 2010.06.25/outbox.cif.g09.slc.cpg/sg2_231_cif.got.tgz:461977.got - 2010.06.27 13:26:56.
