data_PCOD8032781
_publ_section_title
;
Structure prediction by ZEFSAII (Michael W. Deem and Ramdas Pophale) SiO2 
 PCOD8032781
Probable space group: P -1
;
_chemical_formula_sum "Si O2"
_cell_formula_units_Z 14
_cell_length_a 17.385298
_cell_length_b 6.567095
_cell_length_c 12.058140
_cell_angle_alpha 122.176253
_cell_angle_beta 35.357809
_cell_angle_gamma 128.420434
_cell_volume 623.158303
_symmetry_space_group_name_H-M "P -1"
_symmetry_group_IT_number 2
_symmetry_cell_setting 'triclinic'
loop_
_space_group_symop_operation_xyz
x,y,z
-x,-y,-z
loop_
_atom_site_type_symbol
_atom_site_label
_atom_site_fract_x
_atom_site_fract_y
_atom_site_fract_z
Si Si1 0.624601 0.165917 0.982326
Si Si2 0.437334 0.715411 0.673878
Si Si3 0.163359 0.530552 0.799018
Si Si4 0.116733 0.384236 0.301745
Si Si5 0.244270 0.223326 0.305889
Si Si6 0.865941 0.004199 0.394489
Si Si7 0.687192 0.240743 0.532990
O O1 0.735196 0.408700 0.856715
O O2 0.681645 0.947656 0.894834
O O3 0.568657 0.285362 0.185762
O O4 0.500000 0.000000 0.000000
O O5 0.500000 0.500000 0.500000
O O6 0.280080 0.676693 0.798885
O O7 0.544108 0.003117 0.594349
O O8 0.169502 0.246901 0.711914
O O9 0.208793 0.672093 0.669533
O O10 0.000000 0.500000 0.000000
O O11 0.132238 0.245533 0.355831
O O12 0.000000 0.500000 0.500000
O O13 0.038643 0.171336 0.235488
O O14 0.168405 0.060614 0.455094
O O15 0.349256 0.515789 0.307415
O O16 0.771559 0.162049 0.508707
#
# Coordination Sequence:
#
# PCOD8032781 Si02
#       7
#     2   2   2   2   2   2   2
#     4  12  29  47  73 111 149 190 256 306 365 448
#     4  12  27  51  74 104 153 204 243 304 375 447
#     4  11  28  46  74 107 144 191 256 312 363 443
#     4  12  24  41  73 109 147 192 237 304 382 434
#     4  11  23  44  73 106 145 187 242 310 366 440
#     4  11  23  43  72 105 147 187 242 307 374 438
#     4  11  24  47  77 100 146 199 244 299 385 439
#
# _framework density 22.466201000000002
#
# number of rings (size 3 to 8) (size 9 to 14) (size 15 to 20)
#    0.000    0.571    4.286    2.571    6.000    4.000 
#    0.000    0.000    0.000    0.000    0.000    0.000 
#    0.000    0.000    0.000    0.000    0.000    0.000 
#
# Total GULP energy -173529.727842 kJ/mol
# GULP energy per Si atom -12394.980560 kJ/mol
# Density = 2.241507 g / cm^3
# Si number density = 22.466201 Si / 1000 Ang^3
#
#
#
# Elastic Constant Matrix: (Units=GPa)
#
#
# Indices 1 2 3 4 5 6 
#
# 1 155.1120 56.4895 45.5688 -7.0898 -5.0317 10.0804
# 2 56.4895 134.4862 41.2562 -12.8413 1.1926 15.8443
# 3 45.5688 41.2562 111.5051 -3.5931 7.6540 3.9525
# 4 -7.0898 -12.8413 -3.5931 41.5966 5.7262 -6.5701
# 5 -5.0317 1.1926 7.6540 5.7262 34.8382 -2.9089
# 6 10.0804 15.8443 3.9525 -6.5701 -2.9089 50.4831
#
#
#
# Elastic Compliance Matrix: (Units=1/GPa)
#
#
# Indices 1 2 3 4 5 6 
#
# 1 0.008235 -0.002647 -0.002488 0.000046 0.001776 -0.000510
# 2 -0.002647 0.009716 -0.002320 0.002116 -0.000729 -0.002106
# 3 -0.002488 -0.002320 0.011029 0.000224 -0.002720 0.000234
# 4 0.000046 0.002116 0.000224 0.025671 -0.004133 0.002412
# 5 0.001776 -0.000729 -0.002720 -0.004133 0.030371 0.001299
# 6 -0.000510 -0.002106 0.000234 0.002412 0.001299 0.020942
#
#
# Mechanical properties :
#
#
# Convention : Reuss Voigt Hill
#
# Bulk Modulus (GPa) = 71.07839 76.41469 73.74654
# Shear Modulus (GPa) = 39.82028 42.56949 41.19488
#
# Velocity S-wave (km/s) = 4.21462 4.35768 4.28675
# Velocity P-wave (km/s) = 7.44249 7.70754 7.57617
#
# Compressibility (1/GPa) = 0.01406897
#
# Stress axis : x y z
#
# Youngs Moduli (GPa) = 121.43542 102.92506 90.66781
#
# Poissons Ratio (x) = 0.27242 0.22562
# Poissons Ratio (y) = 0.32141 0.21038
# Poissons Ratio (z) = 0.30218 0.23882
#
# Static dielectric constant tensor:
#      x y z
#    x 4.455600 0.964420 -0.139500 
#    y 0.964420 6.047040 -0.503740 
#    z -0.139500 -0.503740 3.946850 
# 
# 
# High freq. dielectric constant tensor:
#      x y z
#    x 1.898020 0.008560 -0.000410 
#    y 0.008560 1.913670 -0.000380 
#    z -0.000410 -0.000380 1.865960 
# 
# From -- ./inp_files/101172.got.cif
#   From: 2010.06.25/outbox.cif.g09.slc.cpg/sg2_51_cif.got.tgz:101172.got - 2010.06.27 13:26:56.
