data_PCOD8032474
_publ_section_title
;
Structure prediction by ZEFSAII (Michael W. Deem and Ramdas Pophale) SiO2 
 PCOD8032474
Probable space group: P -1
;
_chemical_formula_sum "Si O2"
_cell_formula_units_Z 10
_cell_length_a 16.947057
_cell_length_b 14.650092
_cell_length_c 5.627686
_cell_angle_alpha 55.917705
_cell_angle_beta 127.666176
_cell_angle_gamma 156.910660
_cell_volume 433.735446
_symmetry_space_group_name_H-M "P -1"
_symmetry_group_IT_number 2
_symmetry_cell_setting 'triclinic'
loop_
_space_group_symop_operation_xyz
x,y,z
-x,-y,-z
loop_
_atom_site_type_symbol
_atom_site_label
_atom_site_fract_x
_atom_site_fract_y
_atom_site_fract_z
Si Si1 0.005756 0.572344 0.655764
Si Si2 0.441326 0.566532 0.800253
Si Si3 0.275548 0.534911 0.927629
Si Si4 0.983180 0.851515 0.642410
Si Si5 0.674010 0.936605 0.345176
O O1 0.802590 0.453740 0.430759
O O2 0.000000 0.500000 0.500000
O O3 0.216191 0.848708 0.659502
O O4 0.000000 0.500000 0.000000
O O5 0.427168 0.591117 0.008618
O O6 0.633329 0.814608 0.664625
O O7 0.212558 0.364285 0.569169
O O8 0.500000 0.500000 0.000000
O O9 0.442661 0.753121 0.097552
O O10 0.071265 0.273040 0.040499
O O11 0.189633 0.997971 0.694181
O O12 0.000000 0.000000 0.500000
#
# Coordination Sequence:
#
# PCOD8032474 Si02
#       5
#     2   2   2   2   2
#     4  12  29  51  78 108 145 203 264 318 378 431
#     4  11  24  41  71 113 145 192 241 293 382 462
#     4  11  26  46  72 107 150 189 256 302 375 453
#     4  11  23  42  71 108 153 200 238 298 376 457
#     4  11  26  46  73 104 153 192 244 317 367 447
#
# _framework density 23.055529
#
# number of rings (size 3 to 8) (size 9 to 14) (size 15 to 20)
#    0.000    0.800    2.000    3.600   11.200    6.400 
#    0.000    0.000    0.000    0.000    0.000    0.000 
#    0.000    0.000    0.000    0.000    0.000    0.000 
#
# Total GULP energy -123884.381010 kJ/mol
# GULP energy per Si atom -12388.438101 kJ/mol
# Density = 2.300305 g / cm^3
# Si number density = 23.055529 Si / 1000 Ang^3
#
#
#
# Elastic Constant Matrix: (Units=GPa)
#
#
# Indices 1 2 3 4 5 6 
#
# 1 120.0721 47.9868 34.0748 -18.5524 -16.3480 -10.7801
# 2 47.9868 174.5560 57.3534 -17.8939 -2.1435 -12.0097
# 3 34.0748 57.3534 123.0678 -24.1405 -2.7617 -7.8736
# 4 -18.5524 -17.8939 -24.1405 37.4449 7.3628 -3.6090
# 5 -16.3480 -2.1435 -2.7617 7.3628 36.7544 -6.6140
# 6 -10.7801 -12.0097 -7.8736 -3.6090 -6.6140 44.5418
#
#
#
# Elastic Compliance Matrix: (Units=1/GPa)
#
#
# Indices 1 2 3 4 5 6 
#
# 1 0.010797 -0.002028 -0.001177 0.003005 0.004492 0.002769
# 2 -0.002028 0.007305 -0.002588 0.001052 -0.000701 0.001003
# 3 -0.001177 -0.002588 0.010779 0.005391 -0.000719 0.001253
# 4 0.003005 0.001052 0.005391 0.033381 -0.004155 0.004052
# 5 0.004492 -0.000701 -0.000719 -0.004155 0.030845 0.005015
# 6 0.002769 0.001003 0.001253 0.004052 0.005015 0.024686
#
#
# Mechanical properties :
#
#
# Convention : Reuss Voigt Hill
#
# Bulk Modulus (GPa) = 57.81831 77.39179 67.60505
# Shear Modulus (GPa) = 36.99743 42.30026 39.64885
#
# Velocity S-wave (km/s) = 4.01023 4.28800 4.15144
# Velocity P-wave (km/s) = 6.82458 7.62603 7.23641
#
# Compressibility (1/GPa) = 0.01729556
#
# Stress axis : x y z
#
# Youngs Moduli (GPa) = 92.61553 136.89557 92.77120
#
# Poissons Ratio (x) = 0.27759 0.10920
# Poissons Ratio (y) = 0.18780 0.24010
# Poissons Ratio (z) = 0.10901 0.35429
#
# Static dielectric constant tensor:
#      x y z
#    x 4.107660 -0.139950 -0.139750 
#    y -0.139950 4.191030 -0.291270 
#    z -0.139750 -0.291270 3.651160 
# 
# 
# High freq. dielectric constant tensor:
#      x y z
#    x 1.912970 -0.001790 -0.004740 
#    y -0.001790 1.931950 0.009370 
#    z -0.004740 0.009370 1.918270 
# 
# From -- ./inp_files/1433.got.cif
#   From: 2010.06.25/outbox.cif.g09.slc.cpg/sg2_1_cif.got.tgz:1433.got - 2010.06.27 13:26:56.
