data_PCOD8032568
_publ_section_title
;
Structure prediction by ZEFSAII (Michael W. Deem and Ramdas Pophale) SiO2 
 PCOD8032568
Probable space group: P -1
;
_chemical_formula_sum "Si O2"
_cell_formula_units_Z 14
_cell_length_a 15.637966
_cell_length_b 14.860048
_cell_length_c 8.602317
_cell_angle_alpha 74.755809
_cell_angle_beta 121.486775
_cell_angle_gamma 153.567607
_cell_volume 638.953341
_symmetry_space_group_name_H-M "P -1"
_symmetry_group_IT_number 2
_symmetry_cell_setting 'triclinic'
loop_
_space_group_symop_operation_xyz
x,y,z
-x,-y,-z
loop_
_atom_site_type_symbol
_atom_site_label
_atom_site_fract_x
_atom_site_fract_y
_atom_site_fract_z
Si Si1 0.885440 0.058283 0.239006
Si Si2 0.133649 0.459647 0.378140
Si Si3 0.430505 0.096224 0.218879
Si Si4 0.102669 0.447757 0.008420
Si Si5 0.801424 0.792827 0.778018
Si Si6 0.271266 0.755799 0.805039
Si Si7 0.463851 0.337925 0.676547
O O1 0.062248 0.289343 0.381549
O O2 0.053979 0.144318 0.241598
O O3 0.774736 0.893932 0.336538
O O4 0.646159 0.901491 0.995820
O O5 0.427598 0.722806 0.594840
O O6 0.092489 0.475405 0.164752
O O7 0.951664 0.357803 0.375571
O O8 0.627652 0.188168 0.294105
O O9 0.177618 0.833607 0.174816
O O10 0.317335 0.552002 0.166047
O O11 0.168180 0.581097 0.885945
O O12 0.587196 0.540706 0.765537
O O13 0.652356 0.749038 0.568802
O O14 0.000000 0.000000 0.000000
O O15 0.500000 0.000000 0.000000
#
# Coordination Sequence:
#
# PCOD8032568 Si02
#       7
#     2   2   2   2   2   2   2
#     4  11  23  46  66  97 133 169 211 270 322 383
#     4  11  24  42  67  94 135 174 214 267 315 378
#     4  11  24  41  65  95 133 171 222 259 313 384
#     4  11  23  43  65  96 132 173 213 266 321 378
#     4  11  26  43  69  98 128 166 218 268 326 392
#     4  12  22  45  65  95 136 174 215 266 317 376
#     4  11  23  44  67  96 131 169 211 268 330 381
#
# _framework density 21.910831999999999
#
# number of rings (size 3 to 8) (size 9 to 14) (size 15 to 20)
#    0.000    0.857    7.143    1.286    2.000    2.286 
#    5.143    0.000    0.000    0.000    0.000    0.000 
#    0.000    0.000    0.000    0.000    0.000    0.000 
#
# Total GULP energy -173602.229977 kJ/mol
# GULP energy per Si atom -12400.159284 kJ/mol
# Density = 2.186096 g / cm^3
# Si number density = 21.910832 Si / 1000 Ang^3
#
#
#
# Elastic Constant Matrix: (Units=GPa)
#
#
# Indices 1 2 3 4 5 6 
#
# 1 107.6201 48.7820 35.5894 11.2737 4.6724 -5.8955
# 2 48.7820 169.6851 61.4587 14.8253 -13.3093 -17.6428
# 3 35.5894 61.4587 110.7593 38.4505 -30.6001 -27.1073
# 4 11.2737 14.8253 38.4505 34.0309 -12.5135 -3.2651
# 5 4.6724 -13.3093 -30.6001 -12.5135 21.7843 9.4087
# 6 -5.8955 -17.6428 -27.1073 -3.2651 9.4087 27.6297
#
#
#
# Elastic Compliance Matrix: (Units=1/GPa)
#
#
# Indices 1 2 3 4 5 6 
#
# 1 0.013245 -0.002530 -0.006358 -0.001229 -0.013822 -0.000466
# 2 -0.002530 0.008017 -0.004068 0.002287 0.000785 0.000591
# 3 -0.006358 -0.004068 0.031026 -0.021008 0.023479 0.016007
# 4 -0.001229 0.002287 -0.021008 0.054942 0.010894 -0.016629
# 5 -0.013822 0.000785 0.023479 0.010894 0.092787 -0.009722
# 6 -0.000466 0.000591 0.016007 -0.016629 -0.009722 0.053521
#
#
# Mechanical properties :
#
#
# Convention : Reuss Voigt Hill
#
# Bulk Modulus (GPa) = 37.91369 75.52496 56.71932
# Shear Modulus (GPa) = 17.34644 32.83791 25.09217
#
# Velocity S-wave (km/s) = 2.81674 3.87551 3.38774
# Velocity P-wave (km/s) = 5.28393 7.38716 6.42223
#
# Compressibility (1/GPa) = 0.02637570
#
# Stress axis : x y z
#
# Youngs Moduli (GPa) = 75.50205 124.73030 32.23064
#
# Poissons Ratio (x) = 0.31557 0.20492
# Poissons Ratio (y) = 0.19102 0.13112
# Poissons Ratio (z) = 0.48004 0.50744
#
# Static dielectric constant tensor:
#      x y z
#    x 4.080520 -0.085750 0.168520 
#    y -0.085750 4.205920 0.084710 
#    z 0.168520 0.084710 4.015890 
# 
# 
# High freq. dielectric constant tensor:
#      x y z
#    x 1.862920 0.000590 0.013370 
#    y 0.000590 1.869860 0.018540 
#    z 0.013370 0.018540 1.858440 
# 
# From -- ./inp_files/313215.got.cif
#   From: 2010.06.25/outbox.cif.g09.slc.cpg/sg2_157_cif.got.tgz:313215.got - 2010.06.27 13:26:56.
