data_PCOD8032344
_publ_section_title
;
Structure prediction by ZEFSAII (Michael W. Deem and Ramdas Pophale) SiO2 
 PCOD8032344
Probable space group: P -1
;
_chemical_formula_sum "Si O2"
_cell_formula_units_Z 12
_cell_length_a 18.126907
_cell_length_b 5.305260
_cell_length_c 7.889765
_cell_angle_alpha 61.223873
_cell_angle_beta 133.017796
_cell_angle_gamma 114.130810
_cell_volume 482.398683
_symmetry_space_group_name_H-M "P -1"
_symmetry_group_IT_number 2
_symmetry_cell_setting 'triclinic'
loop_
_space_group_symop_operation_xyz
x,y,z
-x,-y,-z
loop_
_atom_site_type_symbol
_atom_site_label
_atom_site_fract_x
_atom_site_fract_y
_atom_site_fract_z
Si Si1 0.804588 0.598547 0.514518
Si Si2 0.598565 0.647994 0.305890
Si Si3 0.404038 0.846899 0.302328
Si Si4 0.224675 0.210847 0.932850
Si Si5 0.614915 0.269322 0.060072
Si Si6 0.119689 0.024310 0.166879
O O1 0.677827 0.530790 0.328898
O O2 0.831967 0.770180 0.674076
O O3 0.850533 0.298873 0.673762
O O4 0.838952 0.808112 0.339411
O O5 0.613197 0.489813 0.558350
O O6 0.481936 0.578345 0.076238
O O7 0.636325 0.988544 0.293706
O O8 0.430711 0.882935 0.136586
O O9 0.500000 0.000000 0.500000
O O10 0.300692 0.974017 0.146606
O O11 0.283741 0.534963 0.904551
O O12 0.150045 0.180425 0.985483
O O13 0.000000 0.000000 0.000000
#
# Coordination Sequence:
#
# PCOD8032344 Si02
#       6
#     2   2   2   2   2   2
#     4  12  27  49  80 115 152 201 255 319 390 463
#     4  11  23  42  67 104 155 201 246 302 365 448
#     4  12  24  40  66 107 153 209 252 308 363 448
#     4  12  27  47  77 109 155 201 259 311 383 459
#     4  11  25  42  64 108 157 205 252 303 370 449
#     4  12  30  54  82 113 149 195 259 335 404 462
#
# _framework density 24.875691
#
# number of rings (size 3 to 8) (size 9 to 14) (size 15 to 20)
#    0.000    0.333    5.000    3.000    2.333    5.333 
#    0.000    0.000    0.000    0.000    0.000    0.000 
#    0.000    0.000    0.000    0.000    0.000    0.000 
#
# Total GULP energy -148776.513677 kJ/mol
# GULP energy per Si atom -12398.042806 kJ/mol
# Density = 2.481907 g / cm^3
# Si number density = 24.875691 Si / 1000 Ang^3
#
#
#
# Elastic Constant Matrix: (Units=GPa)
#
#
# Indices 1 2 3 4 5 6 
#
# 1 181.9907 57.3158 80.8171 0.2082 0.6901 5.9775
# 2 57.3158 102.3374 54.8542 -28.4579 0.7586 -2.0683
# 3 80.8171 54.8542 118.0781 -22.1549 -0.5870 3.7225
# 4 0.2082 -28.4579 -22.1549 44.8484 -5.5903 -3.9021
# 5 0.6901 0.7586 -0.5870 -5.5903 57.8800 -1.2376
# 6 5.9775 -2.0683 3.7225 -3.9021 -1.2376 40.8626
#
#
#
# Elastic Compliance Matrix: (Units=1/GPa)
#
#
# Indices 1 2 3 4 5 6 
#
# 1 0.009162 -0.003682 -0.005513 -0.005320 -0.000664 -0.001553
# 2 -0.003682 0.016182 -0.003401 0.008915 0.000713 0.002540
# 3 -0.005513 -0.003401 0.014820 0.005268 0.000765 -0.000190
# 4 -0.005320 0.008915 0.005268 0.031302 0.003105 0.003833
# 5 -0.000664 0.000713 0.000765 0.003105 0.017602 0.000893
# 6 -0.001553 0.002540 -0.000190 0.003833 0.000893 0.025238
#
#
# Mechanical properties :
#
#
# Convention : Reuss Voigt Hill
#
# Bulk Modulus (GPa) = 66.79105 87.59780 77.19442
# Shear Modulus (GPa) = 34.60441 42.67948 38.64194
#
# Velocity S-wave (km/s) = 3.73378 4.14661 3.94560
# Velocity P-wave (km/s) = 6.74510 7.62997 7.20114
#
# Compressibility (1/GPa) = 0.01497207
#
# Stress axis : x y z
#
# Youngs Moduli (GPa) = 109.14361 61.79666 67.47511
#
# Poissons Ratio (x) = 0.22756 0.37198
# Poissons Ratio (y) = 0.40191 0.22948
# Poissons Ratio (z) = 0.60170 0.21017
#
# Static dielectric constant tensor:
#      x y z
#    x 4.943930 -0.093140 -0.386910 
#    y -0.093140 4.642600 0.035190 
#    z -0.386910 0.035190 5.142930 
# 
# 
# High freq. dielectric constant tensor:
#      x y z
#    x 1.998380 -0.013680 -0.020940 
#    y -0.013680 1.989940 -0.014750 
#    z -0.020940 -0.014750 2.004020 
# 
# From -- ./inp_files/321600.got.cif
#   From: 2010.06.25/outbox.cif.g09.slc.cpg/sg2_161_cif.got.tgz:321600.got - 2010.06.27 13:26:56.
