data_PCOD8032386
_publ_section_title
;
Structure prediction by ZEFSAII (Michael W. Deem and Ramdas Pophale) SiO2 
 PCOD8032386
Probable space group: P -1
;
_chemical_formula_sum "Si O2"
_cell_formula_units_Z 12
_cell_length_a 9.615365
_cell_length_b 13.522855
_cell_length_c 8.928495
_cell_angle_alpha 112.550675
_cell_angle_beta 30.569243
_cell_angle_gamma 109.744776
_cell_volume 545.217527
_symmetry_space_group_name_H-M "P -1"
_symmetry_group_IT_number 2
_symmetry_cell_setting 'triclinic'
loop_
_space_group_symop_operation_xyz
x,y,z
-x,-y,-z
loop_
_atom_site_type_symbol
_atom_site_label
_atom_site_fract_x
_atom_site_fract_y
_atom_site_fract_z
Si Si1 0.084370 0.794583 0.645582
Si Si2 0.735002 0.436608 0.666366
Si Si3 0.824467 0.079100 0.809858
Si Si4 0.001030 0.252804 0.959421
Si Si5 0.532832 0.396844 0.508737
Si Si6 0.536870 0.889019 0.100683
O O1 0.221595 0.685826 0.393867
O O2 0.034721 0.796222 0.870070
O O3 0.312980 0.884512 0.440494
O O4 0.793543 0.811401 0.844035
O O5 0.686274 0.439016 0.537289
O O6 0.000000 0.500000 0.500000
O O7 0.500000 0.500000 0.000000
O O8 0.617578 0.143282 0.930266
O O9 0.029210 0.158508 0.756596
O O10 0.000000 0.000000 0.500000
O O11 0.647983 0.011205 0.055650
O O12 0.729348 0.313980 0.196212
O O13 0.252116 0.336015 0.773424
O O14 0.500000 0.500000 0.500000
#
# Coordination Sequence:
#
# PCOD8032386 Si02
#       6
#     2   2   2   2   2   2
#     4  11  23  44  66 100 132 177 229 269 344 400
#     4  11  23  42  68  96 135 172 220 284 327 392
#     4  11  26  47  67 101 141 175 230 279 337 399
#     4  11  26  44  71  95 141 178 218 286 332 394
#     4  11  25  46  66 102 134 176 227 269 341 408
#     4  11  24  43  68  96 136 171 230 276 327 407
#
# _framework density 22.009561999999999
#
# number of rings (size 3 to 8) (size 9 to 14) (size 15 to 20)
#    0.000    1.000    1.667    5.500    4.667    5.333 
#    0.000    0.000    0.000    0.000    0.000    0.000 
#    0.000    0.000    0.000    0.000    0.000    0.000 
#
# Total GULP energy -148768.735380 kJ/mol
# GULP energy per Si atom -12397.394615 kJ/mol
# Density = 2.195947 g / cm^3
# Si number density = 22.009562 Si / 1000 Ang^3
#
#
#
# Elastic Constant Matrix: (Units=GPa)
#
#
# Indices 1 2 3 4 5 6 
#
# 1 139.3237 87.0113 62.3232 -0.0889 -13.4856 -10.5937
# 2 87.0113 105.1437 57.8509 -15.4983 11.2261 -4.3094
# 3 62.3232 57.8509 152.3468 -11.6042 -10.3785 -6.1405
# 4 -0.0889 -15.4983 -11.6042 57.9661 -3.9093 -3.0699
# 5 -13.4856 11.2261 -10.3785 -3.9093 35.0975 7.8321
# 6 -10.5937 -4.3094 -6.1405 -3.0699 7.8321 41.2463
#
#
#
# Elastic Compliance Matrix: (Units=1/GPa)
#
#
# Indices 1 2 3 4 5 6 
#
# 1 0.020171 -0.018236 -0.000750 -0.004109 0.012809 0.000426
# 2 -0.018236 0.029957 -0.004601 0.005954 -0.017632 0.001553
# 3 -0.000750 -0.004601 0.008947 0.000823 0.003926 -0.000026
# 4 -0.004109 0.005954 0.000823 0.018978 -0.001432 0.001374
# 5 0.012809 -0.017632 0.003926 -0.001432 0.041378 -0.005932
# 6 0.000426 0.001553 -0.000026 0.001374 -0.005932 0.025741
#
#
# Mechanical properties :
#
#
# Convention : Reuss Voigt Hill
#
# Bulk Modulus (GPa) = 84.02065 90.13164 87.07615
# Shear Modulus (GPa) = 25.46954 39.50388 32.48671
#
# Velocity S-wave (km/s) = 3.40546 4.24116 3.84608
# Velocity P-wave (km/s) = 7.32942 8.06370 7.70531
#
# Compressibility (1/GPa) = 0.01190184
#
# Stress axis : x y z
#
# Youngs Moduli (GPa) = 49.57535 33.38160 111.76748
#
# Poissons Ratio (x) = 0.60873 0.08387
# Poissons Ratio (y) = 0.90403 0.51421
# Poissons Ratio (z) = 0.03720 0.15358
#
# Static dielectric constant tensor:
#      x y z
#    x 4.170000 -0.222700 -0.281840 
#    y -0.222700 4.212520 0.098430 
#    z -0.281840 0.098430 4.327540 
# 
# 
# High freq. dielectric constant tensor:
#      x y z
#    x 1.871770 -0.013640 -0.016940 
#    y -0.013640 1.863580 -0.008780 
#    z -0.016940 -0.008780 1.879690 
# 
# From -- ./inp_files/131132.got.cif
#   From: 2010.06.25/outbox.cif.g09.slc.cpg/sg2_66_cif.got.tgz:131132.got - 2010.06.27 13:26:56.
