data_PCOD8032372
_publ_section_title
;
Structure prediction by ZEFSAII (Michael W. Deem and Ramdas Pophale) SiO2 
 PCOD8032372
Probable space group: P -1
;
_chemical_formula_sum "Si O2"
_cell_formula_units_Z 16
_cell_length_a 16.779490
_cell_length_b 17.314561
_cell_length_c 9.101642
_cell_angle_alpha 150.438062
_cell_angle_beta 140.419322
_cell_angle_gamma 31.358149
_cell_volume 674.858229
_symmetry_space_group_name_H-M "P -1"
_symmetry_group_IT_number 2
_symmetry_cell_setting 'triclinic'
loop_
_space_group_symop_operation_xyz
x,y,z
-x,-y,-z
loop_
_atom_site_type_symbol
_atom_site_label
_atom_site_fract_x
_atom_site_fract_y
_atom_site_fract_z
Si Si1 0.217675 0.263204 0.486324
Si Si2 0.152049 0.824186 0.355598
Si Si3 0.111661 0.602509 0.695720
Si Si4 0.665032 0.431370 0.556086
Si Si5 0.288358 0.045209 0.959339
Si Si6 0.104726 0.794623 0.724962
Si Si7 0.893060 0.719550 0.166355
Si Si8 0.627477 0.811681 0.123063
O O1 0.227547 0.401450 0.613330
O O2 0.354886 0.183223 0.666914
O O3 0.052635 0.366368 0.500810
O O4 0.237251 0.090211 0.132062
O O5 0.222379 0.646557 0.273350
O O6 0.274157 0.878778 0.601853
O O7 0.110043 0.769745 0.055064
O O8 0.000000 0.000000 0.500000
O O9 0.158958 0.618628 0.624789
O O10 0.500000 0.500000 0.500000
O O11 0.741419 0.271316 0.263444
O O12 0.658421 0.611850 0.785722
O O13 0.177249 0.243368 0.036478
O O14 0.462847 0.980558 0.102996
O O15 0.989795 0.808098 0.461374
O O16 0.000000 0.000000 0.000000
O O17 0.749042 0.839860 0.270268
O O18 0.000000 0.500000 0.000000
#
# Coordination Sequence:
#
# PCOD8032372 Si02
#       8
#     2   2   2   2   2   2   2   2
#     4  11  24  41  70 104 143 183 241 303 359 424
#     4  12  23  42  72 102 140 191 253 293 355 439
#     4  11  23  42  68 107 137 183 248 304 354 419
#     4  12  26  48  73 105 151 200 238 300 375 441
#     4  12  26  43  70 104 143 190 238 303 361 437
#     4  12  26  45  75 109 145 189 250 309 356 427
#     4  12  25  46  74 104 141 191 246 299 361 436
#     4  12  25  46  71 103 148 188 240 296 375 439
#
# _framework density 23.708682
#
# number of rings (size 3 to 8) (size 9 to 14) (size 15 to 20)
#    0.000    0.250    6.250    3.750    1.750    0.000 
#    2.250    0.625    0.000    0.000    0.000    0.000 
#    0.000    0.000    0.000    0.000    0.000    0.000 
#
# Total GULP energy -198270.867791 kJ/mol
# GULP energy per Si atom -12391.929237 kJ/mol
# Density = 2.365472 g / cm^3
# Si number density = 23.708682 Si / 1000 Ang^3
#
#
#
# Elastic Constant Matrix: (Units=GPa)
#
#
# Indices 1 2 3 4 5 6 
#
# 1 123.6812 41.4146 21.6589 -5.9604 -12.3614 -13.4630
# 2 41.4146 140.0504 34.2364 -24.4494 -7.5010 -4.0157
# 3 21.6589 34.2364 94.1550 -16.5324 -9.5990 -5.7921
# 4 -5.9604 -24.4494 -16.5324 34.6931 2.7780 -4.6371
# 5 -12.3614 -7.5010 -9.5990 2.7780 36.9366 -0.3885
# 6 -13.4630 -4.0157 -5.7921 -4.6371 -0.3885 37.8700
#
#
#
# Elastic Compliance Matrix: (Units=1/GPa)
#
#
# Indices 1 2 3 4 5 6 
#
# 1 0.009637 -0.002455 -0.000937 -0.000322 0.002539 0.003009
# 2 -0.002455 0.009258 -0.001825 0.005282 0.000192 0.000479
# 3 -0.000937 -0.001825 0.012678 0.004680 0.002280 0.002009
# 4 -0.000322 0.005282 0.004680 0.035491 -0.000430 0.005503
# 5 0.002539 0.000192 0.002280 -0.000430 0.028603 0.001512
# 6 0.003009 0.000479 0.002009 0.005503 0.001512 0.028523
#
#
# Mechanical properties :
#
#
# Convention : Reuss Voigt Hill
#
# Bulk Modulus (GPa) = 47.30495 61.38958 54.34727
# Shear Modulus (GPa) = 35.29299 39.27171 37.28235
#
# Velocity S-wave (km/s) = 3.86244 4.07434 3.96980
# Velocity P-wave (km/s) = 6.31563 6.93420 6.63213
#
# Compressibility (1/GPa) = 0.02113944
#
# Stress axis : x y z
#
# Youngs Moduli (GPa) = 103.76529 108.00894 78.87828
#
# Poissons Ratio (x) = 0.26513 0.07390
# Poissons Ratio (y) = 0.25471 0.14399
# Poissons Ratio (z) = 0.09721 0.19716
#
# Static dielectric constant tensor:
#      x y z
#    x 4.426230 0.194200 0.063460 
#    y 0.194200 4.816120 -0.179850 
#    z 0.063460 -0.179850 4.628060 
# 
# 
# High freq. dielectric constant tensor:
#      x y z
#    x 1.930120 0.014060 -0.006860 
#    y 0.014060 1.946260 -0.007190 
#    z -0.006860 -0.007190 1.934710 
# 
# From -- ./inp_files/218931.got.cif
#   From: 2010.06.25/outbox.cif.g09.slc.cpg/sg2_110_cif.got.tgz:218931.got - 2010.06.27 13:26:56.
