data_PCOD8032207
_publ_section_title
;
Structure prediction by ZEFSAII (Michael W. Deem and Ramdas Pophale) SiO2 
 PCOD8032207
Probable space group: P -1
;
_chemical_formula_sum "Si O2"
_cell_formula_units_Z 16
_cell_length_a 17.852249
_cell_length_b 12.681926
_cell_length_c 9.370835
_cell_angle_alpha 132.693788
_cell_angle_beta 73.022191
_cell_angle_gamma 144.594228
_cell_volume 714.348688
_symmetry_space_group_name_H-M "P -1"
_symmetry_group_IT_number 2
_symmetry_cell_setting 'triclinic'
loop_
_space_group_symop_operation_xyz
x,y,z
-x,-y,-z
loop_
_atom_site_type_symbol
_atom_site_label
_atom_site_fract_x
_atom_site_fract_y
_atom_site_fract_z
Si Si1 0.151879 0.068439 0.584893
Si Si2 0.394798 0.719667 0.382399
Si Si3 0.960297 0.427430 0.789306
Si Si4 0.511804 0.372252 0.957731
Si Si5 0.631859 0.262281 0.279030
Si Si6 0.806028 0.266736 0.295835
Si Si7 0.084450 0.398701 0.203646
Si Si8 0.911958 0.920194 0.669180
O O1 0.347425 0.404571 0.794409
O O2 0.083211 0.972338 0.374917
O O3 0.116274 0.849872 0.460148
O O4 0.059741 0.041958 0.704834
O O5 0.451973 0.809743 0.598030
O O6 0.209972 0.477378 0.251116
O O7 0.500000 0.000000 0.500000
O O8 0.424507 0.617062 0.200330
O O9 0.116942 0.704050 0.848485
O O10 0.850294 0.388385 0.765591
O O11 0.000000 0.500000 0.000000
O O12 0.500000 0.500000 0.000000
O O13 0.341681 0.050899 0.830355
O O14 0.742334 0.304196 0.286936
O O15 0.739781 0.563739 0.432058
O O16 0.500000 0.000000 0.000000
O O17 0.943679 0.543174 0.588624
O O18 0.928411 0.055653 0.919183
#
# Coordination Sequence:
#
# PCOD8032207 Si02
#       8
#     2   2   2   2   2   2   2   2
#     4  11  24  42  69 103 143 180 236 290 355 407
#     4  11  24  43  70 101 134 185 231 283 354 419
#     4  12  25  46  69 102 140 187 231 291 356 417
#     4  12  25  47  71 105 146 186 233 292 352 424
#     4  11  24  43  70 100 141 185 235 291 350 422
#     4  11  25  46  69 103 141 188 234 287 358 422
#     4  11  23  43  73  98 141 177 237 289 348 415
#     4  11  23  41  69 106 136 181 234 297 343 415
#
# _framework density 22.398025000000001
#
# number of rings (size 3 to 8) (size 9 to 14) (size 15 to 20)
#    0.000    0.750    6.250    1.875    0.000    5.000 
#    0.000    0.625    0.000    0.000    0.000    0.000 
#    0.000    0.000    0.000    0.000    0.000    0.000 
#
# Total GULP energy -198251.707947 kJ/mol
# GULP energy per Si atom -12390.731747 kJ/mol
# Density = 2.234705 g / cm^3
# Si number density = 22.398025 Si / 1000 Ang^3
#
#
#
# Elastic Constant Matrix: (Units=GPa)
#
#
# Indices 1 2 3 4 5 6 
#
# 1 84.3538 28.6637 50.2814 -9.6331 -17.5337 -17.3087
# 2 28.6637 115.4650 56.6377 -10.7441 -2.3335 2.6487
# 3 50.2814 56.6377 168.9918 -8.9862 1.5508 -1.3410
# 4 -9.6331 -10.7441 -8.9862 43.2365 -4.5513 -5.4145
# 5 -17.5337 -2.3335 1.5508 -4.5513 32.7552 -1.6812
# 6 -17.3087 2.6487 -1.3410 -5.4145 -1.6812 34.6911
#
#
#
# Elastic Compliance Matrix: (Units=1/GPa)
#
#
# Indices 1 2 3 4 5 6 
#
# 1 0.021901 -0.002194 -0.005476 0.006163 0.013324 0.012491
# 2 -0.002194 0.010794 -0.002906 0.001342 -0.000176 -0.001830
# 3 -0.005476 -0.002906 0.008488 -0.000891 -0.003793 -0.002505
# 4 0.006163 0.001342 -0.000891 0.026366 0.007481 0.007416
# 5 0.013324 -0.000176 -0.003793 0.007481 0.039360 0.009590
# 6 0.012491 -0.001830 -0.002505 0.007416 0.009590 0.036723
#
#
# Mechanical properties :
#
#
# Convention : Reuss Voigt Hill
#
# Bulk Modulus (GPa) = 49.92609 71.10847 60.51728
# Shear Modulus (GPa) = 29.16059 37.68507 33.42283
#
# Velocity S-wave (km/s) = 3.61214 4.10630 3.86712
# Velocity P-wave (km/s) = 6.30361 7.36877 6.85691
#
# Compressibility (1/GPa) = 0.02002961
#
# Stress axis : x y z
#
# Youngs Moduli (GPa) = 45.65976 92.64154 117.80664
#
# Poissons Ratio (x) = 0.20329 0.64515
# Poissons Ratio (y) = 0.10020 0.34239
# Poissons Ratio (z) = 0.25005 0.26925
#
# Static dielectric constant tensor:
#      x y z
#    x 4.238180 -0.289840 -0.062140 
#    y -0.289840 3.760100 -0.227640 
#    z -0.062140 -0.227640 4.187730 
# 
# 
# High freq. dielectric constant tensor:
#      x y z
#    x 1.898200 -0.018570 -0.007950 
#    y -0.018570 1.866650 -0.011100 
#    z -0.007950 -0.011100 1.891200 
# 
# From -- ./inp_files/333774.got.cif
#   From: 2010.06.25/outbox.cif.g09.slc.cpg/sg2_167_cif.got.tgz:333774.got - 2010.06.27 13:26:56.
