data_PCOD8032449
_publ_section_title
;
Structure prediction by ZEFSAII (Michael W. Deem and Ramdas Pophale) SiO2 
 PCOD8032449
Probable space group: P -1
;
_chemical_formula_sum "Si O2"
_cell_formula_units_Z 12
_cell_length_a 16.594844
_cell_length_b 18.805386
_cell_length_c 11.203626
_cell_angle_alpha 24.653955
_cell_angle_beta 36.501791
_cell_angle_gamma 21.880614
_cell_volume 525.657274
_symmetry_space_group_name_H-M "P -1"
_symmetry_group_IT_number 2
_symmetry_cell_setting 'triclinic'
loop_
_space_group_symop_operation_xyz
x,y,z
-x,-y,-z
loop_
_atom_site_type_symbol
_atom_site_label
_atom_site_fract_x
_atom_site_fract_y
_atom_site_fract_z
Si Si1 0.943525 0.524809 0.296757
Si Si2 0.058184 0.753326 0.690161
Si Si3 0.373369 0.896090 0.789569
Si Si4 0.391220 0.109827 0.658730
Si Si5 0.628129 0.331339 0.407136
Si Si6 0.680313 0.664063 0.178461
O O1 0.841067 0.629851 0.391492
O O2 0.747755 0.677883 0.202539
O O3 0.130652 0.189439 0.579735
O O4 0.049312 0.603185 0.022244
O O5 0.260994 0.673872 0.608729
O O6 0.105677 0.641541 0.670042
O O7 0.826392 0.088965 0.447841
O O8 0.568789 0.778344 0.653240
O O9 0.387716 0.941718 0.840399
O O10 0.425952 0.641083 0.114623
O O11 0.596098 0.895740 0.835450
O O12 0.530179 0.250771 0.689976
#
# Coordination Sequence:
#
# PCOD8032449 Si02
#       6
#     2   2   2   2   2   2
#     4  12  25  42  72 100 129 178 223 268 326 397
#     4  11  23  42  70  97 127 178 223 263 324 395
#     4  11  24  43  66  99 138 170 214 280 330 385
#     4  11  23  43  69  96 133 178 224 263 324 401
#     4  11  25  42  67 101 132 173 219 277 327 384
#     4  12  24  43  72  98 133 171 228 271 320 393
#
# _framework density 22.828562999999999
#
# number of rings (size 3 to 8) (size 9 to 14) (size 15 to 20)
#    0.000    0.667    5.000    3.000    0.000    2.000 
#    0.000    1.667    0.000    0.000    0.000    0.000 
#    0.000    0.000    0.000    0.000    0.000    0.000 
#
# Total GULP energy -148804.775536 kJ/mol
# GULP energy per Si atom -12400.397961 kJ/mol
# Density = 2.277660 g / cm^3
# Si number density = 22.828563 Si / 1000 Ang^3
#
#
#
# Elastic Constant Matrix: (Units=GPa)
#
#
# Indices 1 2 3 4 5 6 
#
# 1 91.4878 30.1039 26.6630 15.2770 12.0200 2.4655
# 2 30.1039 91.7656 15.8494 7.1394 -1.4504 6.8914
# 3 26.6630 15.8494 69.5612 -14.0377 1.2995 -7.4649
# 4 15.2770 7.1394 -14.0377 43.1478 -3.5524 6.7756
# 5 12.0200 -1.4504 1.2995 -3.5524 25.8911 -3.9986
# 6 2.4655 6.8914 -7.4649 6.7756 -3.9986 33.0605
#
#
#
# Elastic Compliance Matrix: (Units=1/GPa)
#
#
# Indices 1 2 3 4 5 6 
#
# 1 0.016863 -0.003659 -0.007290 -0.008238 -0.009037 -0.001546
# 2 -0.003659 0.012721 -0.001974 -0.000910 0.002016 -0.002394
# 3 -0.007290 -0.001974 0.019806 0.009053 0.004151 0.004074
# 4 -0.008238 -0.000910 0.009053 0.030160 0.007075 -0.002477
# 5 -0.009037 0.002016 0.004151 0.007075 0.044485 0.005121
# 6 -0.001546 -0.002394 0.004074 -0.002477 0.005121 0.032909
#
#
# Mechanical properties :
#
#
# Convention : Reuss Voigt Hill
#
# Bulk Modulus (GPa) = 42.47104 44.22749 43.34926
# Shear Modulus (GPa) = 26.22751 32.43309 29.33030
#
# Velocity S-wave (km/s) = 3.39321 3.77334 3.58831
# Velocity P-wave (km/s) = 5.83065 6.19677 6.01650
#
# Compressibility (1/GPa) = 0.02354546
#
# Stress axis : x y z
#
# Youngs Moduli (GPa) = 59.29979 78.60987 50.48859
#
# Poissons Ratio (x) = 0.28762 0.36805
# Poissons Ratio (y) = 0.21697 0.09967
# Poissons Ratio (z) = 0.43228 0.15519
#
# Static dielectric constant tensor:
#      x y z
#    x 3.845690 0.210510 -0.058330 
#    y 0.210510 4.294650 -0.120250 
#    z -0.058330 -0.120250 3.963190 
# 
# 
# High freq. dielectric constant tensor:
#      x y z
#    x 1.878220 0.013320 0.001970 
#    y 0.013320 1.923310 -0.010530 
#    z 0.001970 -0.010530 1.888480 
# 
# From -- ./inp_files/151800.got.cif
#   From: 2010.06.25/outbox.cif.g09.slc.cpg/sg2_76_cif.got.tgz:151800.got - 2010.06.27 13:26:56.
