data_PCOD8032223
_publ_section_title
;
Structure prediction by ZEFSAII (Michael W. Deem and Ramdas Pophale) SiO2 
 PCOD8032223
Probable space group: P -1
;
_chemical_formula_sum "Si O2"
_cell_formula_units_Z 16
_cell_length_a 7.969159
_cell_length_b 15.538151
_cell_length_c 9.308707
_cell_angle_alpha 37.451884
_cell_angle_beta 78.286689
_cell_angle_gamma 82.664492
_cell_volume 685.244112
_symmetry_space_group_name_H-M "P -1"
_symmetry_group_IT_number 2
_symmetry_cell_setting 'triclinic'
loop_
_space_group_symop_operation_xyz
x,y,z
-x,-y,-z
loop_
_atom_site_type_symbol
_atom_site_label
_atom_site_fract_x
_atom_site_fract_y
_atom_site_fract_z
Si Si1 0.569904 0.933255 0.717002
Si Si2 0.409685 0.814861 0.398498
Si Si3 0.704427 0.512513 0.455469
Si Si4 0.229191 0.282631 0.573865
Si Si5 0.977383 0.915769 0.928271
Si Si6 0.696188 0.195932 0.875027
Si Si7 0.036487 0.757510 0.572982
Si Si8 0.872660 0.741108 0.922467
O O1 0.740892 0.858468 0.746991
O O2 0.500000 0.000000 0.500000
O O3 0.604879 0.049635 0.678875
O O4 0.429346 0.815003 0.952704
O O5 0.584461 0.736618 0.506450
O O6 0.415476 0.854650 0.176460
O O7 0.234229 0.712828 0.583408
O O8 0.500000 0.500000 0.500000
O O9 0.763950 0.580229 0.506887
O O10 0.776734 0.356641 0.639180
O O11 0.777784 0.600389 0.189819
O O12 0.089915 0.309737 0.438119
O O13 0.179284 0.144520 0.863996
O O14 0.000544 0.813656 0.922188
O O15 0.150745 0.910764 0.998087
O O16 0.953170 0.072982 0.671204
O O17 0.973467 0.703577 0.811131
#
# Coordination Sequence:
#
# PCOD8032223 Si02
#       8
#     2   2   2   2   2   2   2   2
#     4  12  25  41  69 106 136 172 221 279 343 410
#     4  12  25  41  71 101 140 177 218 279 344 401
#     4  11  23  48  73  91 133 183 237 274 325 399
#     4  11  24  43  68 102 132 181 228 278 328 406
#     4  11  23  41  70 100 138 176 222 280 339 403
#     4  12  24  43  73 100 127 186 231 272 336 398
#     4  12  25  43  66 105 142 170 220 282 350 399
#     4  11  24  44  66  96 141 179 217 281 335 398
#
# _framework density 23.349345
#
# number of rings (size 3 to 8) (size 9 to 14) (size 15 to 20)
#    0.000    0.500    5.000    4.125    3.500    2.000 
#    0.000    2.500    0.000    0.000    0.000    0.000 
#    0.000    0.000    0.000    0.000    0.000    0.000 
#
# Total GULP energy -198417.349179 kJ/mol
# GULP energy per Si atom -12401.084324 kJ/mol
# Density = 2.329620 g / cm^3
# Si number density = 23.349345 Si / 1000 Ang^3
#
#
#
# Elastic Constant Matrix: (Units=GPa)
#
#
# Indices 1 2 3 4 5 6 
#
# 1 125.9350 29.8243 24.5103 15.2888 -15.3111 7.4762
# 2 29.8243 88.5697 49.5271 19.3574 -8.4581 23.7724
# 3 24.5103 49.5271 98.7000 25.7481 -8.1541 16.4843
# 4 15.2888 19.3574 25.7481 36.5082 -6.1319 -4.8637
# 5 -15.3111 -8.4581 -8.1541 -6.1319 28.4163 3.3485
# 6 7.4762 23.7724 16.4843 -4.8637 3.3485 42.8484
#
#
#
# Elastic Compliance Matrix: (Units=1/GPa)
#
#
# Indices 1 2 3 4 5 6 
#
# 1 0.009240 -0.001794 -0.000326 -0.002155 0.004010 -0.001050
# 2 -0.001794 0.019163 -0.005882 -0.005981 0.002814 -0.008955
# 3 -0.000326 -0.005882 0.016132 -0.008421 0.001351 -0.003947
# 4 -0.002155 -0.005981 -0.008421 0.039201 0.001776 0.011245
# 5 0.004010 0.002814 0.001351 0.001776 0.039629 -0.005676
# 6 -0.001050 -0.008955 -0.003947 0.011245 -0.005676 0.031728
#
#
# Mechanical properties :
#
#
# Convention : Reuss Voigt Hill
#
# Bulk Modulus (GPa) = 35.04780 57.88089 46.46434
# Shear Modulus (GPa) = 27.68443 35.51077 31.59760
#
# Velocity S-wave (km/s) = 3.44708 3.90403 3.68265
# Velocity P-wave (km/s) = 5.55751 6.72048 6.16647
#
# Compressibility (1/GPa) = 0.02853246
#
# Stress axis : x y z
#
# Youngs Moduli (GPa) = 108.22172 52.18321 61.98900
#
# Poissons Ratio (x) = 0.09359 0.02019
# Poissons Ratio (y) = 0.19410 0.36463
# Poissons Ratio (z) = 0.03526 0.30695
#
# Static dielectric constant tensor:
#      x y z
#    x 4.500700 0.125640 -0.189240 
#    y 0.125640 4.329030 0.135400 
#    z -0.189240 0.135400 4.119750 
# 
# 
# High freq. dielectric constant tensor:
#      x y z
#    x 1.938800 0.009210 -0.011660 
#    y 0.009210 1.927350 0.011500 
#    z -0.011660 0.011500 1.902140 
# 
# From -- ./inp_files/205071.got.cif
#   From: 2010.06.25/outbox.cif.g09.slc.cpg/sg2_103_cif.got.tgz:205071.got - 2010.06.27 13:26:56.
