data_PCOD8032068
_publ_section_title
;
Structure prediction by ZEFSAII (Michael W. Deem and Ramdas Pophale) SiO2 
 PCOD8032068
Probable space group: P -1
;
_chemical_formula_sum "Si O2"
_cell_formula_units_Z 10
_cell_length_a 13.168006
_cell_length_b 9.573178
_cell_length_c 8.657964
_cell_angle_alpha 120.550112
_cell_angle_beta 106.909673
_cell_angle_gamma 123.468547
_cell_volume 475.542596
_symmetry_space_group_name_H-M "P -1"
_symmetry_group_IT_number 2
_symmetry_cell_setting 'triclinic'
loop_
_space_group_symop_operation_xyz
x,y,z
-x,-y,-z
loop_
_atom_site_type_symbol
_atom_site_label
_atom_site_fract_x
_atom_site_fract_y
_atom_site_fract_z
Si Si1 0.392622 0.306990 0.999659
Si Si2 0.380805 0.683600 0.725659
Si Si3 0.394922 0.643703 0.347915
Si Si4 0.967656 0.613052 0.443617
Si Si5 0.192639 0.663380 0.108623
O O1 0.500000 0.500000 0.000000
O O2 0.528150 0.350408 0.166063
O O3 0.358474 0.410000 0.160002
O O4 0.176533 0.952722 0.663642
O O5 0.382608 0.653783 0.529295
O O6 0.149971 0.403744 0.519374
O O7 0.500000 0.000000 0.000000
O O8 0.222395 0.526526 0.123435
O O9 0.613072 0.975800 0.565635
O O10 0.000000 0.500000 0.500000
O O11 0.828621 0.382517 0.109514
O O12 0.000000 0.500000 0.000000
#
# Coordination Sequence:
#
# PCOD8032068 Si02
#       5
#     2   2   2   2   2
#     4  12  27  44  70 105 141 171 230 290 337 395
#     4  12  24  45  72  95 138 183 227 278 339 406
#     4  11  25  43  66 102 137 177 226 287 335 398
#     4  12  24  43  71 100 134 185 227 272 342 410
#     4  11  23  40  69  98 139 179 227 273 345 407
#
# _framework density 21.028611000000001
#
# number of rings (size 3 to 8) (size 9 to 14) (size 15 to 20)
#    0.000    0.400    4.000    4.200    2.800    5.600 
#    0.000    0.000    0.000    0.000    0.000    0.000 
#    0.000    0.000    0.000    0.000    0.000    0.000 
#
# Total GULP energy -124070.762788 kJ/mol
# GULP energy per Si atom -12407.076279 kJ/mol
# Density = 2.098075 g / cm^3
# Si number density = 21.028611 Si / 1000 Ang^3
#
#
#
# Elastic Constant Matrix: (Units=GPa)
#
#
# Indices 1 2 3 4 5 6 
#
# 1 169.0145 66.7796 51.9340 -12.7016 18.2688 -11.8078
# 2 66.7796 137.1988 50.4498 -19.5864 8.5507 -8.4003
# 3 51.9340 50.4498 93.7477 -7.8761 9.8174 -8.9601
# 4 -12.7016 -19.5864 -7.8761 49.7366 4.5973 7.6643
# 5 18.2688 8.5507 9.8174 4.5973 49.5080 -2.2103
# 6 -11.8078 -8.4003 -8.9601 7.6643 -2.2103 50.6150
#
#
#
# Elastic Compliance Matrix: (Units=1/GPa)
#
#
# Indices 1 2 3 4 5 6 
#
# 1 0.008139 -0.002695 -0.002717 0.000653 -0.002025 0.000783
# 2 -0.002695 0.010443 -0.003858 0.002845 -0.000309 -0.000023
# 3 -0.002717 -0.003858 0.014486 -0.000004 -0.001148 0.001241
# 4 0.000653 0.002845 -0.000004 0.022101 -0.002911 -0.002850
# 5 -0.002025 -0.000309 -0.001148 -0.002911 0.021527 0.000654
# 6 0.000783 -0.000023 0.001241 -0.002850 0.000654 0.020616
#
#
# Mechanical properties :
#
#
# Convention : Reuss Voigt Hill
#
# Bulk Modulus (GPa) = 68.82456 82.03196 75.42826
# Shear Modulus (GPa) = 41.42726 45.35843 43.39284
#
# Velocity S-wave (km/s) = 4.44333 4.64938 4.54752
# Velocity P-wave (km/s) = 7.68923 8.24115 7.96997
#
# Compressibility (1/GPa) = 0.01452970
#
# Stress axis : x y z
#
# Youngs Moduli (GPa) = 122.86548 95.75687 69.03075
#
# Poissons Ratio (x) = 0.25808 0.18753
# Poissons Ratio (y) = 0.33114 0.26629
# Poissons Ratio (z) = 0.33378 0.36939
#
# Static dielectric constant tensor:
#      x y z
#    x 4.073210 0.023750 0.068020 
#    y 0.023750 3.937200 0.014540 
#    z 0.068020 0.014540 3.856240 
# 
# 
# High freq. dielectric constant tensor:
#      x y z
#    x 1.843670 0.003950 0.011110 
#    y 0.003950 1.835710 -0.008660 
#    z 0.011110 -0.008660 1.828740 
# 
# From -- ./inp_files/16112.got.cif
#   From: 2010.06.25/outbox.cif.g09.slc.cpg/sg2_9_cif.got.tgz:16112.got - 2010.06.27 13:26:56.
