data_PCOD8032721
_publ_section_title
;
Structure prediction by ZEFSAII (Michael W. Deem and Ramdas Pophale) SiO2 
 PCOD8032721
Probable space group: P -1
;
_chemical_formula_sum "Si O2"
_cell_formula_units_Z 16
_cell_length_a 14.144720
_cell_length_b 11.532503
_cell_length_c 9.334869
_cell_angle_alpha 78.550446
_cell_angle_beta 108.252171
_cell_angle_gamma 150.908740
_cell_volume 693.727320
_symmetry_space_group_name_H-M "P -1"
_symmetry_group_IT_number 2
_symmetry_cell_setting 'triclinic'
loop_
_space_group_symop_operation_xyz
x,y,z
-x,-y,-z
loop_
_atom_site_type_symbol
_atom_site_label
_atom_site_fract_x
_atom_site_fract_y
_atom_site_fract_z
Si Si1 0.869504 0.168596 0.516083
Si Si2 0.313334 0.544526 0.691112
Si Si3 0.565666 0.442528 0.979428
Si Si4 0.226774 0.450250 0.185261
Si Si5 0.295408 0.774798 0.049191
Si Si6 0.500409 0.634414 0.505552
Si Si7 0.184039 0.891034 0.826212
Si Si8 0.360454 0.928536 0.350055
O O1 0.804736 0.130767 0.331077
O O2 0.827393 0.228330 0.597857
O O3 0.108204 0.394256 0.580508
O O4 0.734779 0.917000 0.564550
O O5 0.294187 0.475826 0.857260
O O6 0.369343 0.496770 0.622199
O O7 0.510666 0.831170 0.710785
O O8 0.500000 0.500000 0.000000
O O9 0.720052 0.609171 0.875786
O O10 0.379261 0.165447 0.907779
O O11 0.235519 0.575217 0.054498
O O12 0.392370 0.615345 0.350619
O O13 0.002784 0.213640 0.205052
O O14 0.294025 0.783367 0.218739
O O15 0.149434 0.728332 0.931123
O O16 0.500000 0.000000 0.000000
O O17 0.500000 0.500000 0.500000
O O18 0.500000 0.000000 0.500000
#
# Coordination Sequence:
#
# PCOD8032721 Si02
#       8
#     2   2   2   2   2   2   2   2
#     4  11  25  44  69  98 139 180 229 281 343 409
#     4  11  24  44  65 100 135 177 228 284 344 402
#     4  12  27  47  71 100 141 181 231 294 350 407
#     4  12  25  45  72 104 140 183 236 280 348 420
#     4  12  22  46  73 103 144 188 224 287 348 414
#     4  11  23  43  70  98 134 178 233 289 338 405
#     4  12  25  46  72 104 140 188 231 281 351 418
#     4  11  24  42  67 100 143 177 226 278 340 410
#
# _framework density 23.063817
#
# number of rings (size 3 to 8) (size 9 to 14) (size 15 to 20)
#    0.000    0.500    5.000    3.375    1.750    2.500 
#    2.250    0.000    0.000    0.000    0.000    0.000 
#    0.000    0.000    0.000    0.000    0.000    0.000 
#
# Total GULP energy -198240.755205 kJ/mol
# GULP energy per Si atom -12390.047200 kJ/mol
# Density = 2.301132 g / cm^3
# Si number density = 23.063817 Si / 1000 Ang^3
#
#
#
# Elastic Constant Matrix: (Units=GPa)
#
#
# Indices 1 2 3 4 5 6 
#
# 1 120.1086 21.3305 28.7764 0.5110 -24.4289 12.5778
# 2 21.3305 30.8080 13.7961 -8.2685 -2.0907 12.5571
# 3 28.7764 13.7961 125.3413 -5.9281 -17.4501 7.0620
# 4 0.5110 -8.2685 -5.9281 23.6159 8.7530 -3.3036
# 5 -24.4289 -2.0907 -17.4501 8.7530 48.6802 -6.6886
# 6 12.5778 12.5571 7.0620 -3.3036 -6.6886 37.4290
#
#
#
# Elastic Compliance Matrix: (Units=1/GPa)
#
#
# Indices 1 2 3 4 5 6 
#
# 1 0.011332 -0.008378 -0.001111 -0.005683 0.005919 -0.000232
# 2 -0.008378 0.049151 -0.003050 0.017839 -0.008178 -0.012986
# 3 -0.001111 -0.003050 0.008918 0.000302 0.002479 0.000184
# 4 -0.005683 0.017839 0.000302 0.052910 -0.011705 -0.001554
# 5 0.005919 -0.008178 0.002479 -0.011705 0.026708 0.004027
# 6 -0.000232 -0.012986 0.000184 -0.001554 0.004027 0.031700
#
#
# Mechanical properties :
#
#
# Convention : Reuss Voigt Hill
#
# Bulk Modulus (GPa) = 22.56125 44.89600 33.72862
# Shear Modulus (GPa) = 22.66850 36.10201 29.38526
#
# Velocity S-wave (km/s) = 3.13846 3.96069 3.57330
# Velocity P-wave (km/s) = 4.78921 6.35801 5.62854
#
# Compressibility (1/GPa) = 0.04432379
#
# Stress axis : x y z
#
# Youngs Moduli (GPa) = 88.24489 20.34546 112.13131
#
# Poissons Ratio (x) = 0.17045 0.12461
# Poissons Ratio (y) = 0.73928 0.34198
# Poissons Ratio (z) = 0.09807 0.06205
#
# Static dielectric constant tensor:
#      x y z
#    x 4.454950 0.238430 -0.296420 
#    y 0.238430 3.882220 -0.202830 
#    z -0.296420 -0.202830 4.619340 
# 
# 
# High freq. dielectric constant tensor:
#      x y z
#    x 1.927890 0.017280 -0.013720 
#    y 0.017280 1.891600 -0.011920 
#    z -0.013720 -0.011920 1.925280 
# 
# From -- ./inp_files/307602.got.cif
#   From: 2010.06.25/outbox.cif.g09.slc.cpg/sg2_154_cif.got.tgz:307602.got - 2010.06.27 13:26:56.
