data_PCOD8032853
_publ_section_title
;
Structure prediction by ZEFSAII (Michael W. Deem and Ramdas Pophale) SiO2 
 PCOD8032853
Probable space group: P -1
;
_chemical_formula_sum "Si O2"
_cell_formula_units_Z 14
_cell_length_a 5.091324
_cell_length_b 23.730065
_cell_length_c 8.592537
_cell_angle_alpha 145.604598
_cell_angle_beta 72.860131
_cell_angle_gamma 113.330420
_cell_volume 537.458929
_symmetry_space_group_name_H-M "P -1"
_symmetry_group_IT_number 2
_symmetry_cell_setting 'triclinic'
loop_
_space_group_symop_operation_xyz
x,y,z
-x,-y,-z
loop_
_atom_site_type_symbol
_atom_site_label
_atom_site_fract_x
_atom_site_fract_y
_atom_site_fract_z
Si Si1 0.986122 0.733276 0.379936
Si Si2 0.083992 0.554403 0.774647
Si Si3 0.353924 0.153761 0.477152
Si Si4 0.953559 0.351773 0.503033
Si Si5 0.107703 0.948895 0.217169
Si Si6 0.494699 0.188299 0.073684
Si Si7 0.630662 0.705927 0.940789
O O1 0.305412 0.809633 0.505888
O O2 0.908480 0.667272 0.401858
O O3 0.778603 0.808229 0.567862
O O4 0.947804 0.649252 0.053297
O O5 0.429323 0.602488 0.822960
O O6 0.000000 0.500000 0.500000
O O7 0.987478 0.473650 0.750353
O O8 0.244639 0.030385 0.242501
O O9 0.225109 0.206541 0.760087
O O10 0.118759 0.318840 0.255455
O O11 0.621196 0.281032 0.389274
O O12 0.355885 0.902332 0.131117
O O13 0.000000 0.000000 0.500000
O O14 0.852845 0.860227 0.975960
O O15 0.569915 0.244277 0.020327
#
# Coordination Sequence:
#
# PCOD8032853 Si02
#       7
#     2   2   2   2   2   2   2
#     4  11  28  46  71 102 146 186 227 283 355 419
#     4  11  23  43  76 107 137 181 237 290 345 411
#     4  11  25  47  70 103 139 180 237 294 343 409
#     4  12  25  47  68 103 147 188 228 284 351 425
#     4  12  24  40  73 105 138 177 238 294 349 399
#     4  12  24  40  69 105 136 181 230 286 352 403
#     4  11  24  43  74 101 143 179 238 289 349 405
#
# _framework density 26.048501000000002
#
# number of rings (size 3 to 8) (size 9 to 14) (size 15 to 20)
#    0.000    0.571    4.286    3.000    8.000    1.143 
#    0.000    8.571    0.000    0.000    0.000    0.000 
#    0.000    0.000    0.000    0.000    0.000    0.000 
#
# Total GULP energy -173551.059745 kJ/mol
# GULP energy per Si atom -12396.504268 kJ/mol
# Density = 2.598921 g / cm^3
# Si number density = 26.048501 Si / 1000 Ang^3
#
#
#
# Elastic Constant Matrix: (Units=GPa)
#
#
# Indices 1 2 3 4 5 6 
#
# 1 126.6069 26.4891 17.6994 29.2272 1.9490 -7.5731
# 2 26.4891 109.3686 26.7900 40.4171 3.2455 -10.3300
# 3 17.6994 26.7900 44.6622 33.4639 18.0559 8.7661
# 4 29.2272 40.4171 33.4639 50.1606 -5.3261 -5.2234
# 5 1.9490 3.2455 18.0559 -5.3261 41.9111 5.7415
# 6 -7.5731 -10.3300 8.7661 -5.2234 5.7415 49.1898
#
#
#
# Elastic Compliance Matrix: (Units=1/GPa)
#
#
# Indices 1 2 3 4 5 6 
#
# 1 0.009334 -0.000031 0.003474 -0.008016 -0.002989 0.000309
# 2 -0.000031 0.013590 0.004012 -0.013984 -0.004721 0.001200
# 3 0.003474 0.004012 0.111807 -0.088105 -0.056924 -0.021259
# 4 -0.008016 -0.013984 -0.088105 0.101686 0.050077 0.016483
# 5 -0.002989 -0.004721 -0.056924 0.050077 0.054199 0.007684
# 6 0.000309 0.001200 -0.021259 0.016483 0.007684 0.025271
#
#
# Mechanical properties :
#
#
# Convention : Reuss Voigt Hill
#
# Bulk Modulus (GPa) = 6.68274 46.95497 26.81885
# Shear Modulus (GPa) = 14.25076 42.22959 28.24018
#
# Velocity S-wave (km/s) = 2.34152 4.03077 3.29620
# Velocity P-wave (km/s) = 3.14347 6.30301 4.98043
#
# Compressibility (1/GPa) = 0.14963931
#
# Stress axis : x y z
#
# Youngs Moduli (GPa) = 107.12956 73.58558 8.94401
#
# Poissons Ratio (x) = 0.00231 -0.03107
# Poissons Ratio (y) = 0.00336 -0.03588
# Poissons Ratio (z) = -0.37216 -0.29520
#
# Static dielectric constant tensor:
#      x y z
#    x 4.548900 -0.210850 0.099900 
#    y -0.210850 5.204560 0.415670 
#    z 0.099900 0.415670 4.834960 
# 
# 
# High freq. dielectric constant tensor:
#      x y z
#    x 2.040250 -0.007230 0.003740 
#    y -0.007230 2.064270 0.012700 
#    z 0.003740 0.012700 2.038230 
# 
# From -- ./inp_files/38410.got.cif
#   From: 2010.06.25/outbox.cif.g09.slc.cpg/sg2_20_cif.got.tgz:38410.got - 2010.06.27 13:26:56.
