data_PCOD8032318
_publ_section_title
;
Structure prediction by ZEFSAII (Michael W. Deem and Ramdas Pophale) SiO2 
 PCOD8032318
Probable space group: P -1
;
_chemical_formula_sum "Si O2"
_cell_formula_units_Z 16
_cell_length_a 9.083120
_cell_length_b 16.638996
_cell_length_c 10.763068
_cell_angle_alpha 133.716759
_cell_angle_beta 56.378509
_cell_angle_gamma 88.144667
_cell_volume 709.000298
_symmetry_space_group_name_H-M "P -1"
_symmetry_group_IT_number 2
_symmetry_cell_setting 'triclinic'
loop_
_space_group_symop_operation_xyz
x,y,z
-x,-y,-z
loop_
_atom_site_type_symbol
_atom_site_label
_atom_site_fract_x
_atom_site_fract_y
_atom_site_fract_z
Si Si1 0.250927 0.557411 0.225769
Si Si2 0.720092 0.631973 0.806769
Si Si3 0.966242 0.168273 0.216543
Si Si4 0.618158 0.349361 0.202851
Si Si5 0.985207 0.357489 0.987767
Si Si6 0.711642 0.859653 0.162993
Si Si7 0.186919 0.323575 0.607516
Si Si8 0.283121 0.873450 0.888960
O O1 0.318997 0.405726 0.079819
O O2 0.153050 0.665476 0.507240
O O3 0.036006 0.644978 0.318327
O O4 0.500000 0.500000 0.000000
O O5 0.576982 0.630355 0.765139
O O6 0.000000 0.500000 0.500000
O O7 0.621367 0.801456 0.048411
O O8 0.748399 0.183719 0.285160
O O9 0.162317 0.101651 0.941533
O O10 0.086565 0.058465 0.165692
O O11 0.500000 0.500000 0.500000
O O12 0.760862 0.193590 0.049867
O O13 0.814077 0.326439 0.998532
O O14 0.091865 0.285578 0.996217
O O15 0.189576 0.286271 0.710787
O O16 0.826945 0.538290 0.259846
O O17 0.500000 0.000000 0.500000
O O18 0.454264 0.179406 0.276744
#
# Coordination Sequence:
#
# PCOD8032318 Si02
#       8
#     2   2   2   2   2   2   2   2
#     4  12  26  44  70 104 145 182 237 302 356 426
#     4  12  24  43  72 104 135 187 244 288 349 432
#     4  11  26  45  70 102 141 190 235 295 372 423
#     4  12  22  41  69 101 136 182 232 294 350 417
#     4  11  23  42  65  99 138 180 235 289 351 418
#     4  12  25  47  72 103 146 193 239 296 361 427
#     4  11  24  41  68 104 136 183 237 292 354 424
#     4  11  24  43  69 100 139 181 236 290 357 435
#
# _framework density 22.566986
#
# number of rings (size 3 to 8) (size 9 to 14) (size 15 to 20)
#    0.000    0.500    5.000    3.750    3.500    2.500 
#    2.250    0.625    0.000    0.000    0.000    0.000 
#    0.000    0.000    0.000    0.000    0.000    0.000 
#
# Total GULP energy -198326.867262 kJ/mol
# GULP energy per Si atom -12395.429204 kJ/mol
# Density = 2.251562 g / cm^3
# Si number density = 22.566986 Si / 1000 Ang^3
#
#
#
# Elastic Constant Matrix: (Units=GPa)
#
#
# Indices 1 2 3 4 5 6 
#
# 1 139.0917 30.6307 31.8173 -0.2800 -12.8357 16.1229
# 2 30.6307 139.6316 29.3469 -3.6979 -14.2464 0.0972
# 3 31.8173 29.3469 89.9415 -8.5428 -1.0870 15.2909
# 4 -0.2800 -3.6979 -8.5428 27.2685 5.1041 -2.5779
# 5 -12.8357 -14.2464 -1.0870 5.1041 37.0671 -0.5074
# 6 16.1229 0.0972 15.2909 -2.5779 -0.5074 36.7226
#
#
#
# Elastic Compliance Matrix: (Units=1/GPa)
#
#
# Indices 1 2 3 4 5 6 
#
# 1 0.008536 -0.001169 -0.002265 -0.001541 0.002613 -0.002874
# 2 -0.001169 0.008219 -0.002506 -0.000041 0.002708 0.001570
# 3 -0.002265 -0.002506 0.013854 0.003913 -0.001942 -0.004520
# 4 -0.001541 -0.000041 0.003913 0.039124 -0.005799 0.001714
# 5 0.002613 0.002708 -0.001942 -0.005799 0.029660 -0.000343
# 6 -0.002874 0.001570 -0.004520 0.001714 -0.000343 0.030486
#
#
# Mechanical properties :
#
#
# Convention : Reuss Voigt Hill
#
# Bulk Modulus (GPa) = 53.39142 61.36162 57.37652
# Shear Modulus (GPa) = 33.78321 38.66964 36.22643
#
# Velocity S-wave (km/s) = 3.87333 4.14399 4.01095
# Velocity P-wave (km/s) = 6.61166 7.08144 6.85058
#
# Compressibility (1/GPa) = 0.01872960
#
# Stress axis : x y z
#
# Youngs Moduli (GPa) = 117.14995 121.67002 72.18204
#
# Poissons Ratio (x) = 0.14221 0.16346
# Poissons Ratio (y) = 0.13692 0.18091
# Poissons Ratio (z) = 0.26529 0.30494
#
# Static dielectric constant tensor:
#      x y z
#    x 4.188910 0.091710 -0.136080 
#    y 0.091710 4.457240 -0.000690 
#    z -0.136080 -0.000690 3.698490 
# 
# 
# High freq. dielectric constant tensor:
#      x y z
#    x 1.897930 0.007760 -0.012130 
#    y 0.007760 1.913750 -0.002910 
#    z -0.012130 -0.002910 1.854750 
# 
# From -- ./inp_files/403333.got.cif
#   From: 2010.06.25/outbox.cif.g09.slc.cpg/sg2_202_cif.got.tgz:403333.got - 2010.06.27 13:26:56.
