data_PCOD8032203
_publ_section_title
;
Structure prediction by ZEFSAII (Michael W. Deem and Ramdas Pophale) SiO2 
 PCOD8032203
Probable space group: P -1
;
_chemical_formula_sum "Si O2"
_cell_formula_units_Z 14
_cell_length_a 8.762212
_cell_length_b 11.787391
_cell_length_c 9.784201
_cell_angle_alpha 59.134078
_cell_angle_beta 46.625613
_cell_angle_gamma 66.512710
_cell_volume 628.782653
_symmetry_space_group_name_H-M "P -1"
_symmetry_group_IT_number 2
_symmetry_cell_setting 'triclinic'
loop_
_space_group_symop_operation_xyz
x,y,z
-x,-y,-z
loop_
_atom_site_type_symbol
_atom_site_label
_atom_site_fract_x
_atom_site_fract_y
_atom_site_fract_z
Si Si1 0.346564 0.326973 0.894450
Si Si2 0.513916 0.900757 0.853197
Si Si3 0.092124 0.736164 0.843077
Si Si4 0.579692 0.178826 0.602218
Si Si5 0.534794 0.431547 0.165312
Si Si6 0.336979 0.184501 0.473370
Si Si7 0.043292 0.976061 0.143924
O O1 0.454493 0.279611 0.717245
O O2 0.450158 0.460062 0.792690
O O3 0.362131 0.219955 0.071994
O O4 0.097611 0.358351 0.001758
O O5 0.516147 0.871826 0.707107
O O6 0.629970 0.035541 0.731262
O O7 0.281010 0.915495 0.051868
O O8 0.214991 0.751261 0.614983
O O9 0.253280 0.669663 0.898498
O O10 0.993789 0.881971 0.850585
O O11 0.439460 0.139428 0.582472
O O12 0.333990 0.345594 0.370995
O O13 0.500000 0.500000 0.000000
O O14 0.105868 0.131596 0.634666
O O15 0.000000 0.000000 0.000000
#
# Coordination Sequence:
#
# PCOD8032203 Si02
#       7
#     2   2   2   2   2   2   2
#     4  12  26  46  67 101 146 179 225 282 340 416
#     4  12  23  41  70 103 142 173 226 289 341 403
#     4  11  25  42  73  98 137 185 224 282 351 399
#     4  11  23  41  69 105 135 177 229 285 347 399
#     4  11  25  47  72  98 138 189 232 278 335 413
#     4  11  23  43  71 102 137 183 228 284 341 404
#     4  12  22  39  72 107 133 174 231 283 346 403
#
# _framework density 22.265245
#
# number of rings (size 3 to 8) (size 9 to 14) (size 15 to 20)
#    0.000    0.571    5.714    3.000    0.000    4.000 
#    0.000    3.571    0.000    0.000    0.000    0.000 
#    0.000    0.000    0.000    0.000    0.000    0.000 
#
# Total GULP energy -173577.261765 kJ/mol
# GULP energy per Si atom -12398.375840 kJ/mol
# Density = 2.221457 g / cm^3
# Si number density = 22.265245 Si / 1000 Ang^3
#
#
#
# Elastic Constant Matrix: (Units=GPa)
#
#
# Indices 1 2 3 4 5 6 
#
# 1 65.6446 45.5610 38.3280 3.8108 -3.3244 4.8565
# 2 45.5610 117.5492 65.8690 -4.6492 -10.2027 12.6831
# 3 38.3280 65.8690 124.8391 3.6166 -15.9323 8.4488
# 4 3.8108 -4.6492 3.6166 47.2304 1.5168 6.0064
# 5 -3.3244 -10.2027 -15.9323 1.5168 26.5935 0.0775
# 6 4.8565 12.6831 8.4488 6.0064 0.0775 25.1536
#
#
#
# Elastic Compliance Matrix: (Units=1/GPa)
#
#
# Indices 1 2 3 4 5 6 
#
# 1 0.022001 -0.007047 -0.003262 -0.002283 -0.001780 0.000952
# 2 -0.007047 0.015024 -0.005305 0.003061 0.001545 -0.005169
# 3 -0.003262 -0.005305 0.012548 -0.001307 0.005151 -0.000613
# 4 -0.002283 0.003061 -0.001307 0.022565 -0.001163 -0.006048
# 5 -0.001780 0.001545 0.005151 -0.001163 0.041131 -0.002014
# 6 0.000952 -0.005169 -0.000613 -0.006048 -0.002014 0.043835
#
#
# Mechanical properties :
#
#
# Convention : Reuss Voigt Hill
#
# Bulk Modulus (GPa) = 54.51271 67.50544 61.00908
# Shear Modulus (GPa) = 25.71380 30.34716 28.03048
#
# Velocity S-wave (km/s) = 3.40205 3.69587 3.55200
# Velocity P-wave (km/s) = 6.32205 6.97116 6.65453
#
# Compressibility (1/GPa) = 0.01834435
#
# Stress axis : x y z
#
# Youngs Moduli (GPa) = 45.45211 66.55914 79.69535
#
# Poissons Ratio (x) = 0.46905 0.25996
# Poissons Ratio (y) = 0.32031 0.42281
# Poissons Ratio (z) = 0.14826 0.35312
#
# Static dielectric constant tensor:
#      x y z
#    x 4.006000 0.183900 -0.190910 
#    y 0.183900 4.129210 -0.196310 
#    z -0.190910 -0.196310 4.253610 
# 
# 
# High freq. dielectric constant tensor:
#      x y z
#    x 1.865790 0.015080 0.001340 
#    y 0.015080 1.881090 -0.008590 
#    z 0.001340 -0.008590 1.884140 
# 
# From -- ./inp_files/184684.got.cif
#   From: 2010.06.25/outbox.cif.g09.slc.cpg/sg2_93_cif.got.tgz:184684.got - 2010.06.27 13:26:56.
