data_PCOD8032060
_publ_section_title
;
Structure prediction by ZEFSAII (Michael W. Deem and Ramdas Pophale) SiO2 
 PCOD8032060
Probable space group: P -1
;
_chemical_formula_sum "Si O2"
_cell_formula_units_Z 16
_cell_length_a 25.505645
_cell_length_b 8.984706
_cell_length_c 8.405850
_cell_angle_alpha 102.191405
_cell_angle_beta 139.372993
_cell_angle_gamma 46.079145
_cell_volume 668.850998
_symmetry_space_group_name_H-M "P -1"
_symmetry_group_IT_number 2
_symmetry_cell_setting 'triclinic'
loop_
_space_group_symop_operation_xyz
x,y,z
-x,-y,-z
loop_
_atom_site_type_symbol
_atom_site_label
_atom_site_fract_x
_atom_site_fract_y
_atom_site_fract_z
Si Si1 0.702090 0.741066 0.080906
Si Si2 0.793692 0.692748 0.934177
Si Si3 0.651543 0.344519 0.342348
Si Si4 0.136973 0.822903 0.666438
Si Si5 0.583690 0.798450 0.298486
Si Si6 0.945018 0.428824 0.785329
Si Si7 0.789434 0.036896 0.914394
Si Si8 0.060939 0.130869 0.282070
O O1 0.743251 0.498890 0.132390
O O2 0.779044 0.704629 0.400425
O O3 0.752405 0.731942 0.029510
O O4 0.527821 0.036946 0.770751
O O5 0.717312 0.693155 0.639899
O O6 0.738298 0.948141 0.819343
O O7 0.972292 0.393092 0.250596
O O8 0.643712 0.536828 0.332981
O O9 0.688035 0.262086 0.592191
O O10 0.776386 0.073952 0.451356
O O11 0.500000 0.500000 0.000000
O O12 0.076509 0.950730 0.377710
O O13 0.222630 0.837004 0.930260
O O14 0.000000 0.000000 0.500000
O O15 0.500000 0.000000 0.000000
O O16 0.000000 0.500000 0.000000
O O17 0.961504 0.272884 0.924770
O O18 0.040215 0.228632 0.807375
#
# Coordination Sequence:
#
# PCOD8032060 Si02
#       8
#     2   2   2   2   2   2   2   2
#     4  12  27  46  73 103 148 188 242 296 364 426
#     4  12  25  45  73 106 143 190 240 295 362 435
#     4  11  27  47  72 105 145 190 240 296 355 425
#     4  12  24  46  69 108 146 182 236 303 359 426
#     4  12  27  47  72 104 146 194 242 292 363 431
#     4  11  23  40  69 104 136 183 237 294 347 422
#     4  11  25  44  71 103 144 183 238 293 358 424
#     4  11  25  42  75 101 146 181 245 288 363 410
#
# _framework density 23.921621999999999
#
# number of rings (size 3 to 8) (size 9 to 14) (size 15 to 20)
#    0.000    0.500    3.750    3.375    5.250    2.000 
#    0.000    1.875    0.000    0.000    0.000    0.000 
#    0.000    0.000    0.000    0.000    0.000    0.000 
#
# Total GULP energy -198370.041078 kJ/mol
# GULP energy per Si atom -12398.127567 kJ/mol
# Density = 2.386718 g / cm^3
# Si number density = 23.921622 Si / 1000 Ang^3
#
#
#
# Elastic Constant Matrix: (Units=GPa)
#
#
# Indices 1 2 3 4 5 6 
#
# 1 162.4953 42.5868 43.7120 -2.8848 -23.0647 5.1542
# 2 42.5868 122.5578 41.5010 6.7342 10.5971 9.7645
# 3 43.7120 41.5010 102.5889 0.3129 5.7360 3.4499
# 4 -2.8848 6.7342 0.3129 40.9455 1.8844 6.0278
# 5 -23.0647 10.5971 5.7360 1.8844 40.2317 -9.0699
# 6 5.1542 9.7645 3.4499 6.0278 -9.0699 47.9850
#
#
#
# Elastic Compliance Matrix: (Units=1/GPa)
#
#
# Indices 1 2 3 4 5 6 
#
# 1 0.008476 -0.002587 -0.002941 0.000629 0.006135 0.000908
# 2 -0.002587 0.010674 -0.002890 -0.001372 -0.004345 -0.002335
# 3 -0.002941 -0.002890 0.012346 0.000388 -0.002831 -0.000567
# 4 0.000629 -0.001372 0.000388 0.025221 -0.001240 -0.003219
# 5 0.006135 -0.004345 -0.002831 -0.001240 0.031452 0.006529
# 6 0.000908 -0.002335 -0.000567 -0.003219 0.006529 0.022897
#
#
# Mechanical properties :
#
#
# Convention : Reuss Voigt Hill
#
# Bulk Modulus (GPa) = 68.20877 71.47129 69.84003
# Shear Modulus (GPa) = 37.65402 43.15524 40.40463
#
# Velocity S-wave (km/s) = 3.97174 4.25199 4.11425
# Velocity P-wave (km/s) = 7.04332 7.35174 7.19918
#
# Compressibility (1/GPa) = 0.01466087
#
# Stress axis : x y z
#
# Youngs Moduli (GPa) = 117.97600 93.68410 80.99815
#
# Poissons Ratio (x) = 0.24236 0.23818
# Poissons Ratio (y) = 0.30521 0.23410
# Poissons Ratio (z) = 0.34692 0.27076
#
# Static dielectric constant tensor:
#      x y z
#    x 4.572610 -0.058700 -0.160830 
#    y -0.058700 4.435460 -0.156640 
#    z -0.160830 -0.156640 4.313420 
# 
# 
# High freq. dielectric constant tensor:
#      x y z
#    x 1.967490 -0.001010 -0.011950 
#    y -0.001010 1.949260 -0.006930 
#    z -0.011950 -0.006930 1.940210 
# 
# From -- ./inp_files/352281.got.cif
#   From: 2010.06.25/outbox.cif.g09.slc.cpg/sg2_177_cif.got.tgz:352281.got - 2010.06.27 13:26:56.
