data_PCOD8032051
_publ_section_title
;
Structure prediction by ZEFSAII (Michael W. Deem and Ramdas Pophale) SiO2 
 PCOD8032051
Probable space group: P -1
;
_chemical_formula_sum "Si O2"
_cell_formula_units_Z 16
_cell_length_a 9.850894
_cell_length_b 16.858337
_cell_length_c 11.641830
_cell_angle_alpha 43.620351
_cell_angle_beta 128.486102
_cell_angle_gamma 93.232111
_cell_volume 713.678484
_symmetry_space_group_name_H-M "P -1"
_symmetry_group_IT_number 2
_symmetry_cell_setting 'triclinic'
loop_
_space_group_symop_operation_xyz
x,y,z
-x,-y,-z
loop_
_atom_site_type_symbol
_atom_site_label
_atom_site_fract_x
_atom_site_fract_y
_atom_site_fract_z
Si Si1 0.180787 0.243945 0.175507
Si Si2 0.392133 0.539925 0.577783
Si Si3 0.618030 0.266361 0.810331
Si Si4 0.567214 0.104642 0.354867
Si Si5 0.909297 0.671037 0.291498
Si Si6 0.117330 0.405880 0.401048
Si Si7 0.049659 0.916987 0.493252
Si Si8 0.901583 0.365502 0.133799
O O1 0.463223 0.149712 0.384345
O O2 0.088552 0.313059 0.183491
O O3 0.190903 0.100509 0.313532
O O4 0.997326 0.409440 0.820007
O O5 0.524497 0.357701 0.791814
O O6 0.303192 0.660538 0.297592
O O7 0.144956 0.641377 0.419773
O O8 0.606975 0.505394 0.797179
O O9 0.390493 0.301101 0.599934
O O10 0.847350 0.066627 0.141905
O O11 0.668674 0.183240 0.297833
O O12 0.345205 0.174476 0.075165
O O13 0.000000 0.500000 0.500000
O O14 0.853962 0.698899 0.370182
O O15 0.931803 0.443565 0.168122
O O16 0.014270 0.798683 0.602248
O O17 0.000000 0.000000 0.500000
#
# Coordination Sequence:
#
# PCOD8032051 Si02
#       8
#     2   2   2   2   2   2   2   2
#     4  11  23  42  67  97 130 175 216 271 326 390
#     4  11  23  40  68  97 128 169 226 272 315 390
#     4  11  23  40  68  97 128 169 226 272 315 390
#     4  11  24  42  70 101 128 170 225 278 324 378
#     4  12  23  41  66  99 134 172 220 274 323 388
#     4  12  26  45  67  97 137 178 215 266 339 397
#     4  12  23  41  66  99 134 172 220 274 323 388
#     4  12  26  45  67  97 137 178 215 266 339 397
#
# _framework density 22.419060000000002
#
# number of rings (size 3 to 8) (size 9 to 14) (size 15 to 20)
#    0.000    0.500    6.250    1.875    7.000    1.000 
#    0.000    0.000    0.000    2.250    0.000    0.000 
#    0.000    0.000    0.000    0.000    0.000    0.000 
#
# Total GULP energy -198293.771527 kJ/mol
# GULP energy per Si atom -12393.360720 kJ/mol
# Density = 2.236803 g / cm^3
# Si number density = 22.419060 Si / 1000 Ang^3
#
#
#
# Elastic Constant Matrix: (Units=GPa)
#
#
# Indices 1 2 3 4 5 6 
#
# 1 155.6673 24.4527 38.8213 -0.5214 0.6557 9.4912
# 2 24.4527 43.9812 24.9537 9.7544 2.8857 9.7880
# 3 38.8213 24.9537 118.2567 -1.1969 -1.9442 5.5261
# 4 -0.5214 9.7544 -1.1969 29.5991 9.3231 1.6507
# 5 0.6557 2.8857 -1.9442 9.3231 34.4026 -1.9116
# 6 9.4912 9.7880 5.5261 1.6507 -1.9116 21.5805
#
#
#
# Elastic Compliance Matrix: (Units=1/GPa)
#
#
# Indices 1 2 3 4 5 6 
#
# 1 0.007436 -0.003071 -0.001713 0.001294 -0.000419 -0.001575
# 2 -0.003071 0.032279 -0.005394 -0.010012 -0.000864 -0.011219
# 3 -0.001713 -0.005394 0.010163 0.001955 0.000557 0.000498
# 4 0.001294 -0.010012 0.001955 0.040378 -0.010045 -0.000507
# 5 -0.000419 -0.000864 0.000557 -0.010045 0.032127 0.004048
# 6 -0.001575 -0.011219 0.000498 -0.000507 0.004048 0.052389
#
#
# Mechanical properties :
#
#
# Convention : Reuss Voigt Hill
#
# Bulk Modulus (GPa) = 33.87526 54.92896 44.40211
# Shear Modulus (GPa) = 24.39396 32.42827 28.41112
#
# Velocity S-wave (km/s) = 3.30220 3.80736 3.56374
# Velocity P-wave (km/s) = 5.44814 6.62436 6.06483
#
# Compressibility (1/GPa) = 0.02952007
#
# Stress axis : x y z
#
# Youngs Moduli (GPa) = 134.48598 30.97981 98.40030
#
# Poissons Ratio (x) = 0.09514 0.16858
# Poissons Ratio (y) = 0.41302 0.53081
# Poissons Ratio (z) = 0.23040 0.16712
#
# Static dielectric constant tensor:
#      x y z
#    x 4.877660 0.040880 -0.233810 
#    y 0.040880 3.540370 -0.066780 
#    z -0.233810 -0.066780 4.446580 
# 
# 
# High freq. dielectric constant tensor:
#      x y z
#    x 1.912780 0.015700 -0.006370 
#    y 0.015700 1.821080 -0.004710 
#    z -0.006370 -0.004710 1.894190 
# 
# From -- ./inp_files/402885.got.cif
#   From: 2010.06.25/outbox.cif.g09.slc.cpg/sg2_202_cif.got.tgz:402885.got - 2010.06.27 13:26:56.
