data_PCOD8032673
_publ_section_title
;
Structure prediction by ZEFSAII (Michael W. Deem and Ramdas Pophale) SiO2 
 PCOD8032673
Probable space group: P -1
;
_chemical_formula_sum "Si O2"
_cell_formula_units_Z 12
_cell_length_a 8.786342
_cell_length_b 6.495175
_cell_length_c 15.465047
_cell_angle_alpha 107.476227
_cell_angle_beta 39.222491
_cell_angle_gamma 96.137805
_cell_volume 520.625766
_symmetry_space_group_name_H-M "P -1"
_symmetry_group_IT_number 2
_symmetry_cell_setting 'triclinic'
loop_
_space_group_symop_operation_xyz
x,y,z
-x,-y,-z
loop_
_atom_site_type_symbol
_atom_site_label
_atom_site_fract_x
_atom_site_fract_y
_atom_site_fract_z
Si Si1 0.496577 0.745566 0.563416
Si Si2 0.117838 0.350918 0.348975
Si Si3 0.409444 0.876442 0.800813
Si Si4 0.109350 0.020435 0.665330
Si Si5 0.788354 0.460802 0.854361
Si Si6 0.930935 0.689086 0.984567
O O1 0.500000 0.500000 0.500000
O O2 0.554567 0.755377 0.639519
O O3 0.227212 0.901625 0.685937
O O4 0.702588 0.841881 0.437464
O O5 0.399086 0.215032 0.219038
O O6 0.123994 0.489728 0.275020
O O7 0.000000 0.500000 0.500000
O O8 0.945039 0.172371 0.396636
O O9 0.151595 0.810674 0.916737
O O10 0.335967 0.145104 0.860578
O O11 0.863887 0.201658 0.813097
O O12 0.921237 0.597452 0.880116
O O13 0.500000 0.500000 0.000000
O O14 0.000000 0.500000 0.000000
#
# Coordination Sequence:
#
# PCOD8032673 Si02
#       6
#     2   2   2   2   2   2
#     4  11  23  43  69  98 131 176 229 282 337 403
#     4  12  27  45  67 101 141 179 226 280 338 407
#     4  11  24  41  65  95 133 174 223 279 336 398
#     4  11  24  42  69  97 132 177 225 278 341 399
#     4  12  26  44  69 100 137 180 227 280 340 404
#     4  11  24  43  67  96 131 175 227 281 336 399
#
# _framework density 23.049185999999999
#
# number of rings (size 3 to 8) (size 9 to 14) (size 15 to 20)
#    0.000    0.667    0.000    8.000    0.000   13.333 
#    0.000    0.000    0.000    0.000    0.000    0.000 
#    0.000    0.000    0.000    0.000    0.000    0.000 
#
# Total GULP energy -148717.024409 kJ/mol
# GULP energy per Si atom -12393.085367 kJ/mol
# Density = 2.299672 g / cm^3
# Si number density = 23.049186 Si / 1000 Ang^3
#
#
#
# Elastic Constant Matrix: (Units=GPa)
#
#
# Indices 1 2 3 4 5 6 
#
# 1 125.3871 52.9883 31.0734 9.4884 -4.0257 -12.1603
# 2 52.9883 141.8916 45.5393 17.9952 -3.4149 -5.3946
# 3 31.0734 45.5393 89.6390 11.0367 7.0836 -8.7053
# 4 9.4884 17.9952 11.0367 40.1875 -4.9506 -7.1120
# 5 -4.0257 -3.4149 7.0836 -4.9506 46.5215 6.7576
# 6 -12.1603 -5.3946 -8.7053 -7.1120 6.7576 51.3511
#
#
#
# Elastic Compliance Matrix: (Units=1/GPa)
#
#
# Indices 1 2 3 4 5 6 
#
# 1 0.009881 -0.003030 -0.001765 -0.000124 0.000653 0.001619
# 2 -0.003030 0.009690 -0.003691 -0.002648 0.000846 -0.000803
# 3 -0.001765 -0.003691 0.014291 -0.001922 -0.003059 0.001753
# 4 -0.000124 -0.002648 -0.001922 0.027446 0.002598 0.002826
# 5 0.000653 0.000846 -0.003059 0.002598 0.022779 -0.002913
# 6 0.001619 -0.000803 0.001753 0.002826 -0.002913 0.020845
#
#
# Mechanical properties :
#
#
# Convention : Reuss Voigt Hill
#
# Bulk Modulus (GPa) = 59.20851 68.45774 63.83312
# Shear Modulus (GPa) = 39.20530 42.76648 40.98589
#
# Velocity S-wave (km/s) = 4.12872 4.31216 4.22144
# Velocity P-wave (km/s) = 6.96219 7.38635 7.17740
#
# Compressibility (1/GPa) = 0.01688946
#
# Stress axis : x y z
#
# Youngs Moduli (GPa) = 101.20756 103.20419 69.97254
#
# Poissons Ratio (x) = 0.31276 0.12347
# Poissons Ratio (y) = 0.30671 0.25826
# Poissons Ratio (z) = 0.17859 0.38092
#
# Static dielectric constant tensor:
#      x y z
#    x 4.581220 -0.262550 -0.188410 
#    y -0.262550 5.026600 0.491030 
#    z -0.188410 0.491030 4.092350 
# 
# 
# High freq. dielectric constant tensor:
#      x y z
#    x 1.931830 -0.007030 -0.013310 
#    y -0.007030 1.927440 0.017300 
#    z -0.013310 0.017300 1.904460 
# 
# From -- ./inp_files/17757.got.cif
#   From: 2010.06.25/outbox.cif.g09.slc.cpg/sg2_9_cif.got.tgz:17757.got - 2010.06.27 13:26:56.
