data_PCOD8032218
_publ_section_title
;
Structure prediction by ZEFSAII (Michael W. Deem and Ramdas Pophale) SiO2 
 PCOD8032218
Probable space group: P -1
;
_chemical_formula_sum "Si O2"
_cell_formula_units_Z 16
_cell_length_a 6.598998
_cell_length_b 8.765480
_cell_length_c 16.925107
_cell_angle_alpha 134.100568
_cell_angle_beta 94.503673
_cell_angle_gamma 85.461591
_cell_volume 700.462113
_symmetry_space_group_name_H-M "P -1"
_symmetry_group_IT_number 2
_symmetry_cell_setting 'triclinic'
loop_
_space_group_symop_operation_xyz
x,y,z
-x,-y,-z
loop_
_atom_site_type_symbol
_atom_site_label
_atom_site_fract_x
_atom_site_fract_y
_atom_site_fract_z
Si Si1 0.569062 0.258267 0.409373
Si Si2 0.286216 0.584980 0.997699
Si Si3 0.850319 0.941872 0.663717
Si Si4 0.944302 0.389168 0.837215
Si Si5 0.174058 0.861914 0.769607
Si Si6 0.129616 0.374226 0.230020
Si Si7 0.553182 0.997304 0.909407
Si Si8 0.908474 0.197223 0.516830
O O1 0.500000 0.500000 0.500000
O O2 0.379777 0.104659 0.337070
O O3 0.707137 0.272099 0.341419
O O4 0.692705 0.158230 0.452532
O O5 0.162066 0.606571 0.081166
O O6 0.301408 0.811564 0.037139
O O7 0.500000 0.500000 0.000000
O O8 0.183911 0.420962 0.874151
O O9 0.975713 0.963151 0.756892
O O10 0.931139 0.770195 0.539003
O O11 0.887049 0.174708 0.711256
O O12 0.869848 0.580045 0.846778
O O13 0.085811 0.725926 0.789976
O O14 0.334977 0.025968 0.868304
O O15 0.133747 0.588113 0.358876
O O16 0.328748 0.221048 0.194333
O O17 0.500000 0.000000 0.000000
O O18 0.000000 0.000000 0.500000
#
# Coordination Sequence:
#
# PCOD8032218 Si02
#       8
#     2   2   2   2   2   2   2   2
#     4  11  23  42  70 102 139 189 239 287 350 423
#     4  11  24  44  68  96 133 176 231 284 346 415
#     4  11  23  44  70  99 138 188 232 287 348 422
#     4  11  24  42  66  97 133 179 225 282 349 407
#     4  11  23  41  69  98 137 180 233 284 348 414
#     4  12  25  44  68 100 142 179 232 289 350 416
#     4  12  26  45  70 107 137 182 236 292 353 418
#     4  11  24  45  68 105 143 184 232 290 357 416
#
# _framework density 22.842063
#
# number of rings (size 3 to 8) (size 9 to 14) (size 15 to 20)
#    0.000    0.750    1.250    6.750    0.000    7.500 
#    2.250    0.000    0.000    0.000    0.000    0.000 
#    0.000    0.000    0.000    0.000    0.000    0.000 
#
# Total GULP energy -198242.140972 kJ/mol
# GULP energy per Si atom -12390.133811 kJ/mol
# Density = 2.279007 g / cm^3
# Si number density = 22.842063 Si / 1000 Ang^3
#
#
#
# Elastic Constant Matrix: (Units=GPa)
#
#
# Indices 1 2 3 4 5 6 
#
# 1 146.8904 61.7181 46.0273 2.5322 22.8018 -0.6852
# 2 61.7181 128.8853 33.8620 -4.7982 3.7372 7.2283
# 3 46.0273 33.8620 89.1503 6.1445 1.7636 6.5770
# 4 2.5322 -4.7982 6.1445 38.1463 1.1046 -2.0801
# 5 22.8018 3.7372 1.7636 1.1046 42.1615 -2.5505
# 6 -0.6852 7.2283 6.5770 -2.0801 -2.5505 45.0348
#
#
#
# Elastic Compliance Matrix: (Units=1/GPa)
#
#
# Indices 1 2 3 4 5 6 
#
# 1 0.010466 -0.003921 -0.003866 -0.000361 -0.005078 0.001049
# 2 -0.003921 0.010243 -0.001916 0.001754 0.001170 -0.001277
# 3 -0.003866 -0.001916 0.014212 -0.002421 0.001618 -0.001847
# 4 -0.000361 0.001754 -0.002421 0.026933 -0.000487 0.001283
# 5 -0.005078 0.001170 0.001618 -0.000487 0.026365 0.000969
# 6 0.001049 -0.001277 -0.001847 0.001283 0.000969 0.022810
#
#
# Mechanical properties :
#
#
# Convention : Reuss Voigt Hill
#
# Bulk Modulus (GPa) = 64.45635 72.01563 68.23599
# Shear Modulus (GPa) = 36.87124 39.95643 38.41383
#
# Velocity S-wave (km/s) = 4.02205 4.18694 4.10532
# Velocity P-wave (km/s) = 7.06036 7.41418 7.23943
#
# Compressibility (1/GPa) = 0.01551437
#
# Stress axis : x y z
#
# Youngs Moduli (GPa) = 95.54602 97.62919 70.36310
#
# Poissons Ratio (x) = 0.38281 0.27204
# Poissons Ratio (y) = 0.37464 0.13481
# Poissons Ratio (z) = 0.36941 0.18705
#
# Static dielectric constant tensor:
#      x y z
#    x 4.267350 0.084840 0.293400 
#    y 0.084840 4.352180 -0.037330 
#    z 0.293400 -0.037330 4.374090 
# 
# 
# High freq. dielectric constant tensor:
#      x y z
#    x 1.909890 0.002840 -0.001280 
#    y 0.002840 1.906450 -0.012280 
#    z -0.001280 -0.012280 1.907430 
# 
# From -- ./inp_files/336704.got.cif
#   From: 2010.06.25/outbox.cif.g09.slc.cpg/sg2_169_cif.got.tgz:336704.got - 2010.06.27 13:26:56.
