data_PCOD8032966
_publ_section_title
;
Structure prediction by ZEFSAII (Michael W. Deem and Ramdas Pophale) SiO2 
 PCOD8032966
Probable space group: P -1
;
_chemical_formula_sum "Si O2"
_cell_formula_units_Z 16
_cell_length_a 8.564234
_cell_length_b 15.547244
_cell_length_c 10.810510
_cell_angle_alpha 91.836647
_cell_angle_beta 68.739053
_cell_angle_gamma 142.165826
_cell_volume 736.884032
_symmetry_space_group_name_H-M "P -1"
_symmetry_group_IT_number 2
_symmetry_cell_setting 'triclinic'
loop_
_space_group_symop_operation_xyz
x,y,z
-x,-y,-z
loop_
_atom_site_type_symbol
_atom_site_label
_atom_site_fract_x
_atom_site_fract_y
_atom_site_fract_z
Si Si1 0.254994 0.487421 0.932823
Si Si2 0.935585 0.416850 0.396971
Si Si3 0.759762 0.358500 0.901211
Si Si4 0.145194 0.934437 0.409492
Si Si5 0.823729 0.170667 0.179237
Si Si6 0.261496 0.054073 0.876365
Si Si7 0.746685 0.894612 0.400173
Si Si8 0.125164 0.307535 0.348647
O O1 0.525173 0.563781 0.777591
O O2 0.984055 0.396945 0.917124
O O3 0.392484 0.631286 0.969740
O O4 0.100862 0.350952 0.062690
O O5 0.583479 0.261923 0.455605
O O6 0.000000 0.500000 0.500000
O O7 0.066664 0.514057 0.243293
O O8 0.098661 0.397406 0.374977
O O9 0.541145 0.196211 0.891578
O O10 0.956128 0.898478 0.350605
O O11 0.986979 0.777123 0.489410
O O12 0.491298 0.072957 0.268220
O O13 0.099546 0.967935 0.551394
O O14 0.899733 0.177860 0.298840
O O15 0.811388 0.078597 0.096622
O O16 0.311742 0.100740 0.722234
O O17 0.000000 0.000000 0.000000
#
# Coordination Sequence:
#
# PCOD8032966 Si02
#       8
#     2   2   2   2   2   2   2   2
#     4  11  26  45  73 100 131 181 229 279 325 402
#     4  12  24  43  68  96 134 177 221 274 337 400
#     4  11  25  46  68  97 140 174 223 276 341 395
#     4  11  24  42  72 101 128 173 227 281 324 395
#     4  12  24  44  71 100 137 176 229 275 333 400
#     4  12  27  43  67  98 141 179 218 274 347 398
#     4  11  23  44  69  98 133 173 222 275 337 395
#     4  12  23  43  71 101 132 175 233 271 331 402
#
# _framework density 21.713048000000001
#
# number of rings (size 3 to 8) (size 9 to 14) (size 15 to 20)
#    0.000    0.500    5.000    3.000    3.500    2.500 
#    2.250    1.250    0.000    0.000    0.000    0.000 
#    0.000    0.000    0.000    0.000    0.000    0.000 
#
# Total GULP energy -198370.159253 kJ/mol
# GULP energy per Si atom -12398.134953 kJ/mol
# Density = 2.166363 g / cm^3
# Si number density = 21.713048 Si / 1000 Ang^3
#
#
#
# Elastic Constant Matrix: (Units=GPa)
#
#
# Indices 1 2 3 4 5 6 
#
# 1 167.5359 99.3249 -79.6164 23.9401 -75.2616 8.9252
# 2 99.3249 152.2241 -40.7524 32.7103 -49.6717 -0.6082
# 3 -79.6164 -40.7524 128.9257 -16.6468 35.5898 -11.8840
# 4 23.9401 32.7103 -16.6468 43.4503 -8.2093 1.3556
# 5 -75.2616 -49.6717 35.5898 -8.2093 85.5404 -7.5438
# 6 8.9252 -0.6082 -11.8840 1.3556 -7.5438 32.8434
#
#
#
# Elastic Compliance Matrix: (Units=1/GPa)
#
#
# Indices 1 2 3 4 5 6 
#
# 1 0.016058 -0.006248 0.005600 -0.000455 0.008076 -0.000579
# 2 -0.006248 0.012174 -0.001016 -0.005873 0.001623 0.002171
# 3 0.005600 -0.001016 0.011373 0.001962 0.000013 0.002497
# 4 -0.000455 -0.005873 0.001962 0.028086 -0.002010 -0.000896
# 5 0.008076 0.001623 0.000013 -0.002010 0.019756 0.002461
# 6 -0.000579 0.002171 0.002497 -0.000896 0.002461 0.032151
#
#
# Mechanical properties :
#
#
# Convention : Reuss Voigt Hill
#
# Bulk Modulus (GPa) = 27.56617 45.17755 36.37186
# Shear Modulus (GPa) = 37.03176 63.68212 50.35694
#
# Velocity S-wave (km/s) = 4.13426 5.42150 4.82103
# Velocity P-wave (km/s) = 5.95925 7.74868 6.91212
#
# Compressibility (1/GPa) = 0.03627635
#
# Stress axis : x y z
#
# Youngs Moduli (GPa) = 62.27504 82.14181 87.92717
#
# Poissons Ratio (x) = 0.51321 -0.49239
# Poissons Ratio (y) = 0.38909 0.08937
# Poissons Ratio (z) = -0.34874 0.08349
#
# Static dielectric constant tensor:
#      x y z
#    x 4.328110 0.213150 0.285180 
#    y 0.213150 4.348380 0.278090 
#    z 0.285180 0.278090 4.388180 
# 
# 
# High freq. dielectric constant tensor:
#      x y z
#    x 1.867960 -0.005010 -0.003480 
#    y -0.005010 1.852240 -0.004560 
#    z -0.003480 -0.004560 1.855850 
# 
# From -- ./inp_files/399184.got.cif
#   From: 2010.06.25/outbox.cif.g09.slc.cpg/sg2_200_cif.got.tgz:399184.got - 2010.06.27 13:26:56.
