data_PCOD8032276
_publ_section_title
;
Structure prediction by ZEFSAII (Michael W. Deem and Ramdas Pophale) SiO2 
 PCOD8032276
Probable space group: P -1
;
_chemical_formula_sum "Si O2"
_cell_formula_units_Z 16
_cell_length_a 5.193927
_cell_length_b 11.627365
_cell_length_c 20.478996
_cell_angle_alpha 31.854954
_cell_angle_beta 105.203959
_cell_angle_gamma 102.743584
_cell_volume 629.874081
_symmetry_space_group_name_H-M "P -1"
_symmetry_group_IT_number 2
_symmetry_cell_setting 'triclinic'
loop_
_space_group_symop_operation_xyz
x,y,z
-x,-y,-z
loop_
_atom_site_type_symbol
_atom_site_label
_atom_site_fract_x
_atom_site_fract_y
_atom_site_fract_z
Si Si1 0.240793 0.656721 0.057838
Si Si2 0.103621 0.163960 0.269049
Si Si3 0.852132 0.163354 0.679246
Si Si4 0.674425 0.060451 0.398207
Si Si5 0.741495 0.498062 0.408459
Si Si6 0.698437 0.922024 0.906856
Si Si7 0.967739 0.331333 0.381436
Si Si8 0.303748 0.690239 0.191738
O O1 0.180090 0.415839 0.144036
O O2 0.388312 0.665139 0.134076
O O3 0.443207 0.764698 0.967487
O O4 0.968236 0.789123 0.979412
O O5 0.360552 0.037924 0.376401
O O6 0.843046 0.141653 0.307417
O O7 0.051985 0.052163 0.249622
O O8 0.672992 0.338059 0.541774
O O9 0.119065 0.280850 0.665341
O O10 0.669017 0.090460 0.763104
O O11 0.708330 0.233781 0.375471
O O12 0.780415 0.825614 0.541569
O O13 0.496132 0.560362 0.316525
O O14 0.940995 0.352428 0.447435
O O15 0.716769 0.058076 0.910047
O O16 0.018610 0.570240 0.238560
#
# Coordination Sequence:
#
# PCOD8032276 Si02
#       8
#     2   2   2   2   2   2   2   2
#     4  12  28  49  77 105 143 193 253 306 362 413
#     4  12  25  48  71 102 143 199 239 302 350 429
#     4  11  26  48  74 106 153 195 244 290 357 453
#     4  11  25  42  72 111 148 180 238 296 378 433
#     4  11  24  47  74 116 146 193 232 301 375 443
#     4  12  28  49  72 109 143 200 245 301 354 427
#     4  11  23  41  74 111 146 185 230 304 379 440
#     4  12  25  45  79 110 148 181 244 312 375 427
#
# _framework density 25.401900999999999
#
# number of rings (size 3 to 8) (size 9 to 14) (size 15 to 20)
#    0.000    0.500    3.750    3.750    1.750    4.500 
#    2.250    0.000    0.000    0.000    0.000    0.000 
#    0.000    0.000    0.000    0.000    0.000    0.000 
#
# Total GULP energy -198439.225513 kJ/mol
# GULP energy per Si atom -12402.451595 kJ/mol
# Density = 2.534409 g / cm^3
# Si number density = 25.401901 Si / 1000 Ang^3
#
#
#
# Elastic Constant Matrix: (Units=GPa)
#
#
# Indices 1 2 3 4 5 6 
#
# 1 91.5380 28.3684 34.6683 2.1909 -2.6892 -1.9908
# 2 28.3684 171.2469 51.5987 -20.8452 -11.1348 0.3298
# 3 34.6683 51.5987 91.1621 -3.4367 -33.3758 -4.4431
# 4 2.1909 -20.8452 -3.4367 45.7643 0.8729 -3.6502
# 5 -2.6892 -11.1348 -33.3758 0.8729 43.6171 0.4730
# 6 -1.9908 0.3298 -4.4431 -3.6502 0.4730 24.9315
#
#
#
# Elastic Compliance Matrix: (Units=1/GPa)
#
#
# Indices 1 2 3 4 5 6 
#
# 1 0.013437 -0.000787 -0.006230 -0.001403 -0.004110 -0.000154
# 2 -0.000787 0.007606 -0.004498 0.003157 -0.001607 -0.000472
# 3 -0.006230 -0.004498 0.021471 -0.000176 0.014868 0.003081
# 4 -0.001403 0.003157 -0.000176 0.023602 0.000077 0.003269
# 5 -0.004110 -0.001607 0.014868 0.000077 0.033620 0.001716
# 6 -0.000154 -0.000472 0.003081 0.003269 0.001716 0.041099
#
#
# Mechanical properties :
#
#
# Convention : Reuss Voigt Hill
#
# Bulk Modulus (GPa) = 51.32108 64.80197 58.06153
# Shear Modulus (GPa) = 29.34961 38.81668 34.08315
#
# Velocity S-wave (km/s) = 3.40282 3.91333 3.66697
# Velocity P-wave (km/s) = 5.97381 6.78122 6.39028
#
# Compressibility (1/GPa) = 0.01948517
#
# Stress axis : x y z
#
# Youngs Moduli (GPa) = 74.42061 131.47624 46.57349
#
# Poissons Ratio (x) = 0.10342 0.29015
# Poissons Ratio (y) = 0.05854 0.20950
# Poissons Ratio (z) = 0.46363 0.59141
#
# Static dielectric constant tensor:
#      x y z
#    x 4.263340 -0.084390 -0.174830 
#    y -0.084390 5.002350 -0.103200 
#    z -0.174830 -0.103200 4.683660 
# 
# 
# High freq. dielectric constant tensor:
#      x y z
#    x 2.002020 -0.001790 -0.011970 
#    y -0.001790 2.030170 -0.016320 
#    z -0.011970 -0.016320 2.017870 
# 
# From -- ./inp_files/98721.got.cif
#   From: 2010.06.25/outbox.cif.g09.slc.cpg/sg2_50_cif.got.tgz:98721.got - 2010.06.27 13:26:56.
