data_PCOD8032887
_publ_section_title
;
Structure prediction by ZEFSAII (Michael W. Deem and Ramdas Pophale) SiO2 
 PCOD8032887
Probable space group: P -1
;
_chemical_formula_sum "Si O2"
_cell_formula_units_Z 16
_cell_length_a 10.000340
_cell_length_b 9.824013
_cell_length_c 23.495387
_cell_angle_alpha 51.312326
_cell_angle_beta 155.690366
_cell_angle_gamma 123.729275
_cell_volume 740.980100
_symmetry_space_group_name_H-M "P -1"
_symmetry_group_IT_number 2
_symmetry_cell_setting 'triclinic'
loop_
_space_group_symop_operation_xyz
x,y,z
-x,-y,-z
loop_
_atom_site_type_symbol
_atom_site_label
_atom_site_fract_x
_atom_site_fract_y
_atom_site_fract_z
Si Si1 0.371242 0.618081 0.970155
Si Si2 0.695376 0.582809 0.893723
Si Si3 0.702815 0.235837 0.405703
Si Si4 0.371035 0.371982 0.351360
Si Si5 0.128703 0.061090 0.092841
Si Si6 0.466049 0.843598 0.417024
Si Si7 0.607794 0.739208 0.383004
Si Si8 0.762027 0.916997 0.081737
O O1 0.987785 0.660077 0.802874
O O2 0.500000 0.500000 0.000000
O O3 0.444052 0.551825 0.080133
O O4 0.587232 0.784862 0.006760
O O5 0.434301 0.643640 0.729963
O O6 0.766665 0.742040 0.922133
O O7 0.000000 0.500000 0.000000
O O8 0.626809 0.325305 0.413115
O O9 0.087214 0.235417 0.545717
O O10 0.566106 0.043950 0.402004
O O11 0.444299 0.241887 0.465729
O O12 0.407279 0.573953 0.329247
O O13 0.408461 0.922346 0.255206
O O14 0.863781 0.068167 0.038749
O O15 0.000000 0.000000 0.000000
O O16 0.670584 0.729184 0.478375
O O17 0.076702 0.834038 0.258943
O O18 0.500000 0.000000 0.000000
#
# Coordination Sequence:
#
# PCOD8032887 Si02
#       8
#     2   2   2   2   2   2   2   2
#     4  12  26  42  69 101 132 177 227 275 338 398
#     4  12  24  45  70  97 140 176 224 284 337 399
#     4  12  25  45  70 101 135 184 224 280 343 402
#     4  12  26  46  67 102 141 175 231 283 331 408
#     4  11  24  44  69  98 137 175 225 284 330 403
#     4  11  25  46  69  99 139 178 226 282 337 402
#     4  11  25  45  68 101 136 177 231 275 345 400
#     4  11  23  44  66  99 134 174 224 271 343 401
#
# _framework density 21.593022000000001
#
# number of rings (size 3 to 8) (size 9 to 14) (size 15 to 20)
#    0.000    0.500    3.750    6.000    3.500    2.000 
#    0.000    0.000    0.000    0.000    0.000    0.000 
#    0.000    0.000    0.000    0.000    0.000    0.000 
#
# Total GULP energy -198374.501681 kJ/mol
# GULP energy per Si atom -12398.406355 kJ/mol
# Density = 2.154387 g / cm^3
# Si number density = 21.593022 Si / 1000 Ang^3
#
#
#
# Elastic Constant Matrix: (Units=GPa)
#
#
# Indices 1 2 3 4 5 6 
#
# 1 136.5141 -0.5407 44.7652 -10.0534 -2.2148 -8.1374
# 2 -0.5407 77.1742 31.4038 5.9900 2.7888 -11.9238
# 3 44.7652 31.4038 83.5138 3.4510 -2.5720 11.7709
# 4 -10.0534 5.9900 3.4510 26.8268 -1.3928 0.8256
# 5 -2.2148 2.7888 -2.5720 -1.3928 42.9056 5.1991
# 6 -8.1374 -11.9238 11.7709 0.8256 5.1991 32.2187
#
#
#
# Elastic Compliance Matrix: (Units=1/GPa)
#
#
# Indices 1 2 3 4 5 6 
#
# 1 0.011031 0.004682 -0.008980 0.003944 -0.001100 0.007876
# 2 0.004682 0.020315 -0.012119 -0.001829 -0.003530 0.013745
# 3 -0.008980 -0.012119 0.023831 -0.003047 0.003588 -0.015961
# 4 0.003944 -0.001829 -0.003047 0.039622 0.001403 0.000191
# 5 -0.001100 -0.003530 0.003588 0.001403 0.024576 -0.006897
# 6 0.007876 0.013745 -0.015961 0.000191 -0.006897 0.045053
#
#
# Mechanical properties :
#
#
# Convention : Reuss Voigt Hill
#
# Bulk Modulus (GPa) = 44.75907 49.82873 47.29390
# Shear Modulus (GPa) = 24.42482 35.16181 29.79332
#
# Velocity S-wave (km/s) = 3.36690 4.03971 3.71855
# Velocity P-wave (km/s) = 5.99067 6.69966 6.35506
#
# Compressibility (1/GPa) = 0.02234184
#
# Stress axis : x y z
#
# Youngs Moduli (GPa) = 90.65683 49.22393 41.96238
#
# Poissons Ratio (x) = -0.23046 0.37683
# Poissons Ratio (y) = -0.42445 0.50856
# Poissons Ratio (z) = 0.81411 0.59656
#
# Static dielectric constant tensor:
#      x y z
#    x 3.745440 -0.180080 0.161380 
#    y -0.180080 3.808440 0.040410 
#    z 0.161380 0.040410 3.888440 
# 
# 
# High freq. dielectric constant tensor:
#      x y z
#    x 1.873530 -0.006660 -0.003050 
#    y -0.006660 1.859730 0.003390 
#    z -0.003050 0.003390 1.842510 
# 
# From -- ./inp_files/206447.got.cif
#   From: 2010.06.25/outbox.cif.g09.slc.cpg/sg2_104_cif.got.tgz:206447.got - 2010.06.27 13:26:56.
