data_PCOD8032041
_publ_section_title
;
Structure prediction by ZEFSAII (Michael W. Deem and Ramdas Pophale) SiO2 
 PCOD8032041
Probable space group: P -1
;
_chemical_formula_sum "Si O2"
_cell_formula_units_Z 14
_cell_length_a 12.362830
_cell_length_b 11.068055
_cell_length_c 11.852068
_cell_angle_alpha 84.800727
_cell_angle_beta 38.192486
_cell_angle_gamma 114.391416
_cell_volume 616.951817
_symmetry_space_group_name_H-M "P -1"
_symmetry_group_IT_number 2
_symmetry_cell_setting 'triclinic'
loop_
_space_group_symop_operation_xyz
x,y,z
-x,-y,-z
loop_
_atom_site_type_symbol
_atom_site_label
_atom_site_fract_x
_atom_site_fract_y
_atom_site_fract_z
Si Si1 0.022315 0.135023 0.655915
Si Si2 0.178163 0.324461 0.003786
Si Si3 0.799637 0.483471 0.226730
Si Si4 0.421531 0.623106 0.955550
Si Si5 0.189529 0.081984 0.730306
Si Si6 0.478995 0.677804 0.150801
Si Si7 0.025743 0.619244 0.275675
O O1 0.951904 0.238292 0.693795
O O2 0.259881 0.219984 0.364916
O O3 0.145876 0.170047 0.674089
O O4 0.723177 0.905968 0.901259
O O5 0.240312 0.417270 0.823624
O O6 0.179403 0.424519 0.094729
O O7 0.432542 0.372230 0.822606
O O8 0.887895 0.088117 0.254146
O O9 0.507796 0.251603 0.498966
O O10 0.926354 0.588619 0.232989
O O11 0.000000 0.500000 0.000000
O O12 0.408022 0.570106 0.100656
O O13 0.326688 0.713522 0.023512
O O14 0.000000 0.000000 0.000000
O O15 0.199514 0.582755 0.446927
#
# Coordination Sequence:
#
# PCOD8032041 Si02
#       7
#     2   2   2   2   2   2   2
#     4  11  24  45  67 101 132 181 225 274 340 395
#     4  11  23  43  69  97 132 181 218 273 340 391
#     4  12  23  44  65 100 139 171 220 279 335 399
#     4  12  24  48  68  99 140 178 226 275 337 401
#     4  11  23  40  67  99 131 178 228 269 334 404
#     4  11  25  46  70  99 134 178 229 278 332 400
#     4  12  25  44  70 100 138 175 224 280 336 398
#
# _framework density 22.692209999999999
#
# number of rings (size 3 to 8) (size 9 to 14) (size 15 to 20)
#    0.000    0.571    4.286    3.857    0.000    2.857 
#    7.714    0.000    0.000    0.000    0.000    0.000 
#    0.000    0.000    0.000    0.000    0.000    0.000 
#
# Total GULP energy -173561.786198 kJ/mol
# GULP energy per Si atom -12397.270443 kJ/mol
# Density = 2.264056 g / cm^3
# Si number density = 22.692210 Si / 1000 Ang^3
#
#
#
# Elastic Constant Matrix: (Units=GPa)
#
#
# Indices 1 2 3 4 5 6 
#
# 1 69.6827 32.7043 30.9164 0.8016 9.0599 6.1923
# 2 32.7043 99.8113 59.3576 10.8893 -8.8313 -15.0601
# 3 30.9164 59.3576 126.5286 12.8476 1.2171 -12.1836
# 4 0.8016 10.8893 12.8476 30.7950 1.8611 2.8368
# 5 9.0599 -8.8313 1.2171 1.8611 30.4782 7.7530
# 6 6.1923 -15.0601 -12.1836 2.8368 7.7530 33.8118
#
#
#
# Elastic Compliance Matrix: (Units=1/GPa)
#
#
# Indices 1 2 3 4 5 6 
#
# 1 0.020235 -0.007110 -0.002601 0.004080 -0.006528 -0.006656
# 2 -0.007110 0.017612 -0.005518 -0.004678 0.006161 0.006138
# 3 -0.002601 -0.005518 0.011735 -0.003035 -0.001854 0.002927
# 4 0.004080 -0.004678 -0.003035 0.036047 -0.003059 -0.006247
# 5 -0.006528 0.006161 -0.001854 -0.003059 0.038123 -0.005213
# 6 -0.006656 0.006138 0.002927 -0.006247 -0.005213 0.036302
#
#
# Mechanical properties :
#
#
# Convention : Reuss Voigt Hill
#
# Bulk Modulus (GPa) = 52.29171 60.21991 56.25581
# Shear Modulus (GPa) = 25.39509 30.55330 27.97420
#
# Velocity S-wave (km/s) = 3.34894 3.67334 3.51489
# Velocity P-wave (km/s) = 6.16829 6.67732 6.42785
#
# Compressibility (1/GPa) = 0.01912349
#
# Stress axis : x y z
#
# Youngs Moduli (GPa) = 49.41902 56.77960 85.21276
#
# Poissons Ratio (x) = 0.40372 0.22165
# Poissons Ratio (y) = 0.35139 0.47020
# Poissons Ratio (z) = 0.12854 0.31331
#
# Static dielectric constant tensor:
#      x y z
#    x 4.296040 0.003240 0.109630 
#    y 0.003240 4.271770 -0.177170 
#    z 0.109630 -0.177170 4.160110 
# 
# 
# High freq. dielectric constant tensor:
#      x y z
#    x 1.905980 0.009930 0.006310 
#    y 0.009930 1.893190 0.001450 
#    z 0.006310 0.001450 1.892520 
# 
# From -- ./inp_files/428073.got.cif
#   From: 2010.06.25/outbox.cif.g09.slc.cpg/sg2_215_cif.got.tgz:428073.got - 2010.06.27 13:26:56.
