data_PCOD8032917
_publ_section_title
;
Structure prediction by ZEFSAII (Michael W. Deem and Ramdas Pophale) SiO2 
 PCOD8032917
Probable space group: P -1
;
_chemical_formula_sum "Si O2"
_cell_formula_units_Z 16
_cell_length_a 18.475708
_cell_length_b 12.835612
_cell_length_c 9.224872
_cell_angle_alpha 143.929334
_cell_angle_beta 105.013165
_cell_angle_gamma 48.502501
_cell_volume 751.503815
_symmetry_space_group_name_H-M "P -1"
_symmetry_group_IT_number 2
_symmetry_cell_setting 'triclinic'
loop_
_space_group_symop_operation_xyz
x,y,z
-x,-y,-z
loop_
_atom_site_type_symbol
_atom_site_label
_atom_site_fract_x
_atom_site_fract_y
_atom_site_fract_z
Si Si1 0.059783 0.795084 0.942751
Si Si2 0.614386 0.314582 0.241356
Si Si3 0.678936 0.843727 0.602431
Si Si4 0.298640 0.211501 0.782243
Si Si5 0.098990 0.226610 0.131554
Si Si6 0.876154 0.159907 0.680933
Si Si7 0.128371 0.228638 0.832002
Si Si8 0.526027 0.848873 0.694268
O O1 0.178924 0.439050 0.580130
O O2 0.949891 0.880430 0.045875
O O3 0.109610 0.844928 0.141884
O O4 0.000000 0.000000 0.000000
O O5 0.500000 0.500000 0.500000
O O6 0.594388 0.534632 0.396204
O O7 0.608525 0.153035 0.958669
O O8 0.756322 0.057571 0.076826
O O9 0.657822 0.895622 0.479074
O O10 0.611442 0.799927 0.578626
O O11 0.226166 0.173510 0.749011
O O12 0.400367 0.044485 0.768186
O O13 0.223954 0.532360 0.103995
O O14 0.000000 0.500000 0.500000
O O15 0.103057 0.325738 0.095234
O O16 0.832699 0.045972 0.488161
O O17 0.000000 0.000000 0.500000
O O18 0.000000 0.500000 0.000000
O O19 0.500000 0.000000 0.000000
#
# Coordination Sequence:
#
# PCOD8032917 Si02
#       8
#     2   2   2   2   2   2   2   2
#     4  11  24  43  71 108 143 189 234 302 368 431
#     4  12  26  47  73 107 147 193 246 302 366 433
#     4  11  25  49  72 103 149 185 250 303 363 434
#     4  11  27  46  72 104 145 191 241 304 368 437
#     4  12  26  44  73 106 148 187 242 304 360 433
#     4  11  23  44  68 102 144 184 236 297 363 429
#     4  12  25  43  72 105 146 191 240 298 368 436
#     4  12  27  46  73 104 142 195 246 299 362 440
#
# _framework density 21.290645000000001
#
# number of rings (size 3 to 8) (size 9 to 14) (size 15 to 20)
#    0.000    0.500    5.000    2.625    3.500    4.500 
#    0.000    0.000    0.000    0.000    0.000    0.000 
#    0.000    0.000    0.000    0.000    0.000    0.000 
#
# Total GULP energy -198228.219516 kJ/mol
# GULP energy per Si atom -12389.263720 kJ/mol
# Density = 2.124219 g / cm^3
# Si number density = 21.290645 Si / 1000 Ang^3
#
#
#
# Elastic Constant Matrix: (Units=GPa)
#
#
# Indices 1 2 3 4 5 6 
#
# 1 181.1324 65.6783 67.6075 -1.7123 -1.9670 8.7686
# 2 65.6783 169.9799 72.7830 6.5513 -3.7591 1.4464
# 3 67.6075 72.7830 158.2684 4.8580 7.1340 4.5913
# 4 -1.7123 6.5513 4.8580 31.9280 6.0957 -11.2602
# 5 -1.9670 -3.7591 7.1340 6.0957 44.0813 7.7965
# 6 8.7686 1.4464 4.5913 -11.2602 7.7965 43.3369
#
#
#
# Elastic Compliance Matrix: (Units=1/GPa)
#
#
# Indices 1 2 3 4 5 6 
#
# 1 0.007056 -0.001778 -0.002211 0.000570 0.000637 -0.001101
# 2 -0.001778 0.007895 -0.002873 -0.001624 0.001329 -0.000260
# 3 -0.002211 -0.002873 0.008684 -0.000629 -0.001618 -0.000249
# 4 0.000570 -0.001624 -0.000629 0.036961 -0.007046 0.010877
# 5 0.000637 0.001329 -0.001618 -0.007046 0.025189 -0.006364
# 6 -0.001101 -0.000260 -0.000249 0.010877 -0.006364 0.027304
#
#
# Mechanical properties :
#
#
# Convention : Reuss Voigt Hill
#
# Bulk Modulus (GPa) = 100.91162 102.39092 101.65127
# Shear Modulus (GPa) = 38.42692 44.09002 41.25847
#
# Velocity S-wave (km/s) = 4.25299 4.55561 4.40690
# Velocity P-wave (km/s) = 8.46270 8.71021 8.58735
#
# Compressibility (1/GPa) = 0.00990966
#
# Stress axis : x y z
#
# Youngs Moduli (GPa) = 141.71501 126.66618 115.15962
#
# Poissons Ratio (x) = 0.22527 0.25458
# Poissons Ratio (y) = 0.25203 0.33090
# Poissons Ratio (z) = 0.31329 0.36396
#
# Static dielectric constant tensor:
#      x y z
#    x 4.078490 -0.019490 0.096790 
#    y -0.019490 4.011830 -0.104900 
#    z 0.096790 -0.104900 4.145770 
# 
# 
# High freq. dielectric constant tensor:
#      x y z
#    x 1.855630 0.000200 0.001300 
#    y 0.000200 1.846150 0.002460 
#    z 0.001300 0.002460 1.844260 
# 
# From -- ./inp_files/285752.got.cif
#   From: 2010.06.25/outbox.cif.g09.slc.cpg/sg2_143_cif.got.tgz:285752.got - 2010.06.27 13:26:56.
