data_PCOD8032014
_publ_section_title
;
Structure prediction by ZEFSAII (Michael W. Deem and Ramdas Pophale) SiO2 
 PCOD8032014
Probable space group: P -1
;
_chemical_formula_sum "Si O2"
_cell_formula_units_Z 16
_cell_length_a 25.567045
_cell_length_b 25.534917
_cell_length_c 8.548499
_cell_angle_alpha 134.258454
_cell_angle_beta 134.438647
_cell_angle_gamma 10.989528
_cell_volume 757.312492
_symmetry_space_group_name_H-M "P -1"
_symmetry_group_IT_number 2
_symmetry_cell_setting 'triclinic'
loop_
_space_group_symop_operation_xyz
x,y,z
-x,-y,-z
loop_
_atom_site_type_symbol
_atom_site_label
_atom_site_fract_x
_atom_site_fract_y
_atom_site_fract_z
Si Si1 0.348702 0.224114 0.272951
Si Si2 0.778060 0.413830 0.631264
Si Si3 0.936427 0.264416 0.011562
Si Si4 0.847793 0.735133 0.083783
Si Si5 0.932322 0.102825 0.734775
Si Si6 0.688280 0.045464 0.353778
Si Si7 0.528654 0.195431 0.693038
Si Si8 0.597743 0.426682 0.222195
O O1 0.382670 0.256448 0.538586
O O2 0.162890 0.433763 0.175935
O O3 0.655060 0.911853 0.201675
O O4 0.210693 0.282827 0.178248
O O5 0.582420 0.670529 0.715994
O O6 0.619494 0.492703 0.420084
O O7 0.844055 0.353523 0.825746
O O8 0.057680 0.146738 0.559401
O O9 0.007753 0.115071 0.908844
O O10 0.693699 0.528382 0.162303
O O11 0.212472 0.047192 0.153870
O O12 0.771960 0.881934 0.137807
O O13 0.611792 0.400826 0.725192
O O14 0.000000 0.000000 0.500000
O O15 0.110030 0.893670 0.806464
O O16 0.636817 0.100571 0.545276
O O17 0.500000 0.500000 0.000000
#
# Coordination Sequence:
#
# PCOD8032014 Si02
#       8
#     2   2   2   2   2   2   2   2
#     4   9  17  33  58  92 127 154 204 258 301 355
#     4  12  26  43  63  90 131 167 200 254 322 378
#     4  12  26  42  65  89 126 170 203 256 312 375
#     4   9  17  33  59  91 125 162 197 254 311 354
#     4  12  26  48  68  89 122 167 215 251 306 385
#     4  11  23  40  65  94 126 161 210 257 308 369
#     4  11  23  40  65  97 123 161 214 259 304 360
#     4  12  28  46  67  95 123 159 207 268 317 360
#
# _framework density 21.12734
#
# number of rings (size 3 to 8) (size 9 to 14) (size 15 to 20)
#    0.000    1.000    1.250    6.750    7.000    0.000 
#    0.000    0.000    0.000    4.500    0.000    0.000 
#    0.000    0.000    0.000    0.000    0.000    0.000 
#
# Total GULP energy -198431.580270 kJ/mol
# GULP energy per Si atom -12401.973767 kJ/mol
# Density = 2.107925 g / cm^3
# Si number density = 21.127340 Si / 1000 Ang^3
#
#
#
# Elastic Constant Matrix: (Units=GPa)
#
#
# Indices 1 2 3 4 5 6 
#
# 1 62.4510 14.5074 58.5766 -0.5311 10.7590 13.7804
# 2 14.5074 94.2437 28.1457 6.4175 7.4194 4.6889
# 3 58.5766 28.1457 133.1417 -1.8193 21.5315 -1.8172
# 4 -0.5311 6.4175 -1.8193 31.6855 -3.8188 5.7812
# 5 10.7590 7.4194 21.5315 -3.8188 22.9720 3.8380
# 6 13.7804 4.6889 -1.8172 5.7812 3.8380 39.1496
#
#
#
# Elastic Compliance Matrix: (Units=1/GPa)
#
#
# Indices 1 2 3 4 5 6 
#
# 1 0.032141 -0.000258 -0.014375 0.002131 0.000922 -0.012355
# 2 -0.000258 0.011642 -0.002073 -0.002570 -0.001986 -0.000826
# 3 -0.014375 -0.002073 0.015772 -0.001266 -0.008776 0.007087
# 4 0.002131 -0.002570 -0.001266 0.034127 0.007745 -0.006300
# 5 0.000922 -0.001986 -0.008776 0.007745 0.054419 -0.006972
# 6 -0.012355 -0.000826 0.007087 -0.006300 -0.006972 0.031934
#
#
# Mechanical properties :
#
#
# Convention : Reuss Voigt Hill
#
# Bulk Modulus (GPa) = 38.24961 54.69953 46.47457
# Shear Modulus (GPa) = 22.50648 31.33520 26.92084
#
# Velocity S-wave (km/s) = 3.26740 3.85536 3.57349
# Velocity P-wave (km/s) = 5.69018 6.76498 6.25073
#
# Compressibility (1/GPa) = 0.02614405
#
# Stress axis : x y z
#
# Youngs Moduli (GPa) = 31.11316 85.89633 63.40416
#
# Poissons Ratio (x) = 0.02213 0.91141
# Poissons Ratio (y) = 0.00801 0.13144
# Poissons Ratio (z) = 0.44724 0.17806
#
# Static dielectric constant tensor:
#      x y z
#    x 3.650130 -0.357060 0.391760 
#    y -0.357060 2.877770 -0.082460 
#    z 0.391760 -0.082460 4.007230 
# 
# 
# High freq. dielectric constant tensor:
#      x y z
#    x 1.804610 -0.000250 0.030310 
#    y -0.000250 1.854690 -0.000210 
#    z 0.030310 -0.000210 1.826980 
# 
# From -- ./inp_files/223538.got.cif
#   From: 2010.06.25/outbox.cif.g09.slc.cpg/sg2_112_cif.got.tgz:223538.got - 2010.06.27 13:26:56.
