data_PCOD8032582
_publ_section_title
;
Structure prediction by ZEFSAII (Michael W. Deem and Ramdas Pophale) SiO2 
 PCOD8032582
Probable space group: P -1
;
_chemical_formula_sum "Si O2"
_cell_formula_units_Z 16
_cell_length_a 18.328724
_cell_length_b 6.675878
_cell_length_c 9.031249
_cell_angle_alpha 90.139906
_cell_angle_beta 82.603234
_cell_angle_gamma 47.416822
_cell_volume 800.793030
_symmetry_space_group_name_H-M "P -1"
_symmetry_group_IT_number 2
_symmetry_cell_setting 'triclinic'
loop_
_space_group_symop_operation_xyz
x,y,z
-x,-y,-z
loop_
_atom_site_type_symbol
_atom_site_label
_atom_site_fract_x
_atom_site_fract_y
_atom_site_fract_z
Si Si1 0.725631 0.714308 0.033824
Si Si2 0.596443 0.248067 0.886990
Si Si3 0.521619 0.264481 0.588260
Si Si4 0.161480 0.724740 0.486903
Si Si5 0.978241 0.341382 0.593334
Si Si6 0.347443 0.279887 0.634048
Si Si7 0.092143 0.358984 0.083973
Si Si8 0.226728 0.766448 0.156372
O O1 0.675766 0.784455 0.206347
O O2 0.820742 0.684604 0.025575
O O3 0.759648 0.438024 0.962309
O O4 0.642389 0.964617 0.948547
O O5 0.569690 0.241799 0.728319
O O6 0.674163 0.284717 0.867374
O O7 0.500000 0.500000 0.000000
O O8 0.500000 0.500000 0.500000
O O9 0.418471 0.338096 0.644269
O O10 0.601658 0.976093 0.485662
O O11 0.111130 0.604042 0.469546
O O12 0.245665 0.548184 0.588583
O O13 0.209058 0.720928 0.325164
O O14 0.079049 0.025560 0.576618
O O15 0.942021 0.445647 0.768534
O O16 0.000000 0.500000 0.500000
O O17 0.130342 0.072177 0.129101
O O18 0.000000 0.500000 0.000000
#
# Coordination Sequence:
#
# PCOD8032582 Si02
#       8
#     2   2   2   2   2   2   2   2
#     4  11  25  44  64  95 134 167 216 259 324 389
#     4  11  24  43  69  95 130 170 210 265 321 386
#     4  11  24  44  67  97 131 165 217 266 317 379
#     4  11  24  42  67  94 127 170 216 263 317 379
#     4  11  24  43  66  95 128 172 217 261 321 381
#     4  11  26  41  66  99 128 171 211 266 321 376
#     4  11  26  43  65  97 132 168 214 268 320 381
#     4  11  23  43  66  94 125 174 212 259 324 379
#
# _framework density 19.980194000000001
#
# number of rings (size 3 to 8) (size 9 to 14) (size 15 to 20)
#    0.000    1.000    2.500    3.000    5.250    6.500 
#    0.000    0.000    0.000    0.000    0.000    0.000 
#    0.000    0.000    0.000    0.000    0.000    0.000 
#
# Total GULP energy -198517.250649 kJ/mol
# GULP energy per Si atom -12407.328166 kJ/mol
# Density = 1.993472 g / cm^3
# Si number density = 19.980194 Si / 1000 Ang^3
#
#
#
# Elastic Constant Matrix: (Units=GPa)
#
#
# Indices 1 2 3 4 5 6 
#
# 1 98.5510 58.5061 40.6292 -20.0686 -2.5170 -6.7955
# 2 58.5061 107.1734 44.3163 -9.7544 9.5904 -4.8253
# 3 40.6292 44.3163 111.9103 -14.3935 -7.5606 -3.9499
# 4 -20.0686 -9.7544 -14.3935 41.4110 -0.6167 1.5187
# 5 -2.5170 9.5904 -7.5606 -0.6167 39.9177 -4.7203
# 6 -6.7955 -4.8253 -3.9499 1.5187 -4.7203 38.0983
#
#
#
# Elastic Compliance Matrix: (Units=1/GPa)
#
#
# Indices 1 2 3 4 5 6 
#
# 1 0.017236 -0.008251 -0.001985 0.005692 0.003014 0.001970
# 2 -0.008251 0.015685 -0.003791 -0.001681 -0.005085 -0.000441
# 3 -0.001985 -0.003791 0.011678 0.002226 0.003111 0.000673
# 4 0.005692 -0.001681 0.002226 0.027303 0.001623 0.000146
# 5 0.003014 -0.005085 0.003111 0.001623 0.027498 0.003558
# 6 0.001970 -0.000441 0.000673 0.000146 0.003558 0.027048
#
#
# Mechanical properties :
#
#
# Convention : Reuss Voigt Hill
#
# Bulk Modulus (GPa) = 60.44329 67.17090 63.80709
# Shear Modulus (GPa) = 31.24687 35.49761 33.37224
#
# Velocity S-wave (km/s) = 3.95890 4.21959 4.09132
# Velocity P-wave (km/s) = 7.15643 7.57837 7.37042
#
# Compressibility (1/GPa) = 0.01654443
#
# Stress axis : x y z
#
# Youngs Moduli (GPa) = 58.01931 63.75647 85.63353
#
# Poissons Ratio (x) = 0.52607 0.16996
# Poissons Ratio (y) = 0.47873 0.32462
# Poissons Ratio (z) = 0.11515 0.24169
#
# Static dielectric constant tensor:
#      x y z
#    x 3.839550 0.026680 -0.114110 
#    y 0.026680 3.820870 0.073110 
#    z -0.114110 0.073110 3.710070 
# 
# 
# High freq. dielectric constant tensor:
#      x y z
#    x 1.795830 0.001480 -0.006500 
#    y 0.001480 1.796360 0.004090 
#    z -0.006500 0.004090 1.792780 
# 
# From -- ./inp_files/37331.got.cif
#   From: 2010.06.25/outbox.cif.g09.slc.cpg/sg2_19_cif.got.tgz:37331.got - 2010.06.27 13:26:56.
