data_PCOD8032693
_publ_section_title
;
Structure prediction by ZEFSAII (Michael W. Deem and Ramdas Pophale) SiO2 
 PCOD8032693
Probable space group: P -1
;
_chemical_formula_sum "Si O2"
_cell_formula_units_Z 14
_cell_length_a 9.941402
_cell_length_b 21.857731
_cell_length_c 9.120746
_cell_angle_alpha 46.202026
_cell_angle_beta 127.842646
_cell_angle_gamma 154.059953
_cell_volume 625.500099
_symmetry_space_group_name_H-M "P -1"
_symmetry_group_IT_number 2
_symmetry_cell_setting 'triclinic'
loop_
_space_group_symop_operation_xyz
x,y,z
-x,-y,-z
loop_
_atom_site_type_symbol
_atom_site_label
_atom_site_fract_x
_atom_site_fract_y
_atom_site_fract_z
Si Si1 0.400964 0.929680 0.890914
Si Si2 0.744310 0.365629 0.391588
Si Si3 0.331850 0.098151 0.053944
Si Si4 0.236066 0.362397 0.441371
Si Si5 0.210059 0.421078 0.011685
Si Si6 0.418553 0.852873 0.550078
Si Si7 0.424409 0.660216 0.372219
O O1 0.673844 0.981639 0.931641
O O2 0.086104 0.745836 0.982770
O O3 0.361914 0.994616 0.650465
O O4 0.500000 0.000000 0.000000
O O5 0.585870 0.240588 0.374039
O O6 0.540863 0.277682 0.550418
O O7 0.093719 0.475643 0.465022
O O8 0.779534 0.475323 0.178904
O O9 0.439798 0.103526 0.269361
O O10 0.567719 0.268176 0.873024
O O11 0.000000 0.000000 0.000000
O O12 0.500000 0.500000 0.500000
O O13 0.223302 0.417442 0.201026
O O14 0.301337 0.293396 0.546012
O O15 0.909779 0.235884 0.513703
O O16 0.500000 0.500000 0.000000
#
# Coordination Sequence:
#
# PCOD8032693 Si02
#       7
#     2   2   2   2   2   2   2
#     4  12  28  50  75 105 152 198 247 303 373 442
#     4  11  24  45  74 101 145 184 241 298 363 437
#     4  12  27  47  72 102 149 192 247 305 367 432
#     4  12  25  42  76 107 150 186 249 303 377 432
#     4  12  27  48  75 109 149 195 248 303 369 447
#     4  12  27  47  74 108 147 191 247 309 369 435
#     4  11  23  43  70 102 140 185 236 292 363 430
#
# _framework density 22.382090999999999
#
# number of rings (size 3 to 8) (size 9 to 14) (size 15 to 20)
#    0.000    0.286    5.714    2.143    8.000    2.286 
#    0.000    2.143    0.000    0.000    0.000    0.000 
#    0.000    0.000    0.000    0.000    0.000    0.000 
#
# Total GULP energy -173620.638452 kJ/mol
# GULP energy per Si atom -12401.474175 kJ/mol
# Density = 2.233115 g / cm^3
# Si number density = 22.382091 Si / 1000 Ang^3
#
#
#
# Elastic Constant Matrix: (Units=GPa)
#
#
# Indices 1 2 3 4 5 6 
#
# 1 164.9248 67.5598 44.6556 1.5780 4.6920 -8.1544
# 2 67.5598 94.8394 28.7606 8.5949 4.5538 -2.1617
# 3 44.6556 28.7606 142.7566 -1.8350 3.9329 -5.9342
# 4 1.5780 8.5949 -1.8350 39.6387 -7.0194 0.2399
# 5 4.6920 4.5538 3.9329 -7.0194 37.7639 4.9421
# 6 -8.1544 -2.1617 -5.9342 0.2399 4.9421 33.0472
#
#
#
# Elastic Compliance Matrix: (Units=1/GPa)
#
#
# Indices 1 2 3 4 5 6 
#
# 1 0.009003 -0.005972 -0.001528 0.000803 -0.000299 0.001595
# 2 -0.005972 0.015571 -0.001287 -0.003478 -0.001593 -0.000423
# 3 -0.001528 -0.001287 0.007805 0.000609 -0.000487 0.001009
# 4 0.000803 -0.003478 0.000609 0.026937 0.005384 -0.000921
# 5 -0.000299 -0.001593 -0.000487 0.005384 0.028356 -0.004545
# 6 0.001595 -0.000423 0.001009 -0.000921 -0.004545 0.031493
#
#
# Mechanical properties :
#
#
# Convention : Reuss Voigt Hill
#
# Bulk Modulus (GPa) = 67.54825 76.05254 71.80039
# Shear Modulus (GPa) = 35.29183 39.52626 37.40904
#
# Velocity S-wave (km/s) = 3.97519 4.20691 4.09269
# Velocity P-wave (km/s) = 7.16342 7.59279 7.38123
#
# Compressibility (1/GPa) = 0.01480423
#
# Stress axis : x y z
#
# Youngs Moduli (GPa) = 111.06999 64.22237 128.11513
#
# Poissons Ratio (x) = 0.38355 0.19579
# Poissons Ratio (y) = 0.66334 0.16491
# Poissons Ratio (z) = 0.16974 0.08267
#
# Static dielectric constant tensor:
#      x y z
#    x 4.593170 0.249000 0.077840 
#    y 0.249000 3.996960 -0.082110 
#    z 0.077840 -0.082110 4.510930 
# 
# 
# High freq. dielectric constant tensor:
#      x y z
#    x 1.903090 0.005260 -0.001050 
#    y 0.005260 1.865920 -0.002440 
#    z -0.001050 -0.002440 1.899860 
# 
# From -- ./inp_files/223275.got.cif
#   From: 2010.06.25/outbox.cif.g09.slc.cpg/sg2_112_cif.got.tgz:223275.got - 2010.06.27 13:26:56.
