data_PCOD8032503
_publ_section_title
;
Structure prediction by ZEFSAII (Michael W. Deem and Ramdas Pophale) SiO2 
 PCOD8032503
Probable space group: P -1
;
_chemical_formula_sum "Si O2"
_cell_formula_units_Z 14
_cell_length_a 9.077427
_cell_length_b 10.113134
_cell_length_c 18.246725
_cell_angle_alpha 124.909733
_cell_angle_beta 149.838184
_cell_angle_gamma 50.968097
_cell_volume 652.114115
_symmetry_space_group_name_H-M "P -1"
_symmetry_group_IT_number 2
_symmetry_cell_setting 'triclinic'
loop_
_space_group_symop_operation_xyz
x,y,z
-x,-y,-z
loop_
_atom_site_type_symbol
_atom_site_label
_atom_site_fract_x
_atom_site_fract_y
_atom_site_fract_z
Si Si1 0.190010 0.024673 0.019135
Si Si2 0.129075 0.652117 0.624355
Si Si3 0.722123 0.975994 0.464054
Si Si4 0.054278 0.194615 0.254083
Si Si5 0.854783 0.489726 0.155325
Si Si6 0.835780 0.596201 0.888378
Si Si7 0.795359 0.842416 0.298359
O O1 0.117956 0.221388 0.033186
O O2 0.553957 0.936954 0.162192
O O3 0.000000 0.000000 0.000000
O O4 0.115894 0.938021 0.886320
O O5 0.479055 0.605837 0.731779
O O6 0.000000 0.500000 0.500000
O O7 0.915238 0.827835 0.553326
O O8 0.130658 0.682345 0.721764
O O9 0.645502 0.894923 0.330503
O O10 0.397693 0.087388 0.395798
O O11 0.897279 0.108922 0.563147
O O12 0.061998 0.312199 0.224617
O O13 0.885409 0.640094 0.267073
O O14 0.989771 0.508207 0.139838
O O15 0.500000 0.500000 0.000000
O O16 0.000000 0.500000 0.000000
#
# Coordination Sequence:
#
# PCOD8032503 Si02
#       7
#     2   2   2   2   2   2   2
#     4  12  22  47  75 104 140 185 244 298 347 426
#     4  12  29  49  67 105 152 185 237 301 360 425
#     4  11  25  45  69 102 140 187 233 290 362 421
#     4  12  26  44  77 101 139 195 238 289 361 427
#     4  12  24  44  73 107 138 183 241 294 358 418
#     4  12  28  46  73 107 146 190 237 298 360 420
#     4  11  23  42  73 101 139 179 240 295 346 430
#
# _framework density 21.468634999999999
#
# number of rings (size 3 to 8) (size 9 to 14) (size 15 to 20)
#    0.000    0.286    5.714    2.143    6.000    2.286 
#    0.000    0.000    0.000    0.000    0.000    0.000 
#    0.000    0.000    0.000    0.000    0.000    0.000 
#
# Total GULP energy -173701.188714 kJ/mol
# GULP energy per Si atom -12407.227765 kJ/mol
# Density = 2.141977 g / cm^3
# Si number density = 21.468635 Si / 1000 Ang^3
#
#
#
# Elastic Constant Matrix: (Units=GPa)
#
#
# Indices 1 2 3 4 5 6 
#
# 1 121.6979 26.7795 53.1034 7.8602 7.2768 -9.1353
# 2 26.7795 128.5165 51.0378 8.8612 4.8926 6.5896
# 3 53.1034 51.0378 122.5753 6.6988 3.6583 -8.3208
# 4 7.8602 8.8612 6.6988 59.7056 -7.2635 -6.5232
# 5 7.2768 4.8926 3.6583 -7.2635 29.3978 -2.5676
# 6 -9.1353 6.5896 -8.3208 -6.5232 -2.5676 37.8231
#
#
#
# Elastic Compliance Matrix: (Units=1/GPa)
#
#
# Indices 1 2 3 4 5 6 
#
# 1 0.010400 -0.000463 -0.004105 -0.000944 -0.002099 0.001384
# 2 -0.000463 0.009764 -0.003942 -0.001480 -0.001652 -0.003047
# 3 -0.004105 -0.003942 0.011716 0.000119 0.000447 0.002324
# 4 -0.000944 -0.001480 0.000119 0.018104 0.005247 0.003534
# 5 -0.002099 -0.001652 0.000447 0.005247 0.036335 0.003251
# 6 0.001384 -0.003047 0.002324 0.003534 0.003251 0.028646
#
#
# Mechanical properties :
#
#
# Convention : Reuss Voigt Hill
#
# Bulk Modulus (GPa) = 67.28895 70.51456 68.90175
# Shear Modulus (GPa) = 36.51292 41.50990 39.01141
#
# Velocity S-wave (km/s) = 4.12850 4.40194 4.26741
# Velocity P-wave (km/s) = 7.35778 7.66504 7.51298
#
# Compressibility (1/GPa) = 0.01486128
#
# Stress axis : x y z
#
# Youngs Moduli (GPa) = 96.14925 102.41583 85.35554
#
# Poissons Ratio (x) = 0.04742 0.35037
# Poissons Ratio (y) = 0.04452 0.33644
# Poissons Ratio (z) = 0.39467 0.40369
#
# Static dielectric constant tensor:
#      x y z
#    x 4.008200 0.071990 -0.028940 
#    y 0.071990 4.076400 0.060580 
#    z -0.028940 0.060580 4.041530 
# 
# 
# High freq. dielectric constant tensor:
#      x y z
#    x 1.840080 -0.005540 -0.002500 
#    y -0.005540 1.855610 0.001320 
#    z -0.002500 0.001320 1.856810 
# 
# From -- ./inp_files/157344.got.cif
#   From: 2010.06.25/outbox.cif.g09.slc.cpg/sg2_79_cif.got.tgz:157344.got - 2010.06.27 13:26:56.
