data_PCOD8032134
_publ_section_title
;
Structure prediction by ZEFSAII (Michael W. Deem and Ramdas Pophale) SiO2 
 PCOD8032134
Probable space group: P -1
;
_chemical_formula_sum "Si O2"
_cell_formula_units_Z 14
_cell_length_a 8.653343
_cell_length_b 9.234832
_cell_length_c 22.237056
_cell_angle_alpha 43.126583
_cell_angle_beta 55.241578
_cell_angle_gamma 31.734899
_cell_volume 632.605022
_symmetry_space_group_name_H-M "P -1"
_symmetry_group_IT_number 2
_symmetry_cell_setting 'triclinic'
loop_
_space_group_symop_operation_xyz
x,y,z
-x,-y,-z
loop_
_atom_site_type_symbol
_atom_site_label
_atom_site_fract_x
_atom_site_fract_y
_atom_site_fract_z
Si Si1 0.814263 0.464969 0.577310
Si Si2 0.381526 0.302497 0.748174
Si Si3 0.852766 0.537576 0.854865
Si Si4 0.331608 0.662010 0.548543
Si Si5 0.430277 0.563157 0.136398
Si Si6 0.599752 0.292947 0.307599
Si Si7 0.035883 0.687919 0.969649
O O1 0.516411 0.676854 0.540534
O O2 0.661695 0.627750 0.628215
O O3 0.000000 0.500000 0.500000
O O4 0.059646 0.064283 0.642911
O O5 0.331810 0.440797 0.651033
O O6 0.456955 0.421002 0.742726
O O7 0.094521 0.426585 0.792353
O O8 0.641733 0.908307 0.810086
O O9 0.714461 0.474595 0.865143
O O10 0.984655 0.322320 0.951137
O O11 0.500000 0.500000 0.500000
O O12 0.000000 0.000000 0.500000
O O13 0.577757 0.303733 0.237099
O O14 0.654684 0.491870 0.066241
O O15 0.213187 0.920689 0.108325
O O16 0.000000 0.500000 0.000000
#
# Coordination Sequence:
#
# PCOD8032134 Si02
#       7
#     2   2   2   2   2   2   2
#     4  11  24  42  66  97 132 174 220 275 332 390
#     4  11  23  42  63  91 126 171 214 260 325 392
#     4  12  24  41  65  95 129 167 213 272 324 380
#     4  11  23  41  65  94 129 170 218 271 324 391
#     4  12  25  42  64  97 129 164 214 271 322 380
#     4  11  23  43  65  93 131 174 220 269 324 398
#     4  12  24  43  67  93 127 172 213 260 322 393
#
# _framework density 22.130711999999999
#
# number of rings (size 3 to 8) (size 9 to 14) (size 15 to 20)
#    0.000    0.571    0.000   10.286    0.000    3.429 
#    0.000    0.000    0.000    0.000    0.000    0.000 
#    0.000    0.000    0.000    0.000    0.000    0.000 
#
# Total GULP energy -173533.871472 kJ/mol
# GULP energy per Si atom -12395.276534 kJ/mol
# Density = 2.208034 g / cm^3
# Si number density = 22.130712 Si / 1000 Ang^3
#
#
#
# Elastic Constant Matrix: (Units=GPa)
#
#
# Indices 1 2 3 4 5 6 
#
# 1 289.4402 7.7865 -15.4857 -55.8488 -29.7723 65.8297
# 2 7.7865 126.9452 45.6457 18.8377 1.2207 -32.3728
# 3 -15.4857 45.6457 152.5118 60.8283 19.0193 -44.2031
# 4 -55.8488 18.8377 60.8283 91.0417 6.5553 -33.9167
# 5 -29.7723 1.2207 19.0193 6.5553 46.8447 -5.1225
# 6 65.8297 -32.3728 -44.2031 -33.9167 -5.1225 77.0883
#
#
#
# Elastic Compliance Matrix: (Units=1/GPa)
#
#
# Indices 1 2 3 4 5 6 
#
# 1 0.005374 -0.001284 -0.002031 0.002891 0.003344 -0.004799
# 2 -0.001284 0.009665 -0.001835 -0.000047 0.000131 0.004091
# 3 -0.002031 -0.001835 0.011284 -0.006490 -0.004448 0.004283
# 4 0.002891 -0.000047 -0.006490 0.017565 0.002197 0.001665
# 5 0.003344 0.000131 -0.004448 0.002197 0.024667 -0.002745
# 6 -0.004799 0.004091 0.004283 0.001665 -0.002745 0.021795
#
#
# Mechanical properties :
#
#
# Convention : Reuss Voigt Hill
#
# Bulk Modulus (GPa) = 62.40854 71.64335 67.02595
# Shear Modulus (GPa) = 47.17367 78.39165 62.78266
#
# Velocity S-wave (km/s) = 4.62193 5.95810 5.33204
# Velocity P-wave (km/s) = 7.53287 8.93169 8.26194
#
# Compressibility (1/GPa) = 0.01602345
#
# Stress axis : x y z
#
# Youngs Moduli (GPa) = 186.07810 103.46577 88.61852
#
# Poissons Ratio (x) = 0.13288 0.17997
# Poissons Ratio (y) = 0.23899 0.16260
# Poissons Ratio (z) = 0.37789 0.18984
#
# Static dielectric constant tensor:
#      x y z
#    x 3.773410 -0.131520 0.043930 
#    y -0.131520 4.231720 0.186600 
#    z 0.043930 0.186600 4.347120 
# 
# 
# High freq. dielectric constant tensor:
#      x y z
#    x 1.865100 -0.007650 0.002700 
#    y -0.007650 1.895210 0.012960 
#    z 0.002700 0.012960 1.889990 
# 
# From -- ./inp_files/140946.got.cif
#   From: 2010.06.25/outbox.cif.g09.slc.cpg/sg2_71_cif.got.tgz:140946.got - 2010.06.27 13:26:56.
