data_PCOD8032294
_publ_section_title
;
Structure prediction by ZEFSAII (Michael W. Deem and Ramdas Pophale) SiO2 
 PCOD8032294
Probable space group: P -1
;
_chemical_formula_sum "Si O2"
_cell_formula_units_Z 16
_cell_length_a 19.378774
_cell_length_b 11.565057
_cell_length_c 8.249057
_cell_angle_alpha 39.518039
_cell_angle_beta 130.518402
_cell_angle_gamma 144.629514
_cell_volume 679.900607
_symmetry_space_group_name_H-M "P -1"
_symmetry_group_IT_number 2
_symmetry_cell_setting 'triclinic'
loop_
_space_group_symop_operation_xyz
x,y,z
-x,-y,-z
loop_
_atom_site_type_symbol
_atom_site_label
_atom_site_fract_x
_atom_site_fract_y
_atom_site_fract_z
Si Si1 0.114924 0.608822 0.952430
Si Si2 0.968266 0.882226 0.753668
Si Si3 0.421857 0.350526 0.888729
Si Si4 0.543817 0.297521 0.683761
Si Si5 0.758136 0.577332 0.960613
Si Si6 0.211542 0.130457 0.019981
Si Si7 0.863695 0.316472 0.437708
Si Si8 0.378364 0.956997 0.057961
O O1 0.134332 0.761195 0.660335
O O2 0.235069 0.767648 0.069629
O O3 0.090747 0.388227 0.068957
O O4 0.000000 0.500000 0.000000
O O5 0.859801 0.830648 0.746001
O O6 0.000000 0.000000 0.500000
O O7 0.081324 0.032849 0.880058
O O8 0.460679 0.513148 0.612980
O O9 0.432644 0.151379 0.074242
O O10 0.500000 0.500000 0.000000
O O11 0.286448 0.224926 0.865343
O O12 0.415392 0.089306 0.795170
O O13 0.641499 0.411085 0.851781
O O14 0.571354 0.183220 0.709162
O O15 0.800080 0.429978 0.237945
O O16 0.727866 0.652340 0.995051
O O17 0.209430 0.922548 0.308357
O O18 0.000000 0.500000 0.500000
#
# Coordination Sequence:
#
# PCOD8032294 Si02
#       8
#     2   2   2   2   2   2   2   2
#     4  11  24  42  68 105 136 183 232 288 349 415
#     4  11  23  42  64 101 140 182 238 283 344 419
#     4  12  29  47  68 107 140 181 241 291 359 427
#     4  11  25  48  75 104 134 189 241 288 361 421
#     4  11  24  44  69 102 139 183 240 286 350 428
#     4  12  26  42  69 101 143 190 225 296 360 406
#     4  11  24  43  64 102 140 181 233 280 351 417
#     4  11  25  47  77 100 139 186 238 295 351 419
#
# _framework density 23.532851000000001
#
# number of rings (size 3 to 8) (size 9 to 14) (size 15 to 20)
#    0.000    0.750    5.000    3.000    5.250    1.500 
#    0.000    0.000    0.000    0.000    0.000    0.000 
#    0.000    0.000    0.000    0.000    0.000    0.000 
#
# Total GULP energy -198327.868949 kJ/mol
# GULP energy per Si atom -12395.491809 kJ/mol
# Density = 2.347929 g / cm^3
# Si number density = 23.532851 Si / 1000 Ang^3
#
#
#
# Elastic Constant Matrix: (Units=GPa)
#
#
# Indices 1 2 3 4 5 6 
#
# 1 93.2324 25.8097 6.8565 -11.9121 -1.1000 -4.6932
# 2 25.8097 113.0260 2.6005 2.0003 18.8269 -15.9510
# 3 6.8565 2.6005 64.2095 4.3744 -0.3058 -5.5295
# 4 -11.9121 2.0003 4.3744 29.2267 2.2307 -3.8258
# 5 -1.1000 18.8269 -0.3058 2.2307 37.1417 -11.3676
# 6 -4.6932 -15.9510 -5.5295 -3.8258 -11.3676 50.5019
#
#
#
# Elastic Compliance Matrix: (Units=1/GPa)
#
#
# Indices 1 2 3 4 5 6 
#
# 1 0.012459 -0.003097 -0.001497 0.005483 0.001857 0.000849
# 2 -0.003097 0.010648 0.000135 -0.001395 -0.004823 0.001899
# 3 -0.001497 0.000135 0.016065 -0.002866 0.000681 0.001599
# 4 0.005483 -0.001395 -0.002866 0.037343 -0.000651 0.002438
# 5 0.001857 -0.004823 0.000681 -0.000651 0.031213 0.005700
# 6 0.000849 0.001899 0.001599 0.002438 0.005700 0.022123
#
#
# Mechanical properties :
#
#
# Convention : Reuss Voigt Hill
#
# Bulk Modulus (GPa) = 33.05381 37.88901 35.47141
# Shear Modulus (GPa) = 33.59057 39.05414 36.32235
#
# Velocity S-wave (km/s) = 3.78218 4.07819 3.93297
# Velocity P-wave (km/s) = 5.75756 6.18958 5.97747
#
# Compressibility (1/GPa) = 0.03025370
#
# Stress axis : x y z
#
# Youngs Moduli (GPa) = 80.26623 93.91743 62.24886
#
# Poissons Ratio (x) = 0.29087 0.09316
# Poissons Ratio (y) = 0.24859 -0.00841
# Poissons Ratio (z) = 0.12012 -0.01268
#
# Static dielectric constant tensor:
#      x y z
#    x 0.033500 0.034350 3.220030 
#    y 0.034350 4.283430 -0.231190 
#    z 3.220030 -0.231190 1.765720 
# 
# 
# High freq. dielectric constant tensor:
#      x y z
#    x 1.944520 0.001970 -0.009840 
#    y 0.001970 1.942120 -0.015630 
#    z -0.009840 -0.015630 1.916110 
# 
# From -- ./inp_files/345899.got.cif
#   From: 2010.06.25/outbox.cif.g09.slc.cpg/sg2_173_cif.got.tgz:345899.got - 2010.06.27 13:26:56.
