data_PCOD8032938
_publ_section_title
;
Structure prediction by ZEFSAII (Michael W. Deem and Ramdas Pophale) SiO2 
 PCOD8032938
Probable space group: P -1
;
_chemical_formula_sum "Si O2"
_cell_formula_units_Z 14
_cell_length_a 9.691982
_cell_length_b 9.463268
_cell_length_c 22.051734
_cell_angle_alpha 135.070196
_cell_angle_beta 152.168279
_cell_angle_gamma 44.158844
_cell_volume 640.788769
_symmetry_space_group_name_H-M "P -1"
_symmetry_group_IT_number 2
_symmetry_cell_setting 'triclinic'
loop_
_space_group_symop_operation_xyz
x,y,z
-x,-y,-z
loop_
_atom_site_type_symbol
_atom_site_label
_atom_site_fract_x
_atom_site_fract_y
_atom_site_fract_z
Si Si1 0.330392 0.027821 0.761359
Si Si2 0.303139 0.533077 0.718771
Si Si3 0.356196 0.121565 0.040623
Si Si4 0.141530 0.092755 0.384714
Si Si5 0.256129 0.895648 0.247844
Si Si6 0.495186 0.782387 0.632742
Si Si7 0.000890 0.395383 0.670533
O O1 0.536433 0.012196 0.896870
O O2 0.493930 0.854467 0.723438
O O3 0.002021 0.993300 0.640443
O O4 0.256247 0.256707 0.772886
O O5 0.552804 0.663500 0.854829
O O6 0.470149 0.306875 0.686842
O O7 0.003454 0.655598 0.599536
O O8 0.186805 0.509001 0.733803
O O9 0.984922 0.169007 0.910046
O O10 0.500000 0.000000 0.000000
O O11 0.500000 0.000000 0.500000
O O12 0.053963 0.002677 0.259602
O O13 0.422137 0.051663 0.328940
O O14 0.751379 0.562526 0.662900
O O15 0.164309 0.752599 0.476163
#
# Coordination Sequence:
#
# PCOD8032938 Si02
#       7
#     2   2   2   2   2   2   2
#     4  11  24  42  69 102 131 178 232 278 330 406
#     4  11  24  43  71  98 128 187 221 274 346 397
#     4  11  23  49  67  94 142 179 229 282 333 396
#     4  11  25  43  67 103 137 176 226 279 337 405
#     4  12  23  46  71  93 140 184 222 279 341 395
#     4  11  24  42  70 101 139 176 220 284 341 401
#     4  11  23  44  69 100 140 176 224 276 351 395
#
# _framework density 21.848071999999998
#
# number of rings (size 3 to 8) (size 9 to 14) (size 15 to 20)
#    0.000    0.857    5.714    1.714    4.000    3.429 
#    2.571    1.429    0.000    0.000    0.000    0.000 
#    0.000    0.000    0.000    0.000    0.000    0.000 
#
# Total GULP energy -173586.754254 kJ/mol
# GULP energy per Si atom -12399.053875 kJ/mol
# Density = 2.179834 g / cm^3
# Si number density = 21.848072 Si / 1000 Ang^3
#
#
#
# Elastic Constant Matrix: (Units=GPa)
#
#
# Indices 1 2 3 4 5 6 
#
# 1 84.2445 17.1281 8.1935 2.1552 -6.0447 4.3409
# 2 17.1281 123.6879 45.5514 -14.2562 -1.2794 3.3319
# 3 8.1935 45.5514 78.4383 -15.6286 4.5709 14.0200
# 4 2.1552 -14.2562 -15.6286 33.9598 1.1448 -1.4482
# 5 -6.0447 -1.2794 4.5709 1.1448 35.5875 4.8068
# 6 4.3409 3.3319 14.0200 -1.4482 4.8068 43.4156
#
#
#
# Elastic Compliance Matrix: (Units=1/GPa)
#
#
# Indices 1 2 3 4 5 6 
#
# 1 0.012556 -0.001665 -0.000644 -0.001926 0.002386 -0.001248
# 2 -0.001665 0.010685 -0.005912 0.001902 0.000631 0.001249
# 3 -0.000644 -0.005912 0.018449 0.005911 -0.002207 -0.004998
# 4 -0.001926 0.001902 0.005911 0.033133 -0.002012 -0.000534
# 5 0.002386 0.000631 -0.002207 -0.002012 0.029265 -0.002882
# 6 -0.001248 0.001249 -0.004998 -0.000534 -0.002882 0.024977
#
#
# Mechanical properties :
#
#
# Convention : Reuss Voigt Hill
#
# Bulk Modulus (GPa) = 39.60857 47.56853 43.58855
# Shear Modulus (GPa) = 32.48354 36.95910 34.72132
#
# Velocity S-wave (km/s) = 3.86008 4.11742 3.99082
# Velocity P-wave (km/s) = 6.16728 6.66512 6.42103
#
# Compressibility (1/GPa) = 0.02524706
#
# Stress axis : x y z
#
# Youngs Moduli (GPa) = 79.64186 93.59022 54.20302
#
# Poissons Ratio (x) = 0.15584 0.03492
# Poissons Ratio (y) = 0.13262 0.32045
# Poissons Ratio (z) = 0.05132 0.55331
#
# Static dielectric constant tensor:
#      x y z
#    x 4.217410 -0.039590 -0.180440 
#    y -0.039590 4.072800 -0.058390 
#    z -0.180440 -0.058390 4.181000 
# 
# 
# High freq. dielectric constant tensor:
#      x y z
#    x 1.868070 -0.002790 0.008870 
#    y -0.002790 1.871250 -0.010150 
#    z 0.008870 -0.010150 1.845010 
# 
# From -- ./inp_files/179606.got.cif
#   From: 2010.06.25/outbox.cif.g09.slc.cpg/sg2_90_cif.got.tgz:179606.got - 2010.06.27 13:26:56.
