data_PCOD8032575
_publ_section_title
;
Structure prediction by ZEFSAII (Michael W. Deem and Ramdas Pophale) SiO2 
 PCOD8032575
Probable space group: P -1
;
_chemical_formula_sum "Si O2"
_cell_formula_units_Z 14
_cell_length_a 11.850007
_cell_length_b 5.063352
_cell_length_c 14.481043
_cell_angle_alpha 67.909350
_cell_angle_beta 129.692831
_cell_angle_gamma 115.626434
_cell_volume 596.538905
_symmetry_space_group_name_H-M "P -1"
_symmetry_group_IT_number 2
_symmetry_cell_setting 'triclinic'
loop_
_space_group_symop_operation_xyz
x,y,z
-x,-y,-z
loop_
_atom_site_type_symbol
_atom_site_label
_atom_site_fract_x
_atom_site_fract_y
_atom_site_fract_z
Si Si1 0.128612 0.526293 0.986028
Si Si2 0.750170 0.788026 0.627544
Si Si3 0.593456 0.547195 0.751243
Si Si4 0.056532 0.636023 0.265294
Si Si5 0.323769 0.976734 0.904174
Si Si6 0.216080 0.534398 0.743583
Si Si7 0.599387 0.019127 0.349973
O O1 0.218173 0.863547 0.955486
O O2 0.044067 0.329766 0.881278
O O3 0.262520 0.397457 0.112617
O O4 0.000000 0.500000 0.000000
O O5 0.640929 0.549187 0.668152
O O6 0.883875 0.654707 0.677994
O O7 0.808883 0.069027 0.688985
O O8 0.655286 0.855770 0.484088
O O9 0.518155 0.808318 0.699059
O O10 0.476172 0.217125 0.739283
O O11 0.964255 0.609471 0.318147
O O12 0.259831 0.721354 0.833052
O O13 0.309395 0.290667 0.820275
O O14 0.500000 0.000000 0.000000
O O15 0.253709 0.741318 0.646398
#
# Coordination Sequence:
#
# PCOD8032575 Si02
#       7
#     2   2   2   2   2   2   2
#     4  11  24  44  72 104 140 180 226 284 351 417
#     4  12  25  46  70  97 144 177 232 284 337 406
#     4  12  26  44  70 102 136 178 234 282 344 404
#     4  11  25  44  68 105 136 181 222 286 347 406
#     4  11  23  43  66 100 140 181 226 284 340 410
#     4  11  24  42  67  97 139 173 232 276 340 409
#     4  12  26  46  70 101 133 189 230 281 338 408
#
# _framework density 23.468713999999999
#
# number of rings (size 3 to 8) (size 9 to 14) (size 15 to 20)
#    0.000    0.571    1.429    7.286    0.000    6.286 
#    0.000    0.000    0.000    0.000    0.000    0.000 
#    0.000    0.000    0.000    0.000    0.000    0.000 
#
# Total GULP energy -173574.472327 kJ/mol
# GULP energy per Si atom -12398.176595 kJ/mol
# Density = 2.341530 g / cm^3
# Si number density = 23.468714 Si / 1000 Ang^3
#
#
#
# Elastic Constant Matrix: (Units=GPa)
#
#
# Indices 1 2 3 4 5 6 
#
# 1 93.5695 22.4958 39.0978 -5.1226 19.4823 -0.7762
# 2 22.4958 98.3328 26.9613 0.7629 8.6157 -11.9614
# 3 39.0978 26.9613 131.6548 -10.0075 10.0170 -11.3406
# 4 -5.1226 0.7629 -10.0075 39.3790 -4.5148 1.1940
# 5 19.4823 8.6157 10.0170 -4.5148 17.5946 -13.0564
# 6 -0.7762 -11.9614 -11.3406 1.1940 -13.0564 49.8008
#
#
#
# Elastic Compliance Matrix: (Units=1/GPa)
#
#
# Indices 1 2 3 4 5 6 
#
# 1 0.016865 -0.001810 -0.003684 -0.000883 -0.020673 -0.006410
# 2 -0.001810 0.011401 -0.001597 -0.001092 -0.001477 0.001985
# 3 -0.003684 -0.001597 0.009221 0.002022 0.001645 0.002042
# 4 -0.000883 -0.001092 0.002022 0.026740 0.008547 0.001784
# 5 -0.020673 -0.001477 0.001645 0.008547 0.100975 0.025966
# 6 -0.006410 0.001985 0.002042 0.001784 0.025966 0.027687
#
#
# Mechanical properties :
#
#
# Convention : Reuss Voigt Hill
#
# Bulk Modulus (GPa) = 42.90858 55.62967 49.26912
# Shear Modulus (GPa) = 23.27339 37.02170 30.14755
#
# Velocity S-wave (km/s) = 3.15251 3.97607 3.58800
# Velocity P-wave (km/s) = 5.61908 6.69583 6.18095
#
# Compressibility (1/GPa) = 0.02330536
#
# Stress axis : x y z
#
# Youngs Moduli (GPa) = 59.29581 87.71369 108.44711
#
# Poissons Ratio (x) = 0.15872 0.39953
# Poissons Ratio (y) = 0.10730 0.17319
# Poissons Ratio (z) = 0.21845 0.14008
#
# Static dielectric constant tensor:
#      x y z
#    x 4.694440 0.479660 -0.072570 
#    y 0.479660 4.377650 -0.072310 
#    z -0.072570 -0.072310 4.118460 
# 
# 
# High freq. dielectric constant tensor:
#      x y z
#    x 1.945980 0.014010 0.000880 
#    y 0.014010 1.938940 -0.004020 
#    z 0.000880 -0.004020 1.920050 
# 
# From -- ./inp_files/510208.got.cif
#   From: 2010.06.25/outbox.cif.g09.slc.cpg/sg2_256_cif.got.tgz:510208.got - 2010.06.27 13:26:56.
