data_PCOD8032434
_publ_section_title
;
Structure prediction by ZEFSAII (Michael W. Deem and Ramdas Pophale) SiO2 
 PCOD8032434
Probable space group: P -1
;
_chemical_formula_sum "Si O2"
_cell_formula_units_Z 16
_cell_length_a 11.668904
_cell_length_b 9.088797
_cell_length_c 8.571371
_cell_angle_alpha 93.727183
_cell_angle_beta 130.705067
_cell_angle_gamma 93.600267
_cell_volume 680.989678
_symmetry_space_group_name_H-M "P -1"
_symmetry_group_IT_number 2
_symmetry_cell_setting 'triclinic'
loop_
_space_group_symop_operation_xyz
x,y,z
-x,-y,-z
loop_
_atom_site_type_symbol
_atom_site_label
_atom_site_fract_x
_atom_site_fract_y
_atom_site_fract_z
Si Si1 0.708764 0.886907 0.886402
Si Si2 0.121390 0.116089 0.283033
Si Si3 0.840054 0.544812 0.162295
Si Si4 0.668627 0.656873 0.311957
Si Si5 0.441041 0.443447 0.276018
Si Si6 0.984922 0.847838 0.316697
Si Si7 0.563319 0.113722 0.933961
Si Si8 0.893769 0.235119 0.260397
O O1 0.824636 0.900881 0.844844
O O2 0.590939 0.735142 0.767104
O O3 0.604827 0.019988 0.811312
O O4 0.817550 0.899119 0.138287
O O5 0.213175 0.263080 0.452685
O O6 0.946445 0.156701 0.142841
O O7 0.122081 0.957196 0.361966
O O8 0.750819 0.619283 0.225271
O O9 0.931975 0.414230 0.293452
O O10 0.970066 0.677406 0.225415
O O11 0.716327 0.493970 0.911784
O O12 0.577012 0.501713 0.281554
O O13 0.552975 0.775212 0.198294
O O14 0.500000 0.500000 0.500000
O O15 0.013609 0.840383 0.527321
O O16 0.716080 0.210831 0.137813
O O17 0.500000 0.000000 0.000000
#
# Coordination Sequence:
#
# PCOD8032434 Si02
#       8
#     2   2   2   2   2   2   2   2
#     4  11  26  46  72 101 147 184 237 287 359 414
#     4  12  25  46  71 103 147 187 226 301 350 421
#     4  11  25  45  71 104 137 187 236 292 343 419
#     4  12  25  46  72 101 145 182 239 292 351 408
#     4  11  23  46  69  98 139 189 226 290 352 416
#     4  11  23  42  70 103 137 182 233 287 347 411
#     4  12  26  44  73 107 137 187 236 293 348 421
#     4  12  25  44  73 105 142 182 243 285 352 420
#
# _framework density 23.495215000000002
#
# number of rings (size 3 to 8) (size 9 to 14) (size 15 to 20)
#    0.000    0.500    5.000    3.750    1.750    0.500 
#    0.000    5.000    0.000    0.000    0.000    0.000 
#    0.000    0.000    0.000    0.000    0.000    0.000 
#
# Total GULP energy -198281.836475 kJ/mol
# GULP energy per Si atom -12392.614780 kJ/mol
# Density = 2.344174 g / cm^3
# Si number density = 23.495215 Si / 1000 Ang^3
#
#
#
# Elastic Constant Matrix: (Units=GPa)
#
#
# Indices 1 2 3 4 5 6 
#
# 1 106.6347 61.0863 20.0980 -12.0358 -8.7354 -5.4680
# 2 61.0863 145.1807 18.0858 -8.7595 -3.8093 5.7261
# 3 20.0980 18.0858 79.6313 6.8246 -14.4230 -16.3941
# 4 -12.0358 -8.7595 6.8246 38.7556 2.4491 10.5816
# 5 -8.7354 -3.8093 -14.4230 2.4491 24.5328 5.2158
# 6 -5.4680 5.7261 -16.3941 10.5816 5.2158 51.3654
#
#
#
# Elastic Compliance Matrix: (Units=1/GPa)
#
#
# Indices 1 2 3 4 5 6 
#
# 1 0.013218 -0.005102 -0.001895 0.002995 0.002392 0.000511
# 2 -0.005102 0.009396 -0.001632 0.001523 -0.000975 -0.002326
# 3 -0.001895 -0.001632 0.016566 -0.005938 0.008201 0.005658
# 4 0.002995 0.001523 -0.005938 0.030439 -0.003600 -0.007651
# 5 0.002392 -0.000975 0.008201 -0.003600 0.046863 -0.001036
# 6 0.000511 -0.002326 0.005658 -0.007651 -0.001036 0.023269
#
#
# Mechanical properties :
#
#
# Convention : Reuss Voigt Hill
#
# Bulk Modulus (GPa) = 45.61991 58.88742 52.25366
# Shear Modulus (GPa) = 30.42860 38.40921 34.41890
#
# Velocity S-wave (km/s) = 3.60265 4.04761 3.83160
# Velocity P-wave (km/s) = 6.06336 6.85290 6.47018
#
# Compressibility (1/GPa) = 0.02192026
#
# Stress axis : x y z
#
# Youngs Moduli (GPa) = 75.65390 106.42561 60.36431
#
# Poissons Ratio (x) = 0.54301 0.11442
# Poissons Ratio (y) = 0.38600 0.09854
# Poissons Ratio (z) = 0.14340 0.17373
#
# Static dielectric constant tensor:
#      x y z
#    x 4.396280 0.294820 0.270520 
#    y 0.294820 4.815900 0.187420 
#    z 0.270520 0.187420 4.304130 
# 
# 
# High freq. dielectric constant tensor:
#      x y z
#    x 1.916580 0.024700 0.010450 
#    y 0.024700 1.958380 0.018180 
#    z 0.010450 0.018180 1.919630 
# 
# From -- ./inp_files/244223.got.cif
#   From: 2010.06.25/outbox.cif.g09.slc.cpg/sg2_123_cif.got.tgz:244223.got - 2010.06.27 13:26:56.
