data_PCOD8032523
_publ_section_title
;
Structure prediction by ZEFSAII (Michael W. Deem and Ramdas Pophale) SiO2 
 PCOD8032523
Probable space group: P -1
;
_chemical_formula_sum "Si O2"
_cell_formula_units_Z 12
_cell_length_a 13.166750
_cell_length_b 8.529465
_cell_length_c 9.821008
_cell_angle_alpha 62.104194
_cell_angle_beta 34.930049
_cell_angle_gamma 79.164465
_cell_volume 514.765104
_symmetry_space_group_name_H-M "P -1"
_symmetry_group_IT_number 2
_symmetry_cell_setting 'triclinic'
loop_
_space_group_symop_operation_xyz
x,y,z
-x,-y,-z
loop_
_atom_site_type_symbol
_atom_site_label
_atom_site_fract_x
_atom_site_fract_y
_atom_site_fract_z
Si Si1 0.443359 0.787526 0.760788
Si Si2 0.808608 0.495894 0.646419
Si Si3 0.483986 0.179154 0.636173
Si Si4 0.128370 0.279347 0.992594
Si Si5 0.187436 0.607936 0.605685
Si Si6 0.129699 0.087793 0.692356
O O1 0.411648 0.730685 0.659151
O O2 0.665819 0.906755 0.493388
O O3 0.362962 0.949006 0.835711
O O4 0.359628 0.593053 0.020680
O O5 0.746865 0.360235 0.636019
O O6 0.849254 0.709953 0.472188
O O7 0.000000 0.500000 0.500000
O O8 0.332741 0.272316 0.815355
O O9 0.652400 0.231710 0.542525
O O10 0.168361 0.393117 0.757716
O O11 0.028715 0.390233 0.152605
O O12 0.966273 0.065635 0.257638
O O13 0.000000 0.000000 0.000000
#
# Coordination Sequence:
#
# PCOD8032523 Si02
#       6
#     2   2   2   2   2   2
#     4  11  25  43  74 107 142 184 240 296 352 421
#     4  12  28  46  70 108 146 184 235 299 360 415
#     4  11  23  44  75 103 140 190 242 283 355 426
#     4  11  23  42  74 103 136 189 239 288 342 427
#     4  11  25  44  71 103 144 186 239 291 350 421
#     4  12  22  47  73 104 142 192 238 285 355 430
#
# _framework density 23.311603999999999
#
# number of rings (size 3 to 8) (size 9 to 14) (size 15 to 20)
#    0.000    0.667    5.000    2.000    7.000    0.667 
#    3.000    1.667    0.000    0.000    0.000    0.000 
#    0.000    0.000    0.000    0.000    0.000    0.000 
#
# Total GULP energy -148694.898604 kJ/mol
# GULP energy per Si atom -12391.241550 kJ/mol
# Density = 2.325855 g / cm^3
# Si number density = 23.311604 Si / 1000 Ang^3
#
#
#
# Elastic Constant Matrix: (Units=GPa)
#
#
# Indices 1 2 3 4 5 6 
#
# 1 93.9208 27.2387 26.3599 6.2262 1.3452 13.8992
# 2 27.2387 82.1105 22.7704 -7.3707 -0.2814 -13.9164
# 3 26.3599 22.7704 119.4916 -15.4467 7.7106 -1.6303
# 4 6.2262 -7.3707 -15.4467 37.9108 -10.6942 -5.9262
# 5 1.3452 -0.2814 7.7106 -10.6942 43.4258 1.0273
# 6 13.8992 -13.9164 -1.6303 -5.9262 1.0273 39.5122
#
#
#
# Elastic Compliance Matrix: (Units=1/GPa)
#
#
# Indices 1 2 3 4 5 6 
#
# 1 0.015013 -0.006192 -0.003015 -0.006629 -0.001400 -0.008544
# 2 -0.006192 0.016518 -0.001040 0.005643 0.001666 0.008756
# 3 -0.003015 -0.001040 0.009867 0.004417 -0.000620 0.001780
# 4 -0.006629 0.005643 0.004417 0.033977 0.007603 0.009400
# 5 -0.001400 0.001666 -0.000620 0.007603 0.025028 0.001543
# 6 -0.008544 0.008756 0.001780 0.009400 0.001543 0.032841
#
#
# Mechanical properties :
#
#
# Convention : Reuss Voigt Hill
#
# Bulk Modulus (GPa) = 47.83914 49.80677 48.82296
# Shear Modulus (GPa) = 31.11251 38.78002 34.94626
#
# Velocity S-wave (km/s) = 3.65723 4.08309 3.87601
# Velocity P-wave (km/s) = 6.19677 6.60612 6.40472
#
# Compressibility (1/GPa) = 0.02090338
#
# Stress axis : x y z
#
# Youngs Moduli (GPa) = 66.60770 60.54155 101.34423
#
# Poissons Ratio (x) = 0.37489 0.30556
# Poissons Ratio (y) = 0.41245 0.10541
# Poissons Ratio (z) = 0.20083 0.06297
#
# Static dielectric constant tensor:
#      x y z
#    x 3.700060 0.046340 -0.148760 
#    y 0.046340 4.297880 0.054930 
#    z -0.148760 0.054930 4.137270 
# 
# 
# High freq. dielectric constant tensor:
#      x y z
#    x 1.915850 -0.009830 -0.015710 
#    y -0.009830 1.931650 -0.003340 
#    z -0.015710 -0.003340 1.914570 
# 
# From -- ./inp_files/157767.got.cif
#   From: 2010.06.25/outbox.cif.g09.slc.cpg/sg2_79_cif.got.tgz:157767.got - 2010.06.27 13:26:56.
