data_PCOD8032884
_publ_section_title
;
Structure prediction by ZEFSAII (Michael W. Deem and Ramdas Pophale) SiO2 
 PCOD8032884
Probable space group: P -1
;
_chemical_formula_sum "Si O2"
_cell_formula_units_Z 16
_cell_length_a 9.552347
_cell_length_b 9.218237
_cell_length_c 23.647884
_cell_angle_alpha 29.914615
_cell_angle_beta 47.388062
_cell_angle_gamma 43.088866
_cell_volume 703.467321
_symmetry_space_group_name_H-M "P -1"
_symmetry_group_IT_number 2
_symmetry_cell_setting 'triclinic'
loop_
_space_group_symop_operation_xyz
x,y,z
-x,-y,-z
loop_
_atom_site_type_symbol
_atom_site_label
_atom_site_fract_x
_atom_site_fract_y
_atom_site_fract_z
Si Si1 0.689517 0.844802 0.543550
Si Si2 0.591592 0.127268 0.599439
Si Si3 0.023080 0.279113 0.829399
Si Si4 0.776068 0.074079 0.212076
Si Si5 0.122276 0.892660 0.258404
Si Si6 0.039130 0.069960 0.346411
Si Si7 0.625216 0.811424 0.977192
Si Si8 0.328645 0.750886 0.998926
O O1 0.736278 0.476177 0.660413
O O2 0.500000 0.000000 0.500000
O O3 0.644952 0.008400 0.561233
O O4 0.895275 0.873341 0.453659
O O5 0.500000 0.500000 0.500000
O O6 0.431778 0.988170 0.714365
O O7 0.792301 0.022053 0.619172
O O8 0.097874 0.559550 0.730048
O O9 0.782553 0.393552 0.875658
O O10 0.052079 0.180426 0.789365
O O11 0.157539 0.968121 0.930764
O O12 0.722421 0.435354 0.087622
O O13 0.880792 0.986687 0.275341
O O14 0.140894 0.013772 0.275284
O O15 0.193956 0.083341 0.127514
O O16 0.448974 0.931332 0.937201
O O17 0.500000 0.000000 0.000000
O O18 0.500000 0.500000 0.000000
#
# Coordination Sequence:
#
# PCOD8032884 Si02
#       8
#     2   2   2   2   2   2   2   2
#     4  12  26  48  71 102 142 185 237 297 360 425
#     4  12  25  46  76 103 140 185 238 299 359 423
#     4  11  25  41  71 100 142 180 237 294 353 415
#     4  12  25  46  69 104 145 187 235 294 359 425
#     4  12  27  44  69 101 144 185 236 292 359 427
#     4  12  26  44  73 105 136 185 243 294 359 428
#     4  12  26  42  70  98 146 190 240 283 361 423
#     4  11  23  44  66 101 140 187 234 293 348 421
#
# _framework density 22.744481
#
# number of rings (size 3 to 8) (size 9 to 14) (size 15 to 20)
#    0.000    0.250    1.250    7.875    7.000    0.000 
#    0.000    0.000    0.000    0.000    0.000    0.000 
#    0.000    0.000    0.000    0.000    0.000    0.000 
#
# Total GULP energy -198404.002015 kJ/mol
# GULP energy per Si atom -12400.250126 kJ/mol
# Density = 2.269271 g / cm^3
# Si number density = 22.744481 Si / 1000 Ang^3
#
#
#
# Elastic Constant Matrix: (Units=GPa)
#
#
# Indices 1 2 3 4 5 6 
#
# 1 161.3656 46.2132 33.6906 6.9536 2.6489 5.5914
# 2 46.2132 163.9522 57.7387 -1.9592 2.1642 25.6261
# 3 33.6906 57.7387 135.3520 -13.0203 -8.2712 -3.8547
# 4 6.9536 -1.9592 -13.0203 44.8583 1.4551 -3.6965
# 5 2.6489 2.1642 -8.2712 1.4551 31.9207 3.9917
# 6 5.5914 25.6261 -3.8547 -3.6965 3.9917 47.6383
#
#
#
# Elastic Compliance Matrix: (Units=1/GPa)
#
#
# Indices 1 2 3 4 5 6 
#
# 1 0.006978 -0.001491 -0.001296 -0.001514 -0.000722 -0.000179
# 2 -0.001491 0.008483 -0.003500 -0.000775 -0.000739 -0.004669
# 3 -0.001296 -0.003500 0.009721 0.003028 0.002368 0.002858
# 4 -0.001514 -0.000775 0.003028 0.023610 -0.000452 0.002710
# 5 -0.000722 -0.000739 0.002368 -0.000452 0.032331 -0.002070
# 6 -0.000179 -0.004669 0.002858 0.002710 -0.002070 0.024139
#
#
# Mechanical properties :
#
#
# Convention : Reuss Voigt Hill
#
# Bulk Modulus (GPa) = 79.31557 81.77275 80.54416
# Shear Modulus (GPa) = 40.97066 46.41861 43.69464
#
# Velocity S-wave (km/s) = 4.24883 4.52250 4.38780
# Velocity P-wave (km/s) = 7.68233 7.95623 7.82048
#
# Compressibility (1/GPa) = 0.01260786
#
# Stress axis : x y z
#
# Youngs Moduli (GPa) = 143.30780 117.88807 102.86873
#
# Poissons Ratio (x) = 0.17580 0.13328
# Poissons Ratio (y) = 0.21371 0.36005
# Poissons Ratio (z) = 0.18568 0.41261
#
# Static dielectric constant tensor:
#      x y z
#    x 4.218280 0.063060 -0.198870 
#    y 0.063060 4.350040 0.296400 
#    z -0.198870 0.296400 4.480990 
# 
# 
# High freq. dielectric constant tensor:
#      x y z
#    x 1.915910 0.006550 -0.000880 
#    y 0.006550 1.912200 -0.001630 
#    z -0.000880 -0.001630 1.904310 
# 
# From -- ./inp_files/606544.got.cif
#   From: 2010.06.25/outbox.cif.g09.slc.cpg/sg2_304_cif.got.tgz:606544.got - 2010.06.27 13:26:56.
