data_PCOD8032150
_publ_section_title
;
Structure prediction by ZEFSAII (Michael W. Deem and Ramdas Pophale) SiO2 
 PCOD8032150
Probable space group: P -1
;
_chemical_formula_sum "Si O2"
_cell_formula_units_Z 16
_cell_length_a 9.615776
_cell_length_b 6.899748
_cell_length_c 15.498728
_cell_angle_alpha 80.162332
_cell_angle_beta 117.818133
_cell_angle_gamma 125.591798
_cell_volume 732.258385
_symmetry_space_group_name_H-M "P -1"
_symmetry_group_IT_number 2
_symmetry_cell_setting 'triclinic'
loop_
_space_group_symop_operation_xyz
x,y,z
-x,-y,-z
loop_
_atom_site_type_symbol
_atom_site_label
_atom_site_fract_x
_atom_site_fract_y
_atom_site_fract_z
Si Si1 0.248736 0.328594 0.602401
Si Si2 0.299782 0.413311 0.273377
Si Si3 0.229184 0.649883 0.696442
Si Si4 0.124492 0.017782 0.114847
Si Si5 0.397157 0.867662 0.199607
Si Si6 0.035023 0.187380 0.374043
Si Si7 0.235789 0.371676 0.877976
Si Si8 0.484535 0.772401 0.051178
O O1 0.477992 0.477574 0.654320
O O2 0.189931 0.498955 0.609953
O O3 0.173900 0.254642 0.489748
O O4 0.146861 0.091801 0.652008
O O5 0.238031 0.275259 0.174489
O O6 0.280667 0.637253 0.246974
O O7 0.161416 0.233500 0.322417
O O8 0.283887 0.542410 0.797931
O O9 0.042878 0.645759 0.664554
O O10 0.411419 0.922245 0.712338
O O11 0.273428 0.964668 0.126230
O O12 0.991614 0.817703 0.163157
O O13 0.000000 0.000000 0.000000
O O14 0.448723 0.766701 0.142016
O O15 0.321677 0.214166 0.905737
O O16 0.312246 0.529844 0.974973
O O17 0.500000 0.000000 0.000000
#
# Coordination Sequence:
#
# PCOD8032150 Si02
#       8
#     2   2   2   2   2   2   2   2
#     4  11  24  48  72 102 138 174 227 289 344 410
#     4  12  25  46  70 100 141 178 228 282 343 404
#     4  12  23  43  69 100 135 177 224 282 344 405
#     4  12  27  43  63  98 137 179 225 283 331 402
#     4  12  25  41  67  96 136 183 222 279 340 400
#     4  11  26  45  75 103 131 182 229 280 352 411
#     4  11  25  40  67  97 132 179 234 275 336 404
#     4  11  23  41  66  99 133 181 231 281 331 398
#
# _framework density 21.850210000000001
#
# number of rings (size 3 to 8) (size 9 to 14) (size 15 to 20)
#    0.000    0.500    3.750    4.500    3.500    4.000 
#    0.000    0.625    0.000    0.000    0.000    0.000 
#    0.000    0.000    0.000    0.000    0.000    0.000 
#
# Total GULP energy -198456.063485 kJ/mol
# GULP energy per Si atom -12403.503968 kJ/mol
# Density = 2.180048 g / cm^3
# Si number density = 21.850210 Si / 1000 Ang^3
#
#
#
# Elastic Constant Matrix: (Units=GPa)
#
#
# Indices 1 2 3 4 5 6 
#
# 1 115.3446 55.9752 34.6340 7.7323 6.9282 -8.4290
# 2 55.9752 116.2744 37.3189 0.5426 -0.4030 -8.9687
# 3 34.6340 37.3189 87.9768 6.7735 3.5693 -5.0300
# 4 7.7323 0.5426 6.7735 34.2738 -1.6951 -1.3959
# 5 6.9282 -0.4030 3.5693 -1.6951 39.0569 1.6623
# 6 -8.4290 -8.9687 -5.0300 -1.3959 1.6623 39.7048
#
#
#
# Elastic Compliance Matrix: (Units=1/GPa)
#
#
# Indices 1 2 3 4 5 6 
#
# 1 0.012171 -0.005017 -0.002336 -0.002264 -0.002145 0.001165
# 2 -0.005017 0.012169 -0.003300 0.001709 0.001337 0.001270
# 3 -0.002336 -0.003300 0.013924 -0.002203 -0.001009 0.000487
# 4 -0.002264 0.001709 -0.002203 0.030215 0.001906 0.000609
# 5 -0.002145 0.001337 -0.001009 0.001906 0.026229 -0.001312
# 6 0.001165 0.001270 0.000487 0.000609 -0.001312 0.025858
#
#
# Mechanical properties :
#
#
# Convention : Reuss Voigt Hill
#
# Bulk Modulus (GPa) = 58.96328 63.93909 61.45118
# Shear Modulus (GPa) = 33.89254 35.38495 34.63874
#
# Velocity S-wave (km/s) = 3.94271 4.02858 3.98588
# Velocity P-wave (km/s) = 6.91162 7.13900 7.02623
#
# Compressibility (1/GPa) = 0.01695971
#
# Stress axis : x y z
#
# Youngs Moduli (GPa) = 82.16113 82.17397 71.81612
#
# Poissons Ratio (x) = 0.41224 0.16773
# Poissons Ratio (y) = 0.41218 0.23702
# Poissons Ratio (z) = 0.19189 0.27121
#
# Static dielectric constant tensor:
#      x y z
#    x 3.978000 -0.038360 -0.045030 
#    y -0.038360 4.213170 0.079470 
#    z -0.045030 0.079470 3.848650 
# 
# 
# High freq. dielectric constant tensor:
#      x y z
#    x 1.862320 -0.004590 0.002650 
#    y -0.004590 1.876590 0.006240 
#    z 0.002650 0.006240 1.856220 
# 
# From -- ./inp_files/44056.got.cif
#   From: 2010.06.25/outbox.cif.g09.slc.cpg/sg2_23_cif.got.tgz:44056.got - 2010.06.27 13:26:56.
