data_PCOD8032352
_publ_section_title
;
Structure prediction by ZEFSAII (Michael W. Deem and Ramdas Pophale) SiO2 
 PCOD8032352
Probable space group: P -1
;
_chemical_formula_sum "Si O2"
_cell_formula_units_Z 16
_cell_length_a 14.749699
_cell_length_b 9.711025
_cell_length_c 14.740079
_cell_angle_alpha 77.790825
_cell_angle_beta 149.088360
_cell_angle_gamma 79.959256
_cell_volume 747.985564
_symmetry_space_group_name_H-M "P -1"
_symmetry_group_IT_number 2
_symmetry_cell_setting 'triclinic'
loop_
_space_group_symop_operation_xyz
x,y,z
-x,-y,-z
loop_
_atom_site_type_symbol
_atom_site_label
_atom_site_fract_x
_atom_site_fract_y
_atom_site_fract_z
Si Si1 0.988769 0.584030 0.822551
Si Si2 0.004921 0.627485 0.548892
Si Si3 0.397993 0.103992 0.688831
Si Si4 0.872179 0.004736 0.102680
Si Si5 0.598233 0.684651 0.925830
Si Si6 0.937390 0.115182 0.523957
Si Si7 0.200214 0.686838 0.113532
Si Si8 0.215401 0.616361 0.337136
O O1 0.803117 0.794484 0.579312
O O2 0.854711 0.507935 0.723107
O O3 0.258673 0.417484 0.030890
O O4 0.060510 0.619751 0.973672
O O5 0.747034 0.777918 0.360607
O O6 0.000000 0.500000 0.500000
O O7 0.027363 0.742554 0.483679
O O8 0.244664 0.478760 0.838476
O O9 0.553685 0.875413 0.873909
O O10 0.587052 0.121706 0.823323
O O11 0.931505 0.111631 0.081936
O O12 0.890003 0.026580 0.222966
O O13 0.054615 0.775456 0.258122
O O14 0.337660 0.753225 0.692819
O O15 0.000000 0.000000 0.500000
O O16 0.154598 0.731993 0.175124
O O17 0.496058 0.523191 0.369194
#
# Coordination Sequence:
#
# PCOD8032352 Si02
#       8
#     2   2   2   2   2   2   2   2
#     4  11  23  43  71 101 136 181 224 276 347 401
#     4  11  26  41  65  94 128 178 227 275 335 396
#     4  11  23  42  67  97 135 179 223 279 337 401
#     4  12  25  44  70  95 142 180 223 284 345 399
#     4  11  23  43  65  92 136 172 223 276 330 403
#     4  12  26  43  66  99 134 178 227 280 338 397
#     4  11  25  44  73 101 139 176 227 287 334 412
#     4  11  24  47  69 105 135 179 229 276 349 407
#
# _framework density 21.390788000000001
#
# number of rings (size 3 to 8) (size 9 to 14) (size 15 to 20)
#    0.000    0.750    3.750    3.375    5.250    2.000 
#    0.000    0.625    0.000    0.000    0.000    0.000 
#    0.000    0.000    0.000    0.000    0.000    0.000 
#
# Total GULP energy -198376.223170 kJ/mol
# GULP energy per Si atom -12398.513948 kJ/mol
# Density = 2.134210 g / cm^3
# Si number density = 21.390788 Si / 1000 Ang^3
#
#
#
# Elastic Constant Matrix: (Units=GPa)
#
#
# Indices 1 2 3 4 5 6 
#
# 1 65.1012 83.6400 119.9043 21.7167 -78.5198 67.8238
# 2 83.6400 -32.2096 -178.6012 -34.6908 146.7335 -137.7330
# 3 119.9043 -178.6012 -254.0455 -71.4026 263.5622 -241.0460
# 4 21.7167 -34.6908 -71.4026 18.8732 63.6111 -53.1685
# 5 -78.5198 146.7335 263.5622 63.6111 -152.4399 179.4857
# 6 67.8238 -137.7330 -241.0460 -53.1685 179.4857 -122.6278
#
#
#
# Elastic Compliance Matrix: (Units=1/GPa)
#
#
# Indices 1 2 3 4 5 6 
#
# 1 0.010705 -0.002565 0.000239 0.002359 -0.002793 0.003220
# 2 -0.002565 0.013687 -0.003718 -0.004447 0.003710 -0.002125
# 3 0.000239 -0.003718 0.008389 -0.002826 0.004531 -0.004325
# 4 0.002359 -0.004447 -0.002826 0.028751 -0.001239 -0.002424
# 5 -0.002793 0.003710 0.004531 -0.001239 0.014948 0.007798
# 6 0.003220 -0.002125 -0.004325 -0.002424 0.007798 0.016979
#
#
# Mechanical properties :
#
#
# Convention : Reuss Voigt Hill
#
# Bulk Modulus (GPa) = 48.32495 -19.02974 14.64761
# Shear Modulus (GPa) = 44.46595 -67.64537 -11.58971
#
# Velocity S-wave (km/s) = 4.56427 -5.62959 -2.33020
# Velocity P-wave (km/s) = 7.10051 7.15345 0.61425
#
# Compressibility (1/GPa) = 0.02069324
#
# Stress axis : x y z
#
# Youngs Moduli (GPa) = 93.41677 73.05963 119.19789
#
# Poissons Ratio (x) = 0.18740 -0.02849
# Poissons Ratio (y) = 0.23961 0.44321
# Poissons Ratio (z) = -0.02233 0.27165
#
# Static dielectric constant tensor:
#      x y z
#    x 3.935250 0.119640 0.023310 
#    y 0.119640 3.846170 -0.039570 
#    z 0.023310 -0.039570 3.878810 
# 
# 
# High freq. dielectric constant tensor:
#      x y z
#    x 1.847900 0.007830 0.000830 
#    y 0.007830 1.840490 0.002950 
#    z 0.000830 0.002950 1.848470 
# 
# From -- ./inp_files/37544.got.cif
#   From: 2010.06.25/outbox.cif.g09.slc.cpg/sg2_19_cif.got.tgz:37544.got - 2010.06.27 13:26:56.
