data_PCOD8032237
_publ_section_title
;
Structure prediction by ZEFSAII (Michael W. Deem and Ramdas Pophale) SiO2 
 PCOD8032237
Probable space group: P -1
;
_chemical_formula_sum "Si O2"
_cell_formula_units_Z 16
_cell_length_a 8.558870
_cell_length_b 12.949294
_cell_length_c 18.379218
_cell_angle_alpha 150.419531
_cell_angle_beta 129.888969
_cell_angle_gamma 50.389867
_cell_volume 754.211958
_symmetry_space_group_name_H-M "P -1"
_symmetry_group_IT_number 2
_symmetry_cell_setting 'triclinic'
loop_
_space_group_symop_operation_xyz
x,y,z
-x,-y,-z
loop_
_atom_site_type_symbol
_atom_site_label
_atom_site_fract_x
_atom_site_fract_y
_atom_site_fract_z
Si Si1 0.933704 0.510991 0.405308
Si Si2 0.238800 0.956181 0.564512
Si Si3 0.846587 0.661844 0.880520
Si Si4 0.817264 0.091361 0.057019
Si Si5 0.601800 0.625732 0.931465
Si Si6 0.484302 0.219625 0.589643
Si Si7 0.713620 0.422861 0.558064
Si Si8 0.704371 0.592599 0.102051
O O1 0.862831 0.292202 0.235874
O O2 0.748641 0.715991 0.469788
O O3 0.000000 0.500000 0.500000
O O4 0.108808 0.543492 0.422267
O O5 0.358214 0.803203 0.444302
O O6 0.269041 0.826778 0.570354
O O7 0.323927 0.173192 0.727206
O O8 0.000000 0.000000 0.500000
O O9 0.747536 0.643824 0.918108
O O10 0.732135 0.550149 0.716168
O O11 0.093546 0.559835 0.895300
O O12 0.806895 0.911732 0.003406
O O13 0.594698 0.171656 0.999708
O O14 0.000000 0.000000 0.000000
O O15 0.526307 0.401778 0.768598
O O16 0.734161 0.619448 0.041038
O O17 0.500000 0.000000 0.500000
O O18 0.500000 0.500000 0.500000
O O19 0.500000 0.500000 0.000000
#
# Coordination Sequence:
#
# PCOD8032237 Si02
#       8
#     2   2   2   2   2   2   2   2
#     4  11  26  44  67 102 136 177 234 285 343 415
#     4  12  24  46  72 103 141 185 228 290 347 410
#     4  12  25  47  70 101 141 183 232 289 342 416
#     4  11  24  43  72  96 141 182 225 288 349 407
#     4  11  25  44  68 104 138 181 232 284 346 415
#     4  11  23  41  70  98 139 179 227 285 347 408
#     4  12  26  43  73  99 139 182 235 282 351 408
#     4  12  27  44  74 105 142 183 234 282 351 414
#
# _framework density 21.214193999999999
#
# number of rings (size 3 to 8) (size 9 to 14) (size 15 to 20)
#    0.000    0.500    3.750    3.750    5.250    5.000 
#    0.000    0.000    0.000    0.000    0.000    0.000 
#    0.000    0.000    0.000    0.000    0.000    0.000 
#
# Total GULP energy -198458.646779 kJ/mol
# GULP energy per Si atom -12403.665424 kJ/mol
# Density = 2.116591 g / cm^3
# Si number density = 21.214194 Si / 1000 Ang^3
#
#
#
# Elastic Constant Matrix: (Units=GPa)
#
#
# Indices 1 2 3 4 5 6 
#
# 1 105.0310 41.5680 30.7411 -1.2314 3.2192 -2.4199
# 2 41.5680 173.1331 66.1659 7.5011 7.7312 -8.6881
# 3 30.7411 66.1659 94.4285 7.5828 6.7022 -4.2747
# 4 -1.2314 7.5011 7.5828 47.6051 8.1553 3.5941
# 5 3.2192 7.7312 6.7022 8.1553 37.9300 0.3200
# 6 -2.4199 -8.6881 -4.2747 3.5941 0.3200 46.5505
#
#
#
# Elastic Compliance Matrix: (Units=1/GPa)
#
#
# Indices 1 2 3 4 5 6 
#
# 1 0.010933 -0.001738 -0.002398 0.001005 -0.000365 -0.000051
# 2 -0.001738 0.008230 -0.005076 -0.000520 -0.000530 0.001023
# 3 -0.002398 -0.005076 0.015148 -0.001518 -0.001116 0.000444
# 4 0.001005 -0.000520 -0.001518 0.022265 -0.004483 -0.001872
# 5 -0.000365 -0.000530 -0.001116 -0.004483 0.027665 -0.000064
# 6 -0.000051 0.001023 0.000444 -0.001872 -0.000064 0.021856
#
#
# Mechanical properties :
#
#
# Convention : Reuss Voigt Hill
#
# Bulk Modulus (GPa) = 62.94230 72.17140 67.55685
# Shear Modulus (GPa) = 38.51560 42.02496 40.27028
#
# Velocity S-wave (km/s) = 4.26556 4.45565 4.36164
# Velocity P-wave (km/s) = 7.34808 7.78233 7.56832
#
# Compressibility (1/GPa) = 0.01588757
#
# Stress axis : x y z
#
# Youngs Moduli (GPa) = 91.46916 121.49972 66.01354
#
# Poissons Ratio (x) = 0.21118 0.15832
# Poissons Ratio (y) = 0.15898 0.33505
# Poissons Ratio (z) = 0.21937 0.61668
#
# Static dielectric constant tensor:
#      x y z
#    x 4.038800 -0.025200 -0.067240 
#    y -0.025200 4.207290 0.134970 
#    z -0.067240 0.134970 4.432550 
# 
# 
# High freq. dielectric constant tensor:
#      x y z
#    x 1.845740 0.002610 0.003460 
#    y 0.002610 1.852420 0.008640 
#    z 0.003460 0.008640 1.835240 
# 
# From -- ./inp_files/244203.got.cif
#   From: 2010.06.25/outbox.cif.g09.slc.cpg/sg2_123_cif.got.tgz:244203.got - 2010.06.27 13:26:56.
