data_PCOD8032350
_publ_section_title
;
Structure prediction by ZEFSAII (Michael W. Deem and Ramdas Pophale) SiO2 
 PCOD8032350
Probable space group: P -1
;
_chemical_formula_sum "Si O2"
_cell_formula_units_Z 14
_cell_length_a 8.148599
_cell_length_b 10.966385
_cell_length_c 9.416350
_cell_angle_alpha 110.856214
_cell_angle_beta 89.526851
_cell_angle_gamma 54.957376
_cell_volume 618.402840
_symmetry_space_group_name_H-M "P -1"
_symmetry_group_IT_number 2
_symmetry_cell_setting 'triclinic'
loop_
_space_group_symop_operation_xyz
x,y,z
-x,-y,-z
loop_
_atom_site_type_symbol
_atom_site_label
_atom_site_fract_x
_atom_site_fract_y
_atom_site_fract_z
Si Si1 0.631291 0.068958 0.907456
Si Si2 0.101237 0.752125 0.827099
Si Si3 0.867127 0.435402 0.498505
Si Si4 0.706586 0.317670 0.913458
Si Si5 0.410225 0.004748 0.652726
Si Si6 0.529344 0.244503 0.256505
Si Si7 0.014222 0.837505 0.402299
O O1 0.663423 0.188129 0.878874
O O2 0.483347 0.062022 0.801248
O O3 0.856798 0.894258 0.860569
O O4 0.500762 0.153895 0.090463
O O5 0.183759 0.586986 0.669651
O O6 0.134173 0.710951 0.977143
O O7 0.754658 0.198131 0.205766
O O8 0.662626 0.560268 0.649037
O O9 0.990601 0.251584 0.493606
O O10 0.000000 0.500000 0.500000
O O11 0.781473 0.297886 0.744010
O O12 0.500000 0.500000 0.000000
O O13 0.163293 0.124082 0.687716
O O14 0.500000 0.000000 0.500000
O O15 0.476497 0.825396 0.620970
O O16 0.000000 0.000000 0.500000
#
# Coordination Sequence:
#
# PCOD8032350 Si02
#       7
#     2   2   2   2   2   2   2
#     4  11  23  43  66  95 129 171 221 271 328 396
#     4  11  23  44  69  93 128 176 220 265 326 404
#     4  12  26  44  65  98 137 175 219 274 333 394
#     4  11  24  43  67  97 129 168 219 276 329 387
#     4  12  24  39  65 100 133 171 221 278 327 385
#     4  11  23  42  67  95 129 176 222 267 329 401
#     4  12  25  45  70  98 133 177 222 271 330 395
#
# _framework density 22.638964999999999
#
# number of rings (size 3 to 8) (size 9 to 14) (size 15 to 20)
#    0.000    0.571    0.000   11.143    0.000    4.571 
#    0.000    2.143    0.000    0.000    0.000    0.000 
#    0.000    0.000    0.000    0.000    0.000    0.000 
#
# Total GULP energy -173532.303593 kJ/mol
# GULP energy per Si atom -12395.164542 kJ/mol
# Density = 2.258744 g / cm^3
# Si number density = 22.638965 Si / 1000 Ang^3
#
#
#
# Elastic Constant Matrix: (Units=GPa)
#
#
# Indices 1 2 3 4 5 6 
#
# 1 90.6554 36.8129 55.8887 -8.5666 9.2886 -9.0870
# 2 36.8129 99.4604 37.0633 -1.0092 5.5933 1.1373
# 3 55.8887 37.0633 141.2250 14.1955 5.1015 3.4699
# 4 -8.5666 -1.0092 14.1955 35.5408 -3.1176 -15.3482
# 5 9.2886 5.5933 5.1015 -3.1176 39.3830 -7.9635
# 6 -9.0870 1.1373 3.4699 -15.3482 -7.9635 41.3438
#
#
#
# Elastic Compliance Matrix: (Units=1/GPa)
#
#
# Indices 1 2 3 4 5 6 
#
# 1 0.019994 -0.004312 -0.008238 0.012166 -0.000112 0.009699
# 2 -0.004312 0.012206 -0.001319 -0.000999 -0.000975 -0.001731
# 3 -0.008238 -0.001319 0.011894 -0.009807 -0.001544 -0.006710
# 4 0.012166 -0.000999 -0.009807 0.044749 0.006406 0.021371
# 5 -0.000112 -0.000975 -0.001544 0.006406 0.027856 0.007876
# 6 0.009699 -0.001731 -0.006710 0.021371 0.007876 0.036381
#
#
# Mechanical properties :
#
#
# Convention : Reuss Voigt Hill
#
# Bulk Modulus (GPa) = 61.13826 65.65229 63.39527
# Shear Modulus (GPa) = 26.84318 36.69191 31.76755
#
# Velocity S-wave (km/s) = 3.44715 4.03021 3.75003
# Velocity P-wave (km/s) = 6.55043 7.12176 6.84206
#
# Compressibility (1/GPa) = 0.01635637
#
# Stress axis : x y z
#
# Youngs Moduli (GPa) = 50.01617 81.92664 84.07932
#
# Poissons Ratio (x) = 0.35323 0.69264
# Poissons Ratio (y) = 0.21564 0.11090
# Poissons Ratio (z) = 0.41203 0.10806
#
# Static dielectric constant tensor:
#      x y z
#    x 4.349890 -0.095560 0.051210 
#    y -0.095560 4.348830 -0.226620 
#    z 0.051210 -0.226620 4.472230 
# 
# 
# High freq. dielectric constant tensor:
#      x y z
#    x 1.899000 0.003250 -0.001930 
#    y 0.003250 1.891980 -0.004810 
#    z -0.001930 -0.004810 1.912500 
# 
# From -- ./inp_files/190122.got.cif
#   From: 2010.06.25/outbox.cif.g09.slc.cpg/sg2_96_cif.got.tgz:190122.got - 2010.06.27 13:26:56.
