data_PCOD8032135
_publ_section_title
;
Structure prediction by ZEFSAII (Michael W. Deem and Ramdas Pophale) SiO2 
 PCOD8032135
Probable space group: P -1
;
_chemical_formula_sum "Si O2"
_cell_formula_units_Z 12
_cell_length_a 9.429739
_cell_length_b 21.361424
_cell_length_c 8.529737
_cell_angle_alpha 137.201450
_cell_angle_beta 148.506864
_cell_angle_gamma 39.709345
_cell_volume 557.664112
_symmetry_space_group_name_H-M "P -1"
_symmetry_group_IT_number 2
_symmetry_cell_setting 'triclinic'
loop_
_space_group_symop_operation_xyz
x,y,z
-x,-y,-z
loop_
_atom_site_type_symbol
_atom_site_label
_atom_site_fract_x
_atom_site_fract_y
_atom_site_fract_z
Si Si1 0.178140 0.229746 0.532707
Si Si2 0.338993 0.278960 0.446260
Si Si3 0.671446 0.057298 0.349088
Si Si4 0.800883 0.097823 0.894355
Si Si5 0.818474 0.434246 0.744592
Si Si6 0.287792 0.601172 0.066044
O O1 0.317793 0.271838 0.600994
O O2 0.477530 0.161154 0.788468
O O3 0.961291 0.323062 0.600882
O O4 0.991946 0.166091 0.178056
O O5 0.487251 0.167984 0.309133
O O6 0.553119 0.324331 0.658440
O O7 0.011080 0.347927 0.215907
O O8 0.696510 0.062120 0.569674
O O9 0.000000 0.000000 0.500000
O O10 0.500000 0.000000 0.000000
O O11 0.000000 0.000000 0.000000
O O12 0.500000 0.500000 0.500000
O O13 0.793160 0.420179 0.877558
O O14 0.000000 0.500000 0.000000
O O15 0.500000 0.500000 0.000000
#
# Coordination Sequence:
#
# PCOD8032135 Si02
#       6
#     2   2   2   2   2   2
#     4  11  23  43  66  94 133 176 217 272 330 388
#     4  11  23  42  63  92 127 167 214 264 322 384
#     4  11  23  41  65  94 130 172 216 271 327 384
#     4  11  24  42  66  98 133 176 221 271 331 393
#     4  12  25  43  65  95 130 170 215 270 328 390
#     4  12  24  41  66  95 125 167 214 266 321 387
#
# _framework density 21.518329000000001
#
# number of rings (size 3 to 8) (size 9 to 14) (size 15 to 20)
#    0.000    0.667    0.000   10.000    0.000    4.000 
#    0.000    0.000    0.000    0.000    0.000    0.000 
#    0.000    0.000    0.000    0.000    0.000    0.000 
#
# Total GULP energy -148671.318878 kJ/mol
# GULP energy per Si atom -12389.276573 kJ/mol
# Density = 2.146935 g / cm^3
# Si number density = 21.518329 Si / 1000 Ang^3
#
#
#
# Elastic Constant Matrix: (Units=GPa)
#
#
# Indices 1 2 3 4 5 6 
#
# 1 123.3619 61.6832 46.0129 14.1297 6.0282 -2.7580
# 2 61.6832 216.1246 76.1204 -17.5922 0.1229 -23.7110
# 3 46.0129 76.1204 158.5739 -0.0529 18.3220 1.2672
# 4 14.1297 -17.5922 -0.0529 55.5819 -3.2131 8.0460
# 5 6.0282 0.1229 18.3220 -3.2131 38.8716 -2.1088
# 6 -2.7580 -23.7110 1.2672 8.0460 -2.1088 45.1156
#
#
#
# Elastic Compliance Matrix: (Units=1/GPa)
#
#
# Indices 1 2 3 4 5 6 
#
# 1 0.010548 -0.002758 -0.001600 -0.003599 -0.001180 -0.000173
# 2 -0.002758 0.006964 -0.002812 0.002560 0.002117 0.003213
# 3 -0.001600 -0.002812 0.008590 -0.000424 -0.003931 -0.001925
# 4 -0.003599 0.002560 -0.000424 0.020190 0.002291 -0.002356
# 5 -0.001180 0.002117 -0.003931 0.002291 0.028056 0.002054
# 6 -0.000173 0.003213 -0.001925 -0.002356 0.002054 0.024414
#
#
# Mechanical properties :
#
#
# Convention : Reuss Voigt Hill
#
# Bulk Modulus (GPa) = 85.02485 96.18816 90.60650
# Shear Modulus (GPa) = 42.72648 48.86342 45.79495
#
# Velocity S-wave (km/s) = 4.46083 4.77044 4.61823
# Velocity P-wave (km/s) = 8.13207 8.66836 8.40449
#
# Compressibility (1/GPa) = 0.01176127
#
# Stress axis : x y z
#
# Youngs Moduli (GPa) = 94.80205 143.58917 116.41509
#
# Poissons Ratio (x) = 0.39605 0.18629
# Poissons Ratio (y) = 0.26148 0.32738
# Poissons Ratio (z) = 0.15171 0.40380
#
# Static dielectric constant tensor:
#      x y z
#    x 3.727570 -0.411400 0.163980 
#    y -0.411400 4.354870 -0.174000 
#    z 0.163980 -0.174000 4.046600 
# 
# 
# High freq. dielectric constant tensor:
#      x y z
#    x 1.838270 -0.011210 0.014470 
#    y -0.011210 1.883820 -0.010510 
#    z 0.014470 -0.010510 1.859380 
# 
# From -- ./inp_files/205780.got.cif
#   From: 2010.06.25/outbox.cif.g09.slc.cpg/sg2_103_cif.got.tgz:205780.got - 2010.06.27 13:26:56.
