data_PCOD8032132
_publ_section_title
;
Structure prediction by ZEFSAII (Michael W. Deem and Ramdas Pophale) SiO2 
 PCOD8032132
Probable space group: P -1
;
_chemical_formula_sum "Si O2"
_cell_formula_units_Z 10
_cell_length_a 24.120847
_cell_length_b 23.623851
_cell_length_c 8.741851
_cell_angle_alpha 152.388494
_cell_angle_beta 27.274876
_cell_angle_gamma 168.213125
_cell_volume 459.410561
_symmetry_space_group_name_H-M "P -1"
_symmetry_group_IT_number 2
_symmetry_cell_setting 'triclinic'
loop_
_space_group_symop_operation_xyz
x,y,z
-x,-y,-z
loop_
_atom_site_type_symbol
_atom_site_label
_atom_site_fract_x
_atom_site_fract_y
_atom_site_fract_z
Si Si1 0.964392 0.460905 0.173449
Si Si2 0.494691 0.144935 0.058388
Si Si3 0.709151 0.777631 0.237932
Si Si4 0.721156 0.450922 0.928639
Si Si5 0.836757 0.946025 0.666094
O O1 0.905556 0.543467 0.577410
O O2 0.000000 0.500000 0.000000
O O3 0.246562 0.658472 0.007254
O O4 0.723975 0.160494 0.114497
O O5 0.364474 0.151286 0.458463
O O6 0.585971 0.242447 0.891617
O O7 0.721910 0.777554 0.390251
O O8 0.500000 0.500000 0.000000
O O9 0.000000 0.000000 0.000000
O O10 0.454529 0.270327 0.062164
O O11 0.937862 0.742373 0.174939
O O12 0.000000 0.000000 0.500000
#
# Coordination Sequence:
#
# PCOD8032132 Si02
#       5
#     2   2   2   2   2
#     4  12  25  41  64  97 128 165 215 273 326 374
#     4  11  23  43  64  90 128 173 215 259 319 395
#     4  11  23  41  65  94 127 170 215 261 318 382
#     4  11  23  43  67  94 129 176 217 259 322 397
#     4  11  24  42  66  99 132 170 217 268 323 384
#
# _framework density 21.767022999999998
#
# number of rings (size 3 to 8) (size 9 to 14) (size 15 to 20)
#    0.000    0.800    0.000    9.600    0.000    4.800 
#    0.000    0.000    0.000    0.000    0.000    0.000 
#    0.000    0.000    0.000    0.000    0.000    0.000 
#
# Total GULP energy -123950.272450 kJ/mol
# GULP energy per Si atom -12395.027245 kJ/mol
# Density = 2.171748 g / cm^3
# Si number density = 21.767023 Si / 1000 Ang^3
#
#
#
# Elastic Constant Matrix: (Units=GPa)
#
#
# Indices 1 2 3 4 5 6 
#
# 1 132.1690 48.8933 66.6020 -7.4173 0.5363 24.1954
# 2 48.8933 146.7597 50.8052 -0.7967 2.4333 25.5057
# 3 66.6020 50.8052 147.7406 -20.0957 2.9628 17.6060
# 4 -7.4173 -0.7967 -20.0957 56.4907 10.0680 -11.7712
# 5 0.5363 2.4333 2.9628 10.0680 30.4530 -12.8769
# 6 24.1954 25.5057 17.6060 -11.7712 -12.8769 50.2762
#
#
#
# Elastic Compliance Matrix: (Units=1/GPa)
#
#
# Indices 1 2 3 4 5 6 
#
# 1 0.010733 -0.001622 -0.003941 -0.000547 -0.000899 -0.003320
# 2 -0.001622 0.008686 -0.001961 -0.001263 -0.001598 -0.003644
# 3 -0.003941 -0.001961 0.009722 0.003197 -0.001881 -0.000246
# 4 -0.000547 -0.001263 0.003197 0.020403 -0.005626 0.003120
# 5 -0.000899 -0.001598 -0.001881 -0.005626 0.039555 0.010716
# 6 -0.003320 -0.003644 -0.000246 0.003120 0.010716 0.026898
#
#
# Mechanical properties :
#
#
# Convention : Reuss Voigt Hill
#
# Bulk Modulus (GPa) = 70.96538 84.36337 77.66437
# Shear Modulus (GPa) = 36.83423 44.80192 40.81808
#
# Velocity S-wave (km/s) = 4.11810 4.54171 4.33509
# Velocity P-wave (km/s) = 7.43537 8.14521 7.79837
#
# Compressibility (1/GPa) = 0.01409138
#
# Stress axis : x y z
#
# Youngs Moduli (GPa) = 93.16947 115.12535 102.86290
#
# Poissons Ratio (x) = 0.18677 0.40542
# Poissons Ratio (y) = 0.15115 0.20172
# Poissons Ratio (z) = 0.36722 0.22577
#
# Static dielectric constant tensor:
#      x y z
#    x 3.855200 0.296910 -0.340950 
#    y 0.296910 4.140910 -0.045050 
#    z -0.340950 -0.045050 4.078360 
# 
# 
# High freq. dielectric constant tensor:
#      x y z
#    x 1.844150 0.016510 -0.011630 
#    y 0.016510 1.883670 -0.011030 
#    z -0.011630 -0.011030 1.868390 
# 
# From -- ./inp_files/30994.got.cif
#   From: 2010.06.25/outbox.cif.g09.slc.cpg/sg2_16_cif.got.tgz:30994.got - 2010.06.27 13:26:56.
