data_PCOD8032188
_publ_section_title
;
Structure prediction by ZEFSAII (Michael W. Deem and Ramdas Pophale) SiO2 
 PCOD8032188
Probable space group: P -1
;
_chemical_formula_sum "Si O2"
_cell_formula_units_Z 16
_cell_length_a 8.874277
_cell_length_b 12.730825
_cell_length_c 9.049874
_cell_angle_alpha 72.906287
_cell_angle_beta 121.686582
_cell_angle_gamma 119.770909
_cell_volume 754.431012
_symmetry_space_group_name_H-M "P -1"
_symmetry_group_IT_number 2
_symmetry_cell_setting 'triclinic'
loop_
_space_group_symop_operation_xyz
x,y,z
-x,-y,-z
loop_
_atom_site_type_symbol
_atom_site_label
_atom_site_fract_x
_atom_site_fract_y
_atom_site_fract_z
Si Si1 0.229351 0.266800 0.283940
Si Si2 0.141875 0.130084 0.587357
Si Si3 0.862821 0.333033 0.058334
Si Si4 0.401644 0.510431 0.596506
Si Si5 0.537670 0.887264 0.025058
Si Si6 0.807834 0.879939 0.938268
Si Si7 0.140080 0.299258 0.742815
Si Si8 0.931446 0.440735 0.740372
O O1 0.241825 0.231348 0.473254
O O2 0.428247 0.375648 0.284040
O O3 0.211593 0.149390 0.232359
O O4 0.045878 0.299125 0.155695
O O5 0.317436 0.124254 0.773645
O O6 0.029816 0.187914 0.614843
O O7 0.000000 0.000000 0.500000
O O8 0.898688 0.436262 0.157754
O O9 0.668189 0.223998 0.052674
O O10 0.819539 0.368094 0.857837
O O11 0.500000 0.500000 0.500000
O O12 0.335356 0.396258 0.721181
O O13 0.210666 0.530615 0.452241
O O14 0.633949 0.907543 0.903900
O O15 0.500000 0.000000 0.000000
O O16 0.804502 0.759721 0.063985
O O17 0.000000 0.000000 0.000000
O O18 0.009433 0.364392 0.707388
#
# Coordination Sequence:
#
# PCOD8032188 Si02
#       8
#     2   2   2   2   2   2   2   2
#     4  12  23  44  68  98 139 180 220 282 340 405
#     4  11  23  44  70  95 132 182 227 278 345 398
#     4  11  23  41  68  98 138 180 221 274 343 402
#     4  12  24  42  66 103 140 175 223 274 347 403
#     4  11  25  44  70  99 133 179 233 281 336 405
#     4  11  25  46  69  99 132 177 230 285 336 405
#     4  11  24  43  72  97 134 182 224 285 340 412
#     4  11  24  42  67 101 140 176 223 280 335 414
#
# _framework density 21.208037000000001
#
# number of rings (size 3 to 8) (size 9 to 14) (size 15 to 20)
#    0.000    0.750    3.750    4.125    3.500    0.500 
#    2.250    0.625    0.000    0.000    0.000    0.000 
#    0.000    0.000    0.000    0.000    0.000    0.000 
#
# Total GULP energy -198321.050386 kJ/mol
# GULP energy per Si atom -12395.065649 kJ/mol
# Density = 2.115977 g / cm^3
# Si number density = 21.208037 Si / 1000 Ang^3
#
#
#
# Elastic Constant Matrix: (Units=GPa)
#
#
# Indices 1 2 3 4 5 6 
#
# 1 121.1581 70.7346 28.2309 8.9608 -4.6625 -16.4142
# 2 70.7346 137.9791 22.5778 17.4919 -1.7538 -3.3129
# 3 28.2309 22.5778 74.1782 2.5315 -1.0384 -5.8338
# 4 8.9608 17.4919 2.5315 42.2960 -4.5108 -6.0142
# 5 -4.6625 -1.7538 -1.0384 -4.5108 26.0234 4.9882
# 6 -16.4142 -3.3129 -5.8338 -6.0142 4.9882 53.8393
#
#
#
# Elastic Compliance Matrix: (Units=1/GPa)
#
#
# Indices 1 2 3 4 5 6 
#
# 1 0.012941 -0.006154 -0.002801 0.000563 0.001275 0.003208
# 2 -0.006154 0.010961 -0.001014 -0.003475 -0.000693 -0.001636
# 3 -0.002801 -0.001014 0.014905 0.000216 -0.000078 0.000730
# 4 0.000563 -0.003475 0.000216 0.025714 0.003854 0.002497
# 5 0.001275 -0.000693 -0.000078 0.003854 0.039834 -0.002922
# 6 0.003208 -0.001636 0.000730 0.002497 -0.002922 0.020080
#
#
# Mechanical properties :
#
#
# Convention : Reuss Voigt Hill
#
# Bulk Modulus (GPa) = 52.99813 64.04467 58.52140
# Shear Modulus (GPa) = 33.18695 38.54988 35.86841
#
# Velocity S-wave (km/s) = 3.96008 4.26808 4.11696
# Velocity P-wave (km/s) = 6.77891 7.38597 7.08894
#
# Compressibility (1/GPa) = 0.01886859
#
# Stress axis : x y z
#
# Youngs Moduli (GPa) = 77.27203 91.23523 67.09327
#
# Poissons Ratio (x) = 0.56147 0.18794
# Poissons Ratio (y) = 0.47554 0.06801
# Poissons Ratio (z) = 0.21645 0.09249
#
# Static dielectric constant tensor:
#      x y z
#    x 4.076960 -0.176490 -0.206340 
#    y -0.176490 3.953890 -0.231670 
#    z -0.206340 -0.231670 3.814900 
# 
# 
# High freq. dielectric constant tensor:
#      x y z
#    x 1.832860 -0.008470 -0.017250 
#    y -0.008470 1.852440 -0.000370 
#    z -0.017250 -0.000370 1.828600 
# 
# From -- ./inp_files/186177.got.cif
#   From: 2010.06.25/outbox.cif.g09.slc.cpg/sg2_94_cif.got.tgz:186177.got - 2010.06.27 13:26:56.
