data_PCOD8032644
_publ_section_title
;
Structure prediction by ZEFSAII (Michael W. Deem and Ramdas Pophale) SiO2 
 PCOD8032644
Probable space group: P -1
;
_chemical_formula_sum "Si O2"
_cell_formula_units_Z 16
_cell_length_a 6.221729
_cell_length_b 11.286218
_cell_length_c 26.522681
_cell_angle_alpha 31.005076
_cell_angle_beta 130.482571
_cell_angle_gamma 122.430813
_cell_volume 728.722144
_symmetry_space_group_name_H-M "P -1"
_symmetry_group_IT_number 2
_symmetry_cell_setting 'triclinic'
loop_
_space_group_symop_operation_xyz
x,y,z
-x,-y,-z
loop_
_atom_site_type_symbol
_atom_site_label
_atom_site_fract_x
_atom_site_fract_y
_atom_site_fract_z
Si Si1 0.198557 0.443232 0.454363
Si Si2 0.828305 0.197721 0.764954
Si Si3 0.394384 0.402207 0.257882
Si Si4 0.772731 0.541443 0.095138
Si Si5 0.789872 0.676832 0.934328
Si Si6 0.335160 0.236071 0.900694
Si Si7 0.408407 0.522587 0.629645
Si Si8 0.692512 0.923720 0.469249
O O1 0.500000 0.500000 0.500000
O O2 0.084628 0.628172 0.328376
O O3 0.269182 0.187228 0.539045
O O4 0.924222 0.437579 0.451197
O O5 0.516531 0.283303 0.706646
O O6 0.027857 0.225660 0.833308
O O7 0.845211 0.943953 0.835174
O O8 0.495406 0.552676 0.171743
O O9 0.546552 0.491030 0.298556
O O10 0.055574 0.413603 0.206385
O O11 0.470283 0.136939 0.355051
O O12 0.528789 0.361643 0.117427
O O13 0.683688 0.738152 0.050846
O O14 0.831042 0.651758 0.009662
O O15 0.000000 0.500000 0.000000
O O16 0.500000 0.000000 0.000000
O O17 0.585908 0.736116 0.560631
O O18 0.000000 0.000000 0.500000
#
# Coordination Sequence:
#
# PCOD8032644 Si02
#       8
#     2   2   2   2   2   2   2   2
#     4  11  26  44  67 101 141 187 234 288 355 423
#     4  11  24  44  69  98 139 183 232 293 350 423
#     4  12  23  40  70 102 134 177 232 290 352 408
#     4  11  26  43  69 101 135 184 235 287 355 422
#     4  11  26  48  66  99 144 183 232 290 354 424
#     4  12  25  42  70 105 138 181 239 290 347 423
#     4  11  23  43  69 100 138 179 233 293 353 412
#     4  11  24  42  68 101 135 182 234 293 346 420
#
# _framework density 21.956244000000002
#
# number of rings (size 3 to 8) (size 9 to 14) (size 15 to 20)
#    0.000    0.750    3.750    3.375    1.750    9.000 
#    0.000    0.000    0.000    0.000    0.000    0.000 
#    0.000    0.000    0.000    0.000    0.000    0.000 
#
# Total GULP energy -198348.807748 kJ/mol
# GULP energy per Si atom -12396.800484 kJ/mol
# Density = 2.190627 g / cm^3
# Si number density = 21.956244 Si / 1000 Ang^3
#
#
#
# Elastic Constant Matrix: (Units=GPa)
#
#
# Indices 1 2 3 4 5 6 
#
# 1 133.9513 55.3088 47.1081 -2.1932 23.9442 -2.6017
# 2 55.3088 132.5378 47.4478 -5.7509 22.1212 0.6865
# 3 47.1081 47.4478 100.7885 -17.0362 22.8109 -9.5757
# 4 -2.1932 -5.7509 -17.0362 46.1246 -1.4652 16.5537
# 5 23.9442 22.1212 22.8109 -1.4652 41.4365 3.1364
# 6 -2.6017 0.6865 -9.5757 16.5537 3.1364 48.3197
#
#
#
# Elastic Compliance Matrix: (Units=1/GPa)
#
#
# Indices 1 2 3 4 5 6 
#
# 1 0.010144 -0.002758 -0.002951 -0.001265 -0.002856 0.000619
# 2 -0.002758 0.010152 -0.003062 0.000243 -0.002068 -0.000848
# 3 -0.002951 -0.003062 0.014670 0.004144 -0.004716 0.001678
# 4 -0.001265 0.000243 0.004144 0.026115 -0.000137 -0.008188
# 5 -0.002856 -0.002068 -0.004716 -0.000137 0.029702 -0.002940
# 6 0.000619 -0.000848 0.001678 -0.008188 -0.002940 0.024069
#
#
# Mechanical properties :
#
#
# Convention : Reuss Voigt Hill
#
# Bulk Modulus (GPa) = 57.39311 74.11189 65.75250
# Shear Modulus (GPa) = 36.17870 41.67036 38.92453
#
# Velocity S-wave (km/s) = 4.06367 4.36119 4.21506
# Velocity P-wave (km/s) = 6.94366 7.69335 7.32810
#
# Compressibility (1/GPa) = 0.01742369
#
# Stress axis : x y z
#
# Youngs Moduli (GPa) = 98.58060 98.50213 68.16633
#
# Poissons Ratio (x) = 0.27166 0.20119
# Poissons Ratio (y) = 0.27188 0.20871
# Poissons Ratio (z) = 0.29095 0.30160
#
# Static dielectric constant tensor:
#      x y z
#    x 4.240000 -0.090580 0.073120 
#    y -0.090580 3.999610 0.091400 
#    z 0.073120 0.091400 4.174580 
# 
# 
# High freq. dielectric constant tensor:
#      x y z
#    x 1.878150 0.002770 0.015970 
#    y 0.002770 1.869880 0.000080 
#    z 0.015970 0.000080 1.859520 
# 
# From -- ./inp_files/78689.got.cif
#   From: 2010.06.25/outbox.cif.g09.slc.cpg/sg2_40_cif.got.tgz:78689.got - 2010.06.27 13:26:56.
