data_PCOD8032346
_publ_section_title
;
Structure prediction by ZEFSAII (Michael W. Deem and Ramdas Pophale) SiO2 
 PCOD8032346
Probable space group: P -1
;
_chemical_formula_sum "Si O2"
_cell_formula_units_Z 16
_cell_length_a 12.244023
_cell_length_b 5.336531
_cell_length_c 13.290948
_cell_angle_alpha 91.236775
_cell_angle_beta 55.027288
_cell_angle_gamma 75.484021
_cell_volume 673.789904
_symmetry_space_group_name_H-M "P -1"
_symmetry_group_IT_number 2
_symmetry_cell_setting 'triclinic'
loop_
_space_group_symop_operation_xyz
x,y,z
-x,-y,-z
loop_
_atom_site_type_symbol
_atom_site_label
_atom_site_fract_x
_atom_site_fract_y
_atom_site_fract_z
Si Si1 0.249302 0.659967 0.280728
Si Si2 0.053686 0.803849 0.879167
Si Si3 0.802149 0.655599 0.968460
Si Si4 0.269457 0.206113 0.598535
Si Si5 0.659089 0.619332 0.239078
Si Si6 0.351501 0.645762 0.440749
Si Si7 0.650365 0.918974 0.870837
Si Si8 0.027717 0.795624 0.242871
O O1 0.244749 0.674900 0.404122
O O2 0.344302 0.837089 0.197470
O O3 0.090387 0.799957 0.322313
O O4 0.317049 0.352083 0.212108
O O5 0.039812 0.926266 0.775164
O O6 0.952713 0.624838 0.937921
O O7 0.216867 0.652268 0.807186
O O8 0.000000 0.000000 0.000000
O O9 0.833499 0.371679 0.895405
O O10 0.759598 0.879208 0.906079
O O11 0.679802 0.718164 0.117023
O O12 0.327342 0.168318 0.682741
O O13 0.337483 0.412519 0.516205
O O14 0.682856 0.076890 0.481797
O O15 0.099003 0.332680 0.685220
O O16 0.512124 0.562390 0.317583
O O17 0.500000 0.000000 0.000000
#
# Coordination Sequence:
#
# PCOD8032346 Si02
#       8
#     2   2   2   2   2   2   2   2
#     4  11  25  46  72 101 146 186 243 299 349 428
#     4  12  22  39  69 104 147 182 229 286 365 434
#     4  11  23  42  67 108 142 177 229 291 372 433
#     4  12  27  48  74 100 147 193 249 302 348 424
#     4  12  25  46  72 107 146 188 238 302 365 437
#     4  12  29  50  71 105 142 200 250 293 356 419
#     4  11  23  42  71 106 147 186 228 287 366 442
#     4  11  24  45  71 107 142 185 239 297 368 423
#
# _framework density 23.746272999999999
#
# number of rings (size 3 to 8) (size 9 to 14) (size 15 to 20)
#    0.000    0.500    3.750    4.500    0.000    5.000 
#    0.000    0.000    0.000    0.000    0.000    0.000 
#    0.000    0.000    0.000    0.000    0.000    0.000 
#
# Total GULP energy -198346.955024 kJ/mol
# GULP energy per Si atom -12396.684689 kJ/mol
# Density = 2.369223 g / cm^3
# Si number density = 23.746273 Si / 1000 Ang^3
#
#
#
# Elastic Constant Matrix: (Units=GPa)
#
#
# Indices 1 2 3 4 5 6 
#
# 1 100.4015 19.2590 29.7266 9.1964 8.7276 3.5767
# 2 19.2590 95.5803 32.1006 3.0931 10.9979 21.4900
# 3 29.7266 32.1006 109.9241 4.2289 1.3076 12.9205
# 4 9.1964 3.0931 4.2289 25.5913 3.4523 -3.7405
# 5 8.7276 10.9979 1.3076 3.4523 45.2900 -5.2064
# 6 3.5767 21.4900 12.9205 -3.7405 -5.2064 36.0552
#
#
#
# Elastic Compliance Matrix: (Units=1/GPa)
#
#
# Indices 1 2 3 4 5 6 
#
# 1 0.011390 -0.001103 -0.002597 -0.003331 -0.001612 -0.000121
# 2 -0.001103 0.013865 -0.002721 -0.001461 -0.003872 -0.007890
# 3 -0.002597 -0.002721 0.010857 -0.000918 0.000687 -0.002007
# 4 -0.003331 -0.001461 -0.000918 0.041627 -0.001502 0.005632
# 5 -0.001612 -0.003872 0.000687 -0.001502 0.024062 0.005540
# 6 -0.000121 -0.007890 -0.002007 0.005632 0.005540 0.034554
#
#
# Mechanical properties :
#
#
# Convention : Reuss Voigt Hill
#
# Bulk Modulus (GPa) = 42.97105 52.00870 47.48988
# Shear Modulus (GPa) = 31.85670 36.37528 34.11599
#
# Velocity S-wave (km/s) = 3.66668 3.91811 3.79448
# Velocity P-wave (km/s) = 6.00511 6.51292 6.26416
#
# Compressibility (1/GPa) = 0.02327148
#
# Stress axis : x y z
#
# Youngs Moduli (GPa) = 87.79761 72.12288 92.10531
#
# Poissons Ratio (x) = 0.07952 0.23917
# Poissons Ratio (y) = 0.09680 0.25063
# Poissons Ratio (z) = 0.22798 0.19626
#
# Static dielectric constant tensor:
#      x y z
#    x 5.472900 0.006390 -0.084630 
#    y 0.006390 4.257640 -0.029170 
#    z -0.084630 -0.029170 4.759290 
# 
# 
# High freq. dielectric constant tensor:
#      x y z
#    x 1.956770 -0.001640 0.005020 
#    y -0.001640 1.936280 -0.001500 
#    z 0.005020 -0.001500 1.943050 
# 
# From -- ./inp_files/510890.got.cif
#   From: 2010.06.25/outbox.cif.g09.slc.cpg/sg2_256_cif.got.tgz:510890.got - 2010.06.27 13:26:56.
