data_PCOD8032005
_publ_section_title
;
Structure prediction by ZEFSAII (Michael W. Deem and Ramdas Pophale) SiO2 
 PCOD8032005
Probable space group: P -1
;
_chemical_formula_sum "Si O2"
_cell_formula_units_Z 14
_cell_length_a 21.558257
_cell_length_b 10.240977
_cell_length_c 5.292333
_cell_angle_alpha 116.099764
_cell_angle_beta 65.474090
_cell_angle_gamma 145.107559
_cell_volume 596.872219
_symmetry_space_group_name_H-M "P -1"
_symmetry_group_IT_number 2
_symmetry_cell_setting 'triclinic'
loop_
_space_group_symop_operation_xyz
x,y,z
-x,-y,-z
loop_
_atom_site_type_symbol
_atom_site_label
_atom_site_fract_x
_atom_site_fract_y
_atom_site_fract_z
Si Si1 0.275039 0.298390 0.889090
Si Si2 0.232360 0.542966 0.126831
Si Si3 0.492563 0.324056 0.279287
Si Si4 0.272660 0.864681 0.988578
Si Si5 0.424081 0.977856 0.448457
Si Si6 0.986084 0.879946 0.666716
Si Si7 0.814336 0.976255 0.674652
O O1 0.401970 0.526207 0.948664
O O2 0.266546 0.173018 0.559094
O O3 0.224597 0.361067 0.902793
O O4 0.214970 0.158923 0.133539
O O5 0.211071 0.625773 0.015768
O O6 0.359331 0.768867 0.184562
O O7 0.133713 0.395691 0.369851
O O8 0.500000 0.500000 0.500000
O O9 0.380395 0.100721 0.146189
O O10 0.503807 0.231830 0.416587
O O11 0.187345 0.855624 0.101905
O O12 0.319123 0.885430 0.664512
O O13 0.500000 0.000000 0.500000
O O14 0.069732 0.884147 0.509401
O O15 0.000000 0.000000 0.500000
O O16 0.000000 0.000000 0.000000
#
# Coordination Sequence:
#
# PCOD8032005 Si02
#       7
#     2   2   2   2   2   2   2
#     4  12  25  43  74 103 139 188 241 291 349 422
#     4  11  26  44  71 102 144 182 243 293 362 417
#     4  11  23  40  65 101 138 187 234 287 351 421
#     4  11  26  43  67 105 149 184 236 297 363 420
#     4  11  25  43  69 103 148 189 238 285 359 429
#     4  12  25  48  76 107 135 185 246 299 353 426
#     4  12  26  46  72 107 139 184 240 299 354 418
#
# _framework density 23.455606
#
# number of rings (size 3 to 8) (size 9 to 14) (size 15 to 20)
#    0.000    0.571    4.286    2.571   10.000    4.000 
#    0.000    0.714    0.000    0.000    0.000    0.000 
#    0.000    0.000    0.000    0.000    0.000    0.000 
#
# Total GULP energy -173432.880028 kJ/mol
# GULP energy per Si atom -12388.062859 kJ/mol
# Density = 2.340222 g / cm^3
# Si number density = 23.455606 Si / 1000 Ang^3
#
#
#
# Elastic Constant Matrix: (Units=GPa)
#
#
# Indices 1 2 3 4 5 6 
#
# 1 92.1108 19.0373 18.1763 -4.1898 -24.1601 -11.4723
# 2 19.0373 102.2562 10.1203 -20.3091 -2.8736 -11.4143
# 3 18.1763 10.1203 83.6154 -14.2474 -11.7796 -16.2749
# 4 -4.1898 -20.3091 -14.2474 31.1511 1.2657 -8.0943
# 5 -24.1601 -2.8736 -11.7796 1.2657 52.6532 -4.2483
# 6 -11.4723 -11.4143 -16.2749 -8.0943 -4.2483 35.7276
#
#
#
# Elastic Compliance Matrix: (Units=1/GPa)
#
#
# Indices 1 2 3 4 5 6 
#
# 1 0.013617 -0.001466 -0.000724 0.001500 0.006347 0.004669
# 2 -0.001466 0.012854 0.002160 0.011011 0.000829 0.007213
# 3 -0.000724 0.002160 0.016582 0.011620 0.004114 0.011133
# 4 0.001500 0.011011 0.011620 0.050119 0.004392 0.021170
# 5 0.006347 0.000829 0.004114 0.004392 0.023406 0.007955
# 6 0.004669 0.007213 0.011133 0.021170 0.007955 0.042607
#
#
# Mechanical properties :
#
#
# Convention : Reuss Voigt Hill
#
# Bulk Modulus (GPa) = 23.26007 41.40558 32.33283
# Shear Modulus (GPa) = 28.80571 39.28295 34.04433
#
# Velocity S-wave (km/s) = 3.50822 4.09685 3.81391
# Velocity P-wave (km/s) = 5.13306 6.33008 5.76274
#
# Compressibility (1/GPa) = 0.04299213
#
# Stress axis : x y z
#
# Youngs Moduli (GPa) = 73.43874 77.79694 60.30596
#
# Poissons Ratio (x) = 0.11406 0.04368
# Poissons Ratio (y) = 0.10767 -0.13026
# Poissons Ratio (z) = 0.05319 -0.16804
#
# Static dielectric constant tensor:
#      x y z
#    x 4.375700 0.087270 -0.298030 
#    y 0.087270 4.595180 -0.114710 
#    z -0.298030 -0.114710 4.164150 
# 
# 
# High freq. dielectric constant tensor:
#      x y z
#    x 1.931890 -0.003000 -0.021170 
#    y -0.003000 1.932300 -0.008560 
#    z -0.021170 -0.008560 1.927570 
# 
# From -- ./inp_files/28193.got.cif
#   From: 2010.06.25/outbox.cif.g09.slc.cpg/sg2_15_cif.got.tgz:28193.got - 2010.06.27 13:26:56.
