data_PCOD8032265
_publ_section_title
;
Structure prediction by ZEFSAII (Michael W. Deem and Ramdas Pophale) SiO2 
 PCOD8032265
Probable space group: P -1
;
_chemical_formula_sum "Si O2"
_cell_formula_units_Z 14
_cell_length_a 6.464096
_cell_length_b 8.224905
_cell_length_c 15.739480
_cell_angle_alpha 69.928248
_cell_angle_beta 125.479535
_cell_angle_gamma 96.117261
_cell_volume 635.337681
_symmetry_space_group_name_H-M "P -1"
_symmetry_group_IT_number 2
_symmetry_cell_setting 'triclinic'
loop_
_space_group_symop_operation_xyz
x,y,z
-x,-y,-z
loop_
_atom_site_type_symbol
_atom_site_label
_atom_site_fract_x
_atom_site_fract_y
_atom_site_fract_z
Si Si1 0.226796 0.574952 0.683831
Si Si2 0.546836 0.195643 0.423460
Si Si3 0.234240 0.035973 0.107312
Si Si4 0.744133 0.807177 0.293830
Si Si5 0.252052 0.165801 0.511675
Si Si6 0.950916 0.915735 0.757987
Si Si7 0.556658 0.338538 0.104203
O O1 0.374754 0.623346 0.624861
O O2 0.168359 0.378235 0.695293
O O3 0.404022 0.594150 0.803557
O O4 0.971878 0.708959 0.609830
O O5 0.516441 0.197128 0.518564
O O6 0.270930 0.166262 0.327857
O O7 0.766893 0.042274 0.469693
O O8 0.318171 0.225179 0.071209
O O9 0.149638 0.018343 0.186655
O O10 0.474980 0.889400 0.174801
O O11 0.000000 0.000000 0.000000
O O12 0.720276 0.786046 0.392837
O O13 0.966718 0.924935 0.306161
O O14 0.192228 0.771298 0.853767
O O15 0.500000 0.500000 0.000000
#
# Coordination Sequence:
#
# PCOD8032265 Si02
#       7
#     2   2   2   2   2   2   2
#     4  12  25  43  64 102 133 170 216 273 322 383
#     4  11  23  41  73  93 129 176 221 262 322 391
#     4  11  26  46  69  96 130 174 219 265 328 391
#     4  11  27  42  66  99 138 168 215 269 329 384
#     4  11  24  43  67  99 133 175 214 267 326 389
#     4  11  23  47  67  95 131 174 215 267 326 389
#     4  11  26  44  69  98 130 169 223 270 321 384
#
# _framework density 22.035526000000001
#
# number of rings (size 3 to 8) (size 9 to 14) (size 15 to 20)
#    0.000    0.857    4.286    1.714    8.000    4.571 
#    0.000    0.000    0.000    0.000    0.000    0.000 
#    0.000    0.000    0.000    0.000    0.000    0.000 
#
# Total GULP energy -173619.410274 kJ/mol
# GULP energy per Si atom -12401.386448 kJ/mol
# Density = 2.198537 g / cm^3
# Si number density = 22.035526 Si / 1000 Ang^3
#
#
#
# Elastic Constant Matrix: (Units=GPa)
#
#
# Indices 1 2 3 4 5 6 
#
# 1 96.4395 36.2102 31.7162 -3.3802 -1.3299 -4.1051
# 2 36.2102 116.4801 43.2722 -15.6150 6.3735 1.5206
# 3 31.7162 43.2722 96.2568 -9.5673 3.3998 7.2651
# 4 -3.3802 -15.6150 -9.5673 34.2270 7.2255 -0.5600
# 5 -1.3299 6.3735 3.3998 7.2255 36.3597 2.5251
# 6 -4.1051 1.5206 7.2651 -0.5600 2.5251 23.4920
#
#
#
# Elastic Compliance Matrix: (Units=1/GPa)
#
#
# Indices 1 2 3 4 5 6 
#
# 1 0.012680 -0.003023 -0.003235 -0.001257 0.001321 0.003240
# 2 -0.003023 0.011664 -0.003717 0.004565 -0.002733 0.000269
# 3 -0.003235 -0.003717 0.013678 0.001908 -0.000818 -0.004421
# 4 -0.001257 0.004565 0.001908 0.033340 -0.007686 0.000516
# 5 0.001321 -0.002733 -0.000818 -0.007686 0.029824 -0.002728
# 6 0.003240 0.000269 -0.004421 0.000516 -0.002728 0.044789
#
#
# Mechanical properties :
#
#
# Convention : Reuss Voigt Hill
#
# Bulk Modulus (GPa) = 55.33721 59.06374 57.20048
# Shear Modulus (GPa) = 29.07810 32.01426 30.54618
#
# Velocity S-wave (km/s) = 3.63657 3.81576 3.72724
# Velocity P-wave (km/s) = 6.54218 6.80260 6.67366
#
# Compressibility (1/GPa) = 0.01807102
#
# Stress axis : x y z
#
# Youngs Moduli (GPa) = 78.86223 85.73342 73.10842
#
# Poissons Ratio (x) = 0.25919 0.23652
# Poissons Ratio (y) = 0.23842 0.27178
# Poissons Ratio (z) = 0.25513 0.31871
#
# Static dielectric constant tensor:
#      x y z
#    x 4.521340 -0.198360 -0.432480 
#    y -0.198360 3.891830 0.057800 
#    z -0.432480 0.057800 4.687660 
# 
# 
# High freq. dielectric constant tensor:
#      x y z
#    x 1.888110 -0.003110 -0.002380 
#    y -0.003110 1.853410 -0.006610 
#    z -0.002380 -0.006610 1.874010 
# 
# From -- ./inp_files/135671.got.cif
#   From: 2010.06.25/outbox.cif.g09.slc.cpg/sg2_68_cif.got.tgz:135671.got - 2010.06.27 13:26:56.
