data_PCOD8032227
_publ_section_title
;
Structure prediction by ZEFSAII (Michael W. Deem and Ramdas Pophale) SiO2 
 PCOD8032227
Probable space group: P -1
;
_chemical_formula_sum "Si O2"
_cell_formula_units_Z 16
_cell_length_a 8.982922
_cell_length_b 15.113661
_cell_length_c 9.726820
_cell_angle_alpha 121.448703
_cell_angle_beta 122.275325
_cell_angle_gamma 38.037494
_cell_volume 674.880942
_symmetry_space_group_name_H-M "P -1"
_symmetry_group_IT_number 2
_symmetry_cell_setting 'triclinic'
loop_
_space_group_symop_operation_xyz
x,y,z
-x,-y,-z
loop_
_atom_site_type_symbol
_atom_site_label
_atom_site_fract_x
_atom_site_fract_y
_atom_site_fract_z
Si Si1 0.592498 0.356929 0.002491
Si Si2 0.770144 0.537396 0.842130
Si Si3 0.950234 0.253240 0.552725
Si Si4 0.853903 0.830405 0.912379
Si Si5 0.312378 0.057441 0.801319
Si Si6 0.425847 0.777238 0.650632
Si Si7 0.380115 0.356469 0.644828
Si Si8 0.012668 0.347387 0.401345
O O1 0.535004 0.292136 0.808827
O O2 0.500000 0.500000 0.000000
O O3 0.448426 0.392362 0.099188
O O4 0.891577 0.225053 0.066222
O O5 0.836910 0.399406 0.694403
O O6 0.666588 0.654614 0.765090
O O7 0.000000 0.500000 0.000000
O O8 0.768157 0.233390 0.428451
O O9 0.196452 0.114487 0.640939
O O10 0.028251 0.244669 0.428350
O O11 0.831133 0.735413 0.731147
O O12 0.586855 0.997663 0.888183
O O13 0.865880 0.808660 0.065928
O O14 0.321297 0.934801 0.760782
O O15 0.463787 0.761223 0.492517
O O16 0.127143 0.396894 0.580340
O O17 0.277568 0.512504 0.670163
#
# Coordination Sequence:
#
# PCOD8032227 Si02
#       8
#     2   2   2   2   2   2   2   2
#     4  12  24  41  72 106 141 185 239 297 355 421
#     4  12  28  45  75 113 148 185 239 305 363 426
#     4  12  26  46  74 107 143 189 247 293 363 429
#     4  11  24  46  71  98 143 190 244 285 361 429
#     4  11  27  47  75 101 147 202 236 293 364 438
#     4  12  25  48  72 107 143 191 243 298 359 429
#     4  11  23  41  70 104 144 178 232 299 369 409
#     4  11  23  43  70 105 137 185 233 304 350 427
#
# _framework density 23.707885999999998
#
# number of rings (size 3 to 8) (size 9 to 14) (size 15 to 20)
#    0.000    0.500    3.750    4.500    7.000    0.500 
#    0.000    2.500    0.000    0.000    0.000    0.000 
#    0.000    0.000    0.000    0.000    0.000    0.000 
#
# Total GULP energy -198255.501113 kJ/mol
# GULP energy per Si atom -12390.968820 kJ/mol
# Density = 2.365393 g / cm^3
# Si number density = 23.707886 Si / 1000 Ang^3
#
#
#
# Elastic Constant Matrix: (Units=GPa)
#
#
# Indices 1 2 3 4 5 6 
#
# 1 100.3875 46.5412 32.8258 -0.2694 -5.8986 -13.0548
# 2 46.5412 95.0872 47.9567 -10.1638 3.7038 -2.4498
# 3 32.8258 47.9567 131.8897 -0.5278 -6.5054 -1.2599
# 4 -0.2694 -10.1638 -0.5278 40.7146 -7.7788 -3.1853
# 5 -5.8986 3.7038 -6.5054 -7.7788 31.1183 0.0117
# 6 -13.0548 -2.4498 -1.2599 -3.1853 0.0117 38.3406
#
#
#
# Elastic Compliance Matrix: (Units=1/GPa)
#
#
# Indices 1 2 3 4 5 6 
#
# 1 0.013994 -0.006445 -0.000950 -0.000608 0.003067 0.004270
# 2 -0.006445 0.016404 -0.004520 0.003284 -0.003298 -0.001021
# 3 -0.000950 -0.004520 0.009565 -0.000617 0.002203 -0.000350
# 4 -0.000608 0.003284 -0.000617 0.026694 0.006037 0.002198
# 5 0.003067 -0.003298 0.002203 0.006037 0.035078 0.001397
# 6 0.004270 -0.001021 -0.000350 0.002198 0.001397 0.027642
#
#
# Mechanical properties :
#
#
# Convention : Reuss Voigt Hill
#
# Bulk Modulus (GPa) = 61.98293 64.66796 63.32545
# Shear Modulus (GPa) = 31.52906 35.37076 33.44991
#
# Velocity S-wave (km/s) = 3.65073 3.86676 3.76030
# Velocity P-wave (km/s) = 6.63111 6.87546 6.75439
#
# Compressibility (1/GPa) = 0.01613347
#
# Stress axis : x y z
#
# Youngs Moduli (GPa) = 71.45993 60.96114 104.54957
#
# Poissons Ratio (x) = 0.39289 0.09930
# Poissons Ratio (y) = 0.46055 0.47255
# Poissons Ratio (z) = 0.06787 0.27554
#
# Static dielectric constant tensor:
#      x y z
#    x 4.408040 -0.123020 0.184270 
#    y -0.123020 4.053050 -0.055510 
#    z 0.184270 -0.055510 4.778900 
# 
# 
# High freq. dielectric constant tensor:
#      x y z
#    x 1.934000 -0.016890 0.009910 
#    y -0.016890 1.912800 -0.003530 
#    z 0.009910 -0.003530 1.976260 
# 
# From -- ./inp_files/208464.got.cif
#   From: 2010.06.25/outbox.cif.g09.slc.cpg/sg2_105_cif.got.tgz:208464.got - 2010.06.27 13:26:56.
