data_PCOD8032782
_publ_section_title
;
Structure prediction by ZEFSAII (Michael W. Deem and Ramdas Pophale) SiO2 
 PCOD8032782
Probable space group: P -1
;
_chemical_formula_sum "Si O2"
_cell_formula_units_Z 14
_cell_length_a 11.742226
_cell_length_b 9.556217
_cell_length_c 9.216418
_cell_angle_alpha 131.102703
_cell_angle_beta 119.624478
_cell_angle_gamma 58.563336
_cell_volume 646.197977
_symmetry_space_group_name_H-M "P -1"
_symmetry_group_IT_number 2
_symmetry_cell_setting 'triclinic'
loop_
_space_group_symop_operation_xyz
x,y,z
-x,-y,-z
loop_
_atom_site_type_symbol
_atom_site_label
_atom_site_fract_x
_atom_site_fract_y
_atom_site_fract_z
Si Si1 0.781457 0.529872 0.366876
Si Si2 0.314485 0.827114 0.917785
Si Si3 0.574710 0.907267 0.626669
Si Si4 0.406311 0.720687 0.596777
Si Si5 0.965909 0.890625 0.042098
Si Si6 0.094780 0.805126 0.357893
Si Si7 0.006257 0.530041 0.307129
O O1 0.695653 0.381206 0.172223
O O2 0.694096 0.716089 0.526968
O O3 0.905454 0.410837 0.468934
O O4 0.846605 0.588183 0.299792
O O5 0.410732 0.791377 0.812954
O O6 0.168060 0.968634 0.869836
O O7 0.370645 0.929643 0.152399
O O8 0.466408 0.856429 0.628749
O O9 0.500000 0.000000 0.500000
O O10 0.500000 0.500000 0.500000
O O11 0.252214 0.739360 0.462015
O O12 0.089098 0.830359 0.196643
O O13 0.933384 0.699152 0.836329
O O14 0.000000 0.000000 0.000000
O O15 0.023112 0.641448 0.247363
O O16 0.000000 0.000000 0.500000
#
# Coordination Sequence:
#
# PCOD8032782 Si02
#       7
#     2   2   2   2   2   2   2
#     4  11  23  44  74 107 143 188 238 304 367 431
#     4  12  24  49  73 103 145 196 240 298 373 431
#     4  12  29  46  74 104 143 196 249 296 362 441
#     4  12  26  51  74 103 153 196 242 304 361 438
#     4  12  25  43  74 109 146 189 241 307 374 432
#     4  12  26  45  74 110 145 191 251 302 364 440
#     4  11  23  43  72 106 149 182 237 306 368 432
#
# _framework density 21.665185000000001
#
# number of rings (size 3 to 8) (size 9 to 14) (size 15 to 20)
#    0.000    0.286    7.143    0.857    6.000    0.571 
#    2.571    0.000    0.000    0.000    0.000    0.000 
#    0.000    0.000    0.000    0.000    0.000    0.000 
#
# Total GULP energy -173615.800326 kJ/mol
# GULP energy per Si atom -12401.128595 kJ/mol
# Density = 2.161587 g / cm^3
# Si number density = 21.665185 Si / 1000 Ang^3
#
#
#
# Elastic Constant Matrix: (Units=GPa)
#
#
# Indices 1 2 3 4 5 6 
#
# 1 149.6898 67.2715 60.4384 9.9139 -6.9215 11.8525
# 2 67.2715 120.4748 69.8064 2.2724 2.4816 16.9608
# 3 60.4384 69.8064 151.0504 13.0792 2.0888 5.5602
# 4 9.9139 2.2724 13.0792 43.4819 -1.4036 0.4461
# 5 -6.9215 2.4816 2.0888 -1.4036 34.5900 7.8149
# 6 11.8525 16.9608 5.5602 0.4461 7.8149 45.7497
#
#
#
# Elastic Compliance Matrix: (Units=1/GPa)
#
#
# Indices 1 2 3 4 5 6 
#
# 1 0.009572 -0.004185 -0.001773 -0.001337 0.002524 -0.001131
# 2 -0.004185 0.013835 -0.004729 0.001665 -0.000717 -0.003364
# 3 -0.001773 -0.004729 0.009684 -0.002305 -0.000970 0.001224
# 4 -0.001337 0.001665 -0.002305 0.023939 0.000805 -0.000362
# 5 0.002524 -0.000717 -0.000970 0.000805 0.030810 -0.005541
# 6 -0.001131 -0.003364 0.001224 -0.000362 -0.005541 0.024199
#
#
# Mechanical properties :
#
#
# Convention : Reuss Voigt Hill
#
# Bulk Modulus (GPa) = 85.36421 90.69417 88.02919
# Shear Modulus (GPa) = 36.41164 39.67757 38.04461
#
# Velocity S-wave (km/s) = 4.10402 4.28413 4.19504
# Velocity P-wave (km/s) = 7.87048 8.15011 8.01151
#
# Compressibility (1/GPa) = 0.01171451
#
# Stress axis : x y z
#
# Youngs Moduli (GPa) = 104.47081 72.28279 103.26783
#
# Poissons Ratio (x) = 0.30249 0.18314
# Poissons Ratio (y) = 0.43719 0.48841
# Poissons Ratio (z) = 0.18528 0.34186
#
# Static dielectric constant tensor:
#      x y z
#    x 4.311900 0.114270 0.017030 
#    y 0.114270 3.518330 0.100240 
#    z 0.017030 0.100240 3.948490 
# 
# 
# High freq. dielectric constant tensor:
#      x y z
#    x 1.860400 0.008590 -0.009930 
#    y 0.008590 1.849100 0.014780 
#    z -0.009930 0.014780 1.859320 
# 
# From -- ./inp_files/189728.got.cif
#   From: 2010.06.25/outbox.cif.g09.slc.cpg/sg2_95_cif.got.tgz:189728.got - 2010.06.27 13:26:56.
