data_PCOD8032974
_publ_section_title
;
Structure prediction by ZEFSAII (Michael W. Deem and Ramdas Pophale) SiO2 
 PCOD8032974
Probable space group: P -1
;
_chemical_formula_sum "Si O2"
_cell_formula_units_Z 14
_cell_length_a 14.862760
_cell_length_b 8.634260
_cell_length_c 12.884436
_cell_angle_alpha 149.877598
_cell_angle_beta 46.451020
_cell_angle_gamma 123.706134
_cell_volume 597.580074
_symmetry_space_group_name_H-M "P -1"
_symmetry_group_IT_number 2
_symmetry_cell_setting 'triclinic'
loop_
_space_group_symop_operation_xyz
x,y,z
-x,-y,-z
loop_
_atom_site_type_symbol
_atom_site_label
_atom_site_fract_x
_atom_site_fract_y
_atom_site_fract_z
Si Si1 0.141496 0.541806 0.945212
Si Si2 0.927453 0.781382 0.859811
Si Si3 0.367837 0.368021 0.507743
Si Si4 0.329919 0.508665 0.380900
Si Si5 0.717129 0.796437 0.182596
Si Si6 0.093332 0.215083 0.357242
Si Si7 0.454999 0.671014 0.030278
O O1 0.249091 0.510914 0.752833
O O2 0.181369 0.300050 0.864623
O O3 0.000000 0.500000 0.000000
O O4 0.135640 0.895449 0.198924
O O5 0.939226 0.883958 0.791092
O O6 0.975901 0.413729 0.620664
O O7 0.784121 0.819067 0.031358
O O8 0.000000 0.000000 0.000000
O O9 0.500000 0.500000 0.500000
O O10 0.332431 0.436169 0.457565
O O11 0.381119 0.001151 0.308123
O O12 0.196329 0.453722 0.410448
O O13 0.354379 0.862842 0.540455
O O14 0.429125 0.273707 0.103557
O O15 0.623678 0.538774 0.100417
O O16 0.500000 0.500000 0.000000
#
# Coordination Sequence:
#
# PCOD8032974 Si02
#       7
#     2   2   2   2   2   2   2
#     4  12  28  44  69 107 147 187 238 301 362 421
#     4  11  23  44  70 100 138 190 232 287 349 437
#     4  12  26  48  73 102 146 195 245 293 358 439
#     4  12  24  45  74 101 139 191 243 292 358 439
#     4  12  25  43  69 102 147 179 237 300 367 413
#     4  11  25  43  71  99 140 186 241 280 356 429
#     4  12  25  44  72 105 140 183 242 303 365 419
#
# _framework density 23.427824000000001
#
# number of rings (size 3 to 8) (size 9 to 14) (size 15 to 20)
#    0.000    0.286    1.429    7.714    6.000    0.571 
#    0.000    0.000    0.000    0.000    0.000    0.000 
#    0.000    0.000    0.000    0.000    0.000    0.000 
#
# Total GULP energy -173614.011243 kJ/mol
# GULP energy per Si atom -12401.000803 kJ/mol
# Density = 2.337450 g / cm^3
# Si number density = 23.427824 Si / 1000 Ang^3
#
#
#
# Elastic Constant Matrix: (Units=GPa)
#
#
# Indices 1 2 3 4 5 6 
#
# 1 121.7776 29.3989 25.3590 4.4521 7.3706 -0.1671
# 2 29.3989 79.6080 30.9298 9.9652 -1.8219 -3.6455
# 3 25.3590 30.9298 121.6397 9.2063 -9.0817 -5.5910
# 4 4.4521 9.9652 9.2063 58.4773 -0.0720 -6.9878
# 5 7.3706 -1.8219 -9.0817 -0.0720 39.5665 0.7668
# 6 -0.1671 -3.6455 -5.5910 -6.9878 0.7668 49.9803
#
#
#
# Elastic Compliance Matrix: (Units=1/GPa)
#
#
# Indices 1 2 3 4 5 6 
#
# 1 0.009349 -0.002983 -0.001366 -0.000028 -0.002187 -0.000309
# 2 -0.002983 0.015097 -0.003016 -0.001811 0.000546 0.000492
# 3 -0.001366 -0.003016 0.009536 -0.000797 0.002289 0.000696
# 4 -0.000028 -0.001811 -0.000797 0.017808 -0.000273 0.002273
# 5 -0.002187 0.000546 0.002289 -0.000273 0.026234 -0.000152
# 6 -0.000309 0.000492 0.000696 0.002273 -0.000152 0.020441
#
#
# Mechanical properties :
#
#
# Convention : Reuss Voigt Hill
#
# Bulk Modulus (GPa) = 51.94325 54.93341 53.43833
# Shear Modulus (GPa) = 41.80168 45.42731 43.61450
#
# Velocity S-wave (km/s) = 4.22865 4.40822 4.31937
# Velocity P-wave (km/s) = 6.78688 7.02913 6.90907
#
# Compressibility (1/GPa) = 0.01925178
#
# Stress axis : x y z
#
# Youngs Moduli (GPa) = 106.96183 66.23951 104.86531
#
# Poissons Ratio (x) = 0.19756 0.14325
# Poissons Ratio (y) = 0.31902 0.31632
# Poissons Ratio (z) = 0.14611 0.19981
#
# Static dielectric constant tensor:
#      x y z
#    x 4.292300 0.042280 -0.093180 
#    y 0.042280 4.438100 -0.029920 
#    z -0.093180 -0.029920 4.621890 
# 
# 
# High freq. dielectric constant tensor:
#      x y z
#    x 1.934410 0.002730 -0.006940 
#    y 0.002730 1.925460 0.004590 
#    z -0.006940 0.004590 1.948320 
# 
# From -- ./inp_files/61088.got.cif
#   From: 2010.06.25/outbox.cif.g09.slc.cpg/sg2_31_cif.got.tgz:61088.got - 2010.06.27 13:26:56.
