data_PCOD8032845
_publ_section_title
;
Structure prediction by ZEFSAII (Michael W. Deem and Ramdas Pophale) SiO2 
 PCOD8032845
Probable space group: P -1
;
_chemical_formula_sum "Si O2"
_cell_formula_units_Z 16
_cell_length_a 21.096267
_cell_length_b 17.779166
_cell_length_c 11.005389
_cell_angle_alpha 150.451835
_cell_angle_beta 40.797611
_cell_angle_gamma 160.246060
_cell_volume 639.098652
_symmetry_space_group_name_H-M "P -1"
_symmetry_group_IT_number 2
_symmetry_cell_setting 'triclinic'
loop_
_space_group_symop_operation_xyz
x,y,z
-x,-y,-z
loop_
_atom_site_type_symbol
_atom_site_label
_atom_site_fract_x
_atom_site_fract_y
_atom_site_fract_z
Si Si1 0.446004 0.249288 0.566936
Si Si2 0.083789 0.776548 0.607853
Si Si3 0.456021 0.497659 0.698401
Si Si4 0.576757 0.197221 0.783461
Si Si5 0.286615 0.617979 0.546052
Si Si6 0.026773 0.716792 0.876412
Si Si7 0.819963 0.360480 0.027344
Si Si8 0.073828 0.938940 0.343678
O O1 0.524361 0.487509 0.697416
O O2 0.642839 0.461480 0.653889
O O3 0.277937 0.075395 0.662400
O O4 0.367550 0.997951 0.248406
O O5 0.006801 0.497144 0.321239
O O6 0.900315 0.631704 0.627169
O O7 0.139415 0.880874 0.814572
O O8 0.500000 0.500000 0.500000
O O9 0.211278 0.139713 0.545472
O O10 0.504947 0.740934 0.003804
O O11 0.818095 0.522583 0.896869
O O12 0.500000 0.000000 0.500000
O O13 0.481576 0.980946 0.731539
O O14 0.229822 0.604180 0.738144
O O15 0.177121 0.008392 0.166223
O O16 0.885825 0.566942 0.115241
O O17 0.000000 0.500000 0.000000
O O18 0.000000 0.000000 0.500000
#
# Coordination Sequence:
#
# PCOD8032845 Si02
#       8
#     2   2   2   2   2   2   2   2
#     4  12  25  46  70 107 147 194 245 307 376 442
#     4  11  23  43  75 108 141 192 249 302 363 446
#     4  12  29  46  71 113 155 188 245 320 372 439
#     4  12  25  48  76 108 149 202 247 299 375 455
#     4  12  24  42  74 103 144 193 249 301 362 447
#     4  11  23  44  74 107 140 195 246 304 365 435
#     4  12  22  42  70 100 144 194 242 303 370 439
#     4  12  24  43  70 103 141 185 246 297 367 436
#
# _framework density 25.035257999999999
#
# number of rings (size 3 to 8) (size 9 to 14) (size 15 to 20)
#    0.000    0.250    7.500    1.125    3.500    0.000 
#    0.000    2.500    0.000    0.000    0.000    0.000 
#    0.000    0.000    0.000    0.000    0.000    0.000 
#
# Total GULP energy -198372.887899 kJ/mol
# GULP energy per Si atom -12398.305494 kJ/mol
# Density = 2.497828 g / cm^3
# Si number density = 25.035258 Si / 1000 Ang^3
#
#
#
# Elastic Constant Matrix: (Units=GPa)
#
#
# Indices 1 2 3 4 5 6 
#
# 1 160.5832 48.8353 51.8683 -10.4529 -35.2997 -1.3194
# 2 48.8353 91.6761 18.0744 -15.7817 -11.8118 -12.8255
# 3 51.8683 18.0744 119.3154 -20.5932 -1.1331 -8.1018
# 4 -10.4529 -15.7817 -20.5932 25.3335 2.3208 2.0037
# 5 -35.2997 -11.8118 -1.1331 2.3208 43.6014 -1.4807
# 6 -1.3194 -12.8255 -8.1018 2.0037 -1.4807 54.9232
#
#
#
# Elastic Compliance Matrix: (Units=1/GPa)
#
#
# Indices 1 2 3 4 5 6 
#
# 1 0.010325 -0.004313 -0.004267 -0.002466 0.007173 -0.001105
# 2 -0.004313 0.014859 0.001268 0.008228 0.000239 0.003259
# 3 -0.004267 0.001268 0.011607 0.008640 -0.003219 0.001504
# 4 -0.002466 0.008228 0.008640 0.050709 -0.002200 0.001227
# 5 0.007173 0.000239 -0.003219 -0.002200 0.028861 0.000612
# 6 -0.001105 0.003259 0.001504 0.001227 0.000612 0.019135
#
#
# Mechanical properties :
#
#
# Convention : Reuss Voigt Hill
#
# Bulk Modulus (GPa) = 45.11691 67.68118 56.39905
# Shear Modulus (GPa) = 31.74389 41.62474 36.68431
#
# Velocity S-wave (km/s) = 3.56472 4.08198 3.83208
# Velocity P-wave (km/s) = 5.91637 7.02209 6.49281
#
# Compressibility (1/GPa) = 0.02216464
#
# Stress axis : x y z
#
# Youngs Moduli (GPa) = 96.85556 67.29985 86.15528
#
# Poissons Ratio (x) = 0.29029 0.36766
# Poissons Ratio (y) = 0.41778 -0.10923
# Poissons Ratio (z) = 0.41332 -0.08533
#
# Static dielectric constant tensor:
#      x y z
#    x 4.956190 0.153910 0.264950 
#    y 0.153910 5.338750 -0.012290 
#    z 0.264950 -0.012290 4.773960 
# 
# 
# High freq. dielectric constant tensor:
#      x y z
#    x 2.017560 0.001780 0.007890 
#    y 0.001780 2.011520 -0.007250 
#    z 0.007890 -0.007250 1.989040 
# 
# From -- ./inp_files/472485.got.cif
#   From: 2010.06.25/outbox.cif.g09.slc.cpg/sg2_237_cif.got.tgz:472485.got - 2010.06.27 13:26:56.
