data_PCOD8032627
_publ_section_title
;
Structure prediction by ZEFSAII (Michael W. Deem and Ramdas Pophale) SiO2 
 PCOD8032627
Probable space group: P -1
;
_chemical_formula_sum "Si O2"
_cell_formula_units_Z 14
_cell_length_a 7.821932
_cell_length_b 14.432189
_cell_length_c 10.566625
_cell_angle_alpha 108.852412
_cell_angle_beta 140.308812
_cell_angle_gamma 54.584438
_cell_volume 603.324541
_symmetry_space_group_name_H-M "P -1"
_symmetry_group_IT_number 2
_symmetry_cell_setting 'triclinic'
loop_
_space_group_symop_operation_xyz
x,y,z
-x,-y,-z
loop_
_atom_site_type_symbol
_atom_site_label
_atom_site_fract_x
_atom_site_fract_y
_atom_site_fract_z
Si Si1 0.680752 0.721674 0.005550
Si Si2 0.305757 0.954323 0.302552
Si Si3 0.576123 0.431863 0.645183
Si Si4 0.651922 0.741210 0.549721
Si Si5 0.382552 0.582356 0.848653
Si Si6 0.379737 0.954691 0.054166
Si Si7 0.639462 0.103245 0.308654
O O1 0.594805 0.637105 0.984787
O O2 0.435009 0.788908 0.777417
O O3 0.651462 0.817907 0.129663
O O4 0.049656 0.642750 0.138914
O O5 0.475440 0.814749 0.355312
O O6 0.295917 0.984195 0.165262
O O7 0.500000 0.000000 0.500000
O O8 0.948406 0.015994 0.187112
O O9 0.500000 0.500000 0.500000
O O10 0.439132 0.351203 0.514247
O O11 0.397370 0.518319 0.698752
O O12 0.540262 0.837776 0.638251
O O13 0.022926 0.683988 0.715739
O O14 0.500000 0.500000 0.000000
O O15 0.490555 0.042076 0.115179
O O16 0.000000 0.000000 0.500000
#
# Coordination Sequence:
#
# PCOD8032627 Si02
#       7
#     2   2   2   2   2   2   2
#     4  12  26  45  73 101 146 190 237 300 374 426
#     4  11  23  43  68 107 142 183 232 295 349 442
#     4  12  27  49  71 102 141 191 252 307 367 426
#     4  12  25  43  76  98 142 186 240 293 367 417
#     4  12  28  47  72 103 139 188 255 308 355 424
#     4  11  25  41  71 105 146 182 235 281 363 443
#     4  12  25  45  72 110 150 191 234 290 371 461
#
# _framework density 23.204758000000002
#
# number of rings (size 3 to 8) (size 9 to 14) (size 15 to 20)
#    0.000    0.286    1.429    7.286    8.000    0.000 
#    0.000    0.000    0.000    0.000    0.000    0.000 
#    0.000    0.000    0.000    0.000    0.000    0.000 
#
# Total GULP energy -173611.892120 kJ/mol
# GULP energy per Si atom -12400.849437 kJ/mol
# Density = 2.315194 g / cm^3
# Si number density = 23.204758 Si / 1000 Ang^3
#
#
#
# Elastic Constant Matrix: (Units=GPa)
#
#
# Indices 1 2 3 4 5 6 
#
# 1 73.1799 32.8683 27.4492 0.3778 3.5618 -8.4218
# 2 32.8683 116.2139 29.7297 9.8645 1.2727 -12.2518
# 3 27.4492 29.7297 100.2727 -0.6779 7.4628 -13.7978
# 4 0.3778 9.8645 -0.6779 54.1178 6.6436 7.6179
# 5 3.5618 1.2727 7.4628 6.6436 46.5121 -8.0054
# 6 -8.4218 -12.2518 -13.7978 7.6179 -8.0054 57.1225
#
#
#
# Elastic Compliance Matrix: (Units=1/GPa)
#
#
# Indices 1 2 3 4 5 6 
#
# 1 0.016739 -0.003856 -0.003296 0.000522 -0.000603 0.000691
# 2 -0.003856 0.010546 -0.001927 -0.002267 0.000925 0.001660
# 3 -0.003296 -0.001927 0.011784 0.000450 -0.001358 0.001697
# 4 0.000522 -0.002267 0.000450 0.019802 -0.003468 -0.003428
# 5 -0.000603 0.000925 -0.001358 -0.003468 0.022827 0.003443
# 6 0.000691 0.001660 0.001697 -0.003428 0.003443 0.019314
#
#
# Mechanical properties :
#
#
# Convention : Reuss Voigt Hill
#
# Bulk Modulus (GPa) = 47.82009 52.19564 50.00786
# Shear Modulus (GPa) = 39.63917 44.85842 42.24879
#
# Velocity S-wave (km/s) = 4.13756 4.40154 4.27159
# Velocity P-wave (km/s) = 6.59382 6.95512 6.77688
#
# Compressibility (1/GPa) = 0.02091172
#
# Stress axis : x y z
#
# Youngs Moduli (GPa) = 59.74013 94.82632 84.86207
#
# Poissons Ratio (x) = 0.36565 0.27967
# Poissons Ratio (y) = 0.23036 0.16352
# Poissons Ratio (z) = 0.19688 0.18272
#
# Static dielectric constant tensor:
#      x y z
#    x 4.494900 0.078500 0.087230 
#    y 0.078500 4.372400 -0.099330 
#    z 0.087230 -0.099330 4.559460 
# 
# 
# High freq. dielectric constant tensor:
#      x y z
#    x 1.942950 0.002380 -0.002340 
#    y 0.002380 1.933140 -0.003450 
#    z -0.002340 -0.003450 1.921170 
# 
# From -- ./inp_files/68088.got.cif
#   From: 2010.06.25/outbox.cif.g09.slc.cpg/sg2_35_cif.got.tgz:68088.got - 2010.06.27 13:26:56.
