data_PCOD8032003
_publ_section_title
;
Structure prediction by ZEFSAII (Michael W. Deem and Ramdas Pophale) SiO2 
 PCOD8032003
Probable space group: P -1
;
_chemical_formula_sum "Si O2"
_cell_formula_units_Z 12
_cell_length_a 9.086455
_cell_length_b 12.717011
_cell_length_c 16.399178
_cell_angle_alpha 154.966006
_cell_angle_beta 138.169002
_cell_angle_gamma 38.593570
_cell_volume 495.272822
_symmetry_space_group_name_H-M "P -1"
_symmetry_group_IT_number 2
_symmetry_cell_setting 'triclinic'
loop_
_space_group_symop_operation_xyz
x,y,z
-x,-y,-z
loop_
_atom_site_type_symbol
_atom_site_label
_atom_site_fract_x
_atom_site_fract_y
_atom_site_fract_z
Si Si1 0.828279 0.538018 0.113629
Si Si2 0.995434 0.224686 0.424563
Si Si3 0.162853 0.997568 0.641362
Si Si4 0.685344 0.830997 0.733593
Si Si5 0.260687 0.045255 0.980999
Si Si6 0.594204 0.122058 0.736148
O O1 0.825741 0.704808 0.147139
O O2 0.694710 0.754295 0.284626
O O3 0.673606 0.361184 0.908458
O O4 0.095954 0.361620 0.125719
O O5 0.898793 0.540941 0.619552
O O6 0.866444 0.149752 0.240838
O O7 0.952339 0.055323 0.361835
O O8 0.282956 0.116728 0.447198
O O9 0.434955 0.783473 0.594272
O O10 0.000000 0.000000 0.500000
O O11 0.709397 0.005147 0.789615
O O12 0.691513 0.002392 0.936641
O O13 0.500000 0.000000 0.000000
#
# Coordination Sequence:
#
# PCOD8032003 Si02
#       6
#     2   2   2   2   2   2
#     4   9  21  41  62  90 136 161 220 263 310 390
#     4  11  23  41  69  99 130 169 220 263 328 389
#     4  11  23  40  64  96 131 175 210 275 322 370
#     4  11  23  44  66  96 139 162 220 274 314 394
#     4  11  23  40  67  99 126 174 214 265 330 377
#     4   9  21  43  64  95 128 180 209 263 329 380
#
# _framework density 24.229071000000001
#
# number of rings (size 3 to 8) (size 9 to 14) (size 15 to 20)
#    0.000    1.667    1.667    2.000    2.333    5.333 
#    3.000   10.833    0.000    0.000    0.000    0.000 
#    0.000    0.000    0.000    0.000    0.000    0.000 
#
# Total GULP energy -148702.729105 kJ/mol
# GULP energy per Si atom -12391.894092 kJ/mol
# Density = 2.417392 g / cm^3
# Si number density = 24.229071 Si / 1000 Ang^3
#
#
#
# Elastic Constant Matrix: (Units=GPa)
#
#
# Indices 1 2 3 4 5 6 
#
# 1 112.2271 44.8993 28.8419 23.2249 -15.8365 3.7508
# 2 44.8993 92.0401 15.9022 27.1698 -9.8041 -10.0845
# 3 28.8419 15.9022 71.5849 8.4487 -13.7933 5.2357
# 4 23.2249 27.1698 8.4487 34.7773 -1.7377 -0.1400
# 5 -15.8365 -9.8041 -13.7933 -1.7377 39.1213 11.2204
# 6 3.7508 -10.0845 5.2357 -0.1400 11.2204 61.5359
#
#
#
# Elastic Compliance Matrix: (Units=1/GPa)
#
#
# Indices 1 2 3 4 5 6 
#
# 1 0.012826 -0.004320 -0.002899 -0.004322 0.003434 -0.001879
# 2 -0.004320 0.016358 -0.000804 -0.009647 0.000824 0.002840
# 3 -0.002899 -0.000804 0.016609 -0.001226 0.005086 -0.002298
# 4 -0.004322 -0.009647 -0.001226 0.039339 -0.002669 -0.000637
# 5 0.003434 0.000824 0.005086 -0.002669 0.030579 -0.006089
# 6 -0.001879 0.002840 -0.002298 -0.000637 -0.006089 0.018135
#
#
# Mechanical properties :
#
#
# Convention : Reuss Voigt Hill
#
# Bulk Modulus (GPa) = 33.61642 50.57098 42.09370
# Shear Modulus (GPa) = 31.28807 39.50082 35.39445
#
# Velocity S-wave (km/s) = 3.59743 4.04209 3.82622
# Velocity P-wave (km/s) = 5.58210 6.53467 6.07708
#
# Compressibility (1/GPa) = 0.02974737
#
# Stress axis : x y z
#
# Youngs Moduli (GPa) = 77.96913 61.13323 60.20984
#
# Poissons Ratio (x) = 0.26410 0.17452
# Poissons Ratio (y) = 0.33684 0.04838
# Poissons Ratio (z) = 0.22600 0.04913
#
# Static dielectric constant tensor:
#      x y z
#    x 5.024990 -0.169110 -0.216480 
#    y -0.169110 4.681030 0.305450 
#    z -0.216480 0.305450 4.176330 
# 
# 
# High freq. dielectric constant tensor:
#      x y z
#    x 1.983400 -0.007770 -0.011120 
#    y -0.007770 1.969660 0.015280 
#    z -0.011120 0.015280 1.933210 
# 
# From -- ./inp_files/254041.got.cif
#   From: 2010.06.25/outbox.cif.g09.slc.cpg/sg2_128_cif.got.tgz:254041.got - 2010.06.27 13:26:56.
