data_PCOD8032270
_publ_section_title
;
Structure prediction by ZEFSAII (Michael W. Deem and Ramdas Pophale) SiO2 
 PCOD8032270
Probable space group: P -1
;
_chemical_formula_sum "Si O2"
_cell_formula_units_Z 16
_cell_length_a 9.373006
_cell_length_b 15.336713
_cell_length_c 8.822625
_cell_angle_alpha 105.968695
_cell_angle_beta 79.514431
_cell_angle_gamma 144.574994
_cell_volume 704.735514
_symmetry_space_group_name_H-M "P -1"
_symmetry_group_IT_number 2
_symmetry_cell_setting 'triclinic'
loop_
_space_group_symop_operation_xyz
x,y,z
-x,-y,-z
loop_
_atom_site_type_symbol
_atom_site_label
_atom_site_fract_x
_atom_site_fract_y
_atom_site_fract_z
Si Si1 0.717325 0.085238 0.840440
Si Si2 0.214914 0.882010 0.493360
Si Si3 0.746810 0.242609 0.155418
Si Si4 0.028964 0.102471 0.944204
Si Si5 0.571397 0.573092 0.854635
Si Si6 0.013596 0.967422 0.644481
Si Si7 0.449653 0.662919 0.710503
Si Si8 0.158859 0.426875 0.394600
O O1 0.861994 0.155296 0.687310
O O2 0.785717 0.033569 0.907755
O O3 0.423739 0.916879 0.794563
O O4 0.784357 0.215035 0.969591
O O5 0.181334 0.962901 0.615539
O O6 0.030954 0.720614 0.531391
O O7 0.500000 0.000000 0.500000
O O8 0.625199 0.279388 0.174542
O O9 0.003364 0.388442 0.265241
O O10 0.173665 0.248760 0.080480
O O11 0.153196 0.119558 0.780107
O O12 0.000000 0.000000 0.000000
O O13 0.391119 0.555106 0.797799
O O14 0.619987 0.520480 0.695178
O O15 0.500000 0.500000 0.000000
O O16 0.740698 0.809685 0.687664
O O17 0.000000 0.000000 0.500000
O O18 0.293939 0.570001 0.540992
#
# Coordination Sequence:
#
# PCOD8032270 Si02
#       8
#     2   2   2   2   2   2   2   2
#     4  11  23  41  74 100 144 183 236 296 363 419
#     4  12  25  45  70 109 142 187 239 293 371 436
#     4  11  23  46  69 105 142 189 234 297 359 427
#     4  12  22  44  72 105 137 181 246 302 352 423
#     4  12  28  47  71 106 146 195 244 298 372 428
#     4  12  25  42  73 106 141 181 244 305 358 418
#     4  12  26  47  70 107 147 192 246 298 357 437
#     4  12  26  45  72 102 148 190 238 297 364 438
#
# _framework density 22.703552999999999
#
# number of rings (size 3 to 8) (size 9 to 14) (size 15 to 20)
#    0.000    0.250    7.500    0.750    3.500    1.000 
#    0.000    3.750    0.000    0.000    0.000    0.000 
#    0.000    0.000    0.000    0.000    0.000    0.000 
#
# Total GULP energy -198220.377123 kJ/mol
# GULP energy per Si atom -12388.773570 kJ/mol
# Density = 2.265188 g / cm^3
# Si number density = 22.703553 Si / 1000 Ang^3
#
#
#
# Elastic Constant Matrix: (Units=GPa)
#
#
# Indices 1 2 3 4 5 6 
#
# 1 145.4680 23.5959 43.7505 -0.1375 -18.8513 -5.6299
# 2 23.5959 51.8190 16.3142 -8.0036 0.7372 -4.2800
# 3 43.7505 16.3142 129.7283 5.6352 -13.3916 -6.6027
# 4 -0.1375 -8.0036 5.6352 44.5213 -3.3438 4.2800
# 5 -18.8513 0.7372 -13.3916 -3.3438 46.0087 2.0444
# 6 -5.6299 -4.2800 -6.6027 4.2800 2.0444 26.2551
#
#
#
# Elastic Compliance Matrix: (Units=1/GPa)
#
#
# Indices 1 2 3 4 5 6 
#
# 1 0.008416 -0.003181 -0.002111 -0.000118 0.002852 0.000552
# 2 -0.003181 0.022165 -0.001995 0.003886 -0.002044 0.001955
# 3 -0.002111 -0.001995 0.008985 -0.001537 0.001599 0.001608
# 4 -0.000118 0.003886 -0.001537 0.023816 0.001340 -0.003765
# 5 0.002852 -0.002044 0.001599 0.001340 0.023560 -0.001373
# 6 0.000552 0.001955 0.001608 -0.003765 -0.001373 0.039650
#
#
# Mechanical properties :
#
#
# Convention : Reuss Voigt Hill
#
# Bulk Modulus (GPa) = 40.01108 54.92628 47.46868
# Shear Modulus (GPa) = 33.44567 39.58068 36.51318
#
# Velocity S-wave (km/s) = 3.84232 4.17990 4.01466
# Velocity P-wave (km/s) = 6.11115 6.89498 6.51486
#
# Compressibility (1/GPa) = 0.02499308
#
# Stress axis : x y z
#
# Youngs Moduli (GPa) = 118.82215 45.11592 111.29949
#
# Poissons Ratio (x) = 0.14351 0.23491
# Poissons Ratio (y) = 0.37795 0.22203
# Poissons Ratio (z) = 0.25079 0.09000
#
# Static dielectric constant tensor:
#      x y z
#    x 4.157820 -0.055610 0.232820 
#    y -0.055610 3.756230 0.103950 
#    z 0.232820 0.103950 4.548330 
# 
# 
# High freq. dielectric constant tensor:
#      x y z
#    x 1.902480 -0.006710 0.000330 
#    y -0.006710 1.867650 0.007550 
#    z 0.000330 0.007550 1.923770 
# 
# From -- ./inp_files/208325.got.cif
#   From: 2010.06.25/outbox.cif.g09.slc.cpg/sg2_105_cif.got.tgz:208325.got - 2010.06.27 13:26:56.
