data_PCOD8032532
_publ_section_title
;
Structure prediction by ZEFSAII (Michael W. Deem and Ramdas Pophale) SiO2 
 PCOD8032532
Probable space group: P -1
;
_chemical_formula_sum "Si O2"
_cell_formula_units_Z 14
_cell_length_a 8.510825
_cell_length_b 11.093941
_cell_length_c 16.623154
_cell_angle_alpha 137.234245
_cell_angle_beta 146.955155
_cell_angle_gamma 52.397774
_cell_volume 581.073630
_symmetry_space_group_name_H-M "P -1"
_symmetry_group_IT_number 2
_symmetry_cell_setting 'triclinic'
loop_
_space_group_symop_operation_xyz
x,y,z
-x,-y,-z
loop_
_atom_site_type_symbol
_atom_site_label
_atom_site_fract_x
_atom_site_fract_y
_atom_site_fract_z
Si Si1 0.621184 0.786465 0.853307
Si Si2 0.924386 0.500926 0.060917
Si Si3 0.226260 0.835734 0.854765
Si Si4 0.736458 0.525738 0.238197
Si Si5 0.692356 0.328441 0.491629
Si Si6 0.233463 0.844274 0.402357
Si Si7 0.770213 0.810559 0.512776
O O1 0.497792 0.782216 0.889287
O O2 0.369401 0.757739 0.664904
O O3 0.864705 0.638538 0.873194
O O4 0.743647 0.985645 0.992714
O O5 0.972735 0.702092 0.211535
O O6 0.595875 0.442199 0.913321
O O7 0.000000 0.500000 0.000000
O O8 0.188430 0.680940 0.827650
O O9 0.949938 0.854684 0.690164
O O10 0.805846 0.611770 0.397662
O O11 0.969523 0.616469 0.323021
O O12 0.500000 0.500000 0.500000
O O13 0.618196 0.188365 0.462696
O O14 0.439559 0.817161 0.400974
O O15 0.143380 0.050240 0.454434
#
# Coordination Sequence:
#
# PCOD8032532 Si02
#       7
#     2   2   2   2   2   2   2
#     4  11  24  43  72 103 147 182 236 295 357 407
#     4  12  22  43  71 109 140 184 238 301 343 415
#     4  11  23  42  74 108 135 184 248 292 340 422
#     4  12  26  42  76 104 143 186 244 284 357 424
#     4  12  26  50  69 105 147 195 226 296 364 426
#     4  11  25  43  73 101 150 180 236 298 361 416
#     4  11  23  44  75 109 128 192 248 290 346 429
#
# _framework density 24.093333999999999
#
# number of rings (size 3 to 8) (size 9 to 14) (size 15 to 20)
#    0.000    0.571    5.714    2.143    4.000    1.143 
#    0.000    4.286    0.000    0.000    0.000    0.000 
#    0.000    0.000    0.000    0.000    0.000    0.000 
#
# Total GULP energy -173559.458466 kJ/mol
# GULP energy per Si atom -12397.104176 kJ/mol
# Density = 2.403850 g / cm^3
# Si number density = 24.093334 Si / 1000 Ang^3
#
#
#
# Elastic Constant Matrix: (Units=GPa)
#
#
# Indices 1 2 3 4 5 6 
#
# 1 65.7561 18.3534 21.7307 -1.6200 14.5673 12.6668
# 2 18.3534 114.0651 43.0649 2.4506 17.0515 16.4162
# 3 21.7307 43.0649 137.1444 5.2160 21.6507 -1.4775
# 4 -1.6200 2.4506 5.2160 44.8078 -5.1491 0.7121
# 5 14.5673 17.0515 21.6507 -5.1491 31.8828 -8.1437
# 6 12.6668 16.4162 -1.4775 0.7121 -8.1437 30.9511
#
#
#
# Elastic Compliance Matrix: (Units=1/GPa)
#
#
# Indices 1 2 3 4 5 6 
#
# 1 0.020449 0.000861 -0.001784 -0.000253 -0.011694 -0.011982
# 2 0.000861 0.012083 -0.002827 -0.001005 -0.007347 -0.008806
# 3 -0.001784 -0.002827 0.009110 -0.001417 -0.003644 0.001739
# 4 -0.000253 -0.001005 -0.001417 0.023165 0.005752 0.001550
# 5 -0.011694 -0.007347 -0.003644 0.005752 0.049507 0.021403
# 6 -0.011982 -0.008806 0.001739 0.001550 0.021403 0.047562
#
#
# Mechanical properties :
#
#
# Convention : Reuss Voigt Hill
#
# Bulk Modulus (GPa) = 29.28953 53.69596 41.49274
# Shear Modulus (GPa) = 27.66130 37.11609 32.38870
#
# Velocity S-wave (km/s) = 3.39202 3.92919 3.67045
# Velocity P-wave (km/s) = 5.24635 6.55132 5.93481
#
# Compressibility (1/GPa) = 0.03414190
#
# Stress axis : x y z
#
# Youngs Moduli (GPa) = 48.90127 82.75950 109.77003
#
# Poissons Ratio (x) = -0.07127 0.19583
# Poissons Ratio (y) = -0.04211 0.31037
# Poissons Ratio (z) = 0.08724 0.23400
#
# Static dielectric constant tensor:
#      x y z
#    x 4.187770 -0.047290 0.134730 
#    y -0.047290 4.341000 0.155450 
#    z 0.134730 0.155450 4.491160 
# 
# 
# High freq. dielectric constant tensor:
#      x y z
#    x 1.940330 -0.004330 0.005480 
#    y -0.004330 1.956080 0.006600 
#    z 0.005480 0.006600 1.963860 
# 
# From -- ./inp_files/494345.got.cif
#   From: 2010.06.25/outbox.cif.g09.slc.cpg/sg2_248_cif.got.tgz:494345.got - 2010.06.27 13:26:56.
