data_PCOD8032229
_publ_section_title
;
Structure prediction by ZEFSAII (Michael W. Deem and Ramdas Pophale) SiO2 
 PCOD8032229
Probable space group: P -1
;
_chemical_formula_sum "Si O2"
_cell_formula_units_Z 16
_cell_length_a 16.231507
_cell_length_b 11.867569
_cell_length_c 8.684702
_cell_angle_alpha 66.432477
_cell_angle_beta 147.578997
_cell_angle_gamma 127.953967
_cell_volume 678.458807
_symmetry_space_group_name_H-M "P -1"
_symmetry_group_IT_number 2
_symmetry_cell_setting 'triclinic'
loop_
_space_group_symop_operation_xyz
x,y,z
-x,-y,-z
loop_
_atom_site_type_symbol
_atom_site_label
_atom_site_fract_x
_atom_site_fract_y
_atom_site_fract_z
Si Si1 0.441989 0.703593 0.478747
Si Si2 0.089906 0.925994 0.494961
Si Si3 0.257321 0.822987 0.287854
Si Si4 0.741666 0.929990 0.016625
Si Si5 0.836879 0.632202 0.831899
Si Si6 0.424247 0.858261 0.844454
Si Si7 0.011048 0.646870 0.394559
Si Si8 0.659240 0.813623 0.441162
O O1 0.303459 0.756669 0.251250
O O2 0.320431 0.526791 0.397287
O O3 0.561049 0.772891 0.472959
O O4 0.582159 0.759367 0.815870
O O5 0.009976 0.750177 0.472039
O O6 0.937704 0.953850 0.288050
O O7 0.261105 0.017688 0.839828
O O8 0.183129 0.006347 0.432708
O O9 0.428202 0.878791 0.652610
O O10 0.041835 0.697039 0.055153
O O11 0.277661 0.972819 0.193012
O O12 0.768842 0.737505 0.628497
O O13 0.841602 0.607788 0.036134
O O14 0.203380 0.753842 0.556324
O O15 0.504932 0.765539 0.089292
O O16 0.500000 0.000000 0.000000
O O17 0.000000 0.500000 0.500000
#
# Coordination Sequence:
#
# PCOD8032229 Si02
#       8
#     2   2   2   2   2   2   2   2
#     4  12  26  42  74 110 146 182 247 302 360 427
#     4  11  25  46  74 106 149 189 249 294 372 429
#     4  11  25  47  72 105 147 191 239 295 372 427
#     4  11  25  45  74 108 141 196 241 307 357 435
#     4  11  26  48  73 105 148 197 237 294 373 435
#     4  11  23  41  70 105 137 183 238 295 351 430
#     4  11  25  43  72 104 146 188 240 298 359 427
#     4  12  24  45  76 104 147 191 245 299 357 439
#
# _framework density 23.582861000000001
#
# number of rings (size 3 to 8) (size 9 to 14) (size 15 to 20)
#    0.000    0.750    2.500    4.125    5.250    2.000 
#    0.000    2.500    0.000    0.000    0.000    0.000 
#    0.000    0.000    0.000    0.000    0.000    0.000 
#
# Total GULP energy -198226.523700 kJ/mol
# GULP energy per Si atom -12389.157731 kJ/mol
# Density = 2.352919 g / cm^3
# Si number density = 23.582861 Si / 1000 Ang^3
#
#
#
# Elastic Constant Matrix: (Units=GPa)
#
#
# Indices 1 2 3 4 5 6 
#
# 1 111.2518 46.5312 29.5726 5.9491 -0.1253 -6.6314
# 2 46.5312 156.2545 62.9942 4.5398 -7.3877 -15.7596
# 3 29.5726 62.9942 143.7670 -3.5163 -4.7516 -16.3520
# 4 5.9491 4.5398 -3.5163 47.1103 -5.2541 5.8219
# 5 -0.1253 -7.3877 -4.7516 -5.2541 28.9269 -1.7785
# 6 -6.6314 -15.7596 -16.3520 5.8219 -1.7785 27.3590
#
#
#
# Elastic Compliance Matrix: (Units=1/GPa)
#
#
# Indices 1 2 3 4 5 6 
#
# 1 0.010473 -0.002669 -0.000978 -0.001328 -0.000999 0.000634
# 2 -0.002669 0.008783 -0.002925 -0.000897 0.001771 0.002970
# 3 -0.000978 -0.002925 0.008865 0.000779 0.001048 0.003279
# 4 -0.001328 -0.000897 0.000779 0.022560 0.003687 -0.004934
# 5 -0.000999 0.001771 0.001048 0.003687 0.036042 0.002962
# 6 0.000634 0.002970 0.003279 -0.004934 0.002962 0.041618
#
#
# Mechanical properties :
#
#
# Convention : Reuss Voigt Hill
#
# Bulk Modulus (GPa) = 66.77092 76.60771 71.68931
# Shear Modulus (GPa) = 34.13488 38.82427 36.47958
#
# Velocity S-wave (km/s) = 3.80866 4.06185 3.93729
# Velocity P-wave (km/s) = 6.90767 7.38601 7.15084
#
# Compressibility (1/GPa) = 0.01497658
#
# Stress axis : x y z
#
# Youngs Moduli (GPa) = 95.48698 113.85287 112.80038
#
# Poissons Ratio (x) = 0.30388 0.11033
# Poissons Ratio (y) = 0.25486 0.32995
# Poissons Ratio (z) = 0.09340 0.33303
#
# Static dielectric constant tensor:
#      x y z
#    x 4.445760 0.048370 0.193190 
#    y 0.048370 4.003850 -0.056820 
#    z 0.193190 -0.056820 4.584100 
# 
# 
# High freq. dielectric constant tensor:
#      x y z
#    x 1.942300 -0.002200 0.021940 
#    y -0.002200 1.920240 0.004800 
#    z 0.021940 0.004800 1.961230 
# 
# From -- ./inp_files/333077.got.cif
#   From: 2010.06.25/outbox.cif.g09.slc.cpg/sg2_167_cif.got.tgz:333077.got - 2010.06.27 13:26:56.
