data_PCOD8032509
_publ_section_title
;
Structure prediction by ZEFSAII (Michael W. Deem and Ramdas Pophale) SiO2 
 PCOD8032509
Probable space group: P -1
;
_chemical_formula_sum "Si O2"
_cell_formula_units_Z 16
_cell_length_a 28.523821
_cell_length_b 6.604549
_cell_length_c 12.802849
_cell_angle_alpha 43.361176
_cell_angle_beta 154.692644
_cell_angle_gamma 128.459115
_cell_volume 702.752216
_symmetry_space_group_name_H-M "P -1"
_symmetry_group_IT_number 2
_symmetry_cell_setting 'triclinic'
loop_
_space_group_symop_operation_xyz
x,y,z
-x,-y,-z
loop_
_atom_site_type_symbol
_atom_site_label
_atom_site_fract_x
_atom_site_fract_y
_atom_site_fract_z
Si Si1 0.123179 0.357352 0.777818
Si Si2 0.424524 0.671924 0.701183
Si Si3 0.075205 0.728983 0.956388
Si Si4 0.924832 0.280443 0.797834
Si Si5 0.260308 0.265317 0.467382
Si Si6 0.670436 0.717968 0.632208
Si Si7 0.249926 0.657403 0.746263
Si Si8 0.490522 0.345160 0.343155
O O1 0.160034 0.537771 0.685281
O O2 0.000000 0.500000 0.500000
O O3 0.211921 0.394537 0.034711
O O4 0.111593 0.009581 0.859867
O O5 0.309676 0.540897 0.515936
O O6 0.491828 0.577205 0.769006
O O7 0.396972 0.020130 0.535375
O O8 0.500000 0.500000 0.000000
O O9 0.088612 0.810250 0.074361
O O10 0.135123 0.411982 0.153853
O O11 0.956039 0.623459 0.730496
O O12 0.803204 0.327297 0.482761
O O13 0.000000 0.000000 0.000000
O O14 0.309612 0.176283 0.485485
O O15 0.274559 0.998309 0.680802
O O16 0.586702 0.466411 0.561085
O O17 0.365377 0.464568 0.075254
O O18 0.500000 0.000000 0.500000
#
# Coordination Sequence:
#
# PCOD8032509 Si02
#       8
#     2   2   2   2   2   2   2   2
#     4  12  28  46  71 106 144 187 233 285 357 422
#     4  11  23  42  73 103 135 182 238 288 347 408
#     4  11  25  45  72 101 137 189 233 277 361 417
#     4  11  24  45  74 101 139 182 237 298 344 410
#     4  11  24  43  74 103 137 181 237 286 346 418
#     4  11  25  49  72  99 147 188 228 294 348 415
#     4  12  26  45  72 108 142 180 241 295 344 417
#     4  11  27  46  69 103 144 188 232 284 357 417
#
# _framework density 22.767627000000001
#
# number of rings (size 3 to 8) (size 9 to 14) (size 15 to 20)
#    0.000    0.750    2.500    3.750    7.000    6.500 
#    0.000    0.000    0.000    0.000    0.000    0.000 
#    0.000    0.000    0.000    0.000    0.000    0.000 
#
# Total GULP energy -198209.397474 kJ/mol
# GULP energy per Si atom -12388.087342 kJ/mol
# Density = 2.271581 g / cm^3
# Si number density = 22.767627 Si / 1000 Ang^3
#
#
#
# Elastic Constant Matrix: (Units=GPa)
#
#
# Indices 1 2 3 4 5 6 
#
# 1 75.4775 32.0433 12.2117 -0.2622 10.4069 13.0570
# 2 32.0433 150.2806 41.9330 2.3111 -3.8641 21.0629
# 3 12.2117 41.9330 137.4009 6.4253 12.7930 4.4188
# 4 -0.2622 2.3111 6.4253 41.5237 -0.3662 -6.0432
# 5 10.4069 -3.8641 12.7930 -0.3662 35.9013 -4.0360
# 6 13.0570 21.0629 4.4188 -6.0432 -4.0360 40.2914
#
#
#
# Elastic Compliance Matrix: (Units=1/GPa)
#
#
# Indices 1 2 3 4 5 6 
#
# 1 0.015984 -0.002993 0.000161 -0.000424 -0.005495 -0.004247
# 2 -0.002993 0.008456 -0.002405 -0.000540 0.002287 -0.003039
# 3 0.000161 -0.002405 0.008372 -0.001223 -0.003327 -0.000230
# 4 -0.000424 -0.000540 -0.001223 0.024954 0.001252 0.004422
# 5 -0.005495 0.002287 -0.003327 0.001252 0.031373 0.004280
# 6 -0.004247 -0.003039 -0.000230 0.004422 0.004280 0.028901
#
#
# Mechanical properties :
#
#
# Convention : Reuss Voigt Hill
#
# Bulk Modulus (GPa) = 44.76436 59.50389 52.13413
# Shear Modulus (GPa) = 36.77547 42.00801 39.39174
#
# Velocity S-wave (km/s) = 4.02338 4.30010 4.16404
# Velocity P-wave (km/s) = 6.42554 7.13067 6.78727
#
# Compressibility (1/GPa) = 0.02233920
#
# Stress axis : x y z
#
# Youngs Moduli (GPa) = 62.56145 118.25408 119.44605
#
# Poissons Ratio (x) = 0.35388 -0.01919
# Poissons Ratio (y) = 0.18722 0.28725
# Poissons Ratio (z) = -0.01005 0.28438
#
# Static dielectric constant tensor:
#      x y z
#    x 4.048050 0.680810 -0.844400 
#    y 0.680810 5.133510 -1.033390 
#    z -0.844400 -1.033390 6.260070 
# 
# 
# High freq. dielectric constant tensor:
#      x y z
#    x 1.894810 0.015510 0.008600 
#    y 0.015510 1.922830 0.010010 
#    z 0.008600 0.010010 1.897320 
# 
# From -- ./inp_files/98191.got.cif
#   From: 2010.06.25/outbox.cif.g09.slc.cpg/sg2_50_cif.got.tgz:98191.got - 2010.06.27 13:26:56.
