data_PCOD8032708
_publ_section_title
;
Structure prediction by ZEFSAII (Michael W. Deem and Ramdas Pophale) SiO2 
 PCOD8032708
Probable space group: P -1
;
_chemical_formula_sum "Si O2"
_cell_formula_units_Z 14
_cell_length_a 10.723331
_cell_length_b 8.746009
_cell_length_c 18.872630
_cell_angle_alpha 139.038317
_cell_angle_beta 144.617203
_cell_angle_gamma 64.913476
_cell_volume 579.911540
_symmetry_space_group_name_H-M "P -1"
_symmetry_group_IT_number 2
_symmetry_cell_setting 'triclinic'
loop_
_space_group_symop_operation_xyz
x,y,z
-x,-y,-z
loop_
_atom_site_type_symbol
_atom_site_label
_atom_site_fract_x
_atom_site_fract_y
_atom_site_fract_z
Si Si1 0.745697 0.634320 0.614378
Si Si2 0.125267 0.680930 0.552822
Si Si3 0.744519 0.492143 0.976025
Si Si4 0.233194 0.954628 0.339681
Si Si5 0.898198 0.475306 0.192330
Si Si6 0.217476 0.097809 0.532875
Si Si7 0.462662 0.142147 0.965551
O O1 0.500000 0.500000 0.500000
O O2 0.772161 0.447532 0.501510
O O3 0.965349 0.700655 0.795809
O O4 0.767234 0.900500 0.682580
O O5 0.000000 0.500000 0.500000
O O6 0.927859 0.756373 0.452151
O O7 0.367461 0.951167 0.786288
O O8 0.516864 0.256567 0.743789
O O9 0.741696 0.381760 0.014539
O O10 0.723918 0.760179 0.062609
O O11 0.027356 0.630724 0.123124
O O12 0.500000 0.000000 0.500000
O O13 0.171315 0.089606 0.424407
O O14 0.716056 0.407163 0.151192
O O15 0.101380 0.793884 0.401564
O O16 0.500000 0.000000 0.000000
#
# Coordination Sequence:
#
# PCOD8032708 Si02
#       7
#     2   2   2   2   2   2   2
#     4  12  26  46  72 105 150 190 235 305 373 434
#     4  12  23  44  74 108 141 194 248 299 359 437
#     4  11  23  43  70 106 142 189 246 296 367 432
#     4  11  24  49  74 101 146 187 245 303 366 438
#     4  11  25  44  68 106 151 185 240 304 364 435
#     4  11  24  44  77 107 139 194 245 304 361 430
#     4  12  24  41  69 108 148 191 244 306 365 431
#
# _framework density 24.141614000000001
#
# number of rings (size 3 to 8) (size 9 to 14) (size 15 to 20)
#    0.000    0.571    4.286    5.571    2.000    1.714 
#    0.000    0.714    0.000    0.000    0.000    0.000 
#    0.000    0.000    0.000    0.000    0.000    0.000 
#
# Total GULP energy -173493.223287 kJ/mol
# GULP energy per Si atom -12392.373092 kJ/mol
# Density = 2.408667 g / cm^3
# Si number density = 24.141614 Si / 1000 Ang^3
#
#
#
# Elastic Constant Matrix: (Units=GPa)
#
#
# Indices 1 2 3 4 5 6 
#
# 1 89.2964 21.6783 31.3259 9.8381 19.4145 20.4995
# 2 21.6783 148.3093 34.2640 -19.8639 12.1690 33.1909
# 3 31.3259 34.2640 162.4344 -8.9259 18.9654 16.7888
# 4 9.8381 -19.8639 -8.9259 39.3443 2.9525 3.5362
# 5 19.4145 12.1690 18.9654 2.9525 43.1285 1.3521
# 6 20.4995 33.1909 16.7888 3.5362 1.3521 46.3402
#
#
#
# Elastic Compliance Matrix: (Units=1/GPa)
#
#
# Indices 1 2 3 4 5 6 
#
# 1 0.014641 -0.000680 -0.001756 -0.003568 -0.005228 -0.004928
# 2 -0.000680 0.009371 -0.000603 0.005521 -0.002245 -0.006548
# 3 -0.001756 -0.000603 0.007154 0.002061 -0.002280 -0.001474
# 4 -0.003568 0.005521 0.002061 0.030252 -0.002762 -0.005351
# 5 -0.005228 -0.002245 -0.002280 -0.002762 0.027234 0.004163
# 6 -0.004928 -0.006548 -0.001474 -0.005351 0.004163 0.029270
#
#
# Mechanical properties :
#
#
# Convention : Reuss Voigt Hill
#
# Bulk Modulus (GPa) = 39.86252 63.84182 51.85217
# Shear Modulus (GPa) = 37.77463 46.61409 42.19436
#
# Velocity S-wave (km/s) = 3.95993 4.39892 4.18519
# Velocity P-wave (km/s) = 6.12012 7.23207 6.69921
#
# Compressibility (1/GPa) = 0.02508622
#
# Stress axis : x y z
#
# Youngs Moduli (GPa) = 68.30141 106.71725 139.78071
#
# Poissons Ratio (x) = 0.07259 0.24550
# Poissons Ratio (y) = 0.04646 0.08430
# Poissons Ratio (z) = 0.11996 0.06436
#
# Static dielectric constant tensor:
#      x y z
#    x 4.361960 0.143990 0.006500 
#    y 0.143990 4.469320 -0.193640 
#    z 0.006500 -0.193640 4.298020 
# 
# 
# High freq. dielectric constant tensor:
#      x y z
#    x 1.955870 0.014510 0.014090 
#    y 0.014510 1.964190 -0.015480 
#    z 0.014090 -0.015480 1.970460 
# 
# From -- ./inp_files/467052.got.cif
#   From: 2010.06.25/outbox.cif.g09.slc.cpg/sg2_234_cif.got.tgz:467052.got - 2010.06.27 13:26:56.
