data_PCOD8032030
_publ_section_title
;
Structure prediction by ZEFSAII (Michael W. Deem and Ramdas Pophale) SiO2 
 PCOD8032030
Probable space group: P -1
;
_chemical_formula_sum "Si O2"
_cell_formula_units_Z 16
_cell_length_a 11.029439
_cell_length_b 6.472148
_cell_length_c 23.780976
_cell_angle_alpha 69.451540
_cell_angle_beta 30.006939
_cell_angle_gamma 60.301800
_cell_volume 725.462760
_symmetry_space_group_name_H-M "P -1"
_symmetry_group_IT_number 2
_symmetry_cell_setting 'triclinic'
loop_
_space_group_symop_operation_xyz
x,y,z
-x,-y,-z
loop_
_atom_site_type_symbol
_atom_site_label
_atom_site_fract_x
_atom_site_fract_y
_atom_site_fract_z
Si Si1 0.929230 0.058836 0.586672
Si Si2 0.469529 0.418518 0.308332
Si Si3 0.276675 0.928816 0.666953
Si Si4 0.089625 0.395540 0.912382
Si Si5 0.300486 0.881082 0.072149
Si Si6 0.483639 0.879785 0.790512
Si Si7 0.609715 0.389350 0.047682
Si Si8 0.597149 0.217880 0.494308
O O1 0.810728 0.352111 0.611624
O O2 0.717678 0.960693 0.702134
O O3 0.000000 0.000000 0.500000
O O4 0.188198 0.917057 0.532010
O O5 0.489352 0.295467 0.373477
O O6 0.704077 0.508312 0.203863
O O7 0.505612 0.210520 0.268766
O O8 0.266400 0.882600 0.609979
O O9 0.343329 0.164761 0.619319
O O10 0.000515 0.961085 0.803528
O O11 0.207180 0.104909 0.893033
O O12 0.000000 0.500000 0.000000
O O13 0.844753 0.474124 0.959863
O O14 0.374297 0.619115 0.094145
O O15 0.307398 0.842058 0.005474
O O16 0.500000 0.000000 0.000000
O O17 0.506235 0.664155 0.843078
O O18 0.500000 0.500000 0.500000
#
# Coordination Sequence:
#
# PCOD8032030 Si02
#       8
#     2   2   2   2   2   2   2   2
#     4  11  26  45  70 101 134 179 233 292 353 411
#     4  11  24  44  71 102 140 179 231 294 342 418
#     4  11  26  45  70 101 135 183 230 278 354 411
#     4  11  23  40  67 100 139 182 227 285 344 412
#     4  11  27  43  69  98 143 184 227 288 344 416
#     4  11  25  39  70 100 135 178 235 286 348 416
#     4  11  25  41  64 102 136 184 232 277 347 417
#     4  11  27  46  72  98 138 180 230 289 343 414
#
# _framework density 22.05489
#
# number of rings (size 3 to 8) (size 9 to 14) (size 15 to 20)
#    0.000    1.000    1.250    3.375    8.750    7.000 
#    0.000    0.000    0.000    0.000    0.000    0.000 
#    0.000    0.000    0.000    0.000    0.000    0.000 
#
# Total GULP energy -198404.525812 kJ/mol
# GULP energy per Si atom -12400.282863 kJ/mol
# Density = 2.200469 g / cm^3
# Si number density = 22.054890 Si / 1000 Ang^3
#
#
#
# Elastic Constant Matrix: (Units=GPa)
#
#
# Indices 1 2 3 4 5 6 
#
# 1 143.7625 46.4390 33.4712 12.3871 9.7605 -1.0284
# 2 46.4390 126.6420 36.5475 6.5393 -4.0491 -4.7290
# 3 33.4712 36.5475 78.1159 6.2890 -0.1150 -4.0670
# 4 12.3871 6.5393 6.2890 38.0181 -0.2316 0.6190
# 5 9.7605 -4.0491 -0.1150 -0.2316 37.0461 -4.1349
# 6 -1.0284 -4.7290 -4.0670 0.6190 -4.1349 43.7106
#
#
#
# Elastic Compliance Matrix: (Units=1/GPa)
#
#
# Indices 1 2 3 4 5 6 
#
# 1 0.008669 -0.002479 -0.002424 -0.002005 -0.002632 -0.000510
# 2 -0.002479 0.009925 -0.003507 -0.000322 0.001822 0.000866
# 3 -0.002424 -0.003507 0.015635 -0.001208 0.000416 0.001075
# 4 -0.002005 -0.000322 -0.001208 0.027224 0.000601 -0.000523
# 5 -0.002632 0.001822 0.000416 0.000601 0.028207 0.002834
# 6 -0.000510 0.000866 0.001075 -0.000523 0.002834 0.023335
#
#
# Mechanical properties :
#
#
# Convention : Reuss Voigt Hill
#
# Bulk Modulus (GPa) = 57.44455 64.60400 61.02427
# Shear Modulus (GPa) = 36.86843 39.22582 38.04713
#
# Velocity S-wave (km/s) = 4.09304 4.22187 4.15795
# Velocity P-wave (km/s) = 6.95988 7.28845 7.12606
#
# Compressibility (1/GPa) = 0.01740809
#
# Stress axis : x y z
#
# Youngs Moduli (GPa) = 115.35670 100.75799 63.95982
#
# Poissons Ratio (x) = 0.24978 0.15501
# Poissons Ratio (y) = 0.28598 0.22434
# Poissons Ratio (z) = 0.27958 0.35341
#
# Static dielectric constant tensor:
#      x y z
#    x 6.093770 0.157710 -0.167050 
#    y 0.157710 4.203640 -0.004060 
#    z -0.167050 -0.004060 4.038320 
# 
# 
# High freq. dielectric constant tensor:
#      x y z
#    x 1.879780 -0.000830 0.001800 
#    y -0.000830 1.881540 -0.007930 
#    z 0.001800 -0.007930 1.867600 
# 
# From -- ./inp_files/306084.got.cif
#   From: 2010.06.25/outbox.cif.g09.slc.cpg/sg2_154_cif.got.tgz:306084.got - 2010.06.27 13:26:56.
