data_PCOD8032107
_publ_section_title
;
Structure prediction by ZEFSAII (Michael W. Deem and Ramdas Pophale) SiO2 
 PCOD8032107
Probable space group: P -1
;
_chemical_formula_sum "Si O2"
_cell_formula_units_Z 16
_cell_length_a 19.243020
_cell_length_b 8.927542
_cell_length_c 9.690191
_cell_angle_alpha 29.965753
_cell_angle_beta 61.627705
_cell_angle_gamma 62.728125
_cell_volume 727.497743
_symmetry_space_group_name_H-M "P -1"
_symmetry_group_IT_number 2
_symmetry_cell_setting 'triclinic'
loop_
_space_group_symop_operation_xyz
x,y,z
-x,-y,-z
loop_
_atom_site_type_symbol
_atom_site_label
_atom_site_fract_x
_atom_site_fract_y
_atom_site_fract_z
Si Si1 0.782750 0.848896 0.780813
Si Si2 0.421195 0.546904 0.125833
Si Si3 0.291265 0.530643 0.629730
Si Si4 0.961163 0.695052 0.763948
Si Si5 0.685552 0.882505 0.329685
Si Si6 0.826577 0.787442 0.483126
Si Si7 0.547986 0.281651 0.730741
Si Si8 0.065994 0.743395 0.087313
O O1 0.867993 0.727880 0.854544
O O2 0.775853 0.792067 0.668560
O O3 0.779935 0.205881 0.530236
O O4 0.717518 0.671406 0.064091
O O5 0.350180 0.782385 0.945462
O O6 0.500000 0.500000 0.000000
O O7 0.381792 0.235981 0.415635
O O8 0.448873 0.621372 0.192060
O O9 0.299744 0.310186 0.668559
O O10 0.364624 0.737680 0.404025
O O11 0.976517 0.511591 0.752084
O O12 0.000000 0.000000 0.500000
O O13 0.000000 0.500000 0.000000
O O14 0.769014 0.853432 0.353977
O O15 0.880793 0.458725 0.685677
O O16 0.879010 0.070997 0.210812
O O17 0.500000 0.500000 0.500000
O O18 0.500000 0.000000 0.000000
O O19 0.000000 0.000000 0.000000
#
# Coordination Sequence:
#
# PCOD8032107 Si02
#       8
#     2   2   2   2   2   2   2   2
#     4  11  23  41  63  93 126 165 213 266 319 386
#     4  11  24  43  63  91 127 165 210 264 320 387
#     4  11  23  41  64  92 127 165 211 265 322 386
#     4  11  23  41  63  92 128 168 214 266 322 388
#     4  11  24  43  63  92 128 166 212 265 322 389
#     4  11  24  43  66  97 133 172 220 274 330 396
#     4  11  23  41  64  93 125 162 209 261 315 381
#     4  11  24  43  66  98 135 173 221 279 333 395
#
# _framework density 21.993193999999999
#
# number of rings (size 3 to 8) (size 9 to 14) (size 15 to 20)
#    0.000    1.000    0.000    9.000    0.000    6.000 
#    0.000    0.000    0.000    0.000    0.000    0.000 
#    0.000    0.000    0.000    0.000    0.000    0.000 
#
# Total GULP energy -198222.250408 kJ/mol
# GULP energy per Si atom -12388.890650 kJ/mol
# Density = 2.194314 g / cm^3
# Si number density = 21.993194 Si / 1000 Ang^3
#
#
#
# Elastic Constant Matrix: (Units=GPa)
#
#
# Indices 1 2 3 4 5 6 
#
# 1 116.7312 42.7795 52.0760 3.3708 16.3685 10.3628
# 2 42.7795 104.1751 46.8306 -2.4617 2.1486 -9.3445
# 3 52.0760 46.8306 162.7563 -0.3935 2.2790 8.4053
# 4 3.3708 -2.4617 -0.3935 38.6693 -6.7165 1.1404
# 5 16.3685 2.1486 2.2790 -6.7165 58.5526 -11.2195
# 6 10.3628 -9.3445 8.4053 1.1404 -11.2195 21.0265
#
#
#
# Elastic Compliance Matrix: (Units=1/GPa)
#
#
# Indices 1 2 3 4 5 6 
#
# 1 0.013385 -0.005522 -0.002036 -0.002227 -0.005871 -0.011248
# 2 -0.005522 0.014272 -0.003013 0.001635 0.003648 0.012127
# 3 -0.002036 -0.003013 0.007856 0.000119 -0.000311 -0.003649
# 4 -0.002227 0.001635 0.000119 0.026800 0.004115 0.002519
# 5 -0.005871 0.003648 -0.000311 0.004115 0.022184 0.016253
# 6 -0.011248 0.012127 -0.003649 0.002519 0.016253 0.068487
#
#
# Mechanical properties :
#
#
# Convention : Reuss Voigt Hill
#
# Bulk Modulus (GPa) = 69.58608 74.11499 71.85053
# Shear Modulus (GPa) = 27.94598 39.78143 33.86371
#
# Velocity S-wave (km/s) = 3.56851 4.25762 3.92820
# Velocity P-wave (km/s) = 6.97764 7.61196 7.30169
#
# Compressibility (1/GPa) = 0.01437069
#
# Stress axis : x y z
#
# Youngs Moduli (GPa) = 74.71227 70.06496 127.29489
#
# Poissons Ratio (x) = 0.38687 0.25919
# Poissons Ratio (y) = 0.41253 0.38359
# Poissons Ratio (z) = 0.15212 0.21113
#
# Static dielectric constant tensor:
#      x y z
#    x 4.193220 -0.082970 -0.048000 
#    y -0.082970 3.973510 -0.149850 
#    z -0.048000 -0.149850 4.375080 
# 
# 
# High freq. dielectric constant tensor:
#      x y z
#    x 1.868050 -0.011740 0.004960 
#    y -0.011740 1.855740 -0.007180 
#    z 0.004960 -0.007180 1.896690 
# 
# From -- ./inp_files/343199.got.cif
#   From: 2010.06.25/outbox.cif.g09.slc.cpg/sg2_172_cif.got.tgz:343199.got - 2010.06.27 13:26:56.
