data_PCOD8032418
_publ_section_title
;
Structure prediction by ZEFSAII (Michael W. Deem and Ramdas Pophale) SiO2 
 PCOD8032418
Probable space group: P -1
;
_chemical_formula_sum "Si O2"
_cell_formula_units_Z 16
_cell_length_a 9.173335
_cell_length_b 8.293577
_cell_length_c 20.049381
_cell_angle_alpha 65.241183
_cell_angle_beta 145.646951
_cell_angle_gamma 115.773631
_cell_volume 769.724027
_symmetry_space_group_name_H-M "P -1"
_symmetry_group_IT_number 2
_symmetry_cell_setting 'triclinic'
loop_
_space_group_symop_operation_xyz
x,y,z
-x,-y,-z
loop_
_atom_site_type_symbol
_atom_site_label
_atom_site_fract_x
_atom_site_fract_y
_atom_site_fract_z
Si Si1 0.798015 0.690262 0.192093
Si Si2 0.152569 0.089538 0.953548
Si Si3 0.674294 0.963776 0.194296
Si Si4 0.039947 0.286428 0.204099
Si Si5 0.139250 0.888593 0.623374
Si Si6 0.276432 0.442907 0.026730
Si Si7 0.683911 0.800287 0.801777
Si Si8 0.797965 0.555007 0.622793
O O1 0.820944 0.860039 0.122579
O O2 0.580215 0.525495 0.111765
O O3 0.070861 0.619255 0.311967
O O4 0.723945 0.768857 0.221616
O O5 0.365834 0.966517 0.073680
O O6 0.188100 0.270612 0.977574
O O7 0.865818 0.970553 0.877087
O O8 0.764606 0.980331 0.301733
O O9 0.825570 0.126916 0.179141
O O10 0.250939 0.210626 0.250286
O O11 0.187408 0.399481 0.300971
O O12 0.899696 0.408616 0.080800
O O13 0.382051 0.819565 0.691747
O O14 0.931688 0.719463 0.599314
O O15 0.000000 0.000000 0.500000
O O16 0.262331 0.380744 0.109285
O O17 0.500000 0.500000 0.500000
#
# Coordination Sequence:
#
# PCOD8032418 Si02
#       8
#     2   2   2   2   2   2   2   2
#     4  12  22  42  70  98 131 171 220 265 320 391
#     4  12  22  40  69 100 135 173 212 259 332 398
#     4  11  23  43  69  97 132 176 217 259 323 397
#     4  11  23  42  69  98 133 174 213 264 324 394
#     4  11  27  48  67  92 131 172 219 277 326 373
#     4  12  22  40  66 102 139 169 206 271 328 386
#     4  12  25  43  63 103 138 167 212 269 332 387
#     4  11  26  48  69  93 123 175 231 265 315 390
#
# _framework density 20.786670999999998
#
# number of rings (size 3 to 8) (size 9 to 14) (size 15 to 20)
#    0.000    0.500    6.250    3.000    1.750    1.000 
#    2.250    3.750    0.000    0.000    0.000    0.000 
#    0.000    0.000    0.000    0.000    0.000    0.000 
#
# Total GULP energy -198462.070189 kJ/mol
# GULP energy per Si atom -12403.879387 kJ/mol
# Density = 2.073936 g / cm^3
# Si number density = 20.786671 Si / 1000 Ang^3
#
#
#
# Elastic Constant Matrix: (Units=GPa)
#
#
# Indices 1 2 3 4 5 6 
#
# 1 108.0684 31.4749 57.4610 -7.7825 5.0679 -4.2808
# 2 31.4749 79.6223 52.4920 0.5752 3.2826 -3.1337
# 3 57.4610 52.4920 141.8473 -0.4420 2.1366 5.1180
# 4 -7.7825 0.5752 -0.4420 26.3232 13.9683 4.1779
# 5 5.0679 3.2826 2.1366 13.9683 30.4128 -2.9792
# 6 -4.2808 -3.1337 5.1180 4.1779 -2.9792 41.0402
#
#
#
# Elastic Compliance Matrix: (Units=1/GPa)
#
#
# Indices 1 2 3 4 5 6 
#
# 1 0.012834 -0.002005 -0.004405 0.005878 -0.004231 0.000829
# 2 -0.002005 0.017141 -0.005596 -0.001140 -0.000415 0.001884
# 3 -0.004405 -0.005596 0.010963 -0.001138 0.000887 -0.002074
# 4 0.005878 -0.001140 -0.001138 0.054996 -0.026709 -0.006870
# 5 -0.004231 -0.000415 0.000887 -0.026709 0.046374 0.005502
# 6 0.000829 0.001884 -0.002074 -0.006870 0.005502 0.025954
#
#
# Mechanical properties :
#
#
# Convention : Reuss Voigt Hill
#
# Bulk Modulus (GPa) = 59.08090 68.04376 63.56233
# Shear Modulus (GPa) = 25.26327 32.09591 28.67959
#
# Velocity S-wave (km/s) = 3.48998 3.93372 3.71848
# Velocity P-wave (km/s) = 6.68761 7.31010 7.00577
#
# Compressibility (1/GPa) = 0.01692594
#
# Stress axis : x y z
#
# Youngs Moduli (GPa) = 77.91819 58.34102 91.21509
#
# Poissons Ratio (x) = 0.11695 0.40180
# Poissons Ratio (y) = 0.15620 0.51046
# Poissons Ratio (z) = 0.34323 0.32649
#
# Static dielectric constant tensor:
#      x y z
#    x 3.944590 0.086000 -0.086240 
#    y 0.086000 3.898680 -0.009730 
#    z -0.086240 -0.009730 3.651050 
# 
# 
# High freq. dielectric constant tensor:
#      x y z
#    x 1.825100 0.001820 0.000120 
#    y 0.001820 1.821190 0.001800 
#    z 0.000120 0.001800 1.800730 
# 
# From -- ./inp_files/184840.got.cif
#   From: 2010.06.25/outbox.cif.g09.slc.cpg/sg2_93_cif.got.tgz:184840.got - 2010.06.27 13:26:56.
