data_PCOD8032201
_publ_section_title
;
Structure prediction by ZEFSAII (Michael W. Deem and Ramdas Pophale) SiO2 
 PCOD8032201
Probable space group: P -1
;
_chemical_formula_sum "Si O2"
_cell_formula_units_Z 16
_cell_length_a 8.498752
_cell_length_b 16.977094
_cell_length_c 15.903999
_cell_angle_alpha 146.710210
_cell_angle_beta 41.629768
_cell_angle_gamma 147.865784
_cell_volume 663.739428
_symmetry_space_group_name_H-M "P -1"
_symmetry_group_IT_number 2
_symmetry_cell_setting 'triclinic'
loop_
_space_group_symop_operation_xyz
x,y,z
-x,-y,-z
loop_
_atom_site_type_symbol
_atom_site_label
_atom_site_fract_x
_atom_site_fract_y
_atom_site_fract_z
Si Si1 0.165061 0.825140 0.208503
Si Si2 0.604688 0.199565 0.128160
Si Si3 0.213399 0.450491 0.401634
Si Si4 0.224740 0.449876 0.011380
Si Si5 0.695256 0.818754 0.928446
Si Si6 0.347252 0.189099 0.381672
Si Si7 0.664318 0.192721 0.709358
Si Si8 0.900954 0.177032 0.433606
O O1 0.117062 0.813894 0.319066
O O2 0.288070 0.024425 0.310575
O O3 0.411801 0.790966 0.060744
O O4 0.853685 0.674786 0.151148
O O5 0.355942 0.185267 0.155635
O O6 0.616876 0.267163 0.277119
O O7 0.932475 0.339410 0.086505
O O8 0.500000 0.000000 0.000000
O O9 0.264610 0.339386 0.214948
O O10 0.542443 0.640112 0.451534
O O11 0.000000 0.500000 0.500000
O O12 0.091843 0.343409 0.443010
O O13 0.319550 0.641089 0.113166
O O14 0.500000 0.500000 0.000000
O O15 0.000000 0.000000 0.000000
O O16 0.065222 0.123051 0.378808
O O17 0.748880 0.225892 0.607010
O O18 0.339253 0.002781 0.683598
#
# Coordination Sequence:
#
# PCOD8032201 Si02
#       8
#     2   2   2   2   2   2   2   2
#     4  11  25  45  72 104 147 188 243 305 355 434
#     4  11  23  42  75 105 141 182 241 298 358 426
#     4  12  26  43  70 106 142 182 237 303 369 427
#     4  11  24  44  71 104 142 192 241 296 362 432
#     4  11  23  41  69 104 141 183 226 300 367 411
#     4  12  23  44  72 105 141 182 245 299 367 423
#     4  11  25  46  66  98 145 193 249 283 364 441
#     4  11  25  44  73  96 144 196 233 302 360 440
#
# _framework density 24.105846
#
# number of rings (size 3 to 8) (size 9 to 14) (size 15 to 20)
#    0.000    0.750    3.750    4.500    3.500    0.500 
#    2.250    0.000    0.000    0.000    0.000    0.000 
#    0.000    0.000    0.000    0.000    0.000    0.000 
#
# Total GULP energy -198284.199283 kJ/mol
# GULP energy per Si atom -12392.762455 kJ/mol
# Density = 2.405098 g / cm^3
# Si number density = 24.105846 Si / 1000 Ang^3
#
#
#
# Elastic Constant Matrix: (Units=GPa)
#
#
# Indices 1 2 3 4 5 6 
#
# 1 148.9988 63.5071 35.9816 25.3185 -4.9012 10.3275
# 2 63.5071 75.6936 44.7786 40.7773 5.8998 12.7105
# 3 35.9816 44.7786 111.9123 48.0236 -5.7279 6.7337
# 4 25.3185 40.7773 48.0236 36.4312 8.2177 1.3418
# 5 -4.9012 5.8998 -5.7279 8.2177 47.0672 8.1948
# 6 10.3275 12.7105 6.7337 1.3418 8.1948 44.9061
#
#
#
# Elastic Compliance Matrix: (Units=1/GPa)
#
#
# Indices 1 2 3 4 5 6 
#
# 1 0.011688 -0.015471 -0.003690 0.014004 -0.000057 0.001836
# 2 -0.015471 0.064087 0.017940 -0.086389 0.010514 -0.016609
# 3 -0.003690 0.017940 0.029391 -0.058811 0.012817 -0.009218
# 4 0.014004 -0.086389 -0.058811 0.198678 -0.034864 0.030476
# 5 -0.000057 0.010514 0.012817 -0.034864 0.029165 -0.009165
# 6 0.001836 -0.016609 -0.009218 0.030476 -0.009165 0.028692
#
#
# Mechanical properties :
#
#
# Convention : Reuss Voigt Hill
#
# Bulk Modulus (GPa) = 9.73485 69.45992 39.59738
# Shear Modulus (GPa) = 12.55066 38.50340 25.52703
#
# Velocity S-wave (km/s) = 2.28425 4.00091 3.25769
# Velocity P-wave (km/s) = 3.31726 7.08662 5.53283
#
# Compressibility (1/GPa) = 0.10272372
#
# Stress axis : x y z
#
# Youngs Moduli (GPa) = 85.55707 15.60373 34.02373
#
# Poissons Ratio (x) = 0.24141 0.12556
# Poissons Ratio (y) = 1.32368 -0.61039
# Poissons Ratio (z) = 0.31573 -0.27993
#
# Static dielectric constant tensor:
#      x y z
#    x 4.568670 0.053450 0.124650 
#    y 0.053450 4.277690 0.174740 
#    z 0.124650 0.174740 4.554630 
# 
# 
# High freq. dielectric constant tensor:
#      x y z
#    x 1.968280 -0.002710 0.008340 
#    y -0.002710 1.954290 0.012340 
#    z 0.008340 0.012340 1.965750 
# 
# From -- ./inp_files/562094.got.cif
#   From: 2010.06.25/outbox.cif.g09.slc.cpg/sg2_282_cif.got.tgz:562094.got - 2010.06.27 13:26:56.
