data_PCOD8032647
_publ_section_title
;
Structure prediction by ZEFSAII (Michael W. Deem and Ramdas Pophale) SiO2 
 PCOD8032647
Probable space group: P -1
;
_chemical_formula_sum "Si O2"
_cell_formula_units_Z 10
_cell_length_a 13.247917
_cell_length_b 7.753312
_cell_length_c 8.080324
_cell_angle_alpha 69.285490
_cell_angle_beta 58.076729
_cell_angle_gamma 44.122542
_cell_volume 489.960699
_symmetry_space_group_name_H-M "P -1"
_symmetry_group_IT_number 2
_symmetry_cell_setting 'triclinic'
loop_
_space_group_symop_operation_xyz
x,y,z
-x,-y,-z
loop_
_atom_site_type_symbol
_atom_site_label
_atom_site_fract_x
_atom_site_fract_y
_atom_site_fract_z
Si Si1 0.211790 0.046789 0.894308
Si Si2 0.993957 0.018083 0.303656
Si Si3 0.658278 0.388309 0.304997
Si Si4 0.347425 0.195984 0.956186
Si Si5 0.034556 0.586149 0.282708
O O1 0.337018 0.057710 0.864404
O O2 0.191933 0.778077 0.646844
O O3 0.113342 0.262524 0.768221
O O4 0.315414 0.775090 0.817315
O O5 0.072965 0.755883 0.242709
O O6 0.088195 0.095126 0.121837
O O7 0.000000 0.000000 0.500000
O O8 0.500000 0.500000 0.500000
O O9 0.635822 0.618125 0.189131
O O10 0.188475 0.336236 0.152822
O O11 0.500000 0.000000 0.000000
O O12 0.000000 0.500000 0.500000
#
# Coordination Sequence:
#
# PCOD8032647 Si02
#       5
#     2   2   2   2   2
#     4  11  24  48  69  93 138 179 223 282 325 393
#     4  11  23  43  73  98 129 183 225 271 336 394
#     4  11  26  46  65 100 140 172 222 276 333 398
#     4  12  27  43  67 100 137 176 222 276 336 390
#     4  11  23  43  69 101 132 174 231 273 328 403
#
# _framework density 20.409799
#
# number of rings (size 3 to 8) (size 9 to 14) (size 15 to 20)
#    0.000    0.800    4.000    3.000   11.200    3.200 
#    0.000    0.000    0.000    0.000    0.000    0.000 
#    0.000    0.000    0.000    0.000    0.000    0.000 
#
# Total GULP energy -124045.330340 kJ/mol
# GULP energy per Si atom -12404.533034 kJ/mol
# Density = 2.036334 g / cm^3
# Si number density = 20.409799 Si / 1000 Ang^3
#
#
#
# Elastic Constant Matrix: (Units=GPa)
#
#
# Indices 1 2 3 4 5 6 
#
# 1 154.4256 86.7744 72.3985 -2.7979 20.1699 5.2795
# 2 86.7744 106.8139 53.1115 -8.3650 8.8516 9.9757
# 3 72.3985 53.1115 143.5697 -13.5579 -2.9134 1.4586
# 4 -2.7979 -8.3650 -13.5579 42.1757 -2.6773 -4.6334
# 5 20.1699 8.8516 -2.9134 -2.6773 49.8501 -1.6653
# 6 5.2795 9.9757 1.4586 -4.6334 -1.6653 25.4976
#
#
#
# Elastic Compliance Matrix: (Units=1/GPa)
#
#
# Indices 1 2 3 4 5 6 
#
# 1 0.014111 -0.009328 -0.003988 -0.002452 -0.004410 0.000222
# 2 -0.009328 0.018449 -0.001884 0.001928 0.000331 -0.004807
# 3 -0.003988 -0.001884 0.009989 0.002934 0.002747 0.001704
# 4 -0.002452 0.001928 0.002934 0.025502 0.002337 0.004372
# 5 -0.004410 0.000331 0.002747 0.002337 0.022155 0.002498
# 6 0.000222 -0.004807 0.001704 0.004372 0.002498 0.041914
#
#
# Mechanical properties :
#
#
# Convention : Reuss Voigt Hill
#
# Bulk Modulus (GPa) = 82.30930 92.15310 87.23120
# Shear Modulus (GPa) = 30.01760 36.33966 33.17863
#
# Velocity S-wave (km/s) = 3.83919 4.22418 4.03628
# Velocity P-wave (km/s) = 7.75038 8.30909 8.03459
#
# Compressibility (1/GPa) = 0.01214930
#
# Stress axis : x y z
#
# Youngs Moduli (GPa) = 70.86758 54.20428 100.11164
#
# Poissons Ratio (x) = 0.50559 0.39929
# Poissons Ratio (y) = 0.66102 0.18857
# Poissons Ratio (z) = 0.28265 0.10210
#
# Static dielectric constant tensor:
#      x y z
#    x 3.884130 0.134760 -0.175240 
#    y 0.134760 3.710060 -0.181300 
#    z -0.175240 -0.181300 4.506650 
# 
# 
# High freq. dielectric constant tensor:
#      x y z
#    x 1.803240 0.011450 0.003390 
#    y 0.011450 1.810240 -0.003090 
#    z 0.003390 -0.003090 1.808090 
# 
# From -- ./inp_files/57620.got.cif
#   From: 2010.06.25/outbox.cif.g09.slc.cpg/sg2_29_cif.got.tgz:57620.got - 2010.06.27 13:26:56.
