data_PCOD8032464
_publ_section_title
;
Structure prediction by ZEFSAII (Michael W. Deem and Ramdas Pophale) SiO2 
 PCOD8032464
Probable space group: P -1
;
_chemical_formula_sum "Si O2"
_cell_formula_units_Z 16
_cell_length_a 12.430117
_cell_length_b 7.873787
_cell_length_c 12.135014
_cell_angle_alpha 110.706434
_cell_angle_beta 45.608335
_cell_angle_gamma 126.641428
_cell_volume 676.728282
_symmetry_space_group_name_H-M "P -1"
_symmetry_group_IT_number 2
_symmetry_cell_setting 'triclinic'
loop_
_space_group_symop_operation_xyz
x,y,z
-x,-y,-z
loop_
_atom_site_type_symbol
_atom_site_label
_atom_site_fract_x
_atom_site_fract_y
_atom_site_fract_z
Si Si1 0.132025 0.497129 0.319970
Si Si2 0.599033 0.413453 0.195722
Si Si3 0.229542 0.146081 0.499807
Si Si4 0.503717 0.632470 0.131298
Si Si5 0.047185 0.902632 0.778939
Si Si6 0.708730 0.099374 0.014385
Si Si7 0.996595 0.746805 0.012201
Si Si8 0.898245 0.163220 0.684929
O O1 0.307286 0.578093 0.283511
O O2 0.132400 0.638816 0.251047
O O3 0.000000 0.500000 0.500000
O O4 0.086596 0.272080 0.251908
O O5 0.435484 0.328660 0.379043
O O6 0.582871 0.563897 0.155448
O O7 0.589448 0.204205 0.101229
O O8 0.792511 0.572176 0.144376
O O9 0.215833 0.059206 0.615617
O O10 0.098752 0.235273 0.592028
O O11 0.165466 0.958171 0.413031
O O12 0.608086 0.886494 0.108302
O O13 0.500000 0.500000 0.000000
O O14 0.958566 0.023953 0.920835
O O15 0.068963 0.781059 0.841141
O O16 0.767367 0.027023 0.846415
O O17 0.874907 0.290044 0.009223
#
# Coordination Sequence:
#
# PCOD8032464 Si02
#       8
#     2   2   2   2   2   2   2   2
#     4  12  24  42  70 107 143 178 223 293 366 420
#     4  12  27  44  71 105 138 186 243 294 345 411
#     4  11  24  43  69 105 144 179 229 296 358 414
#     4  12  25  42  69 107 145 182 230 290 352 424
#     4  11  23  45  74  99 139 189 234 282 356 421
#     4  12  25  46  72 104 139 189 242 286 348 426
#     4  11  24  47  74  95 139 198 240 284 340 425
#     4  11  23  42  71 103 145 182 224 291 361 427
#
# _framework density 23.643170000000001
#
# number of rings (size 3 to 8) (size 9 to 14) (size 15 to 20)
#    0.000    0.500    2.500    7.125    1.750    2.000 
#    0.000    0.625    2.750    0.000    0.000    0.000 
#    0.000    0.000    0.000    0.000    0.000    0.000 
#
# Total GULP energy -198230.215578 kJ/mol
# GULP energy per Si atom -12389.388474 kJ/mol
# Density = 2.358936 g / cm^3
# Si number density = 23.643170 Si / 1000 Ang^3
#
#
#
# Elastic Constant Matrix: (Units=GPa)
#
#
# Indices 1 2 3 4 5 6 
#
# 1 95.7659 36.2015 46.8521 -3.9943 -11.1903 -9.9618
# 2 36.2015 104.0558 36.1052 -8.6291 -15.6388 -7.2278
# 3 46.8521 36.1052 117.2361 -8.6258 5.3987 2.1903
# 4 -3.9943 -8.6291 -8.6258 32.9784 -5.0366 0.8507
# 5 -11.1903 -15.6388 5.3987 -5.0366 44.3765 3.8897
# 6 -9.9618 -7.2278 2.1903 0.8507 3.8897 37.7155
#
#
#
# Elastic Compliance Matrix: (Units=1/GPa)
#
#
# Indices 1 2 3 4 5 6 
#
# 1 0.014730 -0.002565 -0.005297 0.000125 0.003173 0.003377
# 2 -0.002565 0.012457 -0.002826 0.002829 0.004288 0.001368
# 3 -0.005297 -0.002826 0.011809 0.001244 -0.003425 -0.002301
# 4 0.000125 0.002829 0.001244 0.032122 0.004584 -0.000694
# 5 0.003173 0.004288 -0.003425 0.004584 0.025863 -0.000912
# 6 0.003377 0.001368 -0.002301 -0.000694 -0.000912 0.027912
#
#
# Mechanical properties :
#
#
# Convention : Reuss Voigt Hill
#
# Bulk Modulus (GPa) = 56.75138 61.70838 59.22988
# Shear Modulus (GPa) = 32.86372 36.20735 34.53554
#
# Velocity S-wave (km/s) = 3.73230 3.91757 3.82605
# Velocity P-wave (km/s) = 6.52907 6.82786 6.68014
#
# Compressibility (1/GPa) = 0.01762072
#
# Stress axis : x y z
#
# Youngs Moduli (GPa) = 67.88645 80.27337 84.67883
#
# Poissons Ratio (x) = 0.20591 0.44854
# Poissons Ratio (y) = 0.17413 0.23933
# Poissons Ratio (z) = 0.35959 0.22688
#
# Static dielectric constant tensor:
#      x y z
#    x 7.071680 -0.374580 0.267890 
#    y -0.374580 3.740040 -0.054450 
#    z 0.267890 -0.054450 4.460060 
# 
# 
# High freq. dielectric constant tensor:
#      x y z
#    x 1.935580 -0.016090 -0.002330 
#    y -0.016090 1.941240 -0.005830 
#    z -0.002330 -0.005830 1.937080 
# 
# From -- ./inp_files/419585.got.cif
#   From: 2010.06.25/outbox.cif.g09.slc.cpg/sg2_210_cif.got.tgz:419585.got - 2010.06.27 13:26:56.
