data_PCOD8032058
_publ_section_title
;
Structure prediction by ZEFSAII (Michael W. Deem and Ramdas Pophale) SiO2 
 PCOD8032058
Probable space group: P -1
;
_chemical_formula_sum "Si O2"
_cell_formula_units_Z 16
_cell_length_a 16.085481
_cell_length_b 10.129925
_cell_length_c 9.345635
_cell_angle_alpha 117.726823
_cell_angle_beta 47.476059
_cell_angle_gamma 84.638453
_cell_volume 775.293463
_symmetry_space_group_name_H-M "P -1"
_symmetry_group_IT_number 2
_symmetry_cell_setting 'triclinic'
loop_
_space_group_symop_operation_xyz
x,y,z
-x,-y,-z
loop_
_atom_site_type_symbol
_atom_site_label
_atom_site_fract_x
_atom_site_fract_y
_atom_site_fract_z
Si Si1 0.626954 0.967174 0.923950
Si Si2 0.974865 0.298375 0.019393
Si Si3 0.233917 0.302526 0.112928
Si Si4 0.569487 0.810325 0.411825
Si Si5 0.394324 0.728766 0.732444
Si Si6 0.006779 0.718202 0.694611
Si Si7 0.943704 0.044542 0.748063
Si Si8 0.775845 0.710647 0.371859
O O1 0.647591 0.867596 0.002895
O O2 0.761270 0.826319 0.589437
O O3 0.500000 0.000000 0.000000
O O4 0.601548 0.165296 0.079328
O O5 0.969920 0.233111 0.150720
O O6 0.825228 0.504247 0.256834
O O7 0.007342 0.139366 0.792853
O O8 0.102812 0.313955 0.879231
O O9 0.133069 0.494959 0.415166
O O10 0.147500 0.233997 0.115219
O O11 0.301094 0.344105 0.924465
O O12 0.452819 0.774701 0.550672
O O13 0.629350 0.811263 0.499294
O O14 0.500000 0.000000 0.500000
O O15 0.500000 0.500000 0.500000
O O16 0.229114 0.812635 0.952350
O O17 0.017360 0.839971 0.628898
O O18 0.000000 0.000000 0.500000
#
# Coordination Sequence:
#
# PCOD8032058 Si02
#       8
#     2   2   2   2   2   2   2   2
#     4  12  22  43  68  99 133 177 233 287 337 416
#     4  11  24  41  68  97 138 182 226 288 351 414
#     4  11  23  40  69 101 130 173 236 292 344 404
#     4  12  22  43  70  98 135 183 234 291 347 414
#     4  12  27  44  69 103 143 183 226 286 361 423
#     4  11  23  42  68  97 139 177 228 291 349 414
#     4  12  27  45  68 100 143 184 231 286 360 426
#     4  11  23  40  69 102 128 174 239 288 339 407
#
# _framework density 20.637346000000001
#
# number of rings (size 3 to 8) (size 9 to 14) (size 15 to 20)
#    0.000    0.500    6.250    1.875    3.500    0.000 
#    0.000    0.000    0.000    2.250    0.000    0.000 
#    0.000    0.000    0.000    0.000    0.000    0.000 
#
# Total GULP energy -198361.037795 kJ/mol
# GULP energy per Si atom -12397.564862 kJ/mol
# Density = 2.059037 g / cm^3
# Si number density = 20.637346 Si / 1000 Ang^3
#
#
#
# Elastic Constant Matrix: (Units=GPa)
#
#
# Indices 1 2 3 4 5 6 
#
# 1 104.1244 48.4140 35.0927 1.7583 11.3363 -11.1929
# 2 48.4140 141.0696 50.1792 -1.1262 4.7512 -12.2470
# 3 35.0927 50.1792 84.2830 -8.2286 10.5884 -3.8099
# 4 1.7583 -1.1262 -8.2286 46.4180 -2.3445 4.9266
# 5 11.3363 4.7512 10.5884 -2.3445 44.7375 -4.3400
# 6 -11.1929 -12.2470 -3.8099 4.9266 -4.3400 30.1873
#
#
#
# Elastic Compliance Matrix: (Units=1/GPa)
#
#
# Indices 1 2 3 4 5 6 
#
# 1 0.012606 -0.002816 -0.003348 -0.001563 -0.001885 0.003093
# 2 -0.002816 0.009968 -0.004843 -0.000740 0.001020 0.002656
# 3 -0.003348 -0.004843 0.016679 0.003043 -0.002617 -0.001974
# 4 -0.001563 -0.000740 0.003043 0.022587 0.000540 -0.004104
# 5 -0.001885 0.001020 -0.002617 0.000540 0.023631 0.002694
# 6 0.003093 0.002656 -0.001974 -0.004104 0.002694 0.036159
#
#
# Mechanical properties :
#
#
# Convention : Reuss Voigt Hill
#
# Bulk Modulus (GPa) = 58.00710 66.31653 62.16181
# Shear Modulus (GPa) = 33.46990 37.32131 35.39560
#
# Velocity S-wave (km/s) = 4.03154 4.25718 4.14590
# Velocity P-wave (km/s) = 7.05974 7.50792 7.28728
#
# Compressibility (1/GPa) = 0.01723927
#
# Stress axis : x y z
#
# Youngs Moduli (GPa) = 79.33001 100.32244 59.95714
#
# Poissons Ratio (x) = 0.28247 0.20075
# Poissons Ratio (y) = 0.22336 0.29034
# Poissons Ratio (z) = 0.26561 0.48581
#
# Static dielectric constant tensor:
#      x y z
#    x 3.727540 -0.121990 0.191720 
#    y -0.121990 3.825470 -0.430390 
#    z 0.191720 -0.430390 5.256750 
# 
# 
# High freq. dielectric constant tensor:
#      x y z
#    x 1.799740 -0.009430 0.002400 
#    y -0.009430 1.802210 -0.001340 
#    z 0.002400 -0.001340 1.833040 
# 
# From -- ./inp_files/217919.got.cif
#   From: 2010.06.25/outbox.cif.g09.slc.cpg/sg2_109_cif.got.tgz:217919.got - 2010.06.27 13:26:56.
