data_PCOD8032214
_publ_section_title
;
Structure prediction by ZEFSAII (Michael W. Deem and Ramdas Pophale) SiO2 
 PCOD8032214
Probable space group: P -1
;
_chemical_formula_sum "Si O2"
_cell_formula_units_Z 16
_cell_length_a 9.269623
_cell_length_b 25.373669
_cell_length_c 8.896893
_cell_angle_alpha 49.778079
_cell_angle_beta 109.043283
_cell_angle_gamma 146.753607
_cell_volume 753.142181
_symmetry_space_group_name_H-M "P -1"
_symmetry_group_IT_number 2
_symmetry_cell_setting 'triclinic'
loop_
_space_group_symop_operation_xyz
x,y,z
-x,-y,-z
loop_
_atom_site_type_symbol
_atom_site_label
_atom_site_fract_x
_atom_site_fract_y
_atom_site_fract_z
Si Si1 0.468573 0.178079 0.189827
Si Si2 0.917150 0.245642 0.079749
Si Si3 0.686093 0.376363 0.707128
Si Si4 0.397040 0.980930 0.835566
Si Si5 0.759407 0.929988 0.377314
Si Si6 0.040161 0.228190 0.464425
Si Si7 0.459024 0.530794 0.574455
Si Si8 0.225074 0.144912 0.745814
O O1 0.621878 0.172141 0.172448
O O2 0.480494 0.177018 0.374358
O O3 0.663858 0.324329 0.950238
O O4 0.102739 0.033499 0.303774
O O5 0.815610 0.156223 0.073309
O O6 0.081267 0.267827 0.231145
O O7 0.161907 0.394682 0.820378
O O8 0.573522 0.409226 0.630367
O O9 0.461108 0.243952 0.774853
O O10 0.000000 0.500000 0.500000
O O11 0.199132 0.972125 0.811922
O O12 0.694828 0.113297 0.595539
O O13 0.500000 0.000000 0.000000
O O14 0.595034 0.822318 0.388462
O O15 0.260838 0.356317 0.418758
O O16 0.083657 0.162918 0.614344
O O17 0.500000 0.500000 0.500000
O O18 0.000000 0.000000 0.000000
#
# Coordination Sequence:
#
# PCOD8032214 Si02
#       8
#     2   2   2   2   2   2   2   2
#     4  11  24  43  67  96 137 174 224 273 342 391
#     4  12  25  46  68  95 142 180 218 282 342 402
#     4  11  24  43  69  95 132 180 224 268 342 403
#     4  12  26  39  68 105 133 170 230 281 332 398
#     4  11  25  41  68 102 134 172 228 282 331 399
#     4  11  25  44  67 100 134 180 224 266 354 401
#     4  11  26  45  70  99 134 179 225 279 332 406
#     4  11  23  41  69  96 133 175 223 279 334 398
#
# _framework density 21.244329
#
# number of rings (size 3 to 8) (size 9 to 14) (size 15 to 20)
#    0.000    0.750    3.750    3.000    8.750    1.000 
#    0.000    0.625    0.000    0.000    0.000    0.000 
#    0.000    0.000    0.000    0.000    0.000    0.000 
#
# Total GULP energy -198261.818941 kJ/mol
# GULP energy per Si atom -12391.363684 kJ/mol
# Density = 2.119598 g / cm^3
# Si number density = 21.244329 Si / 1000 Ang^3
#
#
#
# Elastic Constant Matrix: (Units=GPa)
#
#
# Indices 1 2 3 4 5 6 
#
# 1 116.0005 51.8109 37.3173 1.6058 8.8092 -21.1282
# 2 51.8109 105.4172 42.0042 2.4754 16.1380 -25.1540
# 3 37.3173 42.0042 131.2903 6.4551 11.7126 -8.7929
# 4 1.6058 2.4754 6.4551 43.2520 3.5865 -2.7574
# 5 8.8092 16.1380 11.7126 3.5865 35.3046 1.6122
# 6 -21.1282 -25.1540 -8.7929 -2.7574 1.6122 38.0147
#
#
#
# Elastic Compliance Matrix: (Units=1/GPa)
#
#
# Indices 1 2 3 4 5 6 
#
# 1 0.011697 -0.004161 -0.001726 0.000331 -0.000633 0.003399
# 2 -0.004161 0.015194 -0.002732 0.000611 -0.005400 0.007382
# 3 -0.001726 -0.002732 0.009095 -0.001082 -0.001196 -0.000691
# 4 0.000331 0.000611 -0.001082 0.023579 -0.002497 0.002154
# 5 -0.000633 -0.005400 -0.001196 -0.002497 0.031863 -0.005734
# 6 0.003399 0.007382 -0.000691 0.002154 -0.005734 0.033319
#
#
# Mechanical properties :
#
#
# Convention : Reuss Voigt Hill
#
# Bulk Modulus (GPa) = 53.33905 68.33033 60.83469
# Shear Modulus (GPa) = 33.73051 38.08597 35.90824
#
# Velocity S-wave (km/s) = 3.98897 4.23869 4.11573
# Velocity P-wave (km/s) = 6.81012 7.49595 7.16125
#
# Compressibility (1/GPa) = 0.01874799
#
# Stress axis : x y z
#
# Youngs Moduli (GPa) = 85.49269 65.81725 109.95140
#
# Poissons Ratio (x) = 0.27387 0.18973
# Poissons Ratio (y) = 0.35574 0.30041
# Poissons Ratio (z) = 0.14752 0.17982
#
# Static dielectric constant tensor:
#      x y z
#    x 1.137640 0.506140 1.308870 
#    y 0.506140 4.073590 0.072250 
#    z 1.308870 0.072250 3.617810 
# 
# 
# High freq. dielectric constant tensor:
#      x y z
#    x 1.844300 -0.007260 0.003880 
#    y -0.007260 1.829160 0.011800 
#    z 0.003880 0.011800 1.849990 
# 
# From -- ./inp_files/209272.got.cif
#   From: 2010.06.25/outbox.cif.g09.slc.cpg/sg2_105_cif.got.tgz:209272.got - 2010.06.27 13:26:56.
