data_PCOD8032007
_publ_section_title
;
Structure prediction by ZEFSAII (Michael W. Deem and Ramdas Pophale) SiO2 
 PCOD8032007
Probable space group: P -1
;
_chemical_formula_sum "Si O2"
_cell_formula_units_Z 14
_cell_length_a 24.552722
_cell_length_b 13.826342
_cell_length_c 12.649249
_cell_angle_alpha 157.131089
_cell_angle_beta 157.191193
_cell_angle_gamma 23.999313
_cell_volume 585.229870
_symmetry_space_group_name_H-M "P -1"
_symmetry_group_IT_number 2
_symmetry_cell_setting 'triclinic'
loop_
_space_group_symop_operation_xyz
x,y,z
-x,-y,-z
loop_
_atom_site_type_symbol
_atom_site_label
_atom_site_fract_x
_atom_site_fract_y
_atom_site_fract_z
Si Si1 0.297977 0.843605 0.758487
Si Si2 0.860185 0.719536 0.905934
Si Si3 0.077613 0.317648 0.255668
Si Si4 0.414411 0.381472 0.651436
Si Si5 0.578080 0.977442 0.374759
Si Si6 0.579243 0.192124 0.376455
Si Si7 0.103496 0.027438 0.390147
O O1 0.350615 0.533335 0.578259
O O2 0.169486 0.922279 0.518595
O O3 0.224421 0.012762 0.904019
O O4 0.450107 0.864769 0.005016
O O5 0.920063 0.770536 0.951884
O O6 0.730590 0.612646 0.537245
O O7 0.000000 0.500000 0.000000
O O8 0.982145 0.642380 0.429839
O O9 0.245858 0.254136 0.541566
O O10 0.003527 0.129979 0.991554
O O11 0.541808 0.089086 0.543233
O O12 0.500000 0.500000 0.000000
O O13 0.565316 0.201706 0.488507
O O14 0.500000 0.500000 0.500000
O O15 0.760234 0.056892 0.535775
O O16 0.500000 0.000000 0.000000
#
# Coordination Sequence:
#
# PCOD8032007 Si02
#       7
#     2   2   2   2   2   2   2
#     4  11  23  42  71 101 138 192 252 287 349 438
#     4  11  23  40  65 101 143 191 235 291 356 418
#     4  12  28  45  69 108 150 188 234 299 368 417
#     4  11  24  41  70 103 143 187 249 289 355 436
#     4  11  27  45  72 106 143 190 240 305 360 425
#     4  12  26  49  81 107 138 188 245 302 360 423
#     4  12  27  46  73 106 143 185 247 293 355 436
#
# _framework density 23.922224
#
# number of rings (size 3 to 8) (size 9 to 14) (size 15 to 20)
#    0.000    0.571    2.857    4.286    8.000    4.571 
#    0.000    0.000    0.000    0.000    0.000    0.000 
#    0.000    0.000    0.000    0.000    0.000    0.000 
#
# Total GULP energy -173563.182033 kJ/mol
# GULP energy per Si atom -12397.370145 kJ/mol
# Density = 2.386778 g / cm^3
# Si number density = 23.922224 Si / 1000 Ang^3
#
#
#
# Elastic Constant Matrix: (Units=GPa)
#
#
# Indices 1 2 3 4 5 6 
#
# 1 81.0794 15.0354 9.2586 -4.7318 22.5019 -16.8381
# 2 15.0354 121.3894 42.0538 -9.1707 12.6774 -13.0790
# 3 9.2586 42.0538 111.1483 -1.9170 18.8151 -19.5013
# 4 -4.7318 -9.1707 -1.9170 34.1475 1.7672 8.1210
# 5 22.5019 12.6774 18.8151 1.7672 37.0327 -6.6543
# 6 -16.8381 -13.0790 -19.5013 8.1210 -6.6543 37.5752
#
#
#
# Elastic Compliance Matrix: (Units=1/GPa)
#
#
# Indices 1 2 3 4 5 6 
#
# 1 0.016200 -0.000864 0.001616 0.001190 -0.009369 0.005881
# 2 -0.000864 0.009851 -0.003309 0.002250 -0.001159 0.000633
# 3 0.001616 -0.003309 0.011812 -0.000947 -0.004899 0.005039
# 4 0.001190 0.002250 -0.000947 0.031789 -0.003734 -0.006707
# 5 -0.009369 -0.001159 -0.004899 -0.003734 0.035759 -0.000005
# 6 0.005881 0.000633 0.005039 -0.006707 -0.000005 0.033533
#
#
# Mechanical properties :
#
#
# Convention : Reuss Voigt Hill
#
# Bulk Modulus (GPa) = 30.53681 49.59029 40.06355
# Shear Modulus (GPa) = 32.26339 38.23568 35.24954
#
# Velocity S-wave (km/s) = 3.67642 4.00225 3.84279
# Velocity P-wave (km/s) = 5.55105 6.49093 6.03930
#
# Compressibility (1/GPa) = 0.03274737
#
# Stress axis : x y z
#
# Youngs Moduli (GPa) = 61.72742 101.51708 84.66255
#
# Poissons Ratio (x) = 0.08775 -0.13681
# Poissons Ratio (y) = 0.05336 0.28015
# Poissons Ratio (z) = -0.09975 0.33592
#
# Static dielectric constant tensor:
#      x y z
#    x 4.498460 -0.012800 0.302690 
#    y -0.012800 4.379450 -0.140170 
#    z 0.302690 -0.140170 4.207480 
# 
# 
# High freq. dielectric constant tensor:
#      x y z
#    x 1.958110 -0.002310 0.014440 
#    y -0.002310 1.962650 -0.009840 
#    z 0.014440 -0.009840 1.946970 
# 
# From -- ./inp_files/27178.got.cif
#   From: 2010.06.25/outbox.cif.g09.slc.cpg/sg2_14_cif.got.tgz:27178.got - 2010.06.27 13:26:56.
