data_PCOD8032690
_publ_section_title
;
Structure prediction by ZEFSAII (Michael W. Deem and Ramdas Pophale) SiO2 
 PCOD8032690
Probable space group: P -1
;
_chemical_formula_sum "Si O2"
_cell_formula_units_Z 14
_cell_length_a 9.197890
_cell_length_b 9.464892
_cell_length_c 14.653020
_cell_angle_alpha 101.613599
_cell_angle_beta 140.991995
_cell_angle_gamma 57.565285
_cell_volume 619.438477
_symmetry_space_group_name_H-M "P -1"
_symmetry_group_IT_number 2
_symmetry_cell_setting 'triclinic'
loop_
_space_group_symop_operation_xyz
x,y,z
-x,-y,-z
loop_
_atom_site_type_symbol
_atom_site_label
_atom_site_fract_x
_atom_site_fract_y
_atom_site_fract_z
Si Si1 0.476103 0.901555 0.124789
Si Si2 0.669123 0.572651 0.050790
Si Si3 0.251095 0.285372 0.584821
Si Si4 0.532487 0.201163 0.189745
Si Si5 0.871104 0.951351 0.602856
Si Si6 0.129813 0.988779 0.181083
Si Si7 0.293599 0.241619 0.269787
O O1 0.597584 0.747196 0.088838
O O2 0.702356 0.811861 0.308068
O O3 0.454601 0.071505 0.097376
O O4 0.145965 0.976438 0.000611
O O5 0.017868 0.420329 0.207082
O O6 0.500000 0.500000 0.000000
O O7 0.583089 0.627234 0.910190
O O8 0.153128 0.210085 0.449772
O O9 0.574668 0.225051 0.706788
O O10 0.000000 0.500000 0.500000
O O11 0.388381 0.285346 0.228860
O O12 0.885310 0.075966 0.349056
O O13 0.965837 0.939353 0.752115
O O14 0.560473 0.147657 0.459262
O O15 0.219785 0.104126 0.190315
#
# Coordination Sequence:
#
# PCOD8032690 Si02
#       7
#     2   2   2   2   2   2   2
#     4  12  25  45  70 103 143 179 235 282 349 404
#     4  12  26  44  72 104 137 182 238 287 341 419
#     4  11  26  41  71 106 139 176 239 290 336 407
#     4  12  25  47  69 100 143 188 227 285 353 413
#     4  11  24  46  70  97 143 190 226 276 358 412
#     4  11  23  45  73  97 140 190 232 276 350 414
#     4  11  23  43  70 101 138 184 233 285 344 411
#
# _framework density 22.601116000000001
#
# number of rings (size 3 to 8) (size 9 to 14) (size 15 to 20)
#    0.000    0.571    5.714    3.429    6.000    0.000 
#    2.571    0.714    0.000    0.000    0.000    0.000 
#    0.000    0.000    0.000    0.000    0.000    0.000 
#
# Total GULP energy -173596.147874 kJ/mol
# GULP energy per Si atom -12399.724848 kJ/mol
# Density = 2.254967 g / cm^3
# Si number density = 22.601116 Si / 1000 Ang^3
#
#
#
# Elastic Constant Matrix: (Units=GPa)
#
#
# Indices 1 2 3 4 5 6 
#
# 1 123.5371 22.5251 24.7275 -21.5008 13.9717 7.1196
# 2 22.5251 72.7195 26.7700 -27.5723 9.7360 -4.9148
# 3 24.7275 26.7700 94.8398 -20.6045 22.0009 7.7661
# 4 -21.5008 -27.5723 -20.6045 33.1550 -9.9410 6.9967
# 5 13.9717 9.7360 22.0009 -9.9410 52.3543 -9.5001
# 6 7.1196 -4.9148 7.7661 6.9967 -9.5001 38.3398
#
#
#
# Elastic Compliance Matrix: (Units=1/GPa)
#
#
# Indices 1 2 3 4 5 6 
#
# 1 0.009670 -0.000707 -0.000427 0.005565 -0.001805 -0.003263
# 2 -0.000707 0.020609 -0.002487 0.015121 0.000383 0.000613
# 3 -0.000427 -0.002487 0.014393 0.006189 -0.005313 -0.005601
# 4 0.005565 0.015121 0.006189 0.052625 0.001349 -0.009618
# 5 -0.001805 0.000383 -0.005313 0.001349 0.023267 0.006980
# 6 -0.003263 0.000613 -0.005601 -0.009618 0.006980 0.031386
#
#
# Mechanical properties :
#
#
# Convention : Reuss Voigt Hill
#
# Bulk Modulus (GPa) = 26.71599 48.79350 37.75475
# Shear Modulus (GPa) = 29.12594 39.24140 34.18367
#
# Velocity S-wave (km/s) = 3.59373 4.17136 3.89328
# Velocity P-wave (km/s) = 5.39131 6.69599 6.07875
#
# Compressibility (1/GPa) = 0.03743076
#
# Stress axis : x y z
#
# Youngs Moduli (GPa) = 103.41484 48.52202 69.47773
#
# Poissons Ratio (x) = 0.03430 0.02964
# Poissons Ratio (y) = 0.07311 0.17279
# Poissons Ratio (z) = 0.04412 0.12067
#
# Static dielectric constant tensor:
#      x y z
#    x 4.217700 -0.210030 0.174620 
#    y -0.210030 3.931660 -0.186830 
#    z 0.174620 -0.186830 4.194400 
# 
# 
# High freq. dielectric constant tensor:
#      x y z
#    x 1.906340 -0.022970 0.003760 
#    y -0.022970 1.869630 -0.006970 
#    z 0.003760 -0.006970 1.903110 
# 
# From -- ./inp_files/207616.got.cif
#   From: 2010.06.25/outbox.cif.g09.slc.cpg/sg2_104_cif.got.tgz:207616.got - 2010.06.27 13:26:56.
