data_PCOD8032170
_publ_section_title
;
Structure prediction by ZEFSAII (Michael W. Deem and Ramdas Pophale) SiO2 
 PCOD8032170
Probable space group: P -1
;
_chemical_formula_sum "Si O2"
_cell_formula_units_Z 16
_cell_length_a 24.511777
_cell_length_b 11.565606
_cell_length_c 11.298668
_cell_angle_alpha 141.711490
_cell_angle_beta 156.313422
_cell_angle_gamma 36.461453
_cell_volume 748.839503
_symmetry_space_group_name_H-M "P -1"
_symmetry_group_IT_number 2
_symmetry_cell_setting 'triclinic'
loop_
_space_group_symop_operation_xyz
x,y,z
-x,-y,-z
loop_
_atom_site_type_symbol
_atom_site_label
_atom_site_fract_x
_atom_site_fract_y
_atom_site_fract_z
Si Si1 0.375641 0.794001 0.415391
Si Si2 0.212807 0.289414 0.207254
Si Si3 0.410800 0.370980 0.098819
Si Si4 0.229146 0.037364 0.808803
Si Si5 0.940331 0.254654 0.767026
Si Si6 0.848393 0.677827 0.338936
Si Si7 0.913205 0.920059 0.854431
Si Si8 0.451854 0.143882 0.758747
O O1 0.410455 0.591217 0.248195
O O2 0.437277 0.758849 0.643957
O O3 0.202924 0.901650 0.162282
O O4 0.451912 0.922423 0.598517
O O5 0.169471 0.523697 0.289018
O O6 0.352884 0.238755 0.527027
O O7 0.252637 0.169770 0.068546
O O8 0.086578 0.225557 0.962826
O O9 0.287393 0.396845 0.975978
O O10 0.388700 0.275509 0.855028
O O11 0.159098 0.186112 0.681014
O O12 0.126979 0.911769 0.541493
O O13 0.383067 0.873745 0.948953
O O14 0.975007 0.228220 0.953463
O O15 0.829210 0.802869 0.521482
O O16 0.000000 0.500000 0.500000
O O17 0.000000 0.000000 0.000000
#
# Coordination Sequence:
#
# PCOD8032170 Si02
#       8
#     2   2   2   2   2   2   2   2
#     4  11  23  41  67  99 135 177 215 274 342 401
#     4  11  26  47  68  95 135 182 230 271 327 397
#     4  11  24  41  66 101 134 173 221 275 342 398
#     4  12  26  43  69  98 133 177 227 277 330 399
#     4  11  25  46  68  99 133 178 224 281 329 394
#     4  12  23  39  65 102 138 170 218 279 338 400
#     4  12  22  41  69 101 135 170 221 275 342 398
#     4  12  24  46  69  95 136 178 224 281 331 398
#
# _framework density 21.366395000000001
#
# number of rings (size 3 to 8) (size 9 to 14) (size 15 to 20)
#    0.000    0.500    5.000    3.375    0.000    3.500 
#    0.000    0.000    0.000    0.000    0.000    0.000 
#    0.000    0.000    0.000    0.000    0.000    0.000 
#
# Total GULP energy -198447.166806 kJ/mol
# GULP energy per Si atom -12402.947925 kJ/mol
# Density = 2.131776 g / cm^3
# Si number density = 21.366395 Si / 1000 Ang^3
#
#
#
# Elastic Constant Matrix: (Units=GPa)
#
#
# Indices 1 2 3 4 5 6 
#
# 1 80.9615 39.6389 29.8260 -6.1800 -6.6787 3.1119
# 2 39.6389 128.9298 54.0569 -16.7072 -10.3290 14.3605
# 3 29.8260 54.0569 95.0467 -10.2869 -1.7995 8.8151
# 4 -6.1800 -16.7072 -10.2869 38.1641 2.4356 2.0390
# 5 -6.6787 -10.3290 -1.7995 2.4356 40.5393 -5.6081
# 6 3.1119 14.3605 8.8151 2.0390 -5.6081 29.5539
#
#
#
# Elastic Compliance Matrix: (Units=1/GPa)
#
#
# Indices 1 2 3 4 5 6 
#
# 1 0.015202 -0.003474 -0.002881 -0.000010 0.001667 0.001264
# 2 -0.003474 0.011879 -0.004905 0.003428 0.001491 -0.003897
# 3 -0.002881 -0.004905 0.014539 0.001506 -0.001450 -0.002029
# 4 -0.000010 0.003428 0.001506 0.028427 -0.001369 -0.004335
# 5 0.001667 0.001491 -0.001450 -0.001369 0.025970 0.004555
# 6 0.001264 -0.003897 -0.002029 -0.004335 0.004555 0.037365
#
#
# Mechanical properties :
#
#
# Convention : Reuss Voigt Hill
#
# Bulk Modulus (GPa) = 52.36017 61.33127 56.84572
# Shear Modulus (GPa) = 30.81314 33.74588 32.27951
#
# Velocity S-wave (km/s) = 3.80166 3.97847 3.89107
# Velocity P-wave (km/s) = 6.62036 7.06195 6.84472
#
# Compressibility (1/GPa) = 0.01909849
#
# Stress axis : x y z
#
# Youngs Moduli (GPa) = 65.77999 84.18527 68.78250
#
# Poissons Ratio (x) = 0.29249 0.19818
# Poissons Ratio (y) = 0.22854 0.33737
# Poissons Ratio (z) = 0.18953 0.41292
#
# Static dielectric constant tensor:
#      x y z
#    x 6.062790 -4.894180 -1.896180 
#    y -4.894180 14.370970 4.191350 
#    z -1.896180 4.191350 5.509260 
# 
# 
# High freq. dielectric constant tensor:
#      x y z
#    x 1.831970 0.004480 0.005530 
#    y 0.004480 1.848770 -0.002740 
#    z 0.005530 -0.002740 1.850990 
# 
# From -- ./inp_files/471139.got.cif
#   From: 2010.06.25/outbox.cif.g09.slc.cpg/sg2_236_cif.got.tgz:471139.got - 2010.06.27 13:26:56.
