data_PCOD8032814
_publ_section_title
;
Structure prediction by ZEFSAII (Michael W. Deem and Ramdas Pophale) SiO2 
 PCOD8032814
Probable space group: P -1
;
_chemical_formula_sum "Si O2"
_cell_formula_units_Z 16
_cell_length_a 8.832030
_cell_length_b 18.610203
_cell_length_c 12.726994
_cell_angle_alpha 37.623150
_cell_angle_beta 134.345937
_cell_angle_gamma 105.098134
_cell_volume 676.707890
_symmetry_space_group_name_H-M "P -1"
_symmetry_group_IT_number 2
_symmetry_cell_setting 'triclinic'
loop_
_space_group_symop_operation_xyz
x,y,z
-x,-y,-z
loop_
_atom_site_type_symbol
_atom_site_label
_atom_site_fract_x
_atom_site_fract_y
_atom_site_fract_z
Si Si1 0.373479 0.720804 0.694898
Si Si2 0.290003 0.829924 0.879459
Si Si3 0.605732 0.889058 0.842951
Si Si4 0.249258 0.206624 0.189649
Si Si5 0.548959 0.743511 0.328238
Si Si6 0.829199 0.979821 0.015571
Si Si7 0.822733 0.425091 0.121988
Si Si8 0.770974 0.423951 0.860511
O O1 0.474004 0.812524 0.673419
O O2 0.345325 0.636459 0.872413
O O3 0.048013 0.841447 0.361764
O O4 0.593313 0.605057 0.843215
O O5 0.530491 0.787345 0.965759
O O6 0.364616 0.842087 0.020605
O O7 0.315928 0.679473 0.062214
O O8 0.000000 0.000000 0.500000
O O9 0.844056 0.790934 0.978836
O O10 0.329915 0.057784 0.463284
O O11 0.697686 0.926160 0.945452
O O12 0.005834 0.362187 0.956294
O O13 0.527827 0.609732 0.495270
O O14 0.877033 0.666781 0.565118
O O15 0.418758 0.860550 0.228159
O O16 0.000000 0.000000 0.000000
O O17 0.886929 0.417179 0.038948
#
# Coordination Sequence:
#
# PCOD8032814 Si02
#       8
#     2   2   2   2   2   2   2   2
#     4  11  24  45  72 110 148 200 242 304 372 445
#     4  12  28  47  72 109 150 197 246 307 371 439
#     4  11  25  45  68 107 142 193 241 309 363 437
#     4  11  23  43  74 100 146 193 248 295 369 442
#     4  12  28  47  77 111 151 195 250 308 369 446
#     4  12  26  43  74 109 147 188 250 304 366 440
#     4  11  25  46  75 109 153 195 246 309 375 436
#     4  12  25  48  76 108 149 200 247 303 375 440
#
# _framework density 23.643879999999999
#
# number of rings (size 3 to 8) (size 9 to 14) (size 15 to 20)
#    0.000    0.500    3.750    3.750    5.250    1.000 
#    2.250    0.625    0.000    0.000    0.000    0.000 
#    0.000    0.000    0.000    0.000    0.000    0.000 
#
# Total GULP energy -198290.201088 kJ/mol
# GULP energy per Si atom -12393.137568 kJ/mol
# Density = 2.359007 g / cm^3
# Si number density = 23.643880 Si / 1000 Ang^3
#
#
#
# Elastic Constant Matrix: (Units=GPa)
#
#
# Indices 1 2 3 4 5 6 
#
# 1 103.1649 56.5316 31.9219 -17.5347 -7.4769 7.9880
# 2 56.5316 116.5472 46.8701 -6.0926 -3.4572 -5.6445
# 3 31.9219 46.8701 96.7877 -4.4585 -0.6882 -7.1620
# 4 -17.5347 -6.0926 -4.4585 29.7642 -8.2831 -4.3597
# 5 -7.4769 -3.4572 -0.6882 -8.2831 34.5337 -10.2292
# 6 7.9880 -5.6445 -7.1620 -4.3597 -10.2292 51.1368
#
#
#
# Elastic Compliance Matrix: (Units=1/GPa)
#
#
# Indices 1 2 3 4 5 6 
#
# 1 0.015645 -0.006391 -0.001777 0.008551 0.004223 -0.001824
# 2 -0.006391 0.013437 -0.004332 -0.001385 0.000067 0.001770
# 3 -0.001777 -0.004332 0.013152 0.000282 0.000005 0.001666
# 4 0.008551 -0.001385 0.000282 0.042852 0.013446 0.004894
# 5 0.004223 0.000067 0.000005 0.013446 0.035344 0.007565
# 6 -0.001824 0.001770 0.001666 0.004894 0.007565 0.022200
#
#
# Mechanical properties :
#
#
# Convention : Reuss Voigt Hill
#
# Bulk Modulus (GPa) = 58.01476 65.23854 61.62665
# Shear Modulus (GPa) = 28.83931 35.16537 32.00234
#
# Velocity S-wave (km/s) = 3.49626 3.86073 3.68301
# Velocity P-wave (km/s) = 6.39442 6.89389 6.64885
#
# Compressibility (1/GPa) = 0.01723699
#
# Stress axis : x y z
#
# Youngs Moduli (GPa) = 63.91648 74.41958 76.03495
#
# Poissons Ratio (x) = 0.47558 0.13508
# Poissons Ratio (y) = 0.40846 0.32937
# Poissons Ratio (z) = 0.11355 0.32237
#
# Static dielectric constant tensor:
#      x y z
#    x 8.633090 -7.734730 0.037010 
#    y -7.734730 18.197830 -0.756020 
#    z 0.037010 -0.756020 4.292870 
# 
# 
# High freq. dielectric constant tensor:
#      x y z
#    x 1.952020 -0.000720 -0.014320 
#    y -0.000720 1.951680 -0.008040 
#    z -0.014320 -0.008040 1.918930 
# 
# From -- ./inp_files/402887.got.cif
#   From: 2010.06.25/outbox.cif.g09.slc.cpg/sg2_202_cif.got.tgz:402887.got - 2010.06.27 13:26:56.
