data_PCOD8032463
_publ_section_title
;
Structure prediction by ZEFSAII (Michael W. Deem and Ramdas Pophale) SiO2 
 PCOD8032463
Probable space group: P -1
;
_chemical_formula_sum "Si O2"
_cell_formula_units_Z 14
_cell_length_a 13.962974
_cell_length_b 9.635609
_cell_length_c 5.144873
_cell_angle_alpha 111.497793
_cell_angle_beta 68.331877
_cell_angle_gamma 102.278932
_cell_volume 596.135354
_symmetry_space_group_name_H-M "P -1"
_symmetry_group_IT_number 2
_symmetry_cell_setting 'triclinic'
loop_
_space_group_symop_operation_xyz
x,y,z
-x,-y,-z
loop_
_atom_site_type_symbol
_atom_site_label
_atom_site_fract_x
_atom_site_fract_y
_atom_site_fract_z
Si Si1 0.860582 0.277690 0.088292
Si Si2 0.713463 0.426593 0.653651
Si Si3 0.783629 0.753434 0.817529
Si Si4 0.316530 0.823100 0.106183
Si Si5 0.683891 0.860722 0.466237
Si Si6 0.988078 0.327117 0.477249
Si Si7 0.521703 0.339352 0.473906
O O1 0.792584 0.417921 0.323766
O O2 0.921841 0.233413 0.255529
O O3 0.770879 0.145842 0.003959
O O4 0.940183 0.318456 0.805763
O O5 0.726284 0.594625 0.860051
O O6 0.746430 0.308899 0.753760
O O7 0.594250 0.373383 0.673969
O O8 0.734570 0.798741 0.628518
O O9 0.905070 0.747013 0.658301
O O10 0.762887 0.866819 0.149289
O O11 0.347847 0.971991 0.339971
O O12 0.421064 0.761877 0.855852
O O13 0.583074 0.756031 0.407094
O O14 0.000000 0.500000 0.500000
O O15 0.500000 0.500000 0.500000
#
# Coordination Sequence:
#
# PCOD8032463 Si02
#       7
#     2   2   2   2   2   2   2
#     4  11  23  42  71 103 138 182 234 294 347 412
#     4  11  24  43  76 102 143 182 241 287 357 416
#     4  12  27  45  70 107 140 185 238 297 350 412
#     4  11  26  47  72 104 143 194 230 285 359 428
#     4  12  29  47  69 103 152 184 234 289 354 427
#     4  12  23  40  74 105 141 179 242 295 355 404
#     4  11  24  44  77 107 140 181 240 293 352 414
#
# _framework density 23.484598999999999
#
# number of rings (size 3 to 8) (size 9 to 14) (size 15 to 20)
#    0.000    0.571    4.286    2.571   10.000    1.714 
#    0.000    4.286    0.000    0.000    0.000    0.000 
#    0.000    0.000    0.000    0.000    0.000    0.000 
#
# Total GULP energy -173563.294702 kJ/mol
# GULP energy per Si atom -12397.378193 kJ/mol
# Density = 2.343115 g / cm^3
# Si number density = 23.484599 Si / 1000 Ang^3
#
#
#
# Elastic Constant Matrix: (Units=GPa)
#
#
# Indices 1 2 3 4 5 6 
#
# 1 133.4533 15.2861 47.6539 3.8064 -2.7188 -4.5408
# 2 15.2861 44.0190 20.5952 9.6406 -5.3931 -2.0052
# 3 47.6539 20.5952 123.2515 -2.0077 -12.4239 2.1212
# 4 3.8064 9.6406 -2.0077 36.5006 -3.0587 6.4155
# 5 -2.7188 -5.3931 -12.4239 -3.0587 44.6064 0.7464
# 6 -4.5408 -2.0052 2.1212 6.4155 0.7464 22.1745
#
#
#
# Elastic Compliance Matrix: (Units=1/GPa)
#
#
# Indices 1 2 3 4 5 6 
#
# 1 0.008948 -0.001212 -0.003388 -0.001285 -0.000674 0.002441
# 2 -0.001212 0.027240 -0.004154 -0.008036 0.001430 0.004889
# 3 -0.003388 -0.004154 0.010459 0.002748 0.002442 -0.002947
# 4 -0.001285 -0.008036 0.002748 0.031829 0.002074 -0.010531
# 5 -0.000674 0.001430 0.002442 0.002074 0.023400 -0.001630
# 6 0.002441 0.004889 -0.002947 -0.010531 -0.001630 0.049423
#
#
# Mechanical properties :
#
#
# Convention : Reuss Voigt Hill
#
# Bulk Modulus (GPa) = 34.31853 51.97715 43.14784
# Shear Modulus (GPa) = 28.00810 35.13553 31.57181
#
# Velocity S-wave (km/s) = 3.45717 3.87215 3.67053
# Velocity P-wave (km/s) = 5.53001 6.49399 6.03129
#
# Compressibility (1/GPa) = 0.02913878
#
# Stress axis : x y z
#
# Youngs Moduli (GPa) = 111.75875 36.71094 95.60959
#
# Poissons Ratio (x) = 0.04450 0.32392
# Poissons Ratio (y) = 0.13546 0.39717
# Poissons Ratio (z) = 0.37863 0.15250
#
# Static dielectric constant tensor:
#      x y z
#    x 4.786350 0.094380 0.172310 
#    y 0.094380 3.964460 0.169170 
#    z 0.172310 0.169170 4.465360 
# 
# 
# High freq. dielectric constant tensor:
#      x y z
#    x 1.949850 0.006680 -0.001050 
#    y 0.006680 1.900910 0.005190 
#    z -0.001050 0.005190 1.947070 
# 
# From -- ./inp_files/87919.got.cif
#   From: 2010.06.25/outbox.cif.g09.slc.cpg/sg2_44_cif.got.tgz:87919.got - 2010.06.27 13:26:56.
