data_PCOD8032293
_publ_section_title
;
Structure prediction by ZEFSAII (Michael W. Deem and Ramdas Pophale) SiO2 
 PCOD8032293
Probable space group: P -1
;
_chemical_formula_sum "Si O2"
_cell_formula_units_Z 14
_cell_length_a 15.750403
_cell_length_b 9.057212
_cell_length_c 15.564030
_cell_angle_alpha 140.772366
_cell_angle_beta 153.724612
_cell_angle_gamma 40.282924
_cell_volume 602.821860
_symmetry_space_group_name_H-M "P -1"
_symmetry_group_IT_number 2
_symmetry_cell_setting 'triclinic'
loop_
_space_group_symop_operation_xyz
x,y,z
-x,-y,-z
loop_
_atom_site_type_symbol
_atom_site_label
_atom_site_fract_x
_atom_site_fract_y
_atom_site_fract_z
Si Si1 0.060415 0.151709 0.947812
Si Si2 0.542506 0.768700 0.994872
Si Si3 0.074836 0.460685 0.682137
Si Si4 0.199130 0.718604 0.766701
Si Si5 0.542064 0.359480 0.690355
Si Si6 0.822240 0.846063 0.751095
Si Si7 0.322509 0.458047 0.264126
O O1 0.872667 0.327225 0.813457
O O2 0.058049 0.910888 0.787150
O O3 0.059615 0.129286 0.041922
O O4 0.264144 0.220913 0.137665
O O5 0.396412 0.805653 0.961499
O O6 0.508385 0.510467 0.815221
O O7 0.774274 0.729345 0.207593
O O8 0.500000 0.000000 0.000000
O O9 0.217695 0.491450 0.744950
O O10 0.907860 0.329733 0.439996
O O11 0.976998 0.704112 0.756836
O O12 0.340291 0.305170 0.447851
O O13 0.603764 0.555881 0.773139
O O14 0.711818 0.111173 0.736093
O O15 0.500000 0.500000 0.500000
#
# Coordination Sequence:
#
# PCOD8032293 Si02
#       7
#     2   2   2   2   2   2   2
#     4  11  24  42  70  99 135 181 227 282 343 410
#     4  12  26  46  69 101 142 185 224 280 347 416
#     4  11  25  47  71  97 140 181 231 284 339 410
#     4  11  25  45  67 103 134 179 232 278 347 402
#     4  11  23  43  72 100 135 176 234 284 340 399
#     4  11  23  45  73 101 130 179 234 289 333 401
#     4  11  23  42  64 100 140 176 226 284 345 406
#
# _framework density 23.224108999999999
#
# number of rings (size 3 to 8) (size 9 to 14) (size 15 to 20)
#    0.000    0.857    2.857    3.857    0.000    5.714 
#    2.571    0.000    0.000    0.000    0.000    0.000 
#    0.000    0.000    0.000    0.000    0.000    0.000 
#
# Total GULP energy -173464.549948 kJ/mol
# GULP energy per Si atom -12390.324996 kJ/mol
# Density = 2.317125 g / cm^3
# Si number density = 23.224109 Si / 1000 Ang^3
#
#
#
# Elastic Constant Matrix: (Units=GPa)
#
#
# Indices 1 2 3 4 5 6 
#
# 1 117.5173 34.3264 25.3899 -2.1826 1.1727 -5.9890
# 2 34.3264 98.4328 45.6945 -15.8073 -17.0738 -10.1215
# 3 25.3899 45.6945 121.7728 -13.1040 -17.1315 -16.2055
# 4 -2.1826 -15.8073 -13.1040 36.5325 -6.1181 -2.5961
# 5 1.1727 -17.0738 -17.1315 -6.1181 43.6446 5.1219
# 6 -5.9890 -10.1215 -16.2055 -2.5961 5.1219 32.9938
#
#
#
# Elastic Compliance Matrix: (Units=1/GPa)
#
#
# Indices 1 2 3 4 5 6 
#
# 1 0.009807 -0.003523 -0.001203 -0.001747 -0.002399 0.000344
# 2 -0.003523 0.015003 -0.003210 0.006167 0.005328 0.002044
# 3 -0.001203 -0.003210 0.010982 0.003276 0.003081 0.003970
# 4 -0.001747 0.006167 0.003276 0.032742 0.007802 0.004549
# 5 -0.002399 0.005328 0.003081 0.007802 0.027474 -0.000939
# 6 0.000344 0.002044 0.003970 0.004549 -0.000939 0.033452
#
#
# Mechanical properties :
#
#
# Convention : Reuss Voigt Hill
#
# Bulk Modulus (GPa) = 50.19936 60.94939 55.57438
# Shear Modulus (GPa) = 32.90091 38.12165 35.51128
#
# Velocity S-wave (km/s) = 3.76795 4.05590 3.91457
# Velocity P-wave (km/s) = 6.37119 6.94512 6.66434
#
# Compressibility (1/GPa) = 0.01992057
#
# Stress axis : x y z
#
# Youngs Moduli (GPa) = 101.96443 66.65429 91.06212
#
# Poissons Ratio (x) = 0.23484 0.10951
# Poissons Ratio (y) = 0.35925 0.29228
# Poissons Ratio (z) = 0.12262 0.21394
#
# Static dielectric constant tensor:
#      x y z
#    x 4.504520 0.060270 0.180020 
#    y 0.060270 4.021980 0.021200 
#    z 0.180020 0.021200 4.254960 
# 
# 
# High freq. dielectric constant tensor:
#      x y z
#    x 1.933600 -0.001110 0.011360 
#    y -0.001110 1.907600 0.001000 
#    z 0.011360 0.001000 1.927990 
# 
# From -- ./inp_files/419711.got.cif
#   From: 2010.06.25/outbox.cif.g09.slc.cpg/sg2_210_cif.got.tgz:419711.got - 2010.06.27 13:26:56.
