data_PCOD8032885
_publ_section_title
;
Structure prediction by ZEFSAII (Michael W. Deem and Ramdas Pophale) SiO2 
 PCOD8032885
Probable space group: P -1
;
_chemical_formula_sum "Si O2"
_cell_formula_units_Z 14
_cell_length_a 6.796957
_cell_length_b 12.599872
_cell_length_c 12.931655
_cell_angle_alpha 64.102445
_cell_angle_beta 135.823399
_cell_angle_gamma 117.406781
_cell_volume 674.892768
_symmetry_space_group_name_H-M "P -1"
_symmetry_group_IT_number 2
_symmetry_cell_setting 'triclinic'
loop_
_space_group_symop_operation_xyz
x,y,z
-x,-y,-z
loop_
_atom_site_type_symbol
_atom_site_label
_atom_site_fract_x
_atom_site_fract_y
_atom_site_fract_z
Si Si1 0.738179 0.714860 0.256742
Si Si2 0.231396 0.458120 0.840359
Si Si3 0.774113 0.100515 0.750352
Si Si4 0.836792 0.877940 0.545520
Si Si5 0.279103 0.154444 0.253581
Si Si6 0.862302 0.245274 0.915973
Si Si7 0.088654 0.693422 0.595741
O O1 0.668290 0.607417 0.192743
O O2 0.445672 0.756658 0.150339
O O3 0.958483 0.834818 0.247418
O O4 0.863825 0.666650 0.427672
O O5 0.104208 0.568601 0.707678
O O6 0.970347 0.367716 0.839328
O O7 0.500000 0.500000 0.000000
O O8 0.500341 0.155699 0.596779
O O9 0.842750 0.127824 0.885384
O O10 0.700737 0.957044 0.765246
O O11 0.868910 0.896314 0.672800
O O12 0.976818 0.769153 0.610462
O O13 0.000000 0.000000 0.500000
O O14 0.599639 0.235568 0.359736
O O15 0.089767 0.238582 0.094727
#
# Coordination Sequence:
#
# PCOD8032885 Si02
#       7
#     2   2   2   2   2   2   2
#     4  11  25  45  69  95 140 175 223 276 335 394
#     4  11  26  46  70  98 135 172 231 284 323 394
#     4  11  23  44  66 102 138 173 222 277 327 405
#     4  12  24  41  71 102 134 177 227 268 329 406
#     4  12  25  41  72 100 138 180 217 271 341 392
#     4  11  26  45  68 100 135 180 221 277 335 396
#     4  12  24  45  70 100 135 180 223 272 334 395
#
# _framework density 20.744039000000001
#
# number of rings (size 3 to 8) (size 9 to 14) (size 15 to 20)
#    0.000    0.571    5.714    2.143    2.000    2.857 
#    0.000    0.000    0.000    0.000    0.000    0.000 
#    0.000    0.000    0.000    0.000    0.000    0.000 
#
# Total GULP energy -173702.181995 kJ/mol
# GULP energy per Si atom -12407.298714 kJ/mol
# Density = 2.069682 g / cm^3
# Si number density = 20.744039 Si / 1000 Ang^3
#
#
#
# Elastic Constant Matrix: (Units=GPa)
#
#
# Indices 1 2 3 4 5 6 
#
# 1 134.2378 39.0458 43.4982 -2.1597 6.8317 0.7576
# 2 39.0458 97.5579 27.7651 -1.0617 -5.3182 -1.3541
# 3 43.4982 27.7651 112.3913 2.2207 5.8778 -11.5561
# 4 -2.1597 -1.0617 2.2207 37.9100 -0.7877 -1.9072
# 5 6.8317 -5.3182 5.8778 -0.7877 33.3124 3.9121
# 6 0.7576 -1.3541 -11.5561 -1.9072 3.9121 19.0390
#
#
#
# Elastic Compliance Matrix: (Units=1/GPa)
#
#
# Indices 1 2 3 4 5 6 
#
# 1 0.009411 -0.003015 -0.003033 0.000493 -0.001624 -0.002047
# 2 -0.003015 0.012214 -0.002107 0.000313 0.003052 -0.000886
# 3 -0.003033 -0.002107 0.011506 -0.000586 -0.002632 0.007436
# 4 0.000493 0.000313 -0.000586 0.026570 0.000420 0.002222
# 5 -0.001624 0.003052 -0.002632 0.000420 0.032241 -0.007898
# 6 -0.002047 -0.000886 0.007436 0.002222 -0.007898 0.058901
#
#
# Mechanical properties :
#
#
# Convention : Reuss Voigt Hill
#
# Bulk Modulus (GPa) = 59.45047 62.75614 61.10331
# Shear Modulus (GPa) = 28.94169 33.64415 31.29292
#
# Velocity S-wave (km/s) = 3.73926 4.03161 3.88819
# Velocity P-wave (km/s) = 6.88216 7.21042 7.04820
#
# Compressibility (1/GPa) = 0.01682072
#
# Stress axis : x y z
#
# Youngs Moduli (GPa) = 106.25439 81.87120 86.91353
#
# Poissons Ratio (x) = 0.24686 0.26359
# Poissons Ratio (y) = 0.32038 0.18316
# Poissons Ratio (z) = 0.32225 0.17253
#
# Static dielectric constant tensor:
#      x y z
#    x 3.861360 -0.067150 -0.034160 
#    y -0.067150 3.780840 0.177180 
#    z -0.034160 0.177180 3.947340 
# 
# 
# High freq. dielectric constant tensor:
#      x y z
#    x 1.822750 -0.002670 0.000090 
#    y -0.002670 1.813200 0.006110 
#    z 0.000090 0.006110 1.824290 
# 
# From -- ./inp_files/23631.got.cif
#   From: 2010.06.25/outbox.cif.g09.slc.cpg/sg2_12_cif.got.tgz:23631.got - 2010.06.27 13:26:56.
