data_PCOD8032178
_publ_section_title
;
Structure prediction by ZEFSAII (Michael W. Deem and Ramdas Pophale) SiO2 
 PCOD8032178
Probable space group: P -1
;
_chemical_formula_sum "Si O2"
_cell_formula_units_Z 14
_cell_length_a 14.129058
_cell_length_b 8.685006
_cell_length_c 11.904455
_cell_angle_alpha 115.744950
_cell_angle_beta 127.804538
_cell_angle_gamma 33.576564
_cell_volume 628.513678
_symmetry_space_group_name_H-M "P -1"
_symmetry_group_IT_number 2
_symmetry_cell_setting 'triclinic'
loop_
_space_group_symop_operation_xyz
x,y,z
-x,-y,-z
loop_
_atom_site_type_symbol
_atom_site_label
_atom_site_fract_x
_atom_site_fract_y
_atom_site_fract_z
Si Si1 0.069405 0.261250 0.547719
Si Si2 0.191800 0.692336 0.740742
Si Si3 0.858216 0.308724 0.037865
Si Si4 0.559185 0.076071 0.791446
Si Si5 0.764253 0.974925 0.100902
Si Si6 0.080368 0.414056 0.235348
Si Si7 0.473356 0.859205 0.816055
O O1 0.000000 0.500000 0.500000
O O2 0.012517 0.150039 0.407161
O O3 0.953680 0.425423 0.631577
O O4 0.307206 0.968072 0.645163
O O5 0.220193 0.645244 0.880228
O O6 0.215135 0.862340 0.775538
O O7 0.355453 0.389062 0.700085
O O8 0.980907 0.342722 0.151625
O O9 0.674492 0.524878 0.883887
O O10 0.000000 0.000000 0.000000
O O11 0.685919 0.867786 0.711170
O O12 0.532010 0.967323 0.833932
O O13 0.674785 0.095262 0.949172
O O14 0.638453 0.992149 0.098445
O O15 0.976371 0.640828 0.131553
#
# Coordination Sequence:
#
# PCOD8032178 Si02
#       7
#     2   2   2   2   2   2   2
#     4  11  23  48  69  96 134 190 224 266 342 412
#     4  12  25  43  73  97 140 178 227 277 333 412
#     4  12  25  43  70 105 133 176 228 288 335 398
#     4  12  22  40  68 104 131 177 225 279 338 396
#     4  11  23  41  68 103 133 177 228 278 342 396
#     4  11  25  40  69  99 140 172 228 280 338 402
#     4  11  24  42  70  94 137 182 220 275 338 402
#
# _framework density 22.274773
#
# number of rings (size 3 to 8) (size 9 to 14) (size 15 to 20)
#    0.000    0.571    5.714    3.000    4.000    2.857 
#    0.000    0.714    3.143    0.000    0.000    0.000 
#    0.000    0.000    0.000    0.000    0.000    0.000 
#
# Total GULP energy -173470.704755 kJ/mol
# GULP energy per Si atom -12390.764625 kJ/mol
# Density = 2.222407 g / cm^3
# Si number density = 22.274773 Si / 1000 Ang^3
#
#
#
# Elastic Constant Matrix: (Units=GPa)
#
#
# Indices 1 2 3 4 5 6 
#
# 1 82.9110 32.6982 12.4739 9.9629 3.6368 -2.7390
# 2 32.6982 136.5955 21.3064 -6.8829 3.3349 -7.5116
# 3 12.4739 21.3064 91.4695 -7.9121 6.9825 -1.1782
# 4 9.9629 -6.8829 -7.9121 32.7734 3.5558 4.6511
# 5 3.6368 3.3349 6.9825 3.5558 17.2556 -0.7562
# 6 -2.7390 -7.5116 -1.1782 4.6511 -0.7562 27.3704
#
#
#
# Elastic Compliance Matrix: (Units=1/GPa)
#
#
# Indices 1 2 3 4 5 6 
#
# 1 0.014380 -0.003387 -0.001600 -0.005609 -0.000512 0.001380
# 2 -0.003387 0.008550 -0.001236 0.002405 -0.000867 0.001522
# 3 -0.001600 -0.001236 0.012155 0.003831 -0.005165 -0.000770
# 4 -0.005609 0.002405 0.003831 0.035407 -0.008391 -0.005985
# 5 -0.000512 -0.000867 -0.005165 -0.008391 0.062163 0.002632
# 6 0.001380 0.001522 -0.000770 -0.005985 0.002632 0.038148
#
#
# Mechanical properties :
#
#
# Convention : Reuss Voigt Hill
#
# Bulk Modulus (GPa) = 44.17303 49.32588 46.74946
# Shear Modulus (GPa) = 26.20607 31.77971 28.99289
#
# Velocity S-wave (km/s) = 3.43372 3.78128 3.61169
# Velocity P-wave (km/s) = 5.96612 6.42312 6.19883
#
# Compressibility (1/GPa) = 0.02263825
#
# Stress axis : x y z
#
# Youngs Moduli (GPa) = 69.54266 116.95264 82.27389
#
# Poissons Ratio (x) = 0.39610 0.13167
# Poissons Ratio (y) = 0.23553 0.10169
# Poissons Ratio (z) = 0.11130 0.14455
#
# Static dielectric constant tensor:
#      x y z
#    x 4.012380 -0.063700 0.171830 
#    y -0.063700 4.124230 -0.420350 
#    z 0.171830 -0.420350 4.479930 
# 
# 
# High freq. dielectric constant tensor:
#      x y z
#    x 1.874170 0.004750 0.005140 
#    y 0.004750 1.872550 -0.015440 
#    z 0.005140 -0.015440 1.872800 
# 
# From -- ./inp_files/187132.got.cif
#   From: 2010.06.25/outbox.cif.g09.slc.cpg/sg2_94_cif.got.tgz:187132.got - 2010.06.27 13:26:56.
