data_PCOD8032081
_publ_section_title
;
Structure prediction by ZEFSAII (Michael W. Deem and Ramdas Pophale) SiO2 
 PCOD8032081
Probable space group: P -1
;
_chemical_formula_sum "Si O2"
_cell_formula_units_Z 12
_cell_length_a 9.367672
_cell_length_b 8.775475
_cell_length_c 9.494850
_cell_angle_alpha 134.223519
_cell_angle_beta 99.740402
_cell_angle_gamma 94.751329
_cell_volume 528.528764
_symmetry_space_group_name_H-M "P -1"
_symmetry_group_IT_number 2
_symmetry_cell_setting 'triclinic'
loop_
_space_group_symop_operation_xyz
x,y,z
-x,-y,-z
loop_
_atom_site_type_symbol
_atom_site_label
_atom_site_fract_x
_atom_site_fract_y
_atom_site_fract_z
Si Si1 0.522154 0.281430 0.801769
Si Si2 0.284053 0.172231 0.445683
Si Si3 0.214060 0.560769 0.546159
Si Si4 0.961811 0.232253 0.154970
Si Si5 0.498748 0.078369 0.211394
Si Si6 0.857228 0.298009 0.887180
O O1 0.426248 0.207678 0.596549
O O2 0.700405 0.334412 0.833068
O O3 0.461060 0.098351 0.793125
O O4 0.500000 0.500000 0.000000
O O5 0.222685 0.385924 0.560380
O O6 0.341275 0.117383 0.263688
O O7 0.148526 0.952860 0.329800
O O8 0.133667 0.743546 0.706205
O O9 0.378227 0.685182 0.597207
O O10 0.120837 0.424612 0.312580
O O11 0.862255 0.284003 0.046787
O O12 0.000000 0.000000 0.000000
O O13 0.500000 0.000000 0.000000
O O14 0.000000 0.500000 0.000000
#
# Coordination Sequence:
#
# PCOD8032081 Si02
#       6
#     2   2   2   2   2   2
#     4  11  25  45  67 100 138 179 231 287 341 411
#     4  11  23  46  69 100 139 176 231 290 340 411
#     4  11  24  42  70 100 132 181 225 286 341 407
#     4  11  24  44  65  97 142 175 227 280 343 407
#     4  11  23  40  70  99 133 177 230 280 343 401
#     4  11  24  42  68  95 136 183 223 278 344 408
#
# _framework density 22.704537999999999
#
# number of rings (size 3 to 8) (size 9 to 14) (size 15 to 20)
#    0.000    1.000    1.667    6.500    4.667    1.333 
#    0.000    1.667    0.000    0.000    0.000    0.000 
#    0.000    0.000    0.000    0.000    0.000    0.000 
#
# Total GULP energy -148695.738772 kJ/mol
# GULP energy per Si atom -12391.311564 kJ/mol
# Density = 2.265286 g / cm^3
# Si number density = 22.704538 Si / 1000 Ang^3
#
#
#
# Elastic Constant Matrix: (Units=GPa)
#
#
# Indices 1 2 3 4 5 6 
#
# 1 81.3897 45.9519 48.7423 18.9200 11.7482 -3.9413
# 2 45.9519 96.6021 41.7641 31.3243 3.5138 -0.4682
# 3 48.7423 41.7641 129.5990 13.4845 12.1967 5.6042
# 4 18.9200 31.3243 13.4845 56.3345 -1.9020 9.6591
# 5 11.7482 3.5138 12.1967 -1.9020 55.9796 8.8946
# 6 -3.9413 -0.4682 5.6042 9.6591 8.8946 41.7701
#
#
#
# Elastic Compliance Matrix: (Units=1/GPa)
#
#
# Indices 1 2 3 4 5 6 
#
# 1 0.020311 -0.006378 -0.005132 -0.002837 -0.003464 0.003927
# 2 -0.006378 0.016574 -0.002335 -0.006739 0.000359 0.001379
# 3 -0.005132 -0.002335 0.010465 0.000828 -0.000718 -0.001953
# 4 -0.002837 -0.006739 0.000828 0.023448 0.002658 -0.006442
# 5 -0.003464 0.000359 -0.000718 0.002658 0.019612 -0.005018
# 6 0.003927 0.001379 -0.001953 -0.006442 -0.005018 0.027147
#
#
# Mechanical properties :
#
#
# Convention : Reuss Voigt Hill
#
# Bulk Modulus (GPa) = 50.86432 64.50082 57.68257
# Shear Modulus (GPa) = 32.93858 42.22566 37.58212
#
# Velocity S-wave (km/s) = 3.81300 4.31721 4.07291
# Velocity P-wave (km/s) = 6.46813 7.30216 6.89776
#
# Compressibility (1/GPa) = 0.01966015
#
# Stress axis : x y z
#
# Youngs Moduli (GPa) = 49.23528 60.33655 95.56044
#
# Poissons Ratio (x) = 0.38480 0.49044
# Poissons Ratio (y) = 0.31400 0.22309
# Poissons Ratio (z) = 0.25269 0.14086
#
# Static dielectric constant tensor:
#      x y z
#    x -4.478370 5.366600 -14.098610 
#    y 5.366600 0.920230 9.441670 
#    z -14.098610 9.441670 -19.875070 
# 
# 
# High freq. dielectric constant tensor:
#      x y z
#    x 1.884700 -0.015410 0.020400 
#    y -0.015410 1.886980 0.019110 
#    z 0.020400 0.019110 1.921950 
# 
# From -- ./inp_files/160343.got.cif
#   From: 2010.06.25/outbox.cif.g09.slc.cpg/sg2_81_cif.got.tgz:160343.got - 2010.06.27 13:26:56.
