data_PCOD8032330
_publ_section_title
;
Structure prediction by ZEFSAII (Michael W. Deem and Ramdas Pophale) SiO2 
 PCOD8032330
Probable space group: P -1
;
_chemical_formula_sum "Si O2"
_cell_formula_units_Z 16
_cell_length_a 9.953002
_cell_length_b 17.823405
_cell_length_c 11.669074
_cell_angle_alpha 33.701216
_cell_angle_beta 57.131086
_cell_angle_gamma 42.400247
_cell_volume 760.176007
_symmetry_space_group_name_H-M "P -1"
_symmetry_group_IT_number 2
_symmetry_cell_setting 'triclinic'
loop_
_space_group_symop_operation_xyz
x,y,z
-x,-y,-z
loop_
_atom_site_type_symbol
_atom_site_label
_atom_site_fract_x
_atom_site_fract_y
_atom_site_fract_z
Si Si1 0.671796 0.254592 0.939276
Si Si2 0.050630 0.220741 0.835467
Si Si3 0.985465 0.860540 0.632341
Si Si4 0.335560 0.641017 0.568138
Si Si5 0.312638 0.005643 0.599048
Si Si6 0.022701 0.662705 0.530802
Si Si7 0.114740 0.320188 0.912362
Si Si8 0.580175 0.156079 0.877229
O O1 0.530016 0.458931 0.753932
O O2 0.674522 0.192906 0.889732
O O3 0.899509 0.172119 0.979378
O O4 0.598265 0.179591 0.157205
O O5 0.981940 0.333141 0.609589
O O6 0.030485 0.332985 0.808463
O O7 0.281052 0.047291 0.948815
O O8 0.183788 0.725949 0.637210
O O9 0.788221 0.964959 0.513055
O O10 0.000000 0.000000 0.500000
O O11 0.953175 0.765298 0.865386
O O12 0.410550 0.751298 0.356241
O O13 0.233740 0.615302 0.540424
O O14 0.163013 0.154043 0.569665
O O15 0.500000 0.000000 0.500000
O O16 0.010472 0.511727 0.764688
O O17 0.356524 0.217737 0.928812
#
# Coordination Sequence:
#
# PCOD8032330 Si02
#       8
#     2   2   2   2   2   2   2   2
#     4  12  22  42  70  97 129 172 227 271 325 391
#     4  12  24  42  67 101 134 171 220 276 330 384
#     4  11  26  49  66  95 137 178 216 267 341 399
#     4  11  24  42  73  98 134 176 221 270 328 399
#     4  11  25  42  68  97 130 172 224 274 322 394
#     4  11  23  42  67 100 133 173 219 274 329 387
#     4  12  26  43  68  98 139 174 218 275 331 393
#     4  12  22  43  70 100 131 173 224 273 328 390
#
# _framework density 21.047754999999999
#
# number of rings (size 3 to 8) (size 9 to 14) (size 15 to 20)
#    0.000    0.500    3.750    6.000    1.750    1.000 
#    2.250    1.250    0.000    0.000    0.000    0.000 
#    0.000    0.000    0.000    0.000    0.000    0.000 
#
# Total GULP energy -198470.725501 kJ/mol
# GULP energy per Si atom -12404.420344 kJ/mol
# Density = 2.099985 g / cm^3
# Si number density = 21.047755 Si / 1000 Ang^3
#
#
#
# Elastic Constant Matrix: (Units=GPa)
#
#
# Indices 1 2 3 4 5 6 
#
# 1 91.0842 28.8776 24.1266 9.1685 -0.2046 11.7237
# 2 28.8776 41.7537 33.1869 8.8176 7.9727 6.1265
# 3 24.1266 33.1869 143.4079 8.0186 -7.2665 0.8478
# 4 9.1685 8.8176 8.0186 33.4915 -4.8001 -1.7722
# 5 -0.2046 7.9727 -7.2665 -4.8001 34.9418 1.9579
# 6 11.7237 6.1265 0.8478 -1.7722 1.9579 36.0733
#
#
#
# Elastic Compliance Matrix: (Units=1/GPa)
#
#
# Indices 1 2 3 4 5 6 
#
# 1 0.014650 -0.009854 0.000024 -0.001259 0.002350 -0.003278
# 2 -0.009854 0.041855 -0.008164 -0.008307 -0.012253 -0.003457
# 3 0.000024 -0.008164 0.009011 0.000577 0.003761 0.000991
# 4 -0.001259 -0.008307 0.000577 0.033335 0.006414 0.003096
# 5 0.002350 -0.012253 0.003761 0.006414 0.033106 -0.000253
# 6 -0.003278 -0.003457 0.000991 0.003096 -0.000253 0.029516
#
#
# Mechanical properties :
#
#
# Convention : Reuss Voigt Hill
#
# Bulk Modulus (GPa) = 33.86466 49.84757 41.85612
# Shear Modulus (GPa) = 24.11917 33.57161 28.84539
#
# Velocity S-wave (km/s) = 3.38883 3.99810 3.70601
# Velocity P-wave (km/s) = 5.60683 6.71175 6.18402
#
# Compressibility (1/GPa) = 0.02952931
#
# Stress axis : x y z
#
# Youngs Moduli (GPa) = 68.25780 23.89177 110.97822
#
# Poissons Ratio (x) = 0.23543 -0.00271
# Poissons Ratio (y) = 0.67260 0.90605
# Poissons Ratio (z) = -0.00167 0.19506
#
# Static dielectric constant tensor:
#      x y z
#    x 3.921610 0.062620 -0.030620 
#    y 0.062620 3.495310 0.066650 
#    z -0.030620 0.066650 3.913060 
# 
# 
# High freq. dielectric constant tensor:
#      x y z
#    x 1.831240 -0.002090 -0.001460 
#    y -0.002090 1.820340 -0.001160 
#    z -0.001460 -0.001160 1.840870 
# 
# From -- ./inp_files/184841.got.cif
#   From: 2010.06.25/outbox.cif.g09.slc.cpg/sg2_93_cif.got.tgz:184841.got - 2010.06.27 13:26:56.
