data_PCOD8032468
_publ_section_title
;
Structure prediction by ZEFSAII (Michael W. Deem and Ramdas Pophale) SiO2 
 PCOD8032468
Probable space group: P -1
;
_chemical_formula_sum "Si O2"
_cell_formula_units_Z 16
_cell_length_a 13.595408
_cell_length_b 5.649752
_cell_length_c 14.716369
_cell_angle_alpha 58.006455
_cell_angle_beta 124.263232
_cell_angle_gamma 125.639402
_cell_volume 724.162453
_symmetry_space_group_name_H-M "P -1"
_symmetry_group_IT_number 2
_symmetry_cell_setting 'triclinic'
loop_
_space_group_symop_operation_xyz
x,y,z
-x,-y,-z
loop_
_atom_site_type_symbol
_atom_site_label
_atom_site_fract_x
_atom_site_fract_y
_atom_site_fract_z
Si Si1 0.643843 0.861178 0.852584
Si Si2 0.927471 0.197785 0.885907
Si Si3 0.384006 0.841381 0.039616
Si Si4 0.908583 0.166229 0.396304
Si Si5 0.945354 0.171928 0.692137
Si Si6 0.714235 0.804625 0.514971
Si Si7 0.877666 0.159597 0.169653
Si Si8 0.451568 0.853844 0.409894
O O1 0.637754 0.516955 0.905182
O O2 0.793321 0.097043 0.890595
O O3 0.580347 0.968988 0.884089
O O4 0.576546 0.912559 0.716877
O O5 0.896944 0.174357 0.767911
O O6 0.017809 0.544089 0.885353
O O7 0.000000 0.000000 0.000000
O O8 0.262711 0.903936 0.928427
O O9 0.500000 0.000000 0.000000
O O10 0.871081 0.178839 0.270400
O O11 0.998494 0.513728 0.399332
O O12 0.775475 0.984645 0.417953
O O13 0.000000 0.000000 0.500000
O O14 0.816299 0.946882 0.620013
O O15 0.072613 0.097689 0.777625
O O16 0.571911 0.800957 0.442045
O O17 0.682470 0.445024 0.579930
O O18 0.500000 0.000000 0.500000
#
# Coordination Sequence:
#
# PCOD8032468 Si02
#       8
#     2   2   2   2   2   2   2   2
#     4  12  28  49  77 106 146 195 245 306 369 426
#     4  11  23  42  71 105 140 181 238 300 362 426
#     4  12  30  51  74 107 148 197 250 297 361 444
#     4  11  25  42  68 106 139 189 232 302 370 429
#     4  11  24  42  70 105 145 181 238 304 361 440
#     4  11  25  44  68 103 143 183 243 293 369 436
#     4  11  25  43  72 103 144 187 244 295 365 434
#     4  11  28  45  72 103 144 194 243 301 363 440
#
# _framework density 22.094488999999999
#
# number of rings (size 3 to 8) (size 9 to 14) (size 15 to 20)
#    0.000    0.750    2.500    3.000   14.000    2.000 
#    0.000    0.000    0.000    0.000    0.000    0.000 
#    0.000    0.000    0.000    0.000    0.000    0.000 
#
# Total GULP energy -198225.065028 kJ/mol
# GULP energy per Si atom -12389.066564 kJ/mol
# Density = 2.204420 g / cm^3
# Si number density = 22.094489 Si / 1000 Ang^3
#
#
#
# Elastic Constant Matrix: (Units=GPa)
#
#
# Indices 1 2 3 4 5 6 
#
# 1 105.3744 47.8859 27.7793 -12.9559 -8.1592 16.8624
# 2 47.8859 133.4041 50.4241 -20.1766 6.0818 8.2500
# 3 27.7793 50.4241 128.1954 -13.7638 11.1684 8.1679
# 4 -12.9559 -20.1766 -13.7638 37.5272 1.4979 -0.2253
# 5 -8.1592 6.0818 11.1684 1.4979 39.9256 -3.7611
# 6 16.8624 8.2500 8.1679 -0.2253 -3.7611 41.5291
#
#
#
# Elastic Compliance Matrix: (Units=1/GPa)
#
#
# Indices 1 2 3 4 5 6 
#
# 1 0.012533 -0.003720 -0.001076 0.001790 0.002998 -0.003857
# 2 -0.003720 0.010490 -0.002795 0.003398 -0.001719 -0.000161
# 3 -0.001076 -0.002795 0.009626 0.001755 -0.002659 -0.001132
# 4 0.001790 0.003398 0.001755 0.029802 -0.001927 -0.001760
# 5 0.002998 -0.001719 -0.002659 -0.001927 0.026933 0.002076
# 6 -0.003857 -0.000161 -0.001132 -0.001760 0.002076 0.026079
#
#
# Mechanical properties :
#
#
# Convention : Reuss Voigt Hill
#
# Bulk Modulus (GPa) = 57.25111 68.79470 63.02291
# Shear Modulus (GPa) = 36.63875 39.85536 38.24705
#
# Velocity S-wave (km/s) = 4.07661 4.25179 4.16512
# Velocity P-wave (km/s) = 6.93733 7.43693 7.19147
#
# Compressibility (1/GPa) = 0.01746691
#
# Stress axis : x y z
#
# Youngs Moduli (GPa) = 79.78632 95.32863 103.89037
#
# Poissons Ratio (x) = 0.35459 0.11181
# Poissons Ratio (y) = 0.29678 0.29040
# Poissons Ratio (z) = 0.08586 0.26647
#
# Static dielectric constant tensor:
#      x y z
#    x 4.114560 -0.073510 -0.085110 
#    y -0.073510 4.315950 -0.327380 
#    z -0.085110 -0.327380 4.245670 
# 
# 
# High freq. dielectric constant tensor:
#      x y z
#    x 1.879450 0.004220 0.000470 
#    y 0.004220 1.875060 -0.007370 
#    z 0.000470 -0.007370 1.890600 
# 
# From -- ./inp_files/110674.got.cif
#   From: 2010.06.25/outbox.cif.g09.slc.cpg/sg2_56_cif.got.tgz:110674.got - 2010.06.27 13:26:56.
