data_PCOD8032292
_publ_section_title
;
Structure prediction by ZEFSAII (Michael W. Deem and Ramdas Pophale) SiO2 
 PCOD8032292
Probable space group: P -1
;
_chemical_formula_sum "Si O2"
_cell_formula_units_Z 14
_cell_length_a 14.266203
_cell_length_b 14.778088
_cell_length_c 8.862322
_cell_angle_alpha 80.823440
_cell_angle_beta 59.284189
_cell_angle_gamma 30.667633
_cell_volume 630.737949
_symmetry_space_group_name_H-M "P -1"
_symmetry_group_IT_number 2
_symmetry_cell_setting 'triclinic'
loop_
_space_group_symop_operation_xyz
x,y,z
-x,-y,-z
loop_
_atom_site_type_symbol
_atom_site_label
_atom_site_fract_x
_atom_site_fract_y
_atom_site_fract_z
Si Si1 0.520338 0.599579 0.301167
Si Si2 0.252689 0.241236 0.715845
Si Si3 0.107525 0.855032 0.813678
Si Si4 0.281834 0.094549 0.211433
Si Si5 0.110931 0.544628 0.797456
Si Si6 0.607237 0.185608 0.930228
Si Si7 0.039723 0.568509 0.376603
O O1 0.268160 0.791082 0.574420
O O2 0.682102 0.378662 0.220150
O O3 0.735436 0.507301 0.204325
O O4 0.411323 0.712212 0.194011
O O5 0.307938 0.307394 0.659133
O O6 0.989048 0.422538 0.781047
O O7 0.500000 0.000000 0.500000
O O8 0.176166 0.266257 0.938890
O O9 0.858722 0.998747 0.889988
O O10 0.000000 0.000000 0.000000
O O11 0.987305 0.331689 0.307234
O O12 0.201390 0.178004 0.429429
O O13 0.377451 0.916903 0.159603
O O14 0.500000 0.000000 0.000000
O O15 0.338809 0.382645 0.204534
O O16 0.000000 0.500000 0.500000
#
# Coordination Sequence:
#
# PCOD8032292 Si02
#       7
#     2   2   2   2   2   2   2
#     4  11  26  49  71 105 137 174 243 288 350 421
#     4  11  24  38  63  98 140 188 228 276 336 407
#     4  11  28  49  79 101 130 180 235 302 356 408
#     4  12  24  41  67  98 143 189 223 274 343 406
#     4  11  23  42  63  97 141 181 229 283 337 415
#     4  12  26  47  71 102 146 183 224 287 355 403
#     4  12  24  39  62 101 138 183 234 266 323 421
#
# _framework density 22.196223
#
# number of rings (size 3 to 8) (size 9 to 14) (size 15 to 20)
#    0.000    0.571    5.714    1.286    6.000    2.857 
#    0.000    0.000    0.000    0.000    0.000    0.000 
#    0.000    0.000    0.000    0.000    0.000    0.000 
#
# Total GULP energy -173579.831037 kJ/mol
# GULP energy per Si atom -12398.559360 kJ/mol
# Density = 2.214570 g / cm^3
# Si number density = 22.196223 Si / 1000 Ang^3
#
#
#
# Elastic Constant Matrix: (Units=GPa)
#
#
# Indices 1 2 3 4 5 6 
#
# 1 73.9734 20.2510 29.2827 0.2810 15.2791 9.2967
# 2 20.2510 84.6667 38.0373 -8.1442 -0.5763 13.9105
# 3 29.2827 38.0373 138.3018 6.7419 9.2309 21.9741
# 4 0.2810 -8.1442 6.7419 34.2665 4.9153 9.9940
# 5 15.2791 -0.5763 9.2309 4.9153 39.4828 6.2755
# 6 9.2967 13.9105 21.9741 9.9940 6.2755 33.9441
#
#
#
# Elastic Compliance Matrix: (Units=1/GPa)
#
#
# Indices 1 2 3 4 5 6 
#
# 1 0.016481 -0.002724 -0.002212 0.000818 -0.005823 -0.001130
# 2 -0.002724 0.015358 -0.003187 0.005599 0.002207 -0.005541
# 3 -0.002212 -0.003187 0.009249 -0.001439 -0.000611 -0.003538
# 4 0.000818 0.005599 -0.001439 0.034423 -0.002391 -0.011280
# 5 -0.005823 0.002207 -0.000611 -0.002391 0.028610 -0.003499
# 6 -0.001130 -0.005541 -0.003538 -0.011280 -0.003499 0.038299
#
#
# Mechanical properties :
#
#
# Convention : Reuss Voigt Hill
#
# Bulk Modulus (GPa) = 40.25377 52.45377 46.35377
# Shear Modulus (GPa) = 29.94964 35.49674 32.72319
#
# Velocity S-wave (km/s) = 3.67728 4.00337 3.84379
# Velocity P-wave (km/s) = 6.01703 6.71211 6.37405
#
# Compressibility (1/GPa) = 0.02484239
#
# Stress axis : x y z
#
# Youngs Moduli (GPa) = 60.67496 65.11107 108.12336
#
# Poissons Ratio (x) = 0.17733 0.23919
# Poissons Ratio (y) = 0.16525 0.34461
# Poissons Ratio (z) = 0.13423 0.20752
#
# Static dielectric constant tensor:
#      x y z
#    x 4.224750 -0.390240 0.207040 
#    y -0.390240 4.559860 -0.148310 
#    z 0.207040 -0.148310 4.034110 
# 
# 
# High freq. dielectric constant tensor:
#      x y z
#    x 1.870880 -0.009500 0.008490 
#    y -0.009500 1.882630 0.005520 
#    z 0.008490 0.005520 1.877320 
# 
# From -- ./inp_files/288420.got.cif
#   From: 2010.06.25/outbox.cif.g09.slc.cpg/sg2_145_cif.got.tgz:288420.got - 2010.06.27 13:26:56.
