data_PCOD8032710
_publ_section_title
;
Structure prediction by ZEFSAII (Michael W. Deem and Ramdas Pophale) SiO2 
 PCOD8032710
Probable space group: P -1
;
_chemical_formula_sum "Si O2"
_cell_formula_units_Z 12
_cell_length_a 9.808843
_cell_length_b 9.434126
_cell_length_c 11.834830
_cell_angle_alpha 116.737082
_cell_angle_beta 43.586458
_cell_angle_gamma 134.388622
_cell_volume 535.980303
_symmetry_space_group_name_H-M "P -1"
_symmetry_group_IT_number 2
_symmetry_cell_setting 'triclinic'
loop_
_space_group_symop_operation_xyz
x,y,z
-x,-y,-z
loop_
_atom_site_type_symbol
_atom_site_label
_atom_site_fract_x
_atom_site_fract_y
_atom_site_fract_z
Si Si1 0.281752 0.589471 0.352324
Si Si2 0.409300 0.122445 0.550063
Si Si3 0.712145 0.907300 0.643951
Si Si4 0.439769 0.568268 0.861444
Si Si5 0.023797 0.106538 0.908650
Si Si6 0.535000 0.149597 0.877194
O O1 0.400606 0.657531 0.430832
O O2 0.338265 0.436712 0.223464
O O3 0.417359 0.776222 0.253835
O O4 0.000000 0.500000 0.500000
O O5 0.413768 0.130746 0.416057
O O6 0.133691 0.036303 0.726063
O O7 0.500000 0.000000 0.500000
O O8 0.544642 0.694690 0.729115
O O9 0.688058 0.063411 0.780450
O O10 0.000000 0.000000 0.500000
O O11 0.191250 0.345567 0.907952
O O12 0.370297 0.667739 0.030190
O O13 0.000000 0.000000 0.000000
O O14 0.756144 0.028904 0.995266
#
# Coordination Sequence:
#
# PCOD8032710 Si02
#       6
#     2   2   2   2   2   2
#     4  11  24  42  72 106 140 190 244 296 359 429
#     4  11  23  44  72 103 141 191 242 290 357 435
#     4  12  26  48  73 107 150 191 239 307 371 428
#     4  11  26  44  71 107 145 192 242 297 369 429
#     4  11  23  43  70 107 144 186 243 300 356 430
#     4  12  24  46  72 104 145 193 241 298 366 436
#
# _framework density 22.388881000000001
#
# number of rings (size 3 to 8) (size 9 to 14) (size 15 to 20)
#    0.000    0.667    5.000    3.000    2.333    4.667 
#    0.000    3.333    0.000    0.000    0.000    0.000 
#    0.000    0.000    0.000    0.000    0.000    0.000 
#
# Total GULP energy -148793.890201 kJ/mol
# GULP energy per Si atom -12399.490850 kJ/mol
# Density = 2.233792 g / cm^3
# Si number density = 22.388881 Si / 1000 Ang^3
#
#
#
# Elastic Constant Matrix: (Units=GPa)
#
#
# Indices 1 2 3 4 5 6 
#
# 1 96.7015 48.0692 45.6250 -10.8423 -17.5200 -9.1847
# 2 48.0692 145.7147 66.8952 -6.6247 -8.5825 -13.5128
# 3 45.6250 66.8952 129.4924 -3.0390 -33.5141 -1.8356
# 4 -10.8423 -6.6247 -3.0390 37.0279 -13.2622 -0.5486
# 5 -17.5200 -8.5825 -33.5141 -13.2622 51.0492 2.4299
# 6 -9.1847 -13.5128 -1.8356 -0.5486 2.4299 39.6730
#
#
#
# Elastic Compliance Matrix: (Units=1/GPa)
#
#
# Indices 1 2 3 4 5 6 
#
# 1 0.014445 -0.003054 -0.002293 0.005009 0.004144 0.002013
# 2 -0.003054 0.010173 -0.004869 -0.000427 -0.002774 0.002697
# 3 -0.002293 -0.004869 0.013045 0.002233 0.007635 -0.002022
# 4 0.005009 -0.000427 0.002233 0.032740 0.011578 0.000861
# 5 0.004144 -0.002774 0.007635 0.011578 0.028624 -0.001225
# 6 0.002013 0.002697 -0.002022 0.000861 -0.001225 0.026584
#
#
# Mechanical properties :
#
#
# Convention : Reuss Voigt Hill
#
# Bulk Modulus (GPa) = 58.03446 77.00971 67.52208
# Shear Modulus (GPa) = 32.94127 39.63797 36.28962
#
# Velocity S-wave (km/s) = 3.83994 4.21221 4.03038
# Velocity P-wave (km/s) = 6.75556 7.62418 7.20297
#
# Compressibility (1/GPa) = 0.01723114
#
# Stress axis : x y z
#
# Youngs Moduli (GPa) = 69.22936 98.30350 76.65521
#
# Poissons Ratio (x) = 0.30020 0.17579
# Poissons Ratio (y) = 0.21141 0.37322
# Poissons Ratio (z) = 0.15876 0.47862
#
# Static dielectric constant tensor:
#      x y z
#    x 4.043950 -0.173650 -0.099080 
#    y -0.173650 4.370410 0.019660 
#    z -0.099080 0.019660 4.738290 
# 
# 
# High freq. dielectric constant tensor:
#      x y z
#    x 1.879770 -0.009640 -0.007020 
#    y -0.009640 1.881780 0.009570 
#    z -0.007020 0.009570 1.902770 
# 
# From -- ./inp_files/183345.got.cif
#   From: 2010.06.25/outbox.cif.g09.slc.cpg/sg2_92_cif.got.tgz:183345.got - 2010.06.27 13:26:56.
