data_PCOD8032166
_publ_section_title
;
Structure prediction by ZEFSAII (Michael W. Deem and Ramdas Pophale) SiO2 
 PCOD8032166
Probable space group: P -1
;
_chemical_formula_sum "Si O2"
_cell_formula_units_Z 14
_cell_length_a 8.510478
_cell_length_b 6.652334
_cell_length_c 20.731593
_cell_angle_alpha 78.589710
_cell_angle_beta 44.763964
_cell_angle_gamma 55.005122
_cell_volume 630.916774
_symmetry_space_group_name_H-M "P -1"
_symmetry_group_IT_number 2
_symmetry_cell_setting 'triclinic'
loop_
_space_group_symop_operation_xyz
x,y,z
-x,-y,-z
loop_
_atom_site_type_symbol
_atom_site_label
_atom_site_fract_x
_atom_site_fract_y
_atom_site_fract_z
Si Si1 0.546120 0.250089 0.632522
Si Si2 0.041494 0.642348 0.534284
Si Si3 0.941239 0.333947 0.166379
Si Si4 0.849531 0.167644 0.796380
Si Si5 0.828045 0.389180 0.056339
Si Si6 0.824755 0.367058 0.921942
Si Si7 0.240745 0.228953 0.604536
O O1 0.676450 0.388534 0.560821
O O2 0.368137 0.399894 0.739434
O O3 0.343103 0.272904 0.636851
O O4 0.780562 0.946520 0.600941
O O5 0.066212 0.505909 0.601938
O O6 0.000000 0.500000 0.500000
O O7 0.901161 0.241751 0.113813
O O8 0.159260 0.396412 0.092431
O O9 0.069013 0.116587 0.199030
O O10 0.514621 0.381087 0.865414
O O11 0.974177 0.200120 0.824165
O O12 0.029520 0.160340 0.685407
O O13 0.930979 0.213062 0.971047
O O14 0.000000 0.500000 0.000000
O O15 0.500000 0.500000 0.000000
O O16 0.500000 0.000000 0.500000
#
# Coordination Sequence:
#
# PCOD8032166 Si02
#       7
#     2   2   2   2   2   2   2
#     4  11  25  43  66 100 131 181 223 277 335 398
#     4  11  25  44  68  95 138 174 227 281 327 396
#     4  11  23  41  67  97 136 170 221 273 334 401
#     4  11  24  41  68  97 137 176 220 278 332 400
#     4   9  22  41  66  96 130 171 223 272 335 399
#     4   9  20  43  63  95 131 168 223 269 333 396
#     4  12  24  43  69  97 136 181 224 269 341 402
#
# _framework density 22.189934999999998
#
# number of rings (size 3 to 8) (size 9 to 14) (size 15 to 20)
#    0.000    1.429    2.857    1.286    2.000    6.857 
#    0.000    2.857    0.000    0.000    0.000    0.000 
#    0.000    0.000    0.000    0.000    0.000    0.000 
#
# Total GULP energy -173483.084099 kJ/mol
# GULP energy per Si atom -12391.648864 kJ/mol
# Density = 2.213943 g / cm^3
# Si number density = 22.189935 Si / 1000 Ang^3
#
#
#
# Elastic Constant Matrix: (Units=GPa)
#
#
# Indices 1 2 3 4 5 6 
#
# 1 89.0176 6.8873 45.0318 -12.9666 -6.0776 -2.6421
# 2 6.8873 61.4568 33.8710 -24.5235 -3.5638 -7.0370
# 3 45.0318 33.8710 136.8020 -17.5804 -3.6380 -2.4234
# 4 -12.9666 -24.5235 -17.5804 39.2956 3.9399 10.3257
# 5 -6.0776 -3.5638 -3.6380 3.9399 35.5808 -2.3186
# 6 -2.6421 -7.0370 -2.4234 10.3257 -2.3186 33.1766
#
#
#
# Elastic Compliance Matrix: (Units=1/GPa)
#
#
# Indices 1 2 3 4 5 6 
#
# 1 0.014151 0.002786 -0.004779 0.004029 0.001777 0.000239
# 2 0.002786 0.024340 -0.005172 0.013469 0.000951 0.000881
# 3 -0.004779 -0.005172 0.010136 -0.000039 -0.000342 -0.000749
# 4 0.004029 0.013469 -0.000039 0.037741 -0.002717 -0.008761
# 5 0.001777 0.000951 -0.000342 -0.002717 0.028977 0.003189
# 6 0.000239 0.000881 -0.000749 -0.008761 0.003189 0.033243
#
#
# Mechanical properties :
#
#
# Convention : Reuss Voigt Hill
#
# Bulk Modulus (GPa) = 29.15573 50.98407 40.06990
# Shear Modulus (GPa) = 28.67802 35.04301 31.86052
#
# Velocity S-wave (km/s) = 3.59888 3.97826 3.79332
# Velocity P-wave (km/s) = 5.51697 6.64291 6.10595
#
# Compressibility (1/GPa) = 0.03429858
#
# Stress axis : x y z
#
# Youngs Moduli (GPa) = 70.66683 41.08400 98.65820
#
# Poissons Ratio (x) = -0.11446 0.47145
# Poissons Ratio (y) = -0.19688 0.51024
# Poissons Ratio (z) = 0.33769 0.21248
#
# Static dielectric constant tensor:
#      x y z
#    x 4.266700 0.118950 0.132680 
#    y 0.118950 3.822900 -0.156230 
#    z 0.132680 -0.156230 4.129060 
# 
# 
# High freq. dielectric constant tensor:
#      x y z
#    x 1.887740 0.005650 0.005300 
#    y 0.005650 1.858420 -0.011750 
#    z 0.005300 -0.011750 1.890090 
# 
# From -- ./inp_files/484107.got.cif
#   From: 2010.06.25/outbox.cif.g09.slc.cpg/sg2_243_cif.got.tgz:484107.got - 2010.06.27 13:26:56.
