data_PCOD8032233
_publ_section_title
;
Structure prediction by ZEFSAII (Michael W. Deem and Ramdas Pophale) SiO2 
 PCOD8032233
Probable space group: P -1
;
_chemical_formula_sum "Si O2"
_cell_formula_units_Z 14
_cell_length_a 21.380983
_cell_length_b 26.981692
_cell_length_c 8.439866
_cell_angle_alpha 138.053067
_cell_angle_beta 137.716206
_cell_angle_gamma 10.876746
_cell_volume 612.416246
_symmetry_space_group_name_H-M "P -1"
_symmetry_group_IT_number 2
_symmetry_cell_setting 'triclinic'
loop_
_space_group_symop_operation_xyz
x,y,z
-x,-y,-z
loop_
_atom_site_type_symbol
_atom_site_label
_atom_site_fract_x
_atom_site_fract_y
_atom_site_fract_z
Si Si1 0.518700 0.323862 0.467525
Si Si2 0.632219 0.835836 0.244165
Si Si3 0.147210 0.362529 0.283050
Si Si4 0.834614 0.782879 0.223348
Si Si5 0.551556 0.397443 0.980080
Si Si6 0.729436 0.362510 0.477229
Si Si7 0.897750 0.887684 0.127190
O O1 0.663361 0.241132 0.712388
O O2 0.496452 0.403266 0.478725
O O3 0.141720 0.586041 0.416447
O O4 0.748765 0.081714 0.261243
O O5 0.683581 0.831027 0.157509
O O6 0.988909 0.534246 0.257520
O O7 0.500000 0.000000 0.500000
O O8 0.369244 0.970629 0.071176
O O9 0.000000 0.500000 0.500000
O O10 0.549344 0.063497 0.329388
O O11 0.065009 0.337578 0.037152
O O12 0.500000 0.500000 0.000000
O O13 0.827843 0.221015 0.199670
O O14 0.221320 0.628322 0.008772
O O15 0.500000 0.500000 0.500000
O O16 0.029386 0.169510 0.680683
#
# Coordination Sequence:
#
# PCOD8032233 Si02
#       7
#     2   2   2   2   2   2   2
#     4  11  23  41  70  94 130 173 216 266 331 394
#     4  12  24  42  65  97 141 179 224 272 324 393
#     4  11  24  42  63  91 134 180 218 271 326 372
#     4  11  25  41  65  97 136 178 223 265 324 399
#     4   9  21  43  64  95 125 161 216 275 326 392
#     4   9  22  42  65  95 126 162 215 274 328 391
#     4  11  24  41  67  94 130 177 217 264 336 384
#
# _framework density 22.86027
#
# number of rings (size 3 to 8) (size 9 to 14) (size 15 to 20)
#    0.000    1.429    2.857    1.286    4.000    5.714 
#    0.000    4.286    0.000    0.000    0.000    0.000 
#    0.000    0.000    0.000    0.000    0.000    0.000 
#
# Total GULP energy -173457.200114 kJ/mol
# GULP energy per Si atom -12389.800008 kJ/mol
# Density = 2.280824 g / cm^3
# Si number density = 22.860270 Si / 1000 Ang^3
#
#
#
# Elastic Constant Matrix: (Units=GPa)
#
#
# Indices 1 2 3 4 5 6 
#
# 1 94.5778 18.8853 39.0481 -5.7340 0.1472 1.2896
# 2 18.8853 79.5069 28.0279 6.2616 -2.9237 20.9847
# 3 39.0481 28.0279 159.8853 3.5078 -3.5293 5.8996
# 4 -5.7340 6.2616 3.5078 34.3901 6.1046 -4.1022
# 5 0.1472 -2.9237 -3.5293 6.1046 31.1407 -1.9290
# 6 1.2896 20.9847 5.8996 -4.1022 -1.9290 32.7036
#
#
#
# Elastic Compliance Matrix: (Units=1/GPa)
#
#
# Indices 1 2 3 4 5 6 
#
# 1 0.012445 -0.002887 -0.002713 0.003345 -0.001157 0.002203
# 2 -0.002887 0.017311 -0.001765 -0.005100 0.001744 -0.011212
# 3 -0.002713 -0.001765 0.007274 -0.001045 0.000867 -0.000152
# 4 0.003345 -0.005100 -0.001045 0.032680 -0.006583 0.007040
# 5 -0.001157 0.001744 0.000867 -0.006583 0.033666 -0.000070
# 6 0.002203 -0.011212 -0.000152 0.007040 -0.000070 0.038592
#
#
# Mechanical properties :
#
#
# Convention : Reuss Voigt Hill
#
# Bulk Modulus (GPa) = 44.84632 56.21028 50.52830
# Shear Modulus (GPa) = 30.46349 36.18078 33.32214
#
# Velocity S-wave (km/s) = 3.65443 3.98262 3.82205
# Velocity P-wave (km/s) = 6.12100 6.76686 6.45202
#
# Compressibility (1/GPa) = 0.02229837
#
# Stress axis : x y z
#
# Youngs Moduli (GPa) = 80.35600 57.76784 137.46949
#
# Poissons Ratio (x) = 0.16676 0.37302
# Poissons Ratio (y) = 0.23197 0.24269
# Poissons Ratio (z) = 0.21804 0.10199
#
# Static dielectric constant tensor:
#      x y z
#    x 3.683560 0.533470 0.014710 
#    y 0.533470 4.415440 -0.602660 
#    z 0.014710 -0.602660 5.038820 
# 
# 
# High freq. dielectric constant tensor:
#      x y z
#    x 1.894590 0.012780 -0.006670 
#    y 0.012780 1.887960 -0.008160 
#    z -0.006670 -0.008160 1.930190 
# 
# From -- ./inp_files/355705.got.cif
#   From: 2010.06.25/outbox.cif.g09.slc.cpg/sg2_178_cif.got.tgz:355705.got - 2010.06.27 13:26:56.
