data_PCOD8032769
_publ_section_title
;
Structure prediction by ZEFSAII (Michael W. Deem and Ramdas Pophale) SiO2 
 PCOD8032769
Probable space group: P -1
;
_chemical_formula_sum "Si O2"
_cell_formula_units_Z 16
_cell_length_a 11.523082
_cell_length_b 11.574574
_cell_length_c 13.479930
_cell_angle_alpha 86.047461
_cell_angle_beta 144.915960
_cell_angle_gamma 118.974274
_cell_volume 686.042712
_symmetry_space_group_name_H-M "P -1"
_symmetry_group_IT_number 2
_symmetry_cell_setting 'triclinic'
loop_
_space_group_symop_operation_xyz
x,y,z
-x,-y,-z
loop_
_atom_site_type_symbol
_atom_site_label
_atom_site_fract_x
_atom_site_fract_y
_atom_site_fract_z
Si Si1 0.312782 0.195414 0.189271
Si Si2 0.384519 0.880255 0.519529
Si Si3 0.802087 0.677052 0.749367
Si Si4 0.491204 0.229103 0.086762
Si Si5 0.847869 0.156296 0.355298
Si Si6 0.433100 0.858356 0.218392
Si Si7 0.183672 0.412265 0.756836
Si Si8 0.891634 0.884112 0.626071
O O1 0.533662 0.219954 0.416778
O O2 0.285230 0.315981 0.201249
O O3 0.441490 0.244171 0.165488
O O4 0.000000 0.000000 0.000000
O O5 0.022360 0.720577 0.287743
O O6 0.500000 0.000000 0.500000
O O7 0.540749 0.007077 0.716031
O O8 0.500000 0.500000 0.500000
O O9 0.901644 0.830382 0.744700
O O10 0.074568 0.696974 0.947455
O O11 0.603965 0.146955 0.150277
O O12 0.760219 0.425426 0.220546
O O13 0.166715 0.096915 0.808875
O O14 0.065177 0.310810 0.577067
O O15 0.058343 0.197113 0.413041
O O16 0.654971 0.963613 0.272539
O O17 0.567976 0.809881 0.381766
O O18 0.500000 0.500000 0.000000
#
# Coordination Sequence:
#
# PCOD8032769 Si02
#       8
#     2   2   2   2   2   2   2   2
#     4  12  22  45  73  99 135 191 240 290 352 438
#     4  11  23  43  72 101 140 187 239 291 362 428
#     4  12  28  46  67 105 143 187 243 291 361 426
#     4  12  23  44  75 103 143 185 244 296 362 424
#     4  11  23  46  69 104 142 185 233 294 361 433
#     4  11  23  46  69 100 137 185 243 284 356 435
#     4  11  26  43  67 112 145 180 244 306 352 423
#     4  12  25  45  74 100 142 194 231 295 366 427
#
# _framework density 23.322164000000001
#
# number of rings (size 3 to 8) (size 9 to 14) (size 15 to 20)
#    0.000    0.500    6.250    3.375    3.500    0.500 
#    2.250    0.000    0.000    0.000    0.000    0.000 
#    0.000    0.000    0.000    0.000    0.000    0.000 
#
# Total GULP energy -198280.964540 kJ/mol
# GULP energy per Si atom -12392.560284 kJ/mol
# Density = 2.326908 g / cm^3
# Si number density = 23.322164 Si / 1000 Ang^3
#
#
#
# Elastic Constant Matrix: (Units=GPa)
#
#
# Indices 1 2 3 4 5 6 
#
# 1 97.8562 34.3068 31.9627 1.7752 15.6244 -5.4438
# 2 34.3068 83.3216 40.9924 6.5284 4.7379 14.7422
# 3 31.9627 40.9924 180.7287 -1.5903 13.9640 -3.9798
# 4 1.7752 6.5284 -1.5903 50.8800 -5.1077 2.9522
# 5 15.6244 4.7379 13.9640 -5.1077 27.0726 1.1031
# 6 -5.4438 14.7422 -3.9798 2.9522 1.1031 34.5811
#
#
#
# Elastic Compliance Matrix: (Units=1/GPa)
#
#
# Indices 1 2 3 4 5 6 
#
# 1 0.013849 -0.005884 -0.000467 -0.000737 -0.007062 0.004923
# 2 -0.005884 0.017599 -0.003320 -0.001436 0.002114 -0.008756
# 3 -0.000467 -0.003320 0.006620 0.000262 -0.002603 0.002164
# 4 -0.000737 -0.001436 0.000262 0.020397 0.004445 -0.001357
# 5 -0.007062 0.002114 -0.002603 0.004445 0.042990 -0.004063
# 6 0.004923 -0.008756 0.002164 -0.001357 -0.004063 0.033920
#
#
# Mechanical properties :
#
#
# Convention : Reuss Voigt Hill
#
# Bulk Modulus (GPa) = 53.40207 64.04780 58.72494
# Shear Modulus (GPa) = 31.06357 39.48306 35.27331
#
# Velocity S-wave (km/s) = 3.65353 4.11900 3.89323
# Velocity P-wave (km/s) = 6.38318 7.08120 6.74123
#
# Compressibility (1/GPa) = 0.01872587
#
# Stress axis : x y z
#
# Youngs Moduli (GPa) = 72.20544 56.82024 151.06078
#
# Poissons Ratio (x) = 0.33435 0.07056
# Poissons Ratio (y) = 0.42488 0.50152
# Poissons Ratio (z) = 0.03373 0.18864
#
# Static dielectric constant tensor:
#      x y z
#    x 4.555330 0.372360 -0.017260 
#    y 0.372360 2.309470 0.647760 
#    z -0.017260 0.647760 3.750170 
# 
# 
# High freq. dielectric constant tensor:
#      x y z
#    x 1.917990 0.002010 0.011060 
#    y 0.002010 1.906390 -0.003680 
#    z 0.011060 -0.003680 1.935280 
# 
# From -- ./inp_files/519688.got.cif
#   From: 2010.06.25/outbox.cif.g09.slc.cpg/sg2_260_cif.got.tgz:519688.got - 2010.06.27 13:26:56.
