data_PCOD8032711
_publ_section_title
;
Structure prediction by ZEFSAII (Michael W. Deem and Ramdas Pophale) SiO2 
 PCOD8032711
Probable space group: P -1
;
_chemical_formula_sum "Si O2"
_cell_formula_units_Z 16
_cell_length_a 8.846219
_cell_length_b 11.746137
_cell_length_c 17.272681
_cell_angle_alpha 41.471950
_cell_angle_beta 139.179725
_cell_angle_gamma 137.771931
_cell_volume 711.886917
_symmetry_space_group_name_H-M "P -1"
_symmetry_group_IT_number 2
_symmetry_cell_setting 'triclinic'
loop_
_space_group_symop_operation_xyz
x,y,z
-x,-y,-z
loop_
_atom_site_type_symbol
_atom_site_label
_atom_site_fract_x
_atom_site_fract_y
_atom_site_fract_z
Si Si1 0.152193 0.873366 0.622973
Si Si2 0.000604 0.299833 0.694534
Si Si3 0.537225 0.499927 0.318222
Si Si4 0.231844 0.456061 0.455760
Si Si5 0.126136 0.674003 0.045568
Si Si6 0.479974 0.879076 0.479727
Si Si7 0.832088 0.970588 0.024111
Si Si8 0.740546 0.277657 0.097993
O O1 0.189517 0.820850 0.751901
O O2 0.993171 0.696847 0.599534
O O3 0.417276 0.989429 0.623155
O O4 0.000000 0.000000 0.500000
O O5 0.853074 0.368142 0.668024
O O6 0.817355 0.249246 0.575394
O O7 0.277918 0.459721 0.704557
O O8 0.030860 0.108532 0.820999
O O9 0.726494 0.598651 0.412767
O O10 0.334716 0.589299 0.183632
O O11 0.389868 0.272719 0.385682
O O12 0.500000 0.500000 0.500000
O O13 0.851251 0.504109 0.038992
O O14 0.175157 0.838693 0.042409
O O15 0.144656 0.753783 0.924179
O O16 0.500000 0.000000 0.500000
O O17 0.559112 0.811916 0.979782
O O18 0.000000 0.000000 0.000000
#
# Coordination Sequence:
#
# PCOD8032711 Si02
#       8
#     2   2   2   2   2   2   2   2
#     4  12  25  42  69 107 140 184 243 306 367 430
#     4  11  24  45  66 104 139 192 243 286 374 434
#     4  11  23  45  73 103 142 189 244 292 370 443
#     4  11  24  42  71  98 142 188 231 306 363 435
#     4  11  26  49  77 108 147 203 247 305 371 446
#     4  11  23  43  70 107 145 186 241 307 365 437
#     4  12  28  47  74 107 151 195 248 307 368 453
#     4  11  26  49  72 109 151 194 255 298 374 441
#
# _framework density 22.475477999999999
#
# number of rings (size 3 to 8) (size 9 to 14) (size 15 to 20)
#    0.000    0.750    1.250    7.125    5.250    3.500 
#    2.250    0.000    0.000    0.000    0.000    0.000 
#    0.000    0.000    0.000    0.000    0.000    0.000 
#
# Total GULP energy -198256.885058 kJ/mol
# GULP energy per Si atom -12391.055316 kJ/mol
# Density = 2.242432 g / cm^3
# Si number density = 22.475478 Si / 1000 Ang^3
#
#
#
# Elastic Constant Matrix: (Units=GPa)
#
#
# Indices 1 2 3 4 5 6 
#
# 1 141.5446 72.7201 63.4179 -10.9805 1.4933 4.0067
# 2 72.7201 154.3680 55.4190 -0.5740 15.0219 -3.6995
# 3 63.4179 55.4190 130.9745 -15.2143 0.3483 -20.9027
# 4 -10.9805 -0.5740 -15.2143 28.4791 1.4389 -4.4525
# 5 1.4933 15.0219 0.3483 1.4389 45.8533 -2.5260
# 6 4.0067 -3.6995 -20.9027 -4.4525 -2.5260 45.5106
#
#
#
# Elastic Compliance Matrix: (Units=1/GPa)
#
#
# Indices 1 2 3 4 5 6 
#
# 1 0.011058 -0.003915 -0.003986 0.001560 0.000742 -0.002929
# 2 -0.003915 0.009472 -0.002470 -0.002559 -0.002900 -0.000431
# 3 -0.003986 -0.002470 0.012330 0.005958 0.001014 0.006452
# 4 0.001560 -0.002559 0.005958 0.039836 -0.000162 0.006279
# 5 0.000742 -0.002900 0.001014 -0.000162 0.022810 0.001415
# 6 -0.002929 -0.000431 0.006452 0.006279 0.001415 0.025852
#
#
# Mechanical properties :
#
#
# Convention : Reuss Voigt Hill
#
# Bulk Modulus (GPa) = 82.53335 90.00012 86.26673
# Shear Modulus (GPa) = 34.21398 39.65729 36.93564
#
# Velocity S-wave (km/s) = 3.90587 4.20512 4.05825
# Velocity P-wave (km/s) = 7.55926 7.98173 7.77336
#
# Compressibility (1/GPa) = 0.01211631
#
# Stress axis : x y z
#
# Youngs Moduli (GPa) = 90.42995 105.57891 81.10604
#
# Poissons Ratio (x) = 0.41334 0.32329
# Poissons Ratio (y) = 0.35403 0.20037
# Poissons Ratio (z) = 0.36046 0.26083
#
# Static dielectric constant tensor:
#      x y z
#    x 4.212890 0.319610 -0.113430 
#    y 0.319610 4.389200 -0.191940 
#    z -0.113430 -0.191940 4.211230 
# 
# 
# High freq. dielectric constant tensor:
#      x y z
#    x 1.891610 0.008260 -0.002040 
#    y 0.008260 1.895430 0.002480 
#    z -0.002040 0.002480 1.888400 
# 
# From -- ./inp_files/346459.got.cif
#   From: 2010.06.25/outbox.cif.g09.slc.cpg/sg2_174_cif.got.tgz:346459.got - 2010.06.27 13:26:56.
