data_PCOD8032655
_publ_section_title
;
Structure prediction by ZEFSAII (Michael W. Deem and Ramdas Pophale) SiO2 
 PCOD8032655
Probable space group: P -1
;
_chemical_formula_sum "Si O2"
_cell_formula_units_Z 16
_cell_length_a 11.470506
_cell_length_b 12.440347
_cell_length_c 13.600662
_cell_angle_alpha 77.877038
_cell_angle_beta 32.301668
_cell_angle_gamma 58.391195
_cell_volume 758.712427
_symmetry_space_group_name_H-M "P -1"
_symmetry_group_IT_number 2
_symmetry_cell_setting 'triclinic'
loop_
_space_group_symop_operation_xyz
x,y,z
-x,-y,-z
loop_
_atom_site_type_symbol
_atom_site_label
_atom_site_fract_x
_atom_site_fract_y
_atom_site_fract_z
Si Si1 0.308689 0.187564 0.763609
Si Si2 0.841876 0.337484 0.899063
Si Si3 0.132171 0.838011 0.417987
Si Si4 0.683882 0.651980 0.719526
Si Si5 0.703153 0.634759 0.928235
Si Si6 0.401279 0.688842 0.454621
Si Si7 0.254205 0.149613 0.462396
Si Si8 0.072054 0.628736 0.821960
O O1 0.533805 0.209771 0.572802
O O2 0.036042 0.277187 0.869104
O O3 0.474369 0.017073 0.669632
O O4 0.199848 0.247762 0.940316
O O5 0.730719 0.495122 0.919783
O O6 0.023563 0.226937 0.700598
O O7 0.562194 0.357463 0.119339
O O8 0.211376 0.751099 0.479448
O O9 0.898448 0.841424 0.529081
O O10 0.413269 0.763166 0.166459
O O11 0.000000 0.000000 0.500000
O O12 0.684912 0.695591 0.822240
O O13 0.617678 0.772910 0.667565
O O14 0.000000 0.500000 0.500000
O O15 0.975364 0.592586 0.801969
O O16 0.226750 0.689117 0.666601
O O17 0.702380 0.523166 0.249266
#
# Coordination Sequence:
#
# PCOD8032655 Si02
#       8
#     2   2   2   2   2   2   2   2
#     4  12  25  45  69  98 142 178 227 280 344 401
#     4  12  26  45  71  96 137 185 228 280 335 402
#     4  12  23  42  72  98 136 177 217 279 347 401
#     4  12  26  45  71 101 135 179 232 281 333 406
#     4  12  22  44  71  97 135 177 225 284 340 394
#     4  11  23  43  69 102 135 178 222 279 345 400
#     4  12  26  46  67 101 137 182 226 281 342 399
#     4  11  24  42  71 103 131 178 228 283 338 405
#
# _framework density 21.088359000000001
#
# number of rings (size 3 to 8) (size 9 to 14) (size 15 to 20)
#    0.000    0.250    6.250    3.375    0.000    5.500 
#    0.000    2.500    0.000    0.000    0.000    0.000 
#    0.000    0.000    0.000    0.000    0.000    0.000 
#
# Total GULP energy -198524.351105 kJ/mol
# GULP energy per Si atom -12407.771944 kJ/mol
# Density = 2.104036 g / cm^3
# Si number density = 21.088359 Si / 1000 Ang^3
#
#
#
# Elastic Constant Matrix: (Units=GPa)
#
#
# Indices 1 2 3 4 5 6 
#
# 1 94.7678 4.2722 13.7271 -7.8140 -5.2427 3.2029
# 2 4.2722 111.3662 49.3560 -5.2028 10.3852 8.4625
# 3 13.7271 49.3560 82.3914 1.6123 -0.4067 8.5676
# 4 -7.8140 -5.2028 1.6123 37.9161 10.6240 -3.3928
# 5 -5.2427 10.3852 -0.4067 10.6240 30.7066 -1.0488
# 6 3.2029 8.4625 8.5676 -3.3928 -1.0488 33.9687
#
#
#
# Elastic Compliance Matrix: (Units=1/GPa)
#
#
# Indices 1 2 3 4 5 6 
#
# 1 0.011086 0.000599 -0.002203 0.002175 0.000895 -0.000394
# 2 0.000599 0.013356 -0.008087 0.003849 -0.005893 -0.001142
# 3 -0.002203 -0.008087 0.017695 -0.003589 0.003750 -0.002484
# 4 0.002175 0.003849 -0.003589 0.030978 -0.011611 0.002477
# 5 0.000895 -0.005893 0.003750 -0.011611 0.038795 0.000476
# 6 -0.000394 -0.001142 -0.002484 0.002477 0.000476 0.030649
#
#
# Mechanical properties :
#
#
# Convention : Reuss Voigt Hill
#
# Bulk Modulus (GPa) = 43.94232 47.02623 45.48427
# Shear Modulus (GPa) = 29.49375 35.26292 32.37833
#
# Velocity S-wave (km/s) = 3.74382 4.09363 3.92262
# Velocity P-wave (km/s) = 6.29052 6.68519 6.49086
#
# Compressibility (1/GPa) = 0.02275710
#
# Stress axis : x y z
#
# Youngs Moduli (GPa) = 90.20090 74.87080 56.51171
#
# Poissons Ratio (x) = -0.04486 0.12450
# Poissons Ratio (y) = -0.05405 0.45698
# Poissons Ratio (z) = 0.19873 0.60545
#
# Static dielectric constant tensor:
#      x y z
#    x 4.016960 0.003420 -0.061710 
#    y 0.003420 3.598460 0.188710 
#    z -0.061710 0.188710 3.674680 
# 
# 
# High freq. dielectric constant tensor:
#      x y z
#    x 1.836780 -0.002540 -0.004350 
#    y -0.002540 1.832590 -0.002010 
#    z -0.004350 -0.002010 1.831540 
# 
# From -- ./inp_files/455776.got.cif
#   From: 2010.06.25/outbox.cif.g09.slc.cpg/sg2_228_cif.got.tgz:455776.got - 2010.06.27 13:26:56.
