data_PCOD8032662
_publ_section_title
;
Structure prediction by ZEFSAII (Michael W. Deem and Ramdas Pophale) SiO2 
 PCOD8032662
Probable space group: P -1
;
_chemical_formula_sum "Si O2"
_cell_formula_units_Z 16
_cell_length_a 23.212240
_cell_length_b 12.496826
_cell_length_c 6.508341
_cell_angle_alpha 50.743169
_cell_angle_beta 49.723772
_cell_angle_gamma 29.935140
_cell_volume 705.596483
_symmetry_space_group_name_H-M "P -1"
_symmetry_group_IT_number 2
_symmetry_cell_setting 'triclinic'
loop_
_space_group_symop_operation_xyz
x,y,z
-x,-y,-z
loop_
_atom_site_type_symbol
_atom_site_label
_atom_site_fract_x
_atom_site_fract_y
_atom_site_fract_z
Si Si1 0.062053 0.834905 0.370656
Si Si2 0.127924 0.971851 0.727702
Si Si3 0.429766 0.657384 0.780743
Si Si4 0.368666 0.530801 0.748231
Si Si5 0.202671 0.432434 0.786621
Si Si6 0.743957 0.851734 0.316907
Si Si7 0.958344 0.673131 0.234859
Si Si8 0.638714 0.766658 0.948203
O O1 0.177012 0.585362 0.486910
O O2 0.103340 0.877520 0.046295
O O3 0.000000 0.000000 0.500000
O O4 0.962853 0.878828 0.434457
O O5 0.259745 0.753806 0.598225
O O6 0.129418 0.104600 0.703528
O O7 0.369777 0.610339 0.866295
O O8 0.511244 0.621597 0.472248
O O9 0.338885 0.897542 0.789912
O O10 0.500000 0.500000 0.000000
O O11 0.349955 0.394522 0.001986
O O12 0.260870 0.213933 0.814948
O O13 0.298880 0.345642 0.837339
O O14 0.071371 0.595256 0.984425
O O15 0.880053 0.710684 0.194924
O O16 0.709468 0.788955 0.646218
O O17 0.000000 0.500000 0.500000
O O18 0.500000 0.000000 0.000000
#
# Coordination Sequence:
#
# PCOD8032662 Si02
#       8
#     2   2   2   2   2   2   2   2
#     4  11  23  43  69 107 141 184 237 287 364 428
#     4  11  24  42  71 100 147 180 229 300 356 423
#     4  11  27  46  73 103 139 185 245 293 353 428
#     4  11  25  47  72 101 140 189 234 295 358 422
#     4  12  27  44  76 106 145 191 242 294 358 436
#     4  12  26  49  71 107 143 190 242 297 362 423
#     4  12  24  45  70 103 143 193 235 295 360 422
#     4  12  27  49  75 104 147 191 241 297 359 422
#
# _framework density 22.675848999999999
#
# number of rings (size 3 to 8) (size 9 to 14) (size 15 to 20)
#    0.000    0.500    5.000    2.625    3.500    5.500 
#    0.000    0.000    0.000    0.000    0.000    0.000 
#    0.000    0.000    0.000    0.000    0.000    0.000 
#
# Total GULP energy -198392.861129 kJ/mol
# GULP energy per Si atom -12399.553821 kJ/mol
# Density = 2.262424 g / cm^3
# Si number density = 22.675849 Si / 1000 Ang^3
#
#
#
# Elastic Constant Matrix: (Units=GPa)
#
#
# Indices 1 2 3 4 5 6 
#
# 1 141.6130 58.0075 31.9933 -16.3428 9.0479 5.7973
# 2 58.0075 154.5742 24.9656 -13.5768 4.6613 10.0755
# 3 31.9933 24.9656 59.2254 -20.2289 7.9907 -2.4426
# 4 -16.3428 -13.5768 -20.2289 40.9031 -2.2007 1.5793
# 5 9.0479 4.6613 7.9907 -2.2007 32.1752 -1.4092
# 6 5.7973 10.0755 -2.4426 1.5793 -1.4092 50.9649
#
#
#
# Elastic Compliance Matrix: (Units=1/GPa)
#
#
# Indices 1 2 3 4 5 6 
#
# 1 0.009158 -0.002724 -0.003278 0.001091 -0.001324 -0.000731
# 2 -0.002724 0.007915 -0.001661 0.000771 0.000025 -0.001358
# 3 -0.003278 -0.001661 0.023117 0.009308 -0.003880 0.001413
# 4 0.001091 0.000771 0.009308 0.029734 -0.000730 -0.000772
# 5 -0.001324 0.000025 -0.003880 -0.000730 0.032401 0.000878
# 6 -0.000731 -0.001358 0.001413 -0.000772 0.000878 0.020089
#
#
# Mechanical properties :
#
#
# Convention : Reuss Voigt Hill
#
# Bulk Modulus (GPa) = 40.21835 65.03838 52.62836
# Shear Modulus (GPa) = 34.24011 40.83839 37.53925
#
# Velocity S-wave (km/s) = 3.89006 4.24838 4.07316
# Velocity P-wave (km/s) = 6.16048 7.26698 6.73649
#
# Compressibility (1/GPa) = 0.02486427
#
# Stress axis : x y z
#
# Youngs Moduli (GPa) = 109.19097 126.33568 43.25903
#
# Poissons Ratio (x) = 0.34415 0.14180
# Poissons Ratio (y) = 0.29744 0.07186
# Poissons Ratio (z) = 0.35791 0.20985
#
# Static dielectric constant tensor:
#      x y z
#    x 4.327270 -0.065060 0.012160 
#    y -0.065060 4.315500 -0.100320 
#    z 0.012160 -0.100320 3.752780 
# 
# 
# High freq. dielectric constant tensor:
#      x y z
#    x 1.906630 0.004940 -0.002290 
#    y 0.004940 1.915210 -0.004520 
#    z -0.002290 -0.004520 1.881830 
# 
# From -- ./inp_files/123566.got.cif
#   From: 2010.06.25/outbox.cif.g09.slc.cpg/sg2_62_cif.got.tgz:123566.got - 2010.06.27 13:26:56.
