data_PCOD8032676
_publ_section_title
;
Structure prediction by ZEFSAII (Michael W. Deem and Ramdas Pophale) SiO2 
 PCOD8032676
Probable space group: P -1
;
_chemical_formula_sum "Si O2"
_cell_formula_units_Z 16
_cell_length_a 14.906178
_cell_length_b 9.212218
_cell_length_c 8.986886
_cell_angle_alpha 69.239842
_cell_angle_beta 85.760808
_cell_angle_gamma 133.254389
_cell_volume 743.966326
_symmetry_space_group_name_H-M "P -1"
_symmetry_group_IT_number 2
_symmetry_cell_setting 'triclinic'
loop_
_space_group_symop_operation_xyz
x,y,z
-x,-y,-z
loop_
_atom_site_type_symbol
_atom_site_label
_atom_site_fract_x
_atom_site_fract_y
_atom_site_fract_z
Si Si1 0.581485 0.413364 0.645496
Si Si2 0.332456 0.127860 0.589107
Si Si3 0.213352 0.417522 0.946023
Si Si4 0.883336 0.051146 0.826791
Si Si5 0.466844 0.805369 0.979092
Si Si6 0.724938 0.079864 0.639912
Si Si7 0.806564 0.523821 0.405188
Si Si8 0.055520 0.742731 0.940041
O O1 0.437039 0.173987 0.669839
O O2 0.613581 0.630063 0.527201
O O3 0.707624 0.471096 0.557394
O O4 0.562147 0.373315 0.839111
O O5 0.338568 0.046640 0.464108
O O6 0.178124 0.937155 0.740437
O O7 0.331485 0.647745 0.950874
O O8 0.252114 0.518964 0.736858
O O9 0.065948 0.292997 0.060495
O O10 0.207217 0.222239 0.030086
O O11 0.819068 0.064556 0.695411
O O12 0.037896 0.202436 0.703467
O O13 0.889385 0.167931 0.930211
O O14 0.598860 0.940197 0.816459
O O15 0.500000 0.000000 0.000000
O O16 0.815950 0.353894 0.503836
O O17 0.000000 0.500000 0.000000
#
# Coordination Sequence:
#
# PCOD8032676 Si02
#       8
#     2   2   2   2   2   2   2   2
#     4  11  24  42  69  93 137 174 221 276 328 392
#     4  11  24  42  66 103 130 175 222 270 331 399
#     4  11  25  44  71  96 135 182 220 271 336 398
#     4  11  24  45  68 100 138 175 220 271 334 401
#     4  12  27  44  67  96 132 173 228 277 336 390
#     4  12  26  42  68  96 136 172 221 279 332 391
#     4  11  23  43  69  99 132 174 220 271 331 394
#     4  11  24  41  71 102 139 175 220 271 331 398
#
# _framework density 21.506350999999999
#
# number of rings (size 3 to 8) (size 9 to 14) (size 15 to 20)
#    0.000    0.750    1.250    7.125    5.250    6.000 
#    0.000    2.500    0.000    0.000    0.000    0.000 
#    0.000    0.000    0.000    0.000    0.000    0.000 
#
# Total GULP energy -198478.342233 kJ/mol
# GULP energy per Si atom -12404.896390 kJ/mol
# Density = 2.145740 g / cm^3
# Si number density = 21.506351 Si / 1000 Ang^3
#
#
#
# Elastic Constant Matrix: (Units=GPa)
#
#
# Indices 1 2 3 4 5 6 
#
# 1 92.9878 51.8900 34.2446 6.0828 20.1979 3.1859
# 2 51.8900 138.9605 37.1805 4.0037 15.4265 5.3043
# 3 34.2446 37.1805 129.2177 -0.2993 3.6511 8.9479
# 4 6.0828 4.0037 -0.2993 33.2848 -2.6135 6.2053
# 5 20.1979 15.4265 3.6511 -2.6135 50.7818 -0.5864
# 6 3.1859 5.3043 8.9479 6.2053 -0.5864 40.9110
#
#
#
# Elastic Compliance Matrix: (Units=1/GPa)
#
#
# Indices 1 2 3 4 5 6 
#
# 1 0.015425 -0.004445 -0.002704 -0.002738 -0.004728 0.000314
# 2 -0.004445 0.009386 -0.001459 -0.000312 -0.001001 -0.000519
# 3 -0.002704 -0.001459 0.008971 0.001143 0.000913 -0.001723
# 4 -0.002738 -0.000312 0.001143 0.031690 0.002678 -0.004765
# 5 -0.004728 -0.001001 0.000913 0.002678 0.021951 0.000207
# 6 0.000314 -0.000519 -0.001723 -0.004765 0.000207 0.025589
#
#
# Mechanical properties :
#
#
# Convention : Reuss Voigt Hill
#
# Bulk Modulus (GPa) = 60.35852 67.53293 63.94573
# Shear Modulus (GPa) = 36.83193 40.85225 38.84209
#
# Velocity S-wave (km/s) = 4.14286 4.36310 4.25440
# Velocity P-wave (km/s) = 7.14218 7.54001 7.34379
#
# Compressibility (1/GPa) = 0.01656767
#
# Stress axis : x y z
#
# Youngs Moduli (GPa) = 64.82772 106.53665 111.46516
#
# Poissons Ratio (x) = 0.47355 0.30135
# Poissons Ratio (y) = 0.28816 0.16267
# Poissons Ratio (z) = 0.17526 0.15548
#
# Static dielectric constant tensor:
#      x y z
#    x 3.980620 0.082220 0.072940 
#    y 0.082220 4.189370 0.000160 
#    z 0.072940 0.000160 4.230310 
# 
# 
# High freq. dielectric constant tensor:
#      x y z
#    x 1.849640 0.001500 0.001370 
#    y 0.001500 1.851200 -0.005420 
#    z 0.001370 -0.005420 1.861300 
# 
# From -- ./inp_files/189898.got.cif
#   From: 2010.06.25/outbox.cif.g09.slc.cpg/sg2_95_cif.got.tgz:189898.got - 2010.06.27 13:26:56.
