data_PCOD8032646
_publ_section_title
;
Structure prediction by ZEFSAII (Michael W. Deem and Ramdas Pophale) SiO2 
 PCOD8032646
Probable space group: P -1
;
_chemical_formula_sum "Si O2"
_cell_formula_units_Z 14
_cell_length_a 13.424795
_cell_length_b 6.652119
_cell_length_c 16.933262
_cell_angle_alpha 136.202775
_cell_angle_beta 39.248039
_cell_angle_gamma 125.341707
_cell_volume 661.508216
_symmetry_space_group_name_H-M "P -1"
_symmetry_group_IT_number 2
_symmetry_cell_setting 'triclinic'
loop_
_space_group_symop_operation_xyz
x,y,z
-x,-y,-z
loop_
_atom_site_type_symbol
_atom_site_label
_atom_site_fract_x
_atom_site_fract_y
_atom_site_fract_z
Si Si1 0.630833 0.674740 0.657835
Si Si2 0.782816 0.707197 0.409659
Si Si3 0.616196 0.742818 0.366026
Si Si4 0.922580 0.783550 0.096550
Si Si5 0.086235 0.350189 0.110391
Si Si6 0.175455 0.618483 0.410280
Si Si7 0.333882 0.641280 0.153996
O O1 0.722988 0.595413 0.499373
O O2 0.452023 0.546431 0.719322
O O3 0.706910 0.509645 0.635985
O O4 0.631546 0.014619 0.770888
O O5 0.643985 0.663742 0.418214
O O6 0.930052 0.525699 0.242915
O O7 0.836699 0.041002 0.476827
O O8 0.779793 0.858943 0.261608
O O9 0.500000 0.000000 0.500000
O O10 0.853963 0.739177 0.037958
O O11 0.049008 0.056332 0.099971
O O12 0.000000 0.500000 0.000000
O O13 0.221543 0.550322 0.124646
O O14 0.243568 0.538235 0.259813
O O15 0.000000 0.500000 0.500000
O O16 0.500000 0.500000 0.000000
#
# Coordination Sequence:
#
# PCOD8032646 Si02
#       7
#     2   2   2   2   2   2   2
#     4  11  25  43  67 103 135 175 227 282 336 415
#     4  11  23  43  69 101 131 178 223 284 347 400
#     4  12  24  43  72 101 138 175 226 284 352 399
#     4  11  26  44  69 102 132 182 232 281 336 418
#     4  11  25  45  69  96 138 178 230 279 340 406
#     4  11  24  44  69  99 134 179 235 274 334 422
#     4  11  28  44  67  99 141 184 222 285 347 397
#
# _framework density 21.163757
#
# number of rings (size 3 to 8) (size 9 to 14) (size 15 to 20)
#    0.000    0.857    2.857    3.000    6.000    4.000 
#    0.000    0.000    0.000    0.000    0.000    0.000 
#    0.000    0.000    0.000    0.000    0.000    0.000 
#
# Total GULP energy -173658.478831 kJ/mol
# GULP energy per Si atom -12404.177059 kJ/mol
# Density = 2.111559 g / cm^3
# Si number density = 21.163757 Si / 1000 Ang^3
#
#
#
# Elastic Constant Matrix: (Units=GPa)
#
#
# Indices 1 2 3 4 5 6 
#
# 1 109.1020 29.4139 16.1739 10.3987 4.3362 8.5188
# 2 29.4139 104.9296 24.9086 4.5096 2.9742 4.6917
# 3 16.1739 24.9086 92.0240 1.2306 -6.9823 -3.6682
# 4 10.3987 4.5096 1.2306 32.9302 -1.2476 2.3474
# 5 4.3362 2.9742 -6.9823 -1.2476 39.8385 6.2318
# 6 8.5188 4.6917 -3.6682 2.3474 6.2318 41.5107
#
#
#
# Elastic Compliance Matrix: (Units=1/GPa)
#
#
# Indices 1 2 3 4 5 6 
#
# 1 0.010445 -0.002395 -0.001293 -0.002841 -0.001012 -0.001674
# 2 -0.002395 0.010913 -0.002626 -0.000617 -0.000908 -0.000803
# 3 -0.001293 -0.002626 0.012022 0.000314 0.002255 0.001268
# 4 -0.002841 -0.000617 0.000314 0.031494 0.001606 -0.001342
# 5 -0.001012 -0.000908 0.002255 0.001606 0.026276 -0.003526
# 6 -0.001674 -0.000803 0.001268 -0.001342 -0.003526 0.025242
#
#
# Mechanical properties :
#
#
# Convention : Reuss Voigt Hill
#
# Bulk Modulus (GPa) = 48.18700 49.67204 48.92952
# Shear Modulus (GPa) = 36.78170 38.55981 37.67076
#
# Velocity S-wave (km/s) = 4.17340 4.27309 4.22354
# Velocity P-wave (km/s) = 6.78536 6.91860 6.85230
#
# Compressibility (1/GPa) = 0.02075248
#
# Stress axis : x y z
#
# Youngs Moduli (GPa) = 95.74028 91.63320 83.18011
#
# Poissons Ratio (x) = 0.21949 0.10755
# Poissons Ratio (y) = 0.22933 0.21839
# Poissons Ratio (z) = 0.12378 0.24059
#
# Static dielectric constant tensor:
#      x y z
#    x 3.636870 -0.588250 0.282440 
#    y -0.588250 3.086120 0.085360 
#    z 0.282440 0.085360 3.812730 
# 
# 
# High freq. dielectric constant tensor:
#      x y z
#    x 1.838360 -0.002950 0.007170 
#    y -0.002950 1.846860 0.003430 
#    z 0.007170 0.003430 1.835790 
# 
# From -- ./inp_files/69244.got.cif
#   From: 2010.06.25/outbox.cif.g09.slc.cpg/sg2_35_cif.got.tgz:69244.got - 2010.06.27 13:26:56.
