data_PCOD8032422
_publ_section_title
;
Structure prediction by ZEFSAII (Michael W. Deem and Ramdas Pophale) SiO2 
 PCOD8032422
Probable space group: P -1
;
_chemical_formula_sum "Si O2"
_cell_formula_units_Z 14
_cell_length_a 11.632522
_cell_length_b 9.274670
_cell_length_c 8.989150
_cell_angle_alpha 82.981464
_cell_angle_beta 52.059438
_cell_angle_gamma 61.426154
_cell_volume 650.676392
_symmetry_space_group_name_H-M "P -1"
_symmetry_group_IT_number 2
_symmetry_cell_setting 'triclinic'
loop_
_space_group_symop_operation_xyz
x,y,z
-x,-y,-z
loop_
_atom_site_type_symbol
_atom_site_label
_atom_site_fract_x
_atom_site_fract_y
_atom_site_fract_z
Si Si1 0.473946 0.876571 0.274773
Si Si2 0.331399 0.247288 0.383731
Si Si3 0.975607 0.727727 0.206949
Si Si4 0.397844 0.406625 0.555884
Si Si5 0.215013 0.350725 0.138125
Si Si6 0.098649 0.972862 0.574875
Si Si7 0.041484 0.712873 0.822673
O O1 0.528990 0.769603 0.394633
O O2 0.282709 0.930779 0.380797
O O3 0.476756 0.050522 0.268328
O O4 0.594108 0.765758 0.058825
O O5 0.197524 0.263088 0.612162
O O6 0.414162 0.352351 0.374529
O O7 0.225104 0.338288 0.309391
O O8 0.141113 0.543596 0.124253
O O9 0.000387 0.858473 0.268932
O O10 0.957734 0.781212 0.041523
O O11 0.500000 0.500000 0.500000
O O12 0.200510 0.523827 0.741755
O O13 0.096722 0.282894 0.179566
O O14 0.114576 0.821237 0.679949
O O15 0.000000 0.000000 0.500000
#
# Coordination Sequence:
#
# PCOD8032422 Si02
#       7
#     2   2   2   2   2   2   2
#     4  11  24  46  66 100 135 177 226 276 334 403
#     4  11  25  43  69  99 136 179 226 278 336 394
#     4  11  23  42  70 100 130 181 225 271 333 402
#     4  12  24  43  68  99 139 178 223 278 335 402
#     4  12  24  44  73 100 133 176 233 279 330 393
#     4  11  26  46  69  99 142 176 219 280 342 397
#     4  12  23  44  70 101 137 176 226 277 333 402
#
# _framework density 21.516071
#
# number of rings (size 3 to 8) (size 9 to 14) (size 15 to 20)
#    0.000    0.571    4.286    4.714    2.000    1.143 
#    5.143    1.429    0.000    0.000    0.000    0.000 
#    0.000    0.000    0.000    0.000    0.000    0.000 
#
# Total GULP energy -173652.869983 kJ/mol
# GULP energy per Si atom -12403.776427 kJ/mol
# Density = 2.146710 g / cm^3
# Si number density = 21.516071 Si / 1000 Ang^3
#
#
#
# Elastic Constant Matrix: (Units=GPa)
#
#
# Indices 1 2 3 4 5 6 
#
# 1 150.3338 46.0241 44.0650 9.1004 25.2455 14.6860
# 2 46.0241 108.4027 17.2643 16.4991 5.1078 4.7494
# 3 44.0650 17.2643 80.0567 14.7586 2.2911 -1.0876
# 4 9.1004 16.4991 14.7586 37.4133 -5.8679 1.7725
# 5 25.2455 5.1078 2.2911 -5.8679 34.4252 4.7424
# 6 14.6860 4.7494 -1.0876 1.7725 4.7424 33.0312
#
#
#
# Elastic Compliance Matrix: (Units=1/GPa)
#
#
# Indices 1 2 3 4 5 6 
#
# 1 0.010503 -0.003213 -0.004945 -0.000032 -0.006427 -0.003446
# 2 -0.003213 0.011211 0.000131 -0.004223 -0.000043 0.000054
# 3 -0.004945 0.000131 0.016137 -0.005155 0.001268 0.002806
# 4 -0.000032 -0.004223 -0.005155 0.031791 0.006718 -0.002219
# 5 -0.006427 -0.000043 0.001268 0.006718 0.035174 -0.002505
# 6 -0.003446 0.000054 0.002806 -0.002219 -0.002505 0.032370
#
#
# Mechanical properties :
#
#
# Convention : Reuss Voigt Hill
#
# Bulk Modulus (GPa) = 45.87783 61.49999 53.68891
# Shear Modulus (GPa) = 31.15193 36.40326 33.77759
#
# Velocity S-wave (km/s) = 3.80918 4.11775 3.96647
# Velocity P-wave (km/s) = 6.38086 7.15913 6.78117
#
# Compressibility (1/GPa) = 0.02179702
#
# Stress axis : x y z
#
# Youngs Moduli (GPa) = 95.21237 89.20189 61.97006
#
# Poissons Ratio (x) = 0.28660 0.30645
# Poissons Ratio (y) = 0.30591 -0.00815
# Poissons Ratio (z) = 0.47084 -0.01173
#
# Static dielectric constant tensor:
#      x y z
#    x 3.894820 0.098030 0.070390 
#    y 0.098030 4.125120 0.143310 
#    z 0.070390 0.143310 3.969170 
# 
# 
# High freq. dielectric constant tensor:
#      x y z
#    x 1.849500 -0.003270 0.011410 
#    y -0.003270 1.859110 0.010160 
#    z 0.011410 0.010160 1.840510 
# 
# From -- ./inp_files/153268.got.cif
#   From: 2010.06.25/outbox.cif.g09.slc.cpg/sg2_77_cif.got.tgz:153268.got - 2010.06.27 13:26:56.
