data_PCOD8032093
_publ_section_title
;
Structure prediction by ZEFSAII (Michael W. Deem and Ramdas Pophale) SiO2 
 PCOD8032093
Probable space group: P -1
;
_chemical_formula_sum "Si O2"
_cell_formula_units_Z 14
_cell_length_a 24.653233
_cell_length_b 9.519455
_cell_length_c 8.822621
_cell_angle_alpha 131.618789
_cell_angle_beta 40.495263
_cell_angle_gamma 153.264171
_cell_volume 604.098873
_symmetry_space_group_name_H-M "P -1"
_symmetry_group_IT_number 2
_symmetry_cell_setting 'triclinic'
loop_
_space_group_symop_operation_xyz
x,y,z
-x,-y,-z
loop_
_atom_site_type_symbol
_atom_site_label
_atom_site_fract_x
_atom_site_fract_y
_atom_site_fract_z
Si Si1 0.398698 0.557753 0.350370
Si Si2 0.122378 0.568766 0.296490
Si Si3 0.111478 0.338490 0.436148
Si Si4 0.247156 0.901706 0.719329
Si Si5 0.306551 0.780539 0.795697
Si Si6 0.397999 0.219054 0.329914
Si Si7 0.310074 0.372301 0.081964
O O1 0.308117 0.559966 0.617646
O O2 0.425280 0.462978 0.361956
O O3 0.314410 0.324245 0.217772
O O4 0.548030 0.891264 0.202792
O O5 0.070398 0.302345 0.321803
O O6 0.000000 0.500000 0.500000
O O7 0.260644 0.886916 0.311270
O O8 0.167754 0.583901 0.043547
O O9 0.121948 0.561632 0.659060
O O10 0.256278 0.486367 0.247970
O O11 0.000000 0.000000 0.500000
O O12 0.306724 0.867497 0.691397
O O13 0.368705 0.181519 0.544848
O O14 0.208809 0.031925 0.975698
O O15 0.535243 0.341436 0.108514
#
# Coordination Sequence:
#
# PCOD8032093 Si02
#       7
#     2   2   2   2   2   2   2
#     4  11  23  40  73 110 146 187 233 300 355 426
#     4  11  27  48  72 103 144 193 240 295 355 435
#     4  11  29  50  70 104 141 190 242 295 362 423
#     4  11  25  44  71 105 140 188 236 299 350 431
#     4  11  23  43  70 108 147 186 242 289 361 425
#     4  11  24  43  70 110 141 187 243 289 365 415
#     4  12  23  44  77 101 149 186 233 301 357 422
#
# _framework density 23.175014000000001
#
# number of rings (size 3 to 8) (size 9 to 14) (size 15 to 20)
#    0.000    0.857    4.286    1.714    6.000    4.000 
#    2.571    1.429    0.000    0.000    0.000    0.000 
#    0.000    0.000    0.000    0.000    0.000    0.000 
#
# Total GULP energy -173522.511125 kJ/mol
# GULP energy per Si atom -12394.465080 kJ/mol
# Density = 2.312227 g / cm^3
# Si number density = 23.175014 Si / 1000 Ang^3
#
#
#
# Elastic Constant Matrix: (Units=GPa)
#
#
# Indices 1 2 3 4 5 6 
#
# 1 132.1374 23.5041 65.7184 -15.7441 12.8484 -17.9954
# 2 23.5041 105.3394 53.5064 -2.2452 11.1894 -12.1310
# 3 65.7184 53.5064 137.7623 -12.7542 6.3385 -9.0100
# 4 -15.7441 -2.2452 -12.7542 33.0027 1.4992 3.8723
# 5 12.8484 11.1894 6.3385 1.4992 39.0458 -7.6469
# 6 -17.9954 -12.1310 -9.0100 3.8723 -7.6469 28.5760
#
#
#
# Elastic Compliance Matrix: (Units=1/GPa)
#
#
# Indices 1 2 3 4 5 6 
#
# 1 0.011100 0.000895 -0.004948 0.002985 -0.002281 0.004795
# 2 0.000895 0.012504 -0.005022 -0.001008 -0.002277 0.003815
# 3 -0.004948 -0.005022 0.011606 0.001940 0.000788 -0.001641
# 4 0.002985 -0.001008 0.001940 0.032909 -0.002893 -0.003170
# 5 -0.002281 -0.002277 0.000788 -0.002893 0.028126 0.005764
# 6 0.004795 0.003815 -0.001641 -0.003170 0.005764 0.041088
#
#
# Mechanical properties :
#
#
# Convention : Reuss Voigt Hill
#
# Bulk Modulus (GPa) = 58.61951 73.41076 66.01514
# Shear Modulus (GPa) = 31.02294 35.62558 33.32426
#
# Velocity S-wave (km/s) = 3.66271 3.92502 3.79613
# Velocity P-wave (km/s) = 6.57544 7.23094 6.91097
#
# Compressibility (1/GPa) = 0.01705917
#
# Stress axis : x y z
#
# Youngs Moduli (GPa) = 90.09028 79.97221 86.16320
#
# Poissons Ratio (x) = -0.07154 0.42631
# Poissons Ratio (y) = -0.08059 0.43275
# Poissons Ratio (z) = 0.44574 0.40165
#
# Static dielectric constant tensor:
#      x y z
#    x 5.288220 -0.534870 0.198370 
#    y -0.534870 4.302810 0.037030 
#    z 0.198370 0.037030 4.385230 
# 
# 
# High freq. dielectric constant tensor:
#      x y z
#    x 1.925110 -0.007810 0.010080 
#    y -0.007810 1.907990 0.003660 
#    z 0.010080 0.003660 1.915700 
# 
# From -- ./inp_files/306816.got.cif
#   From: 2010.06.25/outbox.cif.g09.slc.cpg/sg2_154_cif.got.tgz:306816.got - 2010.06.27 13:26:56.
