data_PCOD8032035
_publ_section_title
;
Structure prediction by ZEFSAII (Michael W. Deem and Ramdas Pophale) SiO2 
 PCOD8032035
Probable space group: P -1
;
_chemical_formula_sum "Si O2"
_cell_formula_units_Z 14
_cell_length_a 11.015774
_cell_length_b 9.024755
_cell_length_c 14.164156
_cell_angle_alpha 62.576642
_cell_angle_beta 31.050337
_cell_angle_gamma 53.636509
_cell_volume 581.048025
_symmetry_space_group_name_H-M "P -1"
_symmetry_group_IT_number 2
_symmetry_cell_setting 'triclinic'
loop_
_space_group_symop_operation_xyz
x,y,z
-x,-y,-z
loop_
_atom_site_type_symbol
_atom_site_label
_atom_site_fract_x
_atom_site_fract_y
_atom_site_fract_z
Si Si1 0.103085 0.731299 0.736911
Si Si2 0.608951 0.664234 0.066383
Si Si3 0.388803 0.546565 0.416806
Si Si4 0.803094 0.140997 0.865918
Si Si5 0.609528 0.037181 0.317934
Si Si6 0.121728 0.346188 0.540257
Si Si7 0.859400 0.239455 0.996622
O O1 0.203032 0.690213 0.575151
O O2 0.321808 0.582827 0.700940
O O3 0.039800 0.943685 0.739426
O O4 0.831296 0.719013 0.939466
O O5 0.412615 0.673759 0.278760
O O6 0.451410 0.806145 0.045500
O O7 0.741966 0.456783 0.999731
O O8 0.252707 0.416170 0.514764
O O9 0.895440 0.303555 0.745760
O O10 0.751648 0.151140 0.009625
O O11 0.346650 0.158406 0.398089
O O12 0.766173 0.170663 0.174404
O O13 0.500000 0.000000 0.500000
O O14 0.821376 0.840946 0.193280
O O15 0.000000 0.500000 0.500000
#
# Coordination Sequence:
#
# PCOD8032035 Si02
#       7
#     2   2   2   2   2   2   2
#     4  11  28  46  71 103 147 197 236 289 350 439
#     4  12  25  48  72 102 148 189 239 291 356 430
#     4  11  25  49  72 101 144 194 243 284 361 424
#     4  12  25  46  71 110 146 183 241 298 362 418
#     4  11  23  40  67 104 139 176 229 293 352 411
#     4  12  23  45  74 105 144 181 236 308 354 413
#     4  11  24  42  74 106 138 182 241 297 354 416
#
# _framework density 24.094394000000001
#
# number of rings (size 3 to 8) (size 9 to 14) (size 15 to 20)
#    0.000    0.571    4.286    3.000    2.000    2.857 
#    2.571    0.000    0.000    0.000    0.000    0.000 
#    0.000    0.000    0.000    0.000    0.000    0.000 
#
# Total GULP energy -173469.885277 kJ/mol
# GULP energy per Si atom -12390.706091 kJ/mol
# Density = 2.403955 g / cm^3
# Si number density = 24.094394 Si / 1000 Ang^3
#
#
#
# Elastic Constant Matrix: (Units=GPa)
#
#
# Indices 1 2 3 4 5 6 
#
# 1 95.9848 28.1198 19.6519 -0.3632 -6.0283 -8.1237
# 2 28.1198 103.3205 32.6214 8.4616 11.7812 -16.3627
# 3 19.6519 32.6214 118.0073 -7.9448 3.9369 -1.5063
# 4 -0.3632 8.4616 -7.9448 41.2509 5.1567 -10.2954
# 5 -6.0283 11.7812 3.9369 5.1567 37.5906 4.3515
# 6 -8.1237 -16.3627 -1.5063 -10.2954 4.3515 45.9754
#
#
#
# Elastic Compliance Matrix: (Units=1/GPa)
#
#
# Indices 1 2 3 4 5 6 
#
# 1 0.011804 -0.003072 -0.001179 0.000341 0.002844 0.000761
# 2 -0.003072 0.012692 -0.002912 -0.001664 -0.004391 0.003922
# 3 -0.001179 -0.002912 0.009655 0.002438 -0.000584 -0.000327
# 4 0.000341 -0.001664 0.002438 0.027063 -0.004086 0.005995
# 5 0.002844 -0.004391 -0.000584 -0.004086 0.029612 -0.004797
# 6 0.000761 0.003922 -0.000327 0.005995 -0.004797 0.025067
#
#
# Mechanical properties :
#
#
# Convention : Reuss Voigt Hill
#
# Bulk Modulus (GPa) = 50.44234 53.12210 51.78222
# Shear Modulus (GPa) = 36.54235 40.75802 38.65018
#
# Velocity S-wave (km/s) = 3.89862 4.11737 4.00949
# Velocity P-wave (km/s) = 6.42234 6.68573 6.55536
#
# Compressibility (1/GPa) = 0.01982462
#
# Stress axis : x y z
#
# Youngs Moduli (GPa) = 84.71693 78.78707 103.57465
#
# Poissons Ratio (x) = 0.24205 0.12208
# Poissons Ratio (y) = 0.26027 0.30166
# Poissons Ratio (z) = 0.09985 0.22946
#
# Static dielectric constant tensor:
#      x y z
#    x 3.856820 0.164370 -1.015120 
#    y 0.164370 4.355520 0.689190 
#    z -1.015120 0.689190 3.130890 
# 
# 
# High freq. dielectric constant tensor:
#      x y z
#    x 1.939540 -0.022400 -0.001950 
#    y -0.022400 1.964760 0.002410 
#    z -0.001950 0.002410 1.971380 
# 
# From -- ./inp_files/515158.got.cif
#   From: 2010.06.25/outbox.cif.g09.slc.cpg/sg2_258_cif.got.tgz:515158.got - 2010.06.27 13:26:56.
