data_PCOD8032324
_publ_section_title
;
Structure prediction by ZEFSAII (Michael W. Deem and Ramdas Pophale) SiO2 
 PCOD8032324
Probable space group: P -1
;
_chemical_formula_sum "Si O2"
_cell_formula_units_Z 16
_cell_length_a 14.818734
_cell_length_b 15.224950
_cell_length_c 8.371960
_cell_angle_alpha 139.129823
_cell_angle_beta 115.112506
_cell_angle_gamma 41.190785
_cell_volume 766.731771
_symmetry_space_group_name_H-M "P -1"
_symmetry_group_IT_number 2
_symmetry_cell_setting 'triclinic'
loop_
_space_group_symop_operation_xyz
x,y,z
-x,-y,-z
loop_
_atom_site_type_symbol
_atom_site_label
_atom_site_fract_x
_atom_site_fract_y
_atom_site_fract_z
Si Si1 0.212032 0.768876 0.283558
Si Si2 0.342192 0.228305 0.527042
Si Si3 0.843518 0.475481 0.694374
Si Si4 0.463201 0.202788 0.909845
Si Si5 0.267907 0.557113 0.726915
Si Si6 0.016181 0.527698 0.730996
Si Si7 0.490594 0.548097 0.740669
Si Si8 0.981711 0.811002 0.292000
O O1 0.366249 0.603715 0.254002
O O2 0.099068 0.815360 0.385497
O O3 0.187922 0.706322 0.018702
O O4 0.175520 0.962662 0.495667
O O5 0.431031 0.201193 0.701615
O O6 0.333946 0.348900 0.547444
O O7 0.186538 0.335088 0.630048
O O8 0.430236 0.013186 0.228554
O O9 0.838943 0.371662 0.403433
O O10 0.974553 0.314982 0.692540
O O11 0.895951 0.567391 0.796801
O O12 0.684175 0.639476 0.880118
O O13 0.553626 0.252416 0.030692
O O14 0.382037 0.556185 0.758020
O O15 0.000000 0.500000 0.500000
O O16 0.982635 0.716795 0.004510
O O17 0.500000 0.500000 0.500000
#
# Coordination Sequence:
#
# PCOD8032324 Si02
#       8
#     2   2   2   2   2   2   2   2
#     4  11  23  42  66  95 131 169 216 268 327 392
#     4  11  24  44  68  97 132 171 220 274 328 388
#     4  12  23  43  70  93 133 174 218 270 329 387
#     4  11  24  44  68  97 132 171 220 274 328 388
#     4  12  23  43  70  93 133 174 218 270 329 387
#     4  12  23  43  68  94 133 173 216 269 329 389
#     4  12  23  43  68  94 133 173 216 269 329 389
#     4  11  23  42  66  95 131 169 216 268 327 392
#
# _framework density 20.867792999999999
#
# number of rings (size 3 to 8) (size 9 to 14) (size 15 to 20)
#    0.000    0.500    7.500    0.750    0.000    4.000 
#    0.000    0.000    0.000    0.000    0.000    0.000 
#    0.000    0.000    0.000    0.000    0.000    0.000 
#
# Total GULP energy -198262.084666 kJ/mol
# GULP energy per Si atom -12391.380292 kJ/mol
# Density = 2.082030 g / cm^3
# Si number density = 20.867793 Si / 1000 Ang^3
#
#
#
# Elastic Constant Matrix: (Units=GPa)
#
#
# Indices 1 2 3 4 5 6 
#
# 1 123.4973 12.4628 18.2200 13.0813 21.6719 9.0557
# 2 12.4628 59.8565 69.0306 0.8701 11.2417 15.2268
# 3 18.2200 69.0306 143.4021 4.1954 18.6772 8.6151
# 4 13.0813 0.8701 4.1954 38.7861 2.3332 3.7582
# 5 21.6719 11.2417 18.6772 2.3332 28.8577 -6.8503
# 6 9.0557 15.2268 8.6151 3.7582 -6.8503 25.1020
#
#
#
# Elastic Compliance Matrix: (Units=1/GPa)
#
#
# Indices 1 2 3 4 5 6 
#
# 1 0.010471 0.002350 -0.000664 -0.002204 -0.009916 -0.007351
# 2 0.002350 0.050813 -0.021159 0.004089 -0.015114 -0.029146
# 3 -0.000664 -0.021159 0.016881 -0.001837 -0.000259 0.007485
# 4 -0.002204 0.004089 -0.001837 0.027333 -0.002332 -0.005784
# 5 -0.009916 -0.015114 -0.000259 -0.002332 0.055039 0.028204
# 6 -0.007351 -0.029146 0.007485 -0.005784 0.028204 0.066163
#
#
# Mechanical properties :
#
#
# Convention : Reuss Voigt Hill
#
# Bulk Modulus (GPa) = 25.49787 58.46475 41.98131
# Shear Modulus (GPa) = 17.93926 33.68532 25.81229
#
# Velocity S-wave (km/s) = 2.93518 4.02210 3.52084
# Velocity P-wave (km/s) = 4.87159 7.04608 6.05721
#
# Compressibility (1/GPa) = 0.03921897
#
# Stress axis : x y z
#
# Youngs Moduli (GPa) = 95.50440 19.68009 59.23829
#
# Poissons Ratio (x) = -0.04625 0.03934
# Poissons Ratio (y) = -0.22445 1.25341
# Poissons Ratio (z) = 0.06342 0.41641
#
# Static dielectric constant tensor:
#      x y z
#    x 3.388050 0.145040 0.135650 
#    y 0.145040 3.978050 0.008890 
#    z 0.135650 0.008890 4.135460 
# 
# 
# High freq. dielectric constant tensor:
#      x y z
#    x 1.824110 0.005980 0.013970 
#    y 0.005980 1.810660 -0.014070 
#    z 0.013970 -0.014070 1.825230 
# 
# From -- ./inp_files/314264.got.cif
#   From: 2010.06.25/outbox.cif.g09.slc.cpg/sg2_158_cif.got.tgz:314264.got - 2010.06.27 13:26:56.
