data_PCOD8032961
_publ_section_title
;
Structure prediction by ZEFSAII (Michael W. Deem and Ramdas Pophale) SiO2 
 PCOD8032961
Probable space group: P -1
;
_chemical_formula_sum "Si O2"
_cell_formula_units_Z 16
_cell_length_a 11.733434
_cell_length_b 13.970261
_cell_length_c 9.487122
_cell_angle_alpha 89.787864
_cell_angle_beta 102.133442
_cell_angle_gamma 31.195241
_cell_volume 733.967231
_symmetry_space_group_name_H-M "P -1"
_symmetry_group_IT_number 2
_symmetry_cell_setting 'triclinic'
loop_
_space_group_symop_operation_xyz
x,y,z
-x,-y,-z
loop_
_atom_site_type_symbol
_atom_site_label
_atom_site_fract_x
_atom_site_fract_y
_atom_site_fract_z
Si Si1 0.476111 0.283585 0.601628
Si Si2 0.759114 0.228308 0.275044
Si Si3 0.139098 0.510402 0.761717
Si Si4 0.490658 0.246273 0.099252
Si Si5 0.172125 0.449343 0.265840
Si Si6 0.025774 0.205326 0.834649
Si Si7 0.221731 0.764613 0.407285
Si Si8 0.950979 0.836248 0.827558
O O1 0.231657 0.461132 0.628137
O O2 0.400073 0.299907 0.428786
O O3 0.570474 0.323671 0.613249
O O4 0.686247 0.065348 0.720084
O O5 0.537024 0.323007 0.161163
O O6 0.699649 0.317991 0.411384
O O7 0.831526 0.257454 0.181659
O O8 0.977466 0.998555 0.348956
O O9 0.989249 0.521276 0.724291
O O10 0.965581 0.719491 0.768881
O O11 0.384020 0.327609 0.915570
O O12 0.289076 0.342897 0.145290
O O13 0.722116 0.012097 0.161542
O O14 0.996176 0.667094 0.204629
O O15 0.810007 0.307519 0.694268
O O16 0.007806 0.193678 0.994683
#
# Coordination Sequence:
#
# PCOD8032961 Si02
#       8
#     2   2   2   2   2   2   2   2
#     4  11  25  46  68  97 135 171 215 277 332 382
#     4   9  20  39  67 100 132 167 213 268 332 398
#     4  12  27  44  67  97 133 176 226 272 317 388
#     4  11  23  44  69  96 134 173 213 275 331 377
#     4  12  27  46  66  97 133 174 232 266 316 397
#     4  11  25  42  70 101 130 175 217 267 333 394
#     4   9  20  40  67  98 133 168 213 266 333 398
#     4  11  25  43  68 101 134 169 219 270 332 390
#
# _framework density 21.799339
#
# number of rings (size 3 to 8) (size 9 to 14) (size 15 to 20)
#    0.000    1.250    3.750    0.750    5.250    5.500 
#    0.000    0.000    0.000    0.000    0.000    0.000 
#    0.000    0.000    0.000    0.000    0.000    0.000 
#
# Total GULP energy -198451.501865 kJ/mol
# GULP energy per Si atom -12403.218867 kJ/mol
# Density = 2.174972 g / cm^3
# Si number density = 21.799339 Si / 1000 Ang^3
#
#
#
# Elastic Constant Matrix: (Units=GPa)
#
#
# Indices 1 2 3 4 5 6 
#
# 1 73.2008 51.0122 -18.1799 29.3951 13.1477 -28.3248
# 2 51.0122 97.7957 29.0660 6.0549 -8.5245 10.9139
# 3 -18.1799 29.0660 42.2276 19.0813 7.6746 -16.3759
# 4 29.3951 6.0549 19.0813 17.0104 -18.3299 16.2782
# 5 13.1477 -8.5245 7.6746 -18.3299 20.8717 13.8753
# 6 -28.3248 10.9139 -16.3759 16.2782 13.8753 9.4571
#
#
#
# Elastic Compliance Matrix: (Units=1/GPa)
#
#
# Indices 1 2 3 4 5 6 
#
# 1 0.006869 -0.001584 -0.003397 0.007363 0.007472 -0.007115
# 2 -0.001584 0.011096 -0.001342 -0.009575 -0.005285 0.004361
# 3 -0.003397 -0.001342 0.014743 0.007555 0.008655 -0.008799
# 4 0.007363 -0.009575 0.007555 0.020732 -0.004116 0.016541
# 5 0.007472 -0.005285 0.008655 -0.004116 0.026191 0.012122
# 6 -0.007115 0.004361 -0.008799 0.016541 0.012122 0.017905
#
#
# Mechanical properties :
#
#
# Convention : Reuss Voigt Hill
#
# Bulk Modulus (GPa) = 49.84108 37.44674 43.64391
# Shear Modulus (GPa) = 42.78282 19.55622 31.16952
#
# Velocity S-wave (km/s) = 4.43490 2.99841 3.78542
# Velocity P-wave (km/s) = 7.00983 5.40394 6.25860
#
# Compressibility (1/GPa) = 0.02006377
#
# Stress axis : x y z
#
# Youngs Moduli (GPa) = 145.57317 90.12240 67.82777
#
# Poissons Ratio (x) = 0.14278 0.23038
# Poissons Ratio (y) = 0.23063 0.09099
# Poissons Ratio (z) = 0.49445 0.12090
#
# Static dielectric constant tensor:
#      x y z
#    x 3.870760 0.010550 0.019510 
#    y 0.010550 3.834970 0.062850 
#    z 0.019510 0.062850 4.125110 
# 
# 
# High freq. dielectric constant tensor:
#      x y z
#    x 1.851880 -0.003280 -0.002510 
#    y -0.003280 1.865510 0.004150 
#    z -0.002510 0.004150 1.868720 
# 
# From -- ./inp_files/226560.got.cif
#   From: 2010.06.25/outbox.cif.g09.slc.cpg/sg2_114_cif.got.tgz:226560.got - 2010.06.27 13:26:56.
