data_PCOD8032927
_publ_section_title
;
Structure prediction by ZEFSAII (Michael W. Deem and Ramdas Pophale) SiO2 
 PCOD8032927
Probable space group: P -1
;
_chemical_formula_sum "Si O2"
_cell_formula_units_Z 14
_cell_length_a 6.550550
_cell_length_b 14.305190
_cell_length_c 14.579001
_cell_angle_alpha 151.230412
_cell_angle_beta 106.460628
_cell_angle_gamma 86.041319
_cell_volume 581.018723
_symmetry_space_group_name_H-M "P -1"
_symmetry_group_IT_number 2
_symmetry_cell_setting 'triclinic'
loop_
_space_group_symop_operation_xyz
x,y,z
-x,-y,-z
loop_
_atom_site_type_symbol
_atom_site_label
_atom_site_fract_x
_atom_site_fract_y
_atom_site_fract_z
Si Si1 0.300688 0.610565 0.285483
Si Si2 0.742648 0.834131 0.806694
Si Si3 0.105888 0.803051 0.153312
Si Si4 0.813579 0.009233 0.368839
Si Si5 0.373189 0.852156 0.052050
Si Si6 0.479924 0.274764 0.770062
Si Si7 0.559006 0.460985 0.334759
O O1 0.509791 0.731815 0.345131
O O2 0.412728 0.571671 0.358591
O O3 0.152302 0.748793 0.410070
O O4 0.128145 0.400208 0.034082
O O5 0.741976 0.639409 0.575719
O O6 0.619043 0.736942 0.802151
O O7 0.595420 0.953239 0.843221
O O8 0.000000 0.000000 0.000000
O O9 0.164933 0.826550 0.073216
O O10 0.310113 0.785170 0.222015
O O11 0.048934 0.000672 0.351340
O O12 0.605710 0.888510 0.168208
O O13 0.755499 0.897746 0.366306
O O14 0.305983 0.634462 0.799362
O O15 0.500000 0.500000 0.000000
#
# Coordination Sequence:
#
# PCOD8032927 Si02
#       7
#     2   2   2   2   2   2   2
#     4  12  22  43  68  99 136 182 237 280 348 419
#     4  11  25  45  74 107 139 180 238 292 361 429
#     4  11  24  43  67 102 137 185 233 277 348 415
#     4  11  24  42  69  98 139 184 224 286 341 411
#     4  11  23  46  69 101 143 178 228 293 346 416
#     4  11  23  44  68  96 146 181 224 293 342 404
#     4  11  24  46  73 103 142 187 230 296 359 413
#
# _framework density 24.095609
#
# number of rings (size 3 to 8) (size 9 to 14) (size 15 to 20)
#    0.000    0.857    4.286    3.000    0.000    2.286 
#    5.143    0.000    0.000    0.000    0.000    0.000 
#    0.000    0.000    0.000    0.000    0.000    0.000 
#
# Total GULP energy -173663.478657 kJ/mol
# GULP energy per Si atom -12404.534190 kJ/mol
# Density = 2.404077 g / cm^3
# Si number density = 24.095609 Si / 1000 Ang^3
#
#
#
# Elastic Constant Matrix: (Units=GPa)
#
#
# Indices 1 2 3 4 5 6 
#
# 1 127.4760 47.9392 33.4302 8.8623 -33.7363 11.6189
# 2 47.9392 144.8344 21.8652 18.1439 -20.1445 17.1024
# 3 33.4302 21.8652 91.3065 5.7274 -24.6004 6.3255
# 4 8.8623 18.1439 5.7274 32.5207 -1.6386 -11.9531
# 5 -33.7363 -20.1445 -24.6004 -1.6386 58.5085 7.0942
# 6 11.6189 17.1024 6.3255 -11.9531 7.0942 22.3784
#
#
#
# Elastic Compliance Matrix: (Units=1/GPa)
#
#
# Indices 1 2 3 4 5 6 
#
# 1 0.011715 -0.000613 -0.001020 -0.006357 0.007274 -0.011026
# 2 -0.000613 0.011268 0.000983 -0.012214 0.005644 -0.016884
# 3 -0.001020 0.000983 0.013864 -0.005807 0.006547 -0.009317
# 4 -0.006357 -0.012214 -0.005807 0.057910 -0.014738 0.049880
# 5 0.007274 0.005644 0.006547 -0.014738 0.028837 -0.026954
# 6 -0.011026 -0.016884 -0.009317 0.049880 -0.026954 0.101135
#
#
# Mechanical properties :
#
#
# Convention : Reuss Voigt Hill
#
# Bulk Modulus (GPa) = 28.13326 63.34290 45.73808
# Shear Modulus (GPa) = 21.01925 40.04034 30.52979
#
# Velocity S-wave (km/s) = 2.95672 4.08085 3.56339
# Velocity P-wave (km/s) = 4.83294 6.96776 5.99612
#
# Compressibility (1/GPa) = 0.03554511
#
# Stress axis : x y z
#
# Youngs Moduli (GPa) = 85.36283 88.74802 72.13079
#
# Poissons Ratio (x) = 0.05445 0.07356
# Poissons Ratio (y) = 0.05237 -0.07089
# Poissons Ratio (z) = 0.08706 -0.08722
#
# Static dielectric constant tensor:
#      x y z
#    x 4.194960 0.153910 -0.243530 
#    y 0.153910 4.714450 0.104420 
#    z -0.243530 0.104420 4.387450 
# 
# 
# High freq. dielectric constant tensor:
#      x y z
#    x 1.945770 0.000270 -0.018940 
#    y 0.000270 1.969890 0.002260 
#    z -0.018940 0.002260 1.967380 
# 
# From -- ./inp_files/484093.got.cif
#   From: 2010.06.25/outbox.cif.g09.slc.cpg/sg2_243_cif.got.tgz:484093.got - 2010.06.27 13:26:56.
