data_PCOD8032269
_publ_section_title
;
Structure prediction by ZEFSAII (Michael W. Deem and Ramdas Pophale) SiO2 
 PCOD8032269
Probable space group: P -1
;
_chemical_formula_sum "Si O2"
_cell_formula_units_Z 16
_cell_length_a 13.986303
_cell_length_b 21.892457
_cell_length_c 13.506496
_cell_angle_alpha 150.148072
_cell_angle_beta 30.019959
_cell_angle_gamma 159.799609
_cell_volume 677.665207
_symmetry_space_group_name_H-M "P -1"
_symmetry_group_IT_number 2
_symmetry_cell_setting 'triclinic'
loop_
_space_group_symop_operation_xyz
x,y,z
-x,-y,-z
loop_
_atom_site_type_symbol
_atom_site_label
_atom_site_fract_x
_atom_site_fract_y
_atom_site_fract_z
Si Si1 0.296216 0.337502 0.081861
Si Si2 0.365891 0.702404 0.370953
Si Si3 0.741821 0.739698 0.778217
Si Si4 0.729321 0.408125 0.484118
Si Si5 0.590709 0.168449 0.102017
Si Si6 0.079894 0.412259 0.864301
Si Si7 0.223554 0.876473 0.424007
Si Si8 0.719138 0.973476 0.028561
O O1 0.255844 0.233880 0.070184
O O2 0.408736 0.524365 0.279766
O O3 0.530929 0.387402 0.869988
O O4 0.984493 0.199121 0.110946
O O5 0.312215 0.694118 0.524342
O O6 0.075217 0.587393 0.406722
O O7 0.619630 0.917673 0.416965
O O8 0.419654 0.553070 0.767769
O O9 0.849850 0.908399 0.855680
O O10 0.983992 0.750647 0.550795
O O11 0.557181 0.263170 0.343695
O O12 0.393139 0.092359 0.075304
O O13 0.927517 0.335869 0.001301
O O14 0.500000 0.000000 0.000000
O O15 0.961322 0.233030 0.663949
O O16 0.000000 0.500000 0.000000
O O17 0.471805 0.890915 0.215525
#
# Coordination Sequence:
#
# PCOD8032269 Si02
#       8
#     2   2   2   2   2   2   2   2
#     4  12  26  44  70 107 141 186 244 291 355 427
#     4  11  24  46  71 101 143 187 239 301 355 422
#     4  12  25  43  71 104 144 189 241 285 362 430
#     4  11  25  45  75 101 139 190 243 292 358 423
#     4  11  25  47  78 105 141 194 237 287 368 429
#     4  11  23  44  71 104 148 186 233 300 354 415
#     4  11  23  41  73  99 143 190 230 289 367 413
#     4  11  24  47  70 104 150 183 234 306 352 420
#
# _framework density 23.610481
#
# number of rings (size 3 to 8) (size 9 to 14) (size 15 to 20)
#    0.000    0.750    5.000    3.375    3.500    2.500 
#    2.250    0.625    0.000    0.000    0.000    0.000 
#    0.000    0.000    0.000    0.000    0.000    0.000 
#
# Total GULP energy -198322.606053 kJ/mol
# GULP energy per Si atom -12395.162878 kJ/mol
# Density = 2.355674 g / cm^3
# Si number density = 23.610481 Si / 1000 Ang^3
#
#
#
# Elastic Constant Matrix: (Units=GPa)
#
#
# Indices 1 2 3 4 5 6 
#
# 1 92.9934 27.2617 32.3581 5.4030 7.3737 2.9820
# 2 27.2617 101.9959 41.8517 -2.0186 5.6679 7.5642
# 3 32.3581 41.8517 126.9750 5.0542 18.0562 13.3029
# 4 5.4030 -2.0186 5.0542 48.0898 2.6369 3.4879
# 5 7.3737 5.6679 18.0562 2.6369 30.2678 1.1718
# 6 2.9820 7.5642 13.3029 3.4879 1.1718 35.5189
#
#
#
# Elastic Compliance Matrix: (Units=1/GPa)
#
#
# Indices 1 2 3 4 5 6 
#
# 1 0.012370 -0.002399 -0.002194 -0.001229 -0.001166 0.000453
# 2 -0.002399 0.011884 -0.003259 0.001187 0.000247 -0.001234
# 3 -0.002194 -0.003259 0.010537 -0.000517 -0.004986 -0.002853
# 4 -0.001229 0.001187 -0.000517 0.021258 -0.001389 -0.001997
# 5 -0.001166 0.000247 -0.004986 -0.001389 0.036338 0.000850
# 6 0.000453 -0.001234 -0.002853 -0.001997 0.000850 0.029615
#
#
# Mechanical properties :
#
#
# Convention : Reuss Voigt Hill
#
# Bulk Modulus (GPa) = 52.39286 58.32303 55.35794
# Shear Modulus (GPa) = 34.70567 37.47482 36.09024
#
# Velocity S-wave (km/s) = 3.83812 3.98830 3.91393
# Velocity P-wave (km/s) = 6.47149 6.77972 6.62740
#
# Compressibility (1/GPa) = 0.01908657
#
# Stress axis : x y z
#
# Youngs Moduli (GPa) = 80.84368 84.14728 94.90005
#
# Poissons Ratio (x) = 0.20186 0.20825
# Poissons Ratio (y) = 0.19394 0.30927
# Poissons Ratio (z) = 0.17740 0.27422
#
# Static dielectric constant tensor:
#      x y z
#    x 4.052340 0.075970 0.191620 
#    y 0.075970 4.369120 -0.045280 
#    z 0.191620 -0.045280 4.293370 
# 
# 
# High freq. dielectric constant tensor:
#      x y z
#    x 1.916000 0.006580 0.013690 
#    y 0.006580 1.946340 -0.000660 
#    z 0.013690 -0.000660 1.942440 
# 
# From -- ./inp_files/535412.got.cif
#   From: 2010.06.25/outbox.cif.g09.slc.cpg/sg2_268_cif.got.tgz:535412.got - 2010.06.27 13:26:56.
