data_PCOD8032497
_publ_section_title
;
Structure prediction by ZEFSAII (Michael W. Deem and Ramdas Pophale) SiO2 
 PCOD8032497
Probable space group: P -1
;
_chemical_formula_sum "Si O2"
_cell_formula_units_Z 16
_cell_length_a 11.112950
_cell_length_b 8.896295
_cell_length_c 8.898854
_cell_angle_alpha 57.118052
_cell_angle_beta 102.999190
_cell_angle_gamma 110.634142
_cell_volume 690.799921
_symmetry_space_group_name_H-M "P -1"
_symmetry_group_IT_number 2
_symmetry_cell_setting 'triclinic'
loop_
_space_group_symop_operation_xyz
x,y,z
-x,-y,-z
loop_
_atom_site_type_symbol
_atom_site_label
_atom_site_fract_x
_atom_site_fract_y
_atom_site_fract_z
Si Si1 0.694447 0.580181 0.051613
Si Si2 0.097108 0.617377 0.840505
Si Si3 0.662500 0.864943 0.454269
Si Si4 0.854728 0.007832 0.213897
Si Si5 0.915288 0.112709 0.547898
Si Si6 0.202218 0.990528 0.132601
Si Si7 0.535090 0.477147 0.779026
Si Si8 0.550228 0.125010 0.804677
O O1 0.819196 0.506426 0.141036
O O2 0.613882 0.548145 0.202605
O O3 0.737371 0.799667 0.902827
O O4 0.609174 0.455516 0.964292
O O5 0.177448 0.798694 0.858010
O O6 0.033269 0.692675 0.635818
O O7 0.000000 0.500000 0.000000
O O8 0.604112 0.677041 0.625787
O O9 0.542414 0.943446 0.329450
O O10 0.732587 0.840491 0.327765
O O11 0.772143 0.004307 0.508772
O O12 0.977564 0.002840 0.356337
O O13 0.876569 0.995967 0.049524
O O14 0.895290 0.140328 0.705456
O O15 0.309395 0.886182 0.189259
O O16 0.550196 0.334590 0.732426
O O17 0.500000 0.000000 0.000000
#
# Coordination Sequence:
#
# PCOD8032497 Si02
#       8
#     2   2   2   2   2   2   2   2
#     4  11  24  41  68 102 141 173 227 281 347 396
#     4  11  25  44  70 100 132 178 231 286 337 407
#     4  11  23  42  72  98 136 181 227 283 334 416
#     4  11  24  48  72  96 139 185 233 278 343 405
#     4  11  26  45  71 102 134 184 233 282 343 402
#     4  12  24  47  69 102 141 183 223 286 341 409
#     4  11  24  42  67 102 139 180 222 281 337 415
#     4  12  24  43  68 103 140 180 223 272 353 405
#
# _framework density 23.161553000000001
#
# number of rings (size 3 to 8) (size 9 to 14) (size 15 to 20)
#    0.000    0.750    3.750    3.750    5.250    0.500 
#    0.000    1.250    0.000    0.000    0.000    0.000 
#    0.000    0.000    0.000    0.000    0.000    0.000 
#
# Total GULP energy -198264.118631 kJ/mol
# GULP energy per Si atom -12391.507414 kJ/mol
# Density = 2.310884 g / cm^3
# Si number density = 23.161553 Si / 1000 Ang^3
#
#
#
# Elastic Constant Matrix: (Units=GPa)
#
#
# Indices 1 2 3 4 5 6 
#
# 1 95.4368 34.4203 60.2776 -22.5103 3.8545 -17.8982
# 2 34.4203 63.0010 28.3198 -1.1158 8.4540 -12.8528
# 3 60.2776 28.3198 159.7386 -3.1566 -17.6412 0.2407
# 4 -22.5103 -1.1158 -3.1566 31.0729 8.9422 8.5032
# 5 3.8545 8.4540 -17.6412 8.9422 52.7256 2.1079
# 6 -17.8982 -12.8528 0.2407 8.5032 2.1079 34.4897
#
#
#
# Elastic Compliance Matrix: (Units=1/GPa)
#
#
# Indices 1 2 3 4 5 6 
#
# 1 0.022894 -0.006674 -0.007831 0.015682 -0.006122 0.005956
# 2 -0.006674 0.021899 -0.001806 -0.005043 -0.003018 0.006138
# 3 -0.007831 -0.001806 0.010018 -0.005176 0.005246 -0.003852
# 4 0.015682 -0.005043 -0.005176 0.046950 -0.009845 -0.004678
# 5 -0.006122 -0.003018 0.005246 -0.009845 0.023456 -0.003344
# 6 0.005956 0.006138 -0.003852 -0.004678 -0.003344 0.035757
#
#
# Mechanical properties :
#
#
# Convention : Reuss Voigt Hill
#
# Bulk Modulus (GPa) = 45.06687 62.69021 53.87854
# Shear Modulus (GPa) = 24.87643 36.66821 30.77232
#
# Velocity S-wave (km/s) = 3.28081 3.98320 3.64894
# Velocity P-wave (km/s) = 5.81820 6.94836 6.40825
#
# Compressibility (1/GPa) = 0.02218925
#
# Stress axis : x y z
#
# Youngs Moduli (GPa) = 43.67868 45.66497 99.81568
#
# Poissons Ratio (x) = 0.30475 0.78168
# Poissons Ratio (y) = 0.29150 0.18029
# Poissons Ratio (z) = 0.34206 0.08248
#
# Static dielectric constant tensor:
#      x y z
#    x 3.980370 0.331170 -0.300070 
#    y 0.331170 3.833390 0.256350 
#    z -0.300070 0.256350 4.556260 
# 
# 
# High freq. dielectric constant tensor:
#      x y z
#    x 1.921350 -0.005530 -0.008250 
#    y -0.005530 1.890120 0.012500 
#    z -0.008250 0.012500 1.936020 
# 
# From -- ./inp_files/242172.got.cif
#   From: 2010.06.25/outbox.cif.g09.slc.cpg/sg2_122_cif.got.tgz:242172.got - 2010.06.27 13:26:56.
