data_PCOD8032762
_publ_section_title
;
Structure prediction by ZEFSAII (Michael W. Deem and Ramdas Pophale) SiO2 
 PCOD8032762
Probable space group: P -1
;
_chemical_formula_sum "Si O2"
_cell_formula_units_Z 16
_cell_length_a 17.838988
_cell_length_b 9.548127
_cell_length_c 11.699387
_cell_angle_alpha 98.725018
_cell_angle_beta 127.376872
_cell_angle_gamma 38.030715
_cell_volume 727.012848
_symmetry_space_group_name_H-M "P -1"
_symmetry_group_IT_number 2
_symmetry_cell_setting 'triclinic'
loop_
_space_group_symop_operation_xyz
x,y,z
-x,-y,-z
loop_
_atom_site_type_symbol
_atom_site_label
_atom_site_fract_x
_atom_site_fract_y
_atom_site_fract_z
Si Si1 0.213112 0.600288 0.751348
Si Si2 0.379308 0.713827 0.523803
Si Si3 0.696529 0.731000 0.811971
Si Si4 0.432946 0.323332 0.137261
Si Si5 0.210538 0.716988 0.533815
Si Si6 0.970387 0.601505 0.775150
Si Si7 0.193559 0.300967 0.717263
Si Si8 0.262937 0.381208 0.412716
O O1 0.322277 0.530916 0.734955
O O2 0.260912 0.370533 0.758809
O O3 0.271644 0.590543 0.926654
O O4 0.973161 0.937041 0.559109
O O5 0.500000 0.500000 0.500000
O O6 0.526487 0.615601 0.721830
O O7 0.348905 0.615466 0.560137
O O8 0.171305 0.072495 0.341661
O O9 0.654764 0.695115 0.881131
O O10 0.748140 0.569980 0.726712
O O11 0.495669 0.087809 0.637161
O O12 0.898419 0.555623 0.006137
O O13 0.625469 0.037435 0.200054
O O14 0.136625 0.668067 0.399584
O O15 0.822799 0.662098 0.648690
O O16 0.146339 0.348254 0.812810
O O17 0.000000 0.500000 0.500000
#
# Coordination Sequence:
#
# PCOD8032762 Si02
#       8
#     2   2   2   2   2   2   2   2
#     4  11  24  41  67  97 138 176 224 283 346 405
#     4  12  26  46  69  98 140 182 227 280 339 411
#     4  11  23  43  71  99 138 174 237 283 331 404
#     4  12  23  43  70 104 132 182 233 278 343 406
#     4  11  24  45  64  97 143 176 220 285 349 395
#     4  12  24  45  70 103 132 183 235 275 340 407
#     4  12  21  40  70  98 135 173 231 282 329 412
#     4  11  25  44  69 100 137 183 227 284 339 401
#
# _framework density 22.007861999999999
#
# number of rings (size 3 to 8) (size 9 to 14) (size 15 to 20)
#    0.000    0.500    5.000    3.000    3.500    2.500 
#    2.250    2.500    0.000    0.000    0.000    0.000 
#    0.000    0.000    0.000    0.000    0.000    0.000 
#
# Total GULP energy -198328.534282 kJ/mol
# GULP energy per Si atom -12395.533393 kJ/mol
# Density = 2.195777 g / cm^3
# Si number density = 22.007862 Si / 1000 Ang^3
#
#
#
# Elastic Constant Matrix: (Units=GPa)
#
#
# Indices 1 2 3 4 5 6 
#
# 1 106.6944 20.1795 27.1304 3.2482 -11.0560 -17.2351
# 2 20.1795 87.3904 12.3339 20.4597 -3.8903 -11.6960
# 3 27.1304 12.3339 118.8266 25.2899 -6.9068 7.5505
# 4 3.2482 20.4597 25.2899 27.0141 -2.2839 -1.1843
# 5 -11.0560 -3.8903 -6.9068 -2.2839 29.5757 12.5861
# 6 -17.2351 -11.6960 7.5505 -1.1843 12.5861 35.6346
#
#
#
# Elastic Compliance Matrix: (Units=1/GPa)
#
#
# Indices 1 2 3 4 5 6 
#
# 1 0.011569 -0.002358 -0.003512 0.004020 0.001270 0.005251
# 2 -0.002358 0.015109 0.001310 -0.012320 -0.001026 0.003494
# 3 -0.003512 0.001310 0.012127 -0.011900 0.003030 -0.005304
# 4 0.004020 -0.012320 -0.011900 0.057150 0.000622 0.002102
# 5 0.001270 -0.001026 0.003030 0.000622 0.041254 -0.014914
# 6 0.005251 0.003494 -0.005304 0.002102 -0.014914 0.038210
#
#
# Mechanical properties :
#
#
# Convention : Reuss Voigt Hill
#
# Bulk Modulus (GPa) = 33.68578 48.02213 40.85395
# Shear Modulus (GPa) = 25.71579 35.32937 30.52258
#
# Velocity S-wave (km/s) = 3.42201 4.01097 3.72814
# Velocity P-wave (km/s) = 5.56355 6.58167 6.09391
#
# Compressibility (1/GPa) = 0.02968612
#
# Stress axis : x y z
#
# Youngs Moduli (GPa) = 86.43809 66.18760 82.45911
#
# Poissons Ratio (x) = 0.15605 0.28960
# Poissons Ratio (y) = 0.20379 -0.10805
# Poissons Ratio (z) = 0.30358 -0.08673
#
# Static dielectric constant tensor:
#      x y z
#    x 4.139640 -0.090500 -0.244080 
#    y -0.090500 3.879220 0.311120 
#    z -0.244080 0.311120 4.000700 
# 
# 
# High freq. dielectric constant tensor:
#      x y z
#    x 1.872800 -0.015970 -0.010500 
#    y -0.015970 1.863430 0.016240 
#    z -0.010500 0.016240 1.868020 
# 
# From -- ./inp_files/403009.got.cif
#   From: 2010.06.25/outbox.cif.g09.slc.cpg/sg2_202_cif.got.tgz:403009.got - 2010.06.27 13:26:56.
