data_PCOD8032069
_publ_section_title
;
Structure prediction by ZEFSAII (Michael W. Deem and Ramdas Pophale) SiO2 
 PCOD8032069
Probable space group: P -1
;
_chemical_formula_sum "Si O2"
_cell_formula_units_Z 16
_cell_length_a 9.487765
_cell_length_b 19.502489
_cell_length_c 13.324394
_cell_angle_alpha 154.202899
_cell_angle_beta 47.234517
_cell_angle_gamma 126.069889
_cell_volume 785.721898
_symmetry_space_group_name_H-M "P -1"
_symmetry_group_IT_number 2
_symmetry_cell_setting 'triclinic'
loop_
_space_group_symop_operation_xyz
x,y,z
-x,-y,-z
loop_
_atom_site_type_symbol
_atom_site_label
_atom_site_fract_x
_atom_site_fract_y
_atom_site_fract_z
Si Si1 0.168234 0.375549 0.717874
Si Si2 0.619693 0.693597 0.856008
Si Si3 0.298815 0.010924 0.670129
Si Si4 0.983795 0.934539 0.572513
Si Si5 0.272416 0.679311 0.340667
Si Si6 0.786124 0.203840 0.908119
Si Si7 0.496528 0.524333 0.196590
Si Si8 0.868932 0.534872 0.354206
O O1 0.334624 0.367565 0.709870
O O2 0.255013 0.430817 0.642540
O O3 0.104079 0.200379 0.496955
O O4 0.000000 0.500000 0.000000
O O5 0.582063 0.561145 0.781144
O O6 0.777408 0.618765 0.605385
O O7 0.433800 0.757275 0.966361
O O8 0.715963 0.836198 0.051573
O O9 0.132602 0.027661 0.688579
O O10 0.262025 0.865580 0.570172
O O11 0.500000 0.000000 0.500000
O O12 0.090847 0.835864 0.302206
O O13 0.811004 0.053945 0.772892
O O14 0.336805 0.642167 0.375298
O O15 0.074518 0.598913 0.314167
O O16 0.429871 0.609377 0.093527
O O17 0.876096 0.345708 0.113064
#
# Coordination Sequence:
#
# PCOD8032069 Si02
#       8
#     2   2   2   2   2   2   2   2
#     4  12  20  42  69  97 129 172 223 274 320 389
#     4  12  26  44  65  98 140 179 209 271 341 390
#     4  12  23  43  67  95 135 171 220 273 326 389
#     4  11  23  40  71 101 123 169 226 280 322 371
#     4  11  24  42  68  98 127 174 227 269 320 391
#     4  11  23  41  67 100 131 166 223 277 326 384
#     4  11  23  40  69  99 127 172 225 272 320 386
#     4  12  25  44  68  95 138 177 218 266 335 402
#
# _framework density 20.363440000000001
#
# number of rings (size 3 to 8) (size 9 to 14) (size 15 to 20)
#    0.000    0.500    7.500    0.375    3.500    1.000 
#    0.000    0.625    0.000    0.000    0.000    0.000 
#    0.000    0.000    0.000    0.000    0.000    0.000 
#
# Total GULP energy -198399.466328 kJ/mol
# GULP energy per Si atom -12399.966645 kJ/mol
# Density = 2.031709 g / cm^3
# Si number density = 20.363440 Si / 1000 Ang^3
#
#
#
# Elastic Constant Matrix: (Units=GPa)
#
#
# Indices 1 2 3 4 5 6 
#
# 1 114.5464 31.3356 35.5134 12.8935 10.9168 -9.8388
# 2 31.3356 87.0566 48.1825 10.8466 3.5958 -10.2001
# 3 35.5134 48.1825 106.3054 3.4491 23.5757 -4.2324
# 4 12.8935 10.8466 3.4491 31.7240 -1.1143 7.8898
# 5 10.9168 3.5958 23.5757 -1.1143 31.7593 10.2808
# 6 -9.8388 -10.2001 -4.2324 7.8898 10.2808 33.7504
#
#
#
# Elastic Compliance Matrix: (Units=1/GPa)
#
#
# Indices 1 2 3 4 5 6 
#
# 1 0.011114 -0.001684 -0.001649 -0.005156 -0.004208 0.005011
# 2 -0.001684 0.017320 -0.007530 -0.005384 0.002642 0.004253
# 3 -0.001649 -0.007530 0.015946 0.000482 -0.011226 0.002550
# 4 -0.005156 -0.005384 0.000482 0.039365 0.008185 -0.014765
# 5 -0.004208 0.002642 -0.011226 0.008185 0.047115 -0.018101
# 6 0.005011 0.004253 0.002550 -0.014765 -0.018101 0.041661
#
#
# Mechanical properties :
#
#
# Convention : Reuss Voigt Hill
#
# Bulk Modulus (GPa) = 44.14160 59.77461 51.95810
# Shear Modulus (GPa) = 24.77706 32.30520 28.54113
#
# Velocity S-wave (km/s) = 3.49197 3.98732 3.74784
# Velocity P-wave (km/s) = 6.16299 7.11449 6.65576
#
# Compressibility (1/GPa) = 0.02265437
#
# Stress axis : x y z
#
# Youngs Moduli (GPa) = 89.97592 57.73570 62.71079
#
# Poissons Ratio (x) = 0.09724 0.10344
# Poissons Ratio (y) = 0.15153 0.47218
# Poissons Ratio (z) = 0.14841 0.43472
#
# Static dielectric constant tensor:
#      x y z
#    x 3.986900 -0.140940 0.099620 
#    y -0.140940 3.724050 0.174960 
#    z 0.099620 0.174960 3.557710 
# 
# 
# High freq. dielectric constant tensor:
#      x y z
#    x 1.809440 -0.005450 0.013010 
#    y -0.005450 1.800180 0.017300 
#    z 0.013010 0.017300 1.775560 
# 
# From -- ./inp_files/185807.got.cif
#   From: 2010.06.25/outbox.cif.g09.slc.cpg/sg2_93_cif.got.tgz:185807.got - 2010.06.27 13:26:56.
