data_PCOD8032266
_publ_section_title
;
Structure prediction by ZEFSAII (Michael W. Deem and Ramdas Pophale) SiO2 
 PCOD8032266
Probable space group: P -1
;
_chemical_formula_sum "Si O2"
_cell_formula_units_Z 16
_cell_length_a 20.511054
_cell_length_b 11.414886
_cell_length_c 17.224339
_cell_angle_alpha 30.648345
_cell_angle_beta 21.278292
_cell_angle_gamma 42.035469
_cell_volume 707.166224
_symmetry_space_group_name_H-M "P -1"
_symmetry_group_IT_number 2
_symmetry_cell_setting 'triclinic'
loop_
_space_group_symop_operation_xyz
x,y,z
-x,-y,-z
loop_
_atom_site_type_symbol
_atom_site_label
_atom_site_fract_x
_atom_site_fract_y
_atom_site_fract_z
Si Si1 0.515651 0.660442 0.814374
Si Si2 0.562239 0.226127 0.722248
Si Si3 0.158568 0.240869 0.163591
Si Si4 0.405243 0.683365 0.195458
Si Si5 0.819515 0.442609 0.180903
Si Si6 0.999531 0.568944 0.244434
Si Si7 0.898437 0.056717 0.207925
Si Si8 0.124322 0.728410 0.184164
O O1 0.496535 0.500625 0.847475
O O2 0.724727 0.854259 0.474248
O O3 0.500000 0.500000 0.000000
O O4 0.346510 0.783686 0.929016
O O5 0.666713 0.351826 0.613886
O O6 0.640263 0.392557 0.466159
O O7 0.349499 0.194166 0.997564
O O8 0.559393 0.951680 0.863153
O O9 0.149030 0.458214 0.103946
O O10 0.157140 0.316361 0.032173
O O11 0.000000 0.000000 0.500000
O O12 0.206110 0.634948 0.397675
O O13 0.800894 0.205678 0.286104
O O14 0.000000 0.500000 0.000000
O O15 0.096119 0.680717 0.152151
O O16 0.976342 0.777930 0.093570
O O17 0.038623 0.951107 0.164714
O O18 0.000000 0.500000 0.500000
#
# Coordination Sequence:
#
# PCOD8032266 Si02
#       8
#     2   2   2   2   2   2   2   2
#     4  12  24  46  69 104 140 180 238 290 347 421
#     4  11  23  42  69 104 137 189 232 283 356 416
#     4  11  23  43  69 101 136 184 235 285 348 425
#     4  11  23  41  73  96 145 182 227 293 350 415
#     4  11  26  47  69 101 145 180 231 298 352 410
#     4  11  23  46  66 102 141 180 229 293 350 418
#     4  11  25  47  71  97 145 183 229 294 351 416
#     4  12  25  43  71  99 134 185 230 286 354 412
#
# _framework density 22.625513999999999
#
# number of rings (size 3 to 8) (size 9 to 14) (size 15 to 20)
#    0.000    0.750    3.750    3.750    1.750    1.500 
#   13.500    0.000    0.000    0.000    0.000    0.000 
#    0.000    0.000    0.000    0.000    0.000    0.000 
#
# Total GULP energy -198304.988031 kJ/mol
# GULP energy per Si atom -12394.061752 kJ/mol
# Density = 2.257402 g / cm^3
# Si number density = 22.625514 Si / 1000 Ang^3
#
#
#
# Elastic Constant Matrix: (Units=GPa)
#
#
# Indices 1 2 3 4 5 6 
#
# 1 79.9603 23.5674 27.3212 -9.8391 12.2422 -3.7290
# 2 23.5674 94.7198 30.5050 -0.7912 2.3159 -6.8775
# 3 27.3212 30.5050 106.3866 0.5451 10.6447 -4.6361
# 4 -9.8391 -0.7912 0.5451 37.3947 -6.5885 -4.0566
# 5 12.2422 2.3159 10.6447 -6.5885 52.4550 2.9016
# 6 -3.7290 -6.8775 -4.6361 -4.0566 2.9016 42.8374
#
#
#
# Elastic Compliance Matrix: (Units=1/GPa)
#
#
# Indices 1 2 3 4 5 6 
#
# 1 0.015144 -0.002682 -0.002847 0.003658 -0.002439 0.001091
# 2 -0.002682 0.012214 -0.002809 -0.000159 0.000561 0.001370
# 3 -0.002847 -0.002809 0.011130 -0.001207 -0.001649 0.000503
# 4 0.003658 -0.000159 -0.001207 0.028507 0.002831 0.002670
# 5 -0.002439 0.000561 -0.001649 0.002831 0.020377 -0.001413
# 6 0.001091 0.001370 0.000503 0.002670 -0.001413 0.024062
#
#
# Mechanical properties :
#
#
# Convention : Reuss Voigt Hill
#
# Bulk Modulus (GPa) = 45.84793 49.31708 47.58251
# Shear Modulus (GPa) = 36.93321 39.84896 38.39108
#
# Velocity S-wave (km/s) = 4.04464 4.20127 4.12370
# Velocity P-wave (km/s) = 6.48999 6.73636 6.61433
#
# Compressibility (1/GPa) = 0.02181123
#
# Stress axis : x y z
#
# Youngs Moduli (GPa) = 66.03325 81.87461 89.85111
#
# Poissons Ratio (x) = 0.21955 0.25584
# Poissons Ratio (y) = 0.17707 0.25240
# Poissons Ratio (z) = 0.18802 0.22999
#
# Static dielectric constant tensor:
#      x y z
#    x 4.653440 0.088500 -0.042230 
#    y 0.088500 4.513850 -0.082620 
#    z -0.042230 -0.082620 3.723060 
# 
# 
# High freq. dielectric constant tensor:
#      x y z
#    x 1.895840 0.006510 0.005740 
#    y 0.006510 1.895580 0.006170 
#    z 0.005740 0.006170 1.895400 
# 
# From -- ./inp_files/577911.got.cif
#   From: 2010.06.25/outbox.cif.g09.slc.cpg/sg2_289_cif.got.tgz:577911.got - 2010.06.27 13:26:56.
