data_PCOD8032847
_publ_section_title
;
Structure prediction by ZEFSAII (Michael W. Deem and Ramdas Pophale) SiO2 
 PCOD8032847
Probable space group: P -1
;
_chemical_formula_sum "Si O2"
_cell_formula_units_Z 16
_cell_length_a 9.211613
_cell_length_b 14.621619
_cell_length_c 9.491158
_cell_angle_alpha 38.781858
_cell_angle_beta 71.711585
_cell_angle_gamma 61.631352
_cell_volume 700.822992
_symmetry_space_group_name_H-M "P -1"
_symmetry_group_IT_number 2
_symmetry_cell_setting 'triclinic'
loop_
_space_group_symop_operation_xyz
x,y,z
-x,-y,-z
loop_
_atom_site_type_symbol
_atom_site_label
_atom_site_fract_x
_atom_site_fract_y
_atom_site_fract_z
Si Si1 0.056400 0.571956 0.602209
Si Si2 0.121771 0.722156 0.672856
Si Si3 0.820328 0.334807 0.818616
Si Si4 0.106851 0.226669 0.067152
Si Si5 0.659784 0.532000 0.896308
Si Si6 0.698201 0.782902 0.439016
Si Si7 0.341518 0.905144 0.289621
Si Si8 0.196667 0.944932 0.979789
O O1 0.058665 0.699017 0.566259
O O2 0.171411 0.572014 0.437319
O O3 0.867862 0.631084 0.526734
O O4 0.120419 0.397720 0.861554
O O5 0.249260 0.810244 0.518187
O O6 0.970167 0.811826 0.718445
O O7 0.212026 0.549406 0.922047
O O8 0.712735 0.461020 0.810326
O O9 0.737144 0.211757 0.948207
O O10 0.998176 0.227115 0.961709
O O11 0.282546 0.081874 0.162043
O O12 0.637412 0.717192 0.677531
O O13 0.500000 0.500000 0.000000
O O14 0.542428 0.825645 0.328731
O O15 0.754942 0.927159 0.274803
O O16 0.296421 0.909474 0.136191
O O17 0.000000 0.000000 0.000000
#
# Coordination Sequence:
#
# PCOD8032847 Si02
#       8
#     2   2   2   2   2   2   2   2
#     4  12  23  45  73 105 133 188 248 287 336 429
#     4  11  23  45  72  99 140 194 238 284 347 429
#     4  11  23  43  75  98 136 191 236 281 350 424
#     4  11  24  40  72 103 141 187 244 282 350 426
#     4  11  25  49  72 102 145 186 231 294 363 415
#     4  12  25  43  73 101 145 184 227 298 359 404
#     4  12  24  44  67 105 148 180 231 297 362 407
#     4  12  23  44  70 107 143 182 237 295 342 424
#
# _framework density 22.830299
#
# number of rings (size 3 to 8) (size 9 to 14) (size 15 to 20)
#    0.000    0.500    7.500    1.500    1.750    0.000 
#    2.250    2.500    0.000    0.000    0.000    0.000 
#    0.000    0.000    0.000    0.000    0.000    0.000 
#
# Total GULP energy -198243.403343 kJ/mol
# GULP energy per Si atom -12390.212709 kJ/mol
# Density = 2.277834 g / cm^3
# Si number density = 22.830299 Si / 1000 Ang^3
#
#
#
# Elastic Constant Matrix: (Units=GPa)
#
#
# Indices 1 2 3 4 5 6 
#
# 1 114.8748 34.7391 54.2516 -9.0337 -8.9841 0.1440
# 2 34.7391 66.3607 46.3090 2.2633 2.4330 12.6982
# 3 54.2516 46.3090 128.3965 -2.4841 -29.5692 -1.5818
# 4 -9.0337 2.2633 -2.4841 36.4127 8.1830 -1.4199
# 5 -8.9841 2.4330 -29.5692 8.1830 52.1811 -7.0503
# 6 0.1440 12.6982 -1.5818 -1.4199 -7.0503 23.5362
#
#
#
# Elastic Compliance Matrix: (Units=1/GPa)
#
#
# Indices 1 2 3 4 5 6 
#
# 1 0.011855 -0.004537 -0.003220 0.003035 0.000280 0.002426
# 2 -0.004537 0.030148 -0.011867 -0.002056 -0.011368 -0.020564
# 3 -0.003220 -0.011867 0.015994 -0.000948 0.010647 0.010629
# 4 0.003035 -0.002056 -0.000948 0.029307 -0.004312 0.001504
# 5 0.000280 -0.011368 0.010647 -0.004312 0.028495 0.015122
# 6 0.002426 -0.020564 0.010629 0.001504 0.015122 0.058903
#
#
# Mechanical properties :
#
#
# Convention : Reuss Voigt Hill
#
# Bulk Modulus (GPa) = 53.33919 64.47016 58.90468
# Shear Modulus (GPa) = 22.70672 34.04815 28.37744
#
# Velocity S-wave (km/s) = 3.15713 3.86600 3.52941
# Velocity P-wave (km/s) = 6.05838 6.94465 6.51660
#
# Compressibility (1/GPa) = 0.01874794
#
# Stress axis : x y z
#
# Youngs Moduli (GPa) = 84.35013 33.16989 62.52529
#
# Poissons Ratio (x) = 0.15050 0.20131
# Poissons Ratio (y) = 0.38273 0.74201
# Poissons Ratio (z) = 0.27158 0.39364
#
# Static dielectric constant tensor:
#      x y z
#    x 4.828160 -0.729900 -0.416860 
#    y -0.729900 4.890460 0.085890 
#    z -0.416860 0.085890 4.623070 
# 
# 
# High freq. dielectric constant tensor:
#      x y z
#    x 1.895480 0.007570 -0.014990 
#    y 0.007570 1.874220 -0.005340 
#    z -0.014990 -0.005340 1.928140 
# 
# From -- ./inp_files/205155.got.cif
#   From: 2010.06.25/outbox.cif.g09.slc.cpg/sg2_103_cif.got.tgz:205155.got - 2010.06.27 13:26:56.
