data_PCOD8032472
_publ_section_title
;
Structure prediction by ZEFSAII (Michael W. Deem and Ramdas Pophale) SiO2 
 PCOD8032472
Probable space group: P -1
;
_chemical_formula_sum "Si O2"
_cell_formula_units_Z 16
_cell_length_a 9.329148
_cell_length_b 11.105722
_cell_length_c 12.312915
_cell_angle_alpha 129.449326
_cell_angle_beta 47.202598
_cell_angle_gamma 125.240720
_cell_volume 698.635967
_symmetry_space_group_name_H-M "P -1"
_symmetry_group_IT_number 2
_symmetry_cell_setting 'triclinic'
loop_
_space_group_symop_operation_xyz
x,y,z
-x,-y,-z
loop_
_atom_site_type_symbol
_atom_site_label
_atom_site_fract_x
_atom_site_fract_y
_atom_site_fract_z
Si Si1 0.872969 0.838334 0.528019
Si Si2 0.798806 0.339454 0.734690
Si Si3 0.429829 0.075030 0.836461
Si Si4 0.801169 0.849755 0.804234
Si Si5 0.543037 0.787145 0.505718
Si Si6 0.854285 0.558823 0.026747
Si Si7 0.806683 0.893220 0.227729
Si Si8 0.388653 0.515340 0.282953
O O1 0.755788 0.881391 0.719297
O O2 0.714578 0.741794 0.465921
O O3 0.011422 0.726102 0.437068
O O4 0.000000 0.000000 0.500000
O O5 0.652319 0.194510 0.794811
O O6 0.883013 0.493781 0.855548
O O7 0.677638 0.386694 0.724307
O O8 0.297125 0.142224 0.856311
O O9 0.432156 0.895502 0.695746
O O10 0.334725 0.070522 0.002400
O O11 0.764466 0.659051 0.733237
O O12 0.037098 0.932187 0.752354
O O13 0.642675 0.886481 0.403937
O O14 0.385170 0.620631 0.454663
O O15 0.922376 0.753102 0.105663
O O16 0.616486 0.498288 0.143272
O O17 0.000000 0.500000 0.000000
#
# Coordination Sequence:
#
# PCOD8032472 Si02
#       8
#     2   2   2   2   2   2   2   2
#     4  12  26  46  70 101 144 191 235 282 357 427
#     4  12  22  44  77 102 138 192 238 283 349 431
#     4  12  23  42  75 108 137 185 240 292 347 412
#     4  12  27  46  70 105 147 179 235 302 351 408
#     4  11  24  46  74 101 141 191 236 281 352 429
#     4  11  23  42  71 106 142 183 232 286 350 421
#     4  11  23  45  72 103 142 184 236 287 351 422
#     4  11  25  46  74 106 140 182 241 291 347 413
#
# _framework density 22.901769000000002
#
# number of rings (size 3 to 8) (size 9 to 14) (size 15 to 20)
#    0.000    0.500    6.250    3.375    1.750    1.500 
#    4.500    0.000    0.000    0.000    0.000    0.000 
#    0.000    0.000    0.000    0.000    0.000    0.000 
#
# Total GULP energy -198409.996688 kJ/mol
# GULP energy per Si atom -12400.624793 kJ/mol
# Density = 2.284964 g / cm^3
# Si number density = 22.901769 Si / 1000 Ang^3
#
#
#
# Elastic Constant Matrix: (Units=GPa)
#
#
# Indices 1 2 3 4 5 6 
#
# 1 139.9423 27.8321 45.8576 8.4290 5.2655 -8.0041
# 2 27.8321 113.6687 53.0332 15.8747 1.8472 14.9951
# 3 45.8576 53.0332 158.5161 11.2404 21.8053 -7.4066
# 4 8.4290 15.8747 11.2404 40.4918 -4.7454 7.2629
# 5 5.2655 1.8472 21.8053 -4.7454 41.7229 9.7858
# 6 -8.0041 14.9951 -7.4066 7.2629 9.7858 33.4833
#
#
#
# Elastic Compliance Matrix: (Units=1/GPa)
#
#
# Indices 1 2 3 4 5 6 
#
# 1 0.008220 -0.001483 -0.001513 -0.001345 -0.001010 0.002881
# 2 -0.001483 0.012400 -0.004459 -0.001531 0.003579 -0.007608
# 3 -0.001513 -0.004459 0.009567 -0.002433 -0.006326 0.006128
# 4 -0.001345 -0.001531 -0.002433 0.028531 0.006706 -0.008323
# 5 -0.001010 0.003579 -0.006326 0.006706 0.031249 -0.013831
# 6 0.002881 -0.007608 0.006128 -0.008323 -0.013831 0.041164
#
#
# Mechanical properties :
#
#
# Convention : Reuss Voigt Hill
#
# Bulk Modulus (GPa) = 65.45291 73.95253 69.70272
# Shear Modulus (GPa) = 33.08332 42.16657 37.62494
#
# Velocity S-wave (km/s) = 3.80488 4.29557 4.05765
# Velocity P-wave (km/s) = 6.92421 7.54744 7.24253
#
# Compressibility (1/GPa) = 0.01527816
#
# Stress axis : x y z
#
# Youngs Moduli (GPa) = 121.64998 80.64444 104.52601
#
# Poissons Ratio (x) = 0.11956 0.15817
# Poissons Ratio (y) = 0.18036 0.46607
# Poissons Ratio (z) = 0.18408 0.35958
#
# Static dielectric constant tensor:
#      x y z
#    x 4.268670 0.114280 0.154350 
#    y 0.114280 4.031060 0.148030 
#    z 0.154350 0.148030 4.302530 
# 
# 
# High freq. dielectric constant tensor:
#      x y z
#    x 1.910220 0.006820 0.014920 
#    y 0.006820 1.889770 0.015590 
#    z 0.014920 0.015590 1.910930 
# 
# From -- ./inp_files/392984.got.cif
#   From: 2010.06.25/outbox.cif.g09.slc.cpg/sg2_197_cif.got.tgz:392984.got - 2010.06.27 13:26:56.
