data_PCOD8032541
_publ_section_title
;
Structure prediction by ZEFSAII (Michael W. Deem and Ramdas Pophale) SiO2 
 PCOD8032541
Probable space group: P -1
;
_chemical_formula_sum "Si O2"
_cell_formula_units_Z 16
_cell_length_a 15.890206
_cell_length_b 10.931522
_cell_length_c 9.164310
_cell_angle_alpha 80.812343
_cell_angle_beta 150.728972
_cell_angle_gamma 108.386929
_cell_volume 715.353847
_symmetry_space_group_name_H-M "P -1"
_symmetry_group_IT_number 2
_symmetry_cell_setting 'triclinic'
loop_
_space_group_symop_operation_xyz
x,y,z
-x,-y,-z
loop_
_atom_site_type_symbol
_atom_site_label
_atom_site_fract_x
_atom_site_fract_y
_atom_site_fract_z
Si Si1 0.262623 0.620684 0.768717
Si Si2 0.517782 0.114606 0.116130
Si Si3 0.898245 0.258186 0.251939
Si Si4 0.603801 0.718530 0.672504
Si Si5 0.076189 0.437134 0.257100
Si Si6 0.410381 0.451567 0.579420
Si Si7 0.522557 0.065500 0.673076
Si Si8 0.173869 0.134524 0.754853
O O1 0.347702 0.750986 0.773903
O O2 0.135608 0.643660 0.699201
O O3 0.132315 0.517675 0.477485
O O4 0.414240 0.572127 0.082259
O O5 0.601277 0.057418 0.389599
O O6 0.331695 0.137160 0.878835
O O7 0.500000 0.000000 0.000000
O O8 0.907525 0.308510 0.087160
O O9 0.099684 0.252535 0.586183
O O10 0.735714 0.111560 0.042235
O O11 0.463870 0.608730 0.590698
O O12 0.674743 0.634678 0.679616
O O13 0.515436 0.797659 0.414592
O O14 0.752696 0.833343 0.972522
O O15 0.250947 0.407069 0.467458
O O16 0.000000 0.500000 0.000000
O O17 0.500000 0.000000 0.500000
O O18 0.000000 0.000000 0.500000
#
# Coordination Sequence:
#
# PCOD8032541 Si02
#       8
#     2   2   2   2   2   2   2   2
#     4  12  25  47  71  99 138 190 233 278 349 428
#     4  12  23  43  72 100 136 182 240 276 333 428
#     4  12  25  45  69 100 142 179 228 289 357 404
#     4  11  23  42  75 102 138 185 238 283 343 424
#     4  12  28  42  67 107 140 175 225 298 353 402
#     4  11  24  46  71 102 140 185 239 282 347 426
#     4  12  23  44  70 101 134 186 229 283 338 416
#     4  12  23  42  67 105 139 180 231 287 354 402
#
# _framework density 22.366555000000002
#
# number of rings (size 3 to 8) (size 9 to 14) (size 15 to 20)
#    0.000    0.250    5.000    3.750    5.250    0.000 
#    0.000    0.000    0.000    4.500    0.000    0.000 
#    0.000    0.000    0.000    0.000    0.000    0.000 
#
# Total GULP energy -198225.478314 kJ/mol
# GULP energy per Si atom -12389.092395 kJ/mol
# Density = 2.231565 g / cm^3
# Si number density = 22.366555 Si / 1000 Ang^3
#
#
#
# Elastic Constant Matrix: (Units=GPa)
#
#
# Indices 1 2 3 4 5 6 
#
# 1 154.7805 38.1640 44.5013 -10.1144 2.8488 -0.3610
# 2 38.1640 104.0090 26.5527 -21.1638 9.0632 19.6656
# 3 44.5013 26.5527 85.4175 -11.8384 -10.0904 -13.8106
# 4 -10.1144 -21.1638 -11.8384 46.8293 -6.2889 -8.2891
# 5 2.8488 9.0632 -10.0904 -6.2889 35.9440 -2.6287
# 6 -0.3610 19.6656 -13.8106 -8.2891 -2.6287 51.7897
#
#
#
# Elastic Compliance Matrix: (Units=1/GPa)
#
#
# Indices 1 2 3 4 5 6 
#
# 1 0.008031 -0.001826 -0.003888 -0.000328 -0.001355 -0.000409
# 2 -0.001826 0.013524 -0.004344 0.002955 -0.004411 -0.006057
# 3 -0.003888 -0.004344 0.017733 0.004010 0.007623 0.007380
# 4 -0.000328 0.002955 0.004010 0.025064 0.005100 0.004215
# 5 -0.001355 -0.004411 0.007623 0.005100 0.032524 0.006165
# 6 -0.000409 -0.006057 0.007380 0.004215 0.006165 0.024562
#
#
# Mechanical properties :
#
#
# Convention : Reuss Voigt Hill
#
# Bulk Modulus (GPa) = 52.15734 62.51588 57.33661
# Shear Modulus (GPa) = 33.79654 42.57855 38.18755
#
# Velocity S-wave (km/s) = 3.89141 4.36784 4.13649
# Velocity P-wave (km/s) = 6.60006 7.31086 6.96453
#
# Compressibility (1/GPa) = 0.01917276
#
# Stress axis : x y z
#
# Youngs Moduli (GPa) = 124.51103 73.94054 56.39296
#
# Poissons Ratio (x) = 0.13499 0.21928
# Poissons Ratio (y) = 0.22731 0.24497
# Poissons Ratio (z) = 0.48414 0.32119
#
# Static dielectric constant tensor:
#      x y z
#    x 4.219090 -0.110460 -0.085810 
#    y -0.110460 4.150180 -0.071310 
#    z -0.085810 -0.071310 3.691680 
# 
# 
# High freq. dielectric constant tensor:
#      x y z
#    x 1.894730 -0.001160 -0.013250 
#    y -0.001160 1.906620 -0.007290 
#    z -0.013250 -0.007290 1.868110 
# 
# From -- ./inp_files/307456.got.cif
#   From: 2010.06.25/outbox.cif.g09.slc.cpg/sg2_154_cif.got.tgz:307456.got - 2010.06.27 13:26:56.
