data_PCOD8032900
_publ_section_title
;
Structure prediction by ZEFSAII (Michael W. Deem and Ramdas Pophale) SiO2 
 PCOD8032900
Probable space group: P -1
;
_chemical_formula_sum "Si O2"
_cell_formula_units_Z 16
_cell_length_a 13.055154
_cell_length_b 10.091103
_cell_length_c 9.422397
_cell_angle_alpha 123.053669
_cell_angle_beta 124.963922
_cell_angle_gamma 53.923221
_cell_volume 780.610995
_symmetry_space_group_name_H-M "P -1"
_symmetry_group_IT_number 2
_symmetry_cell_setting 'triclinic'
loop_
_space_group_symop_operation_xyz
x,y,z
-x,-y,-z
loop_
_atom_site_type_symbol
_atom_site_label
_atom_site_fract_x
_atom_site_fract_y
_atom_site_fract_z
Si Si1 0.024292 0.106092 0.452984
Si Si2 0.499867 0.054899 0.372135
Si Si3 0.275310 0.016720 0.992405
Si Si4 0.499434 0.423568 0.608200
Si Si5 0.735223 0.455484 0.000942
Si Si6 0.269765 0.176829 0.785570
Si Si7 0.268944 0.661467 0.758106
Si Si8 0.024310 0.882534 0.087245
O O1 0.121943 0.200223 0.625523
O O2 0.885385 0.253046 0.370358
O O3 0.095115 0.963414 0.304265
O O4 0.000000 0.000000 0.500000
O O5 0.354620 0.082672 0.206576
O O6 0.523754 0.228040 0.486589
O O7 0.500000 0.000000 0.500000
O O8 0.618303 0.905909 0.294218
O O9 0.309765 0.056688 0.885262
O O10 0.115627 0.114494 0.957559
O O11 0.324574 0.809715 0.919720
O O12 0.500000 0.500000 0.500000
O O13 0.615740 0.430356 0.807039
O O14 0.354511 0.529665 0.628518
O O15 0.879875 0.313021 0.983827
O O16 0.735489 0.638260 0.067733
O O17 0.717497 0.444376 0.148677
O O18 0.000000 0.000000 0.000000
#
# Coordination Sequence:
#
# PCOD8032900 Si02
#       8
#     2   2   2   2   2   2   2   2
#     4  11  23  44  71  98 131 177 219 267 330 393
#     4  12  26  42  67  98 131 173 222 275 324 391
#     4  11  23  44  67  93 133 176 217 265 331 392
#     4  12  26  42  67  98 131 173 222 275 324 391
#     4  12  25  43  67  97 134 174 216 273 329 390
#     4  12  25  43  67  97 134 174 216 273 329 390
#     4  11  23  44  67  93 133 176 217 265 331 392
#     4  11  23  44  71  98 131 177 219 267 330 393
#
# _framework density 20.496766000000001
#
# number of rings (size 3 to 8) (size 9 to 14) (size 15 to 20)
#    0.000    0.500    5.000    5.250    3.500    2.000 
#    0.000    0.000    0.000    0.000    0.000    0.000 
#    0.000    0.000    0.000    0.000    0.000    0.000 
#
# Total GULP energy -198490.987894 kJ/mol
# GULP energy per Si atom -12405.686743 kJ/mol
# Density = 2.045011 g / cm^3
# Si number density = 20.496766 Si / 1000 Ang^3
#
#
#
# Elastic Constant Matrix: (Units=GPa)
#
#
# Indices 1 2 3 4 5 6 
#
# 1 81.2087 25.0670 24.9007 -3.7263 -14.5022 -7.1809
# 2 25.0670 86.2281 18.6840 12.2937 0.8854 -2.2605
# 3 24.9007 18.6840 121.1285 -6.3832 8.1929 2.6120
# 4 -3.7263 12.2937 -6.3832 44.9106 8.3480 -8.5831
# 5 -14.5022 0.8854 8.1929 8.3480 51.5683 3.6914
# 6 -7.1809 -2.2605 2.6120 -8.5831 3.6914 40.9501
#
#
#
# Elastic Compliance Matrix: (Units=1/GPa)
#
#
# Indices 1 2 3 4 5 6 
#
# 1 0.015558 -0.004129 -0.002829 0.001699 0.004432 0.002637
# 2 -0.004129 0.013721 -0.001455 -0.004374 -0.000403 -0.000754
# 3 -0.002829 -0.001455 0.009341 0.001852 -0.002514 -0.000557
# 4 0.001699 -0.004374 0.001852 0.025766 -0.004322 0.005729
# 5 0.004432 -0.000403 -0.002514 -0.004322 0.021885 -0.001963
# 6 0.002637 -0.000754 -0.000557 0.005729 -0.001963 0.026254
#
#
# Mechanical properties :
#
#
# Convention : Reuss Voigt Hill
#
# Bulk Modulus (GPa) = 45.87908 47.31874 46.59891
# Shear Modulus (GPa) = 36.59937 42.14674 39.37305
#
# Velocity S-wave (km/s) = 4.23024 4.53952 4.38761
# Velocity P-wave (km/s) = 6.80383 7.11424 6.96077
#
# Compressibility (1/GPa) = 0.02179642
#
# Stress axis : x y z
#
# Youngs Moduli (GPa) = 64.27454 72.88328 107.05219
#
# Poissons Ratio (x) = 0.30091 0.30281
# Poissons Ratio (y) = 0.26536 0.15572
# Poissons Ratio (z) = 0.18181 0.10602
#
# Static dielectric constant tensor:
#      x y z
#    x 4.165000 -0.349790 -0.023860 
#    y -0.349790 4.065960 0.030850 
#    z -0.023860 0.030850 4.055880 
# 
# 
# High freq. dielectric constant tensor:
#      x y z
#    x 1.812800 0.000870 -0.007510 
#    y 0.000870 1.805370 -0.003330 
#    z -0.007510 -0.003330 1.820980 
# 
# From -- ./inp_files/245219.got.cif
#   From: 2010.06.25/outbox.cif.g09.slc.cpg/sg2_123_cif.got.tgz:245219.got - 2010.06.27 13:26:56.
