data_PCOD8032184
_publ_section_title
;
Structure prediction by ZEFSAII (Michael W. Deem and Ramdas Pophale) SiO2 
 PCOD8032184
Probable space group: P -1
;
_chemical_formula_sum "Si O2"
_cell_formula_units_Z 16
_cell_length_a 28.767994
_cell_length_b 9.690037
_cell_length_c 9.514341
_cell_angle_alpha 106.036500
_cell_angle_beta 41.259794
_cell_angle_gamma 140.091032
_cell_volume 790.298859
_symmetry_space_group_name_H-M "P -1"
_symmetry_group_IT_number 2
_symmetry_cell_setting 'triclinic'
loop_
_space_group_symop_operation_xyz
x,y,z
-x,-y,-z
loop_
_atom_site_type_symbol
_atom_site_label
_atom_site_fract_x
_atom_site_fract_y
_atom_site_fract_z
Si Si1 0.036238 0.642172 0.815599
Si Si2 0.608769 0.597029 0.186225
Si Si3 0.940790 0.288875 0.694762
Si Si4 0.415368 0.762981 0.913263
Si Si5 0.642369 0.690455 0.806312
Si Si6 0.933693 0.756038 0.171935
Si Si7 0.917785 0.733181 0.521576
Si Si8 0.630509 0.346972 0.701645
O O1 0.925659 0.363887 0.882884
O O2 0.210907 0.948238 0.457090
O O3 0.000000 0.500000 0.000000
O O4 0.982712 0.706822 0.961690
O O5 0.500000 0.500000 0.500000
O O6 0.562431 0.346970 0.252525
O O7 0.601770 0.619657 0.043408
O O8 0.781559 0.929321 0.928131
O O9 0.000000 0.500000 0.500000
O O10 0.062190 0.382191 0.477021
O O11 0.534815 0.109182 0.719854
O O12 0.255836 0.540751 0.172899
O O13 0.452019 0.787442 0.998682
O O14 0.679205 0.598913 0.629939
O O15 0.500000 0.500000 0.000000
O O16 0.988286 0.852950 0.237670
O O17 0.757583 0.459838 0.478822
O O18 0.000000 0.000000 0.000000
O O19 0.000000 0.000000 0.500000
#
# Coordination Sequence:
#
# PCOD8032184 Si02
#       8
#     2   2   2   2   2   2   2   2
#     4  12  26  43  67 103 134 178 231 278 336 404
#     4  11  25  44  65  97 136 179 220 276 343 406
#     4  12  26  44  68  97 138 182 226 279 342 404
#     4   9  20  39  64  92 126 168 219 266 330 395
#     4  11  25  43  67  96 136 174 224 281 336 402
#     4  11  23  41  68  97 131 170 225 280 331 395
#     4  11  23  42  69  95 131 176 221 276 338 398
#     4   9  20  38  64  92 125 170 214 270 331 389
#
# _framework density 20.245504
#
# number of rings (size 3 to 8) (size 9 to 14) (size 15 to 20)
#    0.000    1.250    5.000    0.000    7.000    1.000 
#    0.000    0.000    0.000    2.250    0.000    0.000 
#    0.000    0.000    0.000    0.000    0.000    0.000 
#
# Total GULP energy -198231.183273 kJ/mol
# GULP energy per Si atom -12389.448955 kJ/mol
# Density = 2.019942 g / cm^3
# Si number density = 20.245504 Si / 1000 Ang^3
#
#
#
# Elastic Constant Matrix: (Units=GPa)
#
#
# Indices 1 2 3 4 5 6 
#
# 1 125.7186 58.2766 39.1168 9.1056 -6.2785 -3.1525
# 2 58.2766 164.8954 44.7157 9.9717 -9.3646 6.6860
# 3 39.1168 44.7157 82.4366 11.6072 -6.2057 0.2194
# 4 9.1056 9.9717 11.6072 36.0075 -3.5963 -5.8040
# 5 -6.2785 -9.3646 -6.2057 -3.5963 35.6919 -1.6409
# 6 -3.1525 6.6860 0.2194 -5.8040 -1.6409 39.4376
#
#
#
# Elastic Compliance Matrix: (Units=1/GPa)
#
#
# Indices 1 2 3 4 5 6 
#
# 1 0.010356 -0.002751 -0.003310 -0.000535 0.000528 0.001256
# 2 -0.002751 0.007972 -0.002835 -0.000765 0.000963 -0.001628
# 3 -0.003310 -0.002835 0.015801 -0.003419 0.001062 -0.000331
# 4 -0.000535 -0.000765 -0.003419 0.030207 0.002368 0.004650
# 5 0.000528 0.000963 0.001062 0.002368 0.028852 0.001422
# 6 0.001256 -0.001628 -0.000331 0.004650 0.001422 0.026478
#
#
# Mechanical properties :
#
#
# Convention : Reuss Voigt Hill
#
# Bulk Modulus (GPa) = 61.20688 73.02986 67.11837
# Shear Modulus (GPa) = 34.98866 37.62350 36.30608
#
# Velocity S-wave (km/s) = 4.16169 4.31555 4.23932
# Velocity P-wave (km/s) = 7.30691 7.80912 7.56219
#
# Compressibility (1/GPa) = 0.01633803
#
# Stress axis : x y z
#
# Youngs Moduli (GPa) = 96.56241 125.43463 63.28757
#
# Poissons Ratio (x) = 0.34506 0.20949
# Poissons Ratio (y) = 0.26564 0.17939
# Poissons Ratio (z) = 0.31963 0.35555
#
# Static dielectric constant tensor:
#      x y z
#    x 3.119450 -0.498960 0.481240 
#    y -0.498960 3.696250 0.386350 
#    z 0.481240 0.386350 3.063930 
# 
# 
# High freq. dielectric constant tensor:
#      x y z
#    x 1.789560 -0.002920 -0.013310 
#    y -0.002920 1.818010 0.002130 
#    z -0.013310 0.002130 1.774160 
# 
# From -- ./inp_files/206401.got.cif
#   From: 2010.06.25/outbox.cif.g09.slc.cpg/sg2_104_cif.got.tgz:206401.got - 2010.06.27 13:26:56.
