data_PCOD8032337
_publ_section_title
;
Structure prediction by ZEFSAII (Michael W. Deem and Ramdas Pophale) SiO2 
 PCOD8032337
Probable space group: P -1
;
_chemical_formula_sum "Si O2"
_cell_formula_units_Z 14
_cell_length_a 10.832902
_cell_length_b 9.641394
_cell_length_c 13.444459
_cell_angle_alpha 61.225178
_cell_angle_beta 146.400765
_cell_angle_gamma 128.626702
_cell_volume 604.636094
_symmetry_space_group_name_H-M "P -1"
_symmetry_group_IT_number 2
_symmetry_cell_setting 'triclinic'
loop_
_space_group_symop_operation_xyz
x,y,z
-x,-y,-z
loop_
_atom_site_type_symbol
_atom_site_label
_atom_site_fract_x
_atom_site_fract_y
_atom_site_fract_z
Si Si1 0.396407 0.612234 0.830443
Si Si2 0.847433 0.056112 0.635076
Si Si3 0.704712 0.197349 0.671903
Si Si4 0.272403 0.334214 0.684216
Si Si5 0.342495 0.814953 0.009093
Si Si6 0.204535 0.976828 0.032739
Si Si7 0.953797 0.594625 0.672388
O O1 0.330584 0.524433 0.706904
O O2 0.150351 0.594582 0.724167
O O3 0.596924 0.817792 0.890091
O O4 0.500000 0.500000 0.000000
O O5 0.768317 0.180784 0.605567
O O6 0.040260 0.171819 0.639325
O O7 0.591883 0.908322 0.464870
O O8 0.962908 0.958692 0.817137
O O9 0.860210 0.119439 0.869897
O O10 0.791473 0.403166 0.679534
O O11 0.520739 0.308489 0.867105
O O12 0.216522 0.339290 0.528020
O O13 0.311067 0.858400 0.086482
O O14 0.079013 0.723483 0.805066
O O15 0.500000 0.000000 0.000000
#
# Coordination Sequence:
#
# PCOD8032337 Si02
#       7
#     2   2   2   2   2   2   2
#     4  12  20  42  73 104 133 171 234 291 333 387
#     4  11  23  42  67 102 137 175 224 279 342 402
#     4  11  27  42  65 104 141 182 221 274 346 413
#     4  12  25  42  76 104 134 174 231 291 339 393
#     4  12  25  47  72 103 133 180 233 282 340 402
#     4  12  25  46  72  98 140 181 227 283 339 405
#     4  12  25  43  69 103 141 175 229 282 340 405
#
# _framework density 23.154423999999999
#
# number of rings (size 3 to 8) (size 9 to 14) (size 15 to 20)
#    0.000    0.286    7.143    1.714    4.000    3.429 
#    0.000    1.429    0.000    0.000    0.000    0.000 
#    0.000    0.000    0.000    0.000    0.000    0.000 
#
# Total GULP energy -173634.702981 kJ/mol
# GULP energy per Si atom -12402.478784 kJ/mol
# Density = 2.310172 g / cm^3
# Si number density = 23.154424 Si / 1000 Ang^3
#
#
#
# Elastic Constant Matrix: (Units=GPa)
#
#
# Indices 1 2 3 4 5 6 
#
# 1 39.7017 29.5259 -2.9091 -1.0687 -7.5567 -3.5950
# 2 29.5259 121.8658 52.7953 11.2383 -27.6104 3.8362
# 3 -2.9091 52.7953 120.3003 -4.0002 -20.4257 15.7856
# 4 -1.0687 11.2383 -4.0002 37.5175 0.4153 -8.6076
# 5 -7.5567 -27.6104 -20.4257 0.4153 28.9362 -10.0921
# 6 -3.5950 3.8362 15.7856 -8.6076 -10.0921 33.2751
#
#
#
# Elastic Compliance Matrix: (Units=1/GPa)
#
#
# Indices 1 2 3 4 5 6 
#
# 1 0.035110 -0.010654 0.005863 0.005972 0.004893 0.005269
# 2 -0.010654 0.015818 -0.006085 -0.005545 0.008459 0.001043
# 3 0.005863 -0.006085 0.012131 0.002617 0.003294 -0.002744
# 4 0.005972 -0.005545 0.002617 0.030621 0.000508 0.008118
# 5 0.004893 0.008459 0.003294 0.000508 0.050962 0.013579
# 6 0.005269 0.001043 -0.002744 0.008118 0.013579 0.038022
#
#
# Mechanical properties :
#
#
# Convention : Reuss Voigt Hill
#
# Bulk Modulus (GPa) = 24.20886 48.96577 36.58732
# Shear Modulus (GPa) = 22.91624 33.44280 28.17952
#
# Velocity S-wave (km/s) = 3.14938 3.80457 3.49237
# Velocity P-wave (km/s) = 4.86856 6.36341 5.66551
#
# Compressibility (1/GPa) = 0.04130719
#
# Stress axis : x y z
#
# Youngs Moduli (GPa) = 28.48162 63.21814 82.43380
#
# Poissons Ratio (x) = 0.67355 -0.48330
# Poissons Ratio (y) = 0.30346 0.50158
# Poissons Ratio (z) = -0.16698 0.38466
#
# Static dielectric constant tensor:
#      x y z
#    x 4.343880 -0.087130 0.132600 
#    y -0.087130 4.221640 -0.099780 
#    z 0.132600 -0.099780 4.088820 
# 
# 
# High freq. dielectric constant tensor:
#      x y z
#    x 1.901210 -0.003570 -0.007010 
#    y -0.003570 1.916920 0.000930 
#    z -0.007010 0.000930 1.928740 
# 
# From -- ./inp_files/188488.got.cif
#   From: 2010.06.25/outbox.cif.g09.slc.cpg/sg2_95_cif.got.tgz:188488.got - 2010.06.27 13:26:56.
