data_PCOD8032722
_publ_section_title
;
Structure prediction by ZEFSAII (Michael W. Deem and Ramdas Pophale) SiO2 
 PCOD8032722
Probable space group: P -1
;
_chemical_formula_sum "Si O2"
_cell_formula_units_Z 16
_cell_length_a 23.848962
_cell_length_b 9.187791
_cell_length_c 9.501610
_cell_angle_alpha 118.300392
_cell_angle_beta 128.677993
_cell_angle_gamma 27.686783
_cell_volume 736.931650
_symmetry_space_group_name_H-M "P -1"
_symmetry_group_IT_number 2
_symmetry_cell_setting 'triclinic'
loop_
_space_group_symop_operation_xyz
x,y,z
-x,-y,-z
loop_
_atom_site_type_symbol
_atom_site_label
_atom_site_fract_x
_atom_site_fract_y
_atom_site_fract_z
Si Si1 0.086623 0.165479 0.463466
Si Si2 0.846088 0.407375 0.108080
Si Si3 0.695752 0.207574 0.601284
Si Si4 0.924230 0.889131 0.002344
Si Si5 0.767215 0.782956 0.912691
Si Si6 0.593609 0.075227 0.493494
Si Si7 0.205474 0.904774 0.826637
Si Si8 0.356587 0.282568 0.824307
O O1 0.000000 0.500000 0.500000
O O2 0.989853 0.223633 0.262285
O O3 0.224750 0.927589 0.482011
O O4 0.133980 0.005861 0.613961
O O5 0.762755 0.566272 0.197263
O O6 0.894277 0.131312 0.007840
O O7 0.748997 0.683204 0.962330
O O8 0.634479 0.144941 0.487016
O O9 0.572842 0.586471 0.588171
O O10 0.801201 0.016015 0.809218
O O11 0.072136 0.528391 0.023335
O O12 0.916853 0.890849 0.159558
O O13 0.668853 0.928008 0.695299
O O14 0.730362 0.037332 0.032586
O O15 0.633344 0.829986 0.361104
O O16 0.328982 0.530213 0.868187
O O17 0.500000 0.000000 0.000000
#
# Coordination Sequence:
#
# PCOD8032722 Si02
#       8
#     2   2   2   2   2   2   2   2
#     4  12  24  42  68 105 140 178 229 290 346 405
#     4  11  25  42  71 103 139 181 230 288 350 402
#     4  11  24  45  69  99 142 180 229 280 347 416
#     4  11  23  43  70  98 145 180 227 286 347 412
#     4  12  24  42  70 108 134 181 235 287 340 411
#     4  11  26  43  72 101 134 190 229 276 345 419
#     4  11  25  42  69 101 138 184 229 287 346 411
#     4  11  27  49  70  97 145 184 229 283 351 417
#
# _framework density 21.711646999999999
#
# number of rings (size 3 to 8) (size 9 to 14) (size 15 to 20)
#    0.000    0.750    3.750    3.000    7.000    2.000 
#    0.000    3.125    0.000    0.000    0.000    0.000 
#    0.000    0.000    0.000    0.000    0.000    0.000 
#
# Total GULP energy -198479.973547 kJ/mol
# GULP energy per Si atom -12404.998347 kJ/mol
# Density = 2.166223 g / cm^3
# Si number density = 21.711647 Si / 1000 Ang^3
#
#
#
# Elastic Constant Matrix: (Units=GPa)
#
#
# Indices 1 2 3 4 5 6 
#
# 1 90.9353 42.3174 23.3535 1.3271 -17.3347 0.9383
# 2 42.3174 140.6940 40.0649 2.1626 -5.6615 -2.1138
# 3 23.3535 40.0649 110.2923 -6.7032 -18.7581 -2.6630
# 4 1.3271 2.1626 -6.7032 43.6463 5.3441 2.9223
# 5 -17.3347 -5.6615 -18.7581 5.3441 38.8658 -3.1369
# 6 0.9383 -2.1138 -2.6630 2.9223 -3.1369 41.9322
#
#
#
# Elastic Compliance Matrix: (Units=1/GPa)
#
#
# Indices 1 2 3 4 5 6 
#
# 1 0.013997 -0.003768 -0.000727 -0.001017 0.005477 -0.000069
# 2 -0.003768 0.008977 -0.002764 -0.000577 -0.001605 0.000281
# 3 -0.000727 -0.002764 0.011090 0.001253 0.004520 0.000832
# 4 -0.001017 -0.000577 0.001253 0.023695 -0.003338 -0.001828
# 5 0.005477 -0.001605 0.004520 -0.003338 0.030791 0.002620
# 6 -0.000069 0.000281 0.000832 -0.001828 0.002620 0.024240
#
#
# Mechanical properties :
#
#
# Convention : Reuss Voigt Hill
#
# Bulk Modulus (GPa) = 51.16359 61.48814 56.32586
# Shear Modulus (GPa) = 37.36322 40.63457 38.99890
#
# Velocity S-wave (km/s) = 4.15285 4.33084 4.24278
# Velocity P-wave (km/s) = 6.82723 7.30685 7.07111
#
# Compressibility (1/GPa) = 0.01954515
#
# Stress axis : x y z
#
# Youngs Moduli (GPa) = 71.44614 111.40085 90.17179
#
# Poissons Ratio (x) = 0.41974 0.06554
# Poissons Ratio (y) = 0.26920 0.24926
# Poissons Ratio (z) = 0.05193 0.30794
#
# Static dielectric constant tensor:
#      x y z
#    x 3.611500 -0.013440 -0.240170 
#    y -0.013440 4.051730 0.074710 
#    z -0.240170 0.074710 3.841400 
# 
# 
# High freq. dielectric constant tensor:
#      x y z
#    x 1.855050 0.006720 -0.009650 
#    y 0.006720 1.864360 0.004800 
#    z -0.009650 0.004800 1.856520 
# 
# From -- ./inp_files/245471.got.cif
#   From: 2010.06.25/outbox.cif.g09.slc.cpg/sg2_123_cif.got.tgz:245471.got - 2010.06.27 13:26:56.
