data_PCOD8032000
_publ_section_title
;
Structure prediction by ZEFSAII (Michael W. Deem and Ramdas Pophale) SiO2 
 PCOD8032000
Probable space group: P -1
;
_chemical_formula_sum "Si O2"
_cell_formula_units_Z 14
_cell_length_a 11.417146
_cell_length_b 16.213832
_cell_length_c 16.293759
_cell_angle_alpha 141.867975
_cell_angle_beta 157.309288
_cell_angle_gamma 49.983506
_cell_volume 673.758778
_symmetry_space_group_name_H-M "P -1"
_symmetry_group_IT_number 2
_symmetry_cell_setting 'triclinic'
loop_
_space_group_symop_operation_xyz
x,y,z
-x,-y,-z
loop_
_atom_site_type_symbol
_atom_site_label
_atom_site_fract_x
_atom_site_fract_y
_atom_site_fract_z
Si Si1 0.639742 0.440196 0.619722
Si Si2 0.504128 0.811019 0.237619
Si Si3 0.735215 0.345981 0.194120
Si Si4 0.852679 0.846146 0.655739
Si Si5 0.249632 0.865276 0.374516
Si Si6 0.089704 0.166056 0.036029
Si Si7 0.809249 0.639135 0.031988
O O1 0.500000 0.500000 0.500000
O O2 0.437787 0.274023 0.369733
O O3 0.012617 0.443573 0.858029
O O4 0.604601 0.528015 0.744975
O O5 0.704318 0.783684 0.422571
O O6 0.683745 0.967343 0.436308
O O7 0.445553 0.682735 0.033801
O O8 0.160429 0.805914 0.042583
O O9 0.000000 0.500000 0.500000
O O10 0.919120 0.234964 0.229621
O O11 0.449410 0.312219 0.048894
O O12 0.577168 0.836961 0.537923
O O13 0.089444 0.007838 0.924407
O O14 0.083838 0.775949 0.277095
O O15 0.994123 0.808555 0.091493
#
# Coordination Sequence:
#
# PCOD8032000 Si02
#       7
#     2   2   2   2   2   2   2
#     4  11  23  40  64  90 122 160 200 253 304 352
#     4   9  21  40  64  92 122 161 201 251 300 356
#     4  12  27  41  59  90 127 164 200 244 313 369
#     4   9  22  41  66  89 121 161 205 251 296 358
#     4   9  19  41  67  93 120 151 214 257 288 354
#     4   9  18  40  67  93 115 163 210 245 296 359
#     4  11  26  39  60  97 123 155 206 254 299 361
#
# _framework density 20.778949999999998
#
# number of rings (size 3 to 8) (size 9 to 14) (size 15 to 20)
#    0.000    2.000    1.429    2.571    8.000    3.429 
#    0.000    1.429    0.000    0.000    0.000    0.000 
#    0.000    0.000    0.000    0.000    0.000    0.000 
#
# Total GULP energy -173538.232383 kJ/mol
# GULP energy per Si atom -12395.588027 kJ/mol
# Density = 2.073166 g / cm^3
# Si number density = 20.778950 Si / 1000 Ang^3
#
#
#
# Elastic Constant Matrix: (Units=GPa)
#
#
# Indices 1 2 3 4 5 6 
#
# 1 95.7744 23.7234 42.5102 3.4065 1.6914 -0.0075
# 2 23.7234 45.8925 12.8099 -3.4829 7.5504 8.6075
# 3 42.5102 12.8099 111.0730 12.6411 -9.1051 0.2853
# 4 3.4065 -3.4829 12.6411 26.8937 -3.6777 -6.5238
# 5 1.6914 7.5504 -9.1051 -3.6777 30.7319 3.3050
# 6 -0.0075 8.6075 0.2853 -6.5238 3.3050 22.8523
#
#
#
# Elastic Compliance Matrix: (Units=1/GPa)
#
#
# Indices 1 2 3 4 5 6 
#
# 1 0.014135 -0.006301 -0.004782 0.000150 -0.000909 0.002612
# 2 -0.006301 0.028329 -0.001557 0.002173 -0.005826 -0.009190
# 3 -0.004782 -0.001557 0.011898 -0.005053 0.003732 -0.001546
# 4 0.000150 0.002173 -0.005053 0.042792 0.001878 0.011189
# 5 -0.000909 -0.005826 0.003732 0.001878 0.035617 -0.002467
# 6 0.002612 -0.009190 -0.001546 0.011189 -0.002467 0.050792
#
#
# Mechanical properties :
#
#
# Convention : Reuss Voigt Hill
#
# Bulk Modulus (GPa) = 34.38461 45.64743 40.01602
# Shear Modulus (GPa) = 22.87952 27.67534 25.27743
#
# Velocity S-wave (km/s) = 3.32187 3.65347 3.49161
# Velocity P-wave (km/s) = 5.59436 6.30975 5.96279
#
# Compressibility (1/GPa) = 0.02908278
#
# Stress axis : x y z
#
# Youngs Moduli (GPa) = 70.74498 35.29949 84.05044
#
# Poissons Ratio (x) = 0.22243 0.40189
# Poissons Ratio (y) = 0.44578 0.13085
# Poissons Ratio (z) = 0.33827 0.05495
#
# Static dielectric constant tensor:
#      x y z
#    x 3.646070 0.124740 -0.203190 
#    y 0.124740 3.760870 0.244460 
#    z -0.203190 0.244460 4.317620 
# 
# 
# High freq. dielectric constant tensor:
#      x y z
#    x 1.798140 0.013790 -0.014610 
#    y 0.013790 1.801850 0.003240 
#    z -0.014610 0.003240 1.834570 
# 
# From -- ./inp_files/241473.got.cif
#   From: 2010.06.25/outbox.cif.g09.slc.cpg/sg2_121_cif.got.tgz:241473.got - 2010.06.27 13:26:56.
