data_PCOD8032831
_publ_section_title
;
Structure prediction by ZEFSAII (Michael W. Deem and Ramdas Pophale) SiO2 
 PCOD8032831
Probable space group: P -1
;
_chemical_formula_sum "Si O2"
_cell_formula_units_Z 16
_cell_length_a 9.564833
_cell_length_b 12.142320
_cell_length_c 17.768444
_cell_angle_alpha 32.899085
_cell_angle_beta 136.340913
_cell_angle_gamma 121.291283
_cell_volume 752.179063
_symmetry_space_group_name_H-M "P -1"
_symmetry_group_IT_number 2
_symmetry_cell_setting 'triclinic'
loop_
_space_group_symop_operation_xyz
x,y,z
-x,-y,-z
loop_
_atom_site_type_symbol
_atom_site_label
_atom_site_fract_x
_atom_site_fract_y
_atom_site_fract_z
Si Si1 0.814693 0.003919 0.742238
Si Si2 0.065773 0.411245 0.893817
Si Si3 0.721503 0.548340 0.570776
Si Si4 0.987833 0.633412 0.344719
Si Si5 0.839331 0.062148 0.547392
Si Si6 0.767687 0.242021 0.170240
Si Si7 0.672193 0.549651 0.166155
Si Si8 0.378133 0.044566 0.614360
O O1 0.755852 0.039100 0.611745
O O2 0.612368 0.061069 0.682915
O O3 0.969656 0.142888 0.749640
O O4 0.917374 0.763143 0.935737
O O5 0.072012 0.622750 0.818444
O O6 0.254102 0.371260 0.929655
O O7 0.849377 0.412250 0.766385
O O8 0.500000 0.500000 0.500000
O O9 0.713945 0.783583 0.457629
O O10 0.844389 0.505215 0.565919
O O11 0.758182 0.671916 0.196688
O O12 0.000000 0.500000 0.500000
O O13 0.772998 0.303867 0.358435
O O14 0.735288 0.927897 0.526274
O O15 0.089941 0.959067 0.702371
O O16 0.653916 0.170775 0.239325
O O17 0.580427 0.384188 0.965548
#
# Coordination Sequence:
#
# PCOD8032831 Si02
#       8
#     2   2   2   2   2   2   2   2
#     4  12  26  44  69 102 144 178 229 291 357 402
#     4  11  23  44  69 103 139 180 232 291 341 412
#     4  11  24  44  72 101 134 185 238 281 342 419
#     4  11  24  46  68  97 143 184 226 284 353 413
#     4  12  25  45  71 106 140 185 229 288 353 412
#     4  12  23  43  73 104 138 179 241 285 338 421
#     4  11  23  43  74  98 136 189 233 279 345 416
#     4  12  23  44  72 103 135 185 234 283 347 421
#
# _framework density 21.271533000000002
#
# number of rings (size 3 to 8) (size 9 to 14) (size 15 to 20)
#    0.000    0.500    6.250    3.375    0.000    3.500 
#    4.500    0.625    0.000    0.000    0.000    0.000 
#    0.000    0.000    0.000    0.000    0.000    0.000 
#
# Total GULP energy -198334.417751 kJ/mol
# GULP energy per Si atom -12395.901109 kJ/mol
# Density = 2.122312 g / cm^3
# Si number density = 21.271533 Si / 1000 Ang^3
#
#
#
# Elastic Constant Matrix: (Units=GPa)
#
#
# Indices 1 2 3 4 5 6 
#
# 1 73.5435 28.5312 44.1531 0.1438 -7.5794 -5.9907
# 2 28.5312 127.7907 45.2317 -5.4537 -6.7004 -2.2173
# 3 44.1531 45.2317 120.2073 -2.2586 0.3806 1.1238
# 4 0.1438 -5.4537 -2.2586 32.1281 8.6582 1.3187
# 5 -7.5794 -6.7004 0.3806 8.6582 42.0243 4.6275
# 6 -5.9907 -2.2173 1.1238 1.3187 4.6275 31.8179
#
#
#
# Elastic Compliance Matrix: (Units=1/GPa)
#
#
# Indices 1 2 3 4 5 6 
#
# 1 0.018634 -0.001809 -0.006238 -0.001809 0.003147 0.003220
# 2 -0.001809 0.009332 -0.002831 0.001134 0.000929 0.000228
# 3 -0.006238 -0.002831 0.011712 0.000892 -0.001693 -0.001576
# 4 -0.001809 0.001134 0.000892 0.033286 -0.006938 -0.000664
# 5 0.003147 0.000929 -0.001693 -0.006938 0.026266 -0.002815
# 6 0.003220 0.000228 -0.001576 -0.000664 -0.002815 0.032544
#
#
# Mechanical properties :
#
#
# Convention : Reuss Voigt Hill
#
# Bulk Modulus (GPa) = 55.79282 61.93038 58.86160
# Shear Modulus (GPa) = 31.34710 34.76908 33.05809
#
# Velocity S-wave (km/s) = 3.84300 4.04733 3.94648
# Velocity P-wave (km/s) = 6.78066 7.14273 6.96405
#
# Compressibility (1/GPa) = 0.01792345
#
# Stress axis : x y z
#
# Youngs Moduli (GPa) = 53.66420 107.15635 85.38034
#
# Poissons Ratio (x) = 0.19382 0.53260
# Poissons Ratio (y) = 0.09707 0.24170
# Poissons Ratio (z) = 0.33476 0.30335
#
# Static dielectric constant tensor:
#      x y z
#    x 4.146150 0.372990 0.172040 
#    y 0.372990 4.365890 0.205230 
#    z 0.172040 0.205230 3.895250 
# 
# 
# High freq. dielectric constant tensor:
#      x y z
#    x 1.820630 0.002430 0.001570 
#    y 0.002430 1.846100 0.003970 
#    z 0.001570 0.003970 1.833280 
# 
# From -- ./inp_files/189815.got.cif
#   From: 2010.06.25/outbox.cif.g09.slc.cpg/sg2_95_cif.got.tgz:189815.got - 2010.06.27 13:26:56.
