data_PCOD8032383
_publ_section_title
;
Structure prediction by ZEFSAII (Michael W. Deem and Ramdas Pophale) SiO2 
 PCOD8032383
Probable space group: P -1
;
_chemical_formula_sum "Si O2"
_cell_formula_units_Z 12
_cell_length_a 11.558113
_cell_length_b 12.140242
_cell_length_c 9.747849
_cell_angle_alpha 35.077839
_cell_angle_beta 56.636157
_cell_angle_gamma 40.934922
_cell_volume 506.486844
_symmetry_space_group_name_H-M "P -1"
_symmetry_group_IT_number 2
_symmetry_cell_setting 'triclinic'
loop_
_space_group_symop_operation_xyz
x,y,z
-x,-y,-z
loop_
_atom_site_type_symbol
_atom_site_label
_atom_site_fract_x
_atom_site_fract_y
_atom_site_fract_z
Si Si1 0.883043 0.377407 0.424073
Si Si2 0.876665 0.726785 0.247856
Si Si3 0.602434 0.474690 0.721165
Si Si4 0.278468 0.494812 0.889740
Si Si5 0.122816 0.840065 0.900704
Si Si6 0.500333 0.970668 0.368716
O O1 0.892471 0.596599 0.226129
O O2 0.717974 0.434463 0.557146
O O3 0.854670 0.371892 0.287287
O O4 0.064944 0.106734 0.627061
O O5 0.676024 0.911390 0.246641
O O6 0.000000 0.500000 0.500000
O O7 0.948673 0.880347 0.033092
O O8 0.464921 0.437681 0.795942
O O9 0.488399 0.756302 0.563551
O O10 0.720117 0.288396 0.959561
O O11 0.183974 0.668460 0.904715
O O12 0.325515 0.230212 0.155868
O O13 0.500000 0.000000 0.500000
#
# Coordination Sequence:
#
# PCOD8032383 Si02
#       6
#     2   2   2   2   2   2
#     4  11  26  43  67  97 133 172 216 272 329 380
#     4  11  23  42  68  96 129 173 221 263 323 389
#     4  11  24  43  69  96 128 177 221 261 325 390
#     4  12  26  42  66 101 134 169 215 275 329 378
#     4  12  24  43  68  99 129 177 218 263 325 392
#     4  11  23  42  68  97 130 171 221 267 320 389
#
# _framework density 23.692618
#
# number of rings (size 3 to 8) (size 9 to 14) (size 15 to 20)
#    0.000    0.667    5.000    3.000    2.333    6.000 
#    0.000    0.000    0.000    0.000    0.000    0.000 
#    0.000    0.000    0.000    0.000    0.000    0.000 
#
# Total GULP energy -148857.234418 kJ/mol
# GULP energy per Si atom -12404.769535 kJ/mol
# Density = 2.363869 g / cm^3
# Si number density = 23.692618 Si / 1000 Ang^3
#
#
#
# Elastic Constant Matrix: (Units=GPa)
#
#
# Indices 1 2 3 4 5 6 
#
# 1 58.3143 -19.0874 4.2502 -0.1277 1.7424 6.6164
# 2 -19.0874 76.0759 8.9811 -19.7184 10.5639 11.9705
# 3 4.2502 8.9811 97.8052 -24.3519 10.1776 7.7306
# 4 -0.1277 -19.7184 -24.3519 37.0863 13.0533 -0.1069
# 5 1.7424 10.5639 10.1776 13.0533 33.3018 4.6449
# 6 6.6164 11.9705 7.7306 -0.1069 4.6449 23.5913
#
#
#
# Elastic Compliance Matrix: (Units=1/GPa)
#
#
# Indices 1 2 3 4 5 6 
#
# 1 0.021831 0.010368 0.002053 0.009474 -0.007297 -0.010577
# 2 0.010368 0.026200 0.006314 0.024537 -0.018372 -0.014543
# 3 0.002053 0.006314 0.016101 0.018657 -0.013462 -0.006321
# 4 0.009474 0.024537 0.018657 0.065558 -0.037797 -0.013482
# 5 -0.007297 -0.018372 -0.013462 -0.037797 0.054487 0.004881
# 6 -0.010577 -0.014543 -0.006321 -0.013482 0.004881 0.053783
#
#
# Mechanical properties :
#
#
# Convention : Reuss Voigt Hill
#
# Bulk Modulus (GPa) = 9.84211 24.49812 17.17012
# Shear Modulus (GPa) = 21.33497 34.66597 28.00047
#
# Velocity S-wave (km/s) = 3.00407 3.82927 3.44149
# Velocity P-wave (km/s) = 4.02439 5.46932 4.80152
#
# Compressibility (1/GPa) = 0.10160424
#
# Stress axis : x y z
#
# Youngs Moduli (GPa) = 45.80558 38.16806 62.10742
#
# Poissons Ratio (x) = -0.39574 -0.12754
# Poissons Ratio (y) = -0.47493 -0.39215
# Poissons Ratio (z) = -0.09406 -0.24100
#
# Static dielectric constant tensor:
#      x y z
#    x 4.192070 0.456820 -0.322600 
#    y 0.456820 4.245620 -0.199230 
#    z -0.322600 -0.199230 4.444680 
# 
# 
# High freq. dielectric constant tensor:
#      x y z
#    x 1.929140 0.009640 -0.009170 
#    y 0.009640 1.959740 -0.008220 
#    z -0.009170 -0.008220 1.937640 
# 
# From -- ./inp_files/150839.got.cif
#   From: 2010.06.25/outbox.cif.g09.slc.cpg/sg2_76_cif.got.tgz:150839.got - 2010.06.27 13:26:56.
