data_PCOD8032852
_publ_section_title
;
Structure prediction by ZEFSAII (Michael W. Deem and Ramdas Pophale) SiO2 
 PCOD8032852
Probable space group: P -1
;
_chemical_formula_sum "Si O2"
_cell_formula_units_Z 16
_cell_length_a 17.304265
_cell_length_b 11.605702
_cell_length_c 19.245754
_cell_angle_alpha 22.892734
_cell_angle_beta 30.354349
_cell_angle_gamma 31.964154
_cell_volume 731.208750
_symmetry_space_group_name_H-M "P -1"
_symmetry_group_IT_number 2
_symmetry_cell_setting 'triclinic'
loop_
_space_group_symop_operation_xyz
x,y,z
-x,-y,-z
loop_
_atom_site_type_symbol
_atom_site_label
_atom_site_fract_x
_atom_site_fract_y
_atom_site_fract_z
Si Si1 0.015186 0.677322 0.231021
Si Si2 0.423827 0.188632 0.022137
Si Si3 0.561486 0.771240 0.270558
Si Si4 0.529888 0.745189 0.676218
Si Si5 0.083021 0.645707 0.042087
Si Si6 0.872282 0.407502 0.605630
Si Si7 0.360893 0.779245 0.927588
Si Si8 0.887265 0.720754 0.016170
O O1 0.014838 0.574549 0.208512
O O2 0.940259 0.426647 0.464565
O O3 0.192044 0.694669 0.108848
O O4 0.892310 0.012077 0.157035
O O5 0.242026 0.385291 0.042766
O O6 0.433433 0.980052 0.200491
O O7 0.527033 0.424220 0.822537
O O8 0.500000 0.000000 0.000000
O O9 0.500000 0.500000 0.500000
O O10 0.723546 0.626627 0.183493
O O11 0.628311 0.946607 0.182608
O O12 0.710392 0.667117 0.606210
O O13 0.398989 0.856685 0.776139
O O14 0.500000 0.000000 0.500000
O O15 0.951475 0.655793 0.080557
O O16 0.000000 0.500000 0.500000
O O17 0.859646 0.071937 0.819803
O O18 0.500000 0.500000 0.000000
O O19 0.000000 0.500000 0.000000
#
# Coordination Sequence:
#
# PCOD8032852 Si02
#       8
#     2   2   2   2   2   2   2   2
#     4  11  23  43  76 105 141 181 236 302 353 415
#     4  12  26  49  69 103 148 188 234 296 355 430
#     4  12  27  49  71 101 139 191 238 287 353 421
#     4  12  27  43  73 107 140 185 239 292 363 417
#     4  11  23  44  74 104 141 184 234 289 362 414
#     4  12  24  44  70 106 138 179 236 289 351 419
#     4  12  22  47  73 102 142 182 239 297 345 424
#     4  12  26  47  70 102 144 186 231 288 350 431
#
# _framework density 21.881575000000002
#
# number of rings (size 3 to 8) (size 9 to 14) (size 15 to 20)
#    0.000    0.250    6.250    2.250    3.500    3.000 
#    0.000    1.250    0.000    0.000    0.000    0.000 
#    0.000    0.000    0.000    0.000    0.000    0.000 
#
# Total GULP energy -198295.852017 kJ/mol
# GULP energy per Si atom -12393.490751 kJ/mol
# Density = 2.183177 g / cm^3
# Si number density = 21.881575 Si / 1000 Ang^3
#
#
#
# Elastic Constant Matrix: (Units=GPa)
#
#
# Indices 1 2 3 4 5 6 
#
# 1 98.0144 32.5459 39.0075 -4.3956 20.3930 -2.1134
# 2 32.5459 135.5955 41.2398 1.7747 10.7589 -11.5015
# 3 39.0075 41.2398 137.8649 12.7607 21.6378 -15.0417
# 4 -4.3956 1.7747 12.7607 32.7463 -2.3205 1.4507
# 5 20.3930 10.7589 21.6378 -2.3205 33.4747 -1.7606
# 6 -2.1134 -11.5015 -15.0417 1.4507 -1.7606 48.4514
#
#
#
# Elastic Compliance Matrix: (Units=1/GPa)
#
#
# Indices 1 2 3 4 5 6 
#
# 1 0.013160 -0.002050 -0.002579 0.002532 -0.005568 -0.000991
# 2 -0.002050 0.008547 -0.001768 -0.000132 -0.000292 0.001384
# 3 -0.002579 -0.001768 0.009904 -0.004536 -0.004445 0.002517
# 4 0.002532 -0.000132 -0.004536 0.033005 0.003605 -0.002186
# 5 -0.005568 -0.000292 -0.004445 0.003605 0.036457 -0.000475
# 6 -0.000991 0.001384 0.002517 -0.002186 -0.000475 0.021754
#
#
# Mechanical properties :
#
#
# Convention : Reuss Voigt Hill
#
# Bulk Modulus (GPa) = 53.14020 66.34014 59.74017
# Shear Modulus (GPa) = 35.23785 40.17993 37.70889
#
# Velocity S-wave (km/s) = 4.01732 4.28979 4.15579
# Velocity P-wave (km/s) = 6.77175 7.41081 7.09847
#
# Compressibility (1/GPa) = 0.01881814
#
# Stress axis : x y z
#
# Youngs Moduli (GPa) = 75.98610 117.00339 100.96910
#
# Poissons Ratio (x) = 0.23983 0.26040
# Poissons Ratio (y) = 0.15576 0.17848
# Poissons Ratio (z) = 0.19597 0.20682
#
# Static dielectric constant tensor:
#      x y z
#    x 3.931800 -0.235790 0.173020 
#    y -0.235790 4.154820 0.279430 
#    z 0.173020 0.279430 3.799210 
# 
# 
# High freq. dielectric constant tensor:
#      x y z
#    x 1.877020 -0.009920 0.017050 
#    y -0.009920 1.879270 0.010790 
#    z 0.017050 0.010790 1.845460 
# 
# From -- ./inp_files/599991.got.cif
#   From: 2010.06.25/outbox.cif.g09.slc.cpg/sg2_300_cif.got.tgz:599991.got - 2010.06.27 13:26:56.
