data_PCOD8032921
_publ_section_title
;
Structure prediction by ZEFSAII (Michael W. Deem and Ramdas Pophale) SiO2 
 PCOD8032921
Probable space group: P -1
;
_chemical_formula_sum "Si O2"
_cell_formula_units_Z 14
_cell_length_a 6.723003
_cell_length_b 17.877253
_cell_length_c 9.981932
_cell_angle_alpha 45.321002
_cell_angle_beta 113.780078
_cell_angle_gamma 134.059904
_cell_volume 604.333729
_symmetry_space_group_name_H-M "P -1"
_symmetry_group_IT_number 2
_symmetry_cell_setting 'triclinic'
loop_
_space_group_symop_operation_xyz
x,y,z
-x,-y,-z
loop_
_atom_site_type_symbol
_atom_site_label
_atom_site_fract_x
_atom_site_fract_y
_atom_site_fract_z
Si Si1 0.256902 0.206548 0.718883
Si Si2 0.864130 0.444648 0.680335
Si Si3 0.045433 0.338524 0.374639
Si Si4 0.807180 0.050176 0.012990
Si Si5 0.828407 0.604627 0.955977
Si Si6 0.550011 0.912776 0.532007
Si Si7 0.934598 0.856230 0.775661
O O1 0.546492 0.303853 0.759041
O O2 0.246965 0.297322 0.492367
O O3 0.228261 0.084729 0.796193
O O4 0.969827 0.129397 0.822919
O O5 0.863946 0.556660 0.613183
O O6 0.000000 0.500000 0.500000
O O7 0.038510 0.419340 0.855224
O O8 0.070934 0.401878 0.155902
O O9 0.726211 0.204283 0.475938
O O10 0.000325 0.165237 0.031567
O O11 0.500000 0.000000 0.000000
O O12 0.901663 0.749535 0.801348
O O13 0.500000 0.500000 0.000000
O O14 0.659695 0.846096 0.730968
O O15 0.500000 0.000000 0.500000
O O16 0.787859 0.997606 0.378663
#
# Coordination Sequence:
#
# PCOD8032921 Si02
#       7
#     2   2   2   2   2   2   2
#     4  11  27  46  73 107 145 187 244 291 365 427
#     4  12  29  48  75 103 145 194 244 300 361 429
#     4  12  26  47  75 103 146 189 239 299 356 429
#     4  11  25  45  73 105 146 189 235 297 358 431
#     4  12  27  47  72 107 146 188 244 296 361 428
#     4  11  23  44  68 108 142 183 232 292 357 418
#     4  11  25  40  74 102 142 184 237 292 353 425
#
# _framework density 23.166008000000001
#
# number of rings (size 3 to 8) (size 9 to 14) (size 15 to 20)
#    0.000    0.571    1.429    5.143   12.000    2.286 
#    0.000    0.000    0.000    0.000    0.000    0.000 
#    0.000    0.000    0.000    0.000    0.000    0.000 
#
# Total GULP energy -173552.052355 kJ/mol
# GULP energy per Si atom -12396.575168 kJ/mol
# Density = 2.311328 g / cm^3
# Si number density = 23.166008 Si / 1000 Ang^3
#
#
#
# Elastic Constant Matrix: (Units=GPa)
#
#
# Indices 1 2 3 4 5 6 
#
# 1 118.1604 37.9745 42.2879 9.6416 1.0967 3.3808
# 2 37.9745 127.6121 30.5399 4.6022 -9.1480 10.1265
# 3 42.2879 30.5399 110.8287 21.1102 4.7423 1.9210
# 4 9.6416 4.6022 21.1102 45.0928 6.5926 1.2425
# 5 1.0967 -9.1480 4.7423 6.5926 30.7413 6.7329
# 6 3.3808 10.1265 1.9210 1.2425 6.7329 53.9935
#
#
#
# Elastic Compliance Matrix: (Units=1/GPa)
#
#
# Indices 1 2 3 4 5 6 
#
# 1 0.010410 -0.002342 -0.003228 -0.000405 -0.000477 -0.000029
# 2 -0.002342 0.009383 -0.001795 -0.000089 0.003609 -0.001997
# 3 -0.003228 -0.001795 0.011636 -0.004386 -0.001360 0.000395
# 4 -0.000405 -0.000089 -0.004386 0.025014 -0.004747 0.000214
# 5 -0.000477 0.003609 -0.001360 -0.004747 0.035937 -0.004971
# 6 -0.000029 -0.001997 0.000395 0.000214 -0.004971 0.019498
#
#
# Mechanical properties :
#
#
# Convention : Reuss Voigt Hill
#
# Bulk Modulus (GPa) = 59.88765 64.24509 62.06637
# Shear Modulus (GPa) = 37.82885 42.35213 40.09049
#
# Velocity S-wave (km/s) = 4.04536 4.28039 4.16453
# Velocity P-wave (km/s) = 6.90851 7.22645 7.06927
#
# Compressibility (1/GPa) = 0.01669793
#
# Stress axis : x y z
#
# Youngs Moduli (GPa) = 96.06572 106.57301 85.93951
#
# Poissons Ratio (x) = 0.24963 0.27745
# Poissons Ratio (y) = 0.22502 0.15424
# Poissons Ratio (z) = 0.31014 0.19127
#
# Static dielectric constant tensor:
#      x y z
#    x 4.194480 0.081370 0.047640 
#    y 0.081370 4.429800 0.064940 
#    z 0.047640 0.064940 4.279410 
# 
# 
# High freq. dielectric constant tensor:
#      x y z
#    x 1.923240 0.005220 0.007050 
#    y 0.005220 1.933260 0.002080 
#    z 0.007050 0.002080 1.917330 
# 
# From -- ./inp_files/369300.got.cif
#   From: 2010.06.25/outbox.cif.g09.slc.cpg/sg2_185_cif.got.tgz:369300.got - 2010.06.27 13:26:56.
