data_PCOD8032793
_publ_section_title
;
Structure prediction by ZEFSAII (Michael W. Deem and Ramdas Pophale) SiO2 
 PCOD8032793
Probable space group: P -1
;
_chemical_formula_sum "Si O2"
_cell_formula_units_Z 16
_cell_length_a 9.475982
_cell_length_b 9.058112
_cell_length_c 15.413399
_cell_angle_alpha 69.821098
_cell_angle_beta 37.971567
_cell_angle_gamma 67.366289
_cell_volume 749.295810
_symmetry_space_group_name_H-M "P -1"
_symmetry_group_IT_number 2
_symmetry_cell_setting 'triclinic'
loop_
_space_group_symop_operation_xyz
x,y,z
-x,-y,-z
loop_
_atom_site_type_symbol
_atom_site_label
_atom_site_fract_x
_atom_site_fract_y
_atom_site_fract_z
Si Si1 0.386154 0.144492 0.278192
Si Si2 0.662153 0.342339 0.990174
Si Si3 0.988354 0.659285 0.026396
Si Si4 0.953466 0.324063 0.539938
Si Si5 0.263874 0.848591 0.738146
Si Si6 0.949814 0.801806 0.297194
Si Si7 0.487996 0.326089 0.506532
Si Si8 0.462140 0.786305 0.312964
O O1 0.500765 0.227903 0.129286
O O2 0.522964 0.141058 0.303450
O O3 0.124451 0.242977 0.397526
O O4 0.378645 0.967124 0.283268
O O5 0.500000 0.500000 0.000000
O O6 0.809507 0.247424 0.860638
O O7 0.832500 0.386210 0.972416
O O8 0.733157 0.724167 0.174005
O O9 0.000000 0.500000 0.000000
O O10 0.056275 0.796250 0.903936
O O11 0.990832 0.209111 0.628273
O O12 0.687437 0.333194 0.634866
O O13 0.000000 0.500000 0.500000
O O14 0.350809 0.719314 0.646920
O O15 0.175625 0.019309 0.702400
O O16 0.779923 0.678281 0.384818
O O17 0.500000 0.500000 0.500000
O O18 0.576813 0.205033 0.566437
#
# Coordination Sequence:
#
# PCOD8032793 Si02
#       8
#     2   2   2   2   2   2   2   2
#     4  11  23  46  70  99 135 177 222 274 341 396
#     4  11  25  44  71  99 135 177 221 274 336 405
#     4  11  25  44  69 101 135 174 223 277 337 395
#     4  12  27  44  68  98 141 180 219 277 343 392
#     4  11  23  43  73 100 133 175 222 280 335 398
#     4  12  23  45  68  99 133 178 225 270 338 398
#     4  12  23  40  68 102 132 168 227 274 324 400
#     4  12  25  45  69  99 137 175 228 278 329 400
#
# _framework density 21.353382
#
# number of rings (size 3 to 8) (size 9 to 14) (size 15 to 20)
#    0.000    0.500    3.750    4.500    5.250    2.000 
#    2.250    1.250    0.000    0.000    0.000    0.000 
#    0.000    0.000    0.000    0.000    0.000    0.000 
#
# Total GULP energy -198489.971292 kJ/mol
# GULP energy per Si atom -12405.623206 kJ/mol
# Density = 2.130478 g / cm^3
# Si number density = 21.353382 Si / 1000 Ang^3
#
#
#
# Elastic Constant Matrix: (Units=GPa)
#
#
# Indices 1 2 3 4 5 6 
#
# 1 90.7777 22.4723 57.0367 -6.1786 -11.0051 -0.7156
# 2 22.4723 119.0768 48.6770 8.8078 -5.8591 3.2077
# 3 57.0367 48.6770 143.7290 3.9872 -4.8333 -3.4173
# 4 -6.1786 8.8078 3.9872 31.1897 1.7792 -1.1591
# 5 -11.0051 -5.8591 -4.8333 1.7792 25.1819 -3.2289
# 6 -0.7156 3.2077 -3.4173 -1.1591 -3.2289 37.9133
#
#
#
# Elastic Compliance Matrix: (Units=1/GPa)
#
#
# Indices 1 2 3 4 5 6 
#
# 1 0.015850 -0.000554 -0.006015 0.003770 0.005426 0.000381
# 2 -0.000554 0.010070 -0.003089 -0.002688 0.001558 -0.001090
# 3 -0.006015 -0.003089 0.010419 -0.001552 -0.001117 0.000944
# 4 0.003770 -0.002688 -0.001552 0.033893 -0.001534 0.001064
# 5 0.005426 0.001558 -0.001117 -0.001534 0.042783 0.003467
# 6 0.000381 -0.001090 0.000944 0.001064 0.003467 0.026888
#
#
# Mechanical properties :
#
#
# Convention : Reuss Voigt Hill
#
# Bulk Modulus (GPa) = 58.75095 67.77284 63.26189
# Shear Modulus (GPa) = 30.32220 33.88347 32.10284
#
# Velocity S-wave (km/s) = 3.77240 3.98778 3.88159
# Velocity P-wave (km/s) = 6.82261 7.28085 7.05545
#
# Compressibility (1/GPa) = 0.01702100
#
# Stress axis : x y z
#
# Youngs Moduli (GPa) = 63.09192 99.30098 95.98031
#
# Poissons Ratio (x) = 0.05506 0.57733
# Poissons Ratio (y) = 0.03498 0.29653
# Poissons Ratio (z) = 0.37950 0.30679
#
# Static dielectric constant tensor:
#      x y z
#    x 3.966040 -0.115180 0.074020 
#    y -0.115180 3.724960 -0.190990 
#    z 0.074020 -0.190990 4.282430 
# 
# 
# High freq. dielectric constant tensor:
#      x y z
#    x 1.837060 -0.002090 0.004590 
#    y -0.002090 1.844470 -0.004890 
#    z 0.004590 -0.004890 1.857420 
# 
# From -- ./inp_files/208265.got.cif
#   From: 2010.06.25/outbox.cif.g09.slc.cpg/sg2_105_cif.got.tgz:208265.got - 2010.06.27 13:26:56.
