data_PCOD8032832
_publ_section_title
;
Structure prediction by ZEFSAII (Michael W. Deem and Ramdas Pophale) SiO2 
 PCOD8032832
Probable space group: P -1
;
_chemical_formula_sum "Si O2"
_cell_formula_units_Z 16
_cell_length_a 14.948896
_cell_length_b 20.630130
_cell_length_c 8.207403
_cell_angle_alpha 55.484802
_cell_angle_beta 122.780591
_cell_angle_gamma 159.093425
_cell_volume 743.606165
_symmetry_space_group_name_H-M "P -1"
_symmetry_group_IT_number 2
_symmetry_cell_setting 'triclinic'
loop_
_space_group_symop_operation_xyz
x,y,z
-x,-y,-z
loop_
_atom_site_type_symbol
_atom_site_label
_atom_site_fract_x
_atom_site_fract_y
_atom_site_fract_z
Si Si1 0.631728 0.668198 0.219666
Si Si2 0.907683 0.722262 0.869020
Si Si3 0.223341 0.801563 0.577501
Si Si4 0.778564 0.204141 0.036336
Si Si5 0.986357 0.061621 0.523854
Si Si6 0.901570 0.453686 0.291946
Si Si7 0.020376 0.212105 0.785119
Si Si8 0.358512 0.163031 0.187362
O O1 0.339271 0.455649 0.229511
O O2 0.738631 0.753071 0.385145
O O3 0.762411 0.677260 0.269240
O O4 0.698754 0.790584 0.009906
O O5 0.058116 0.742963 0.989600
O O6 0.068325 0.897253 0.692412
O O7 0.866033 0.716807 0.023227
O O8 0.199823 0.802897 0.743383
O O9 0.151266 0.663265 0.681731
O O10 0.035800 0.735376 0.394303
O O11 0.500000 0.000000 0.500000
O O12 0.881512 0.359485 0.868975
O O13 0.500000 0.000000 0.000000
O O14 0.757326 0.906935 0.646419
O O15 0.000000 0.000000 0.500000
O O16 0.653859 0.342058 0.224466
O O17 0.000000 0.500000 0.500000
O O18 0.771741 0.992325 0.827945
#
# Coordination Sequence:
#
# PCOD8032832 Si02
#       8
#     2   2   2   2   2   2   2   2
#     4  11  23  44  69  99 140 181 231 282 346 410
#     4  12  24  43  68 104 137 176 231 289 343 413
#     4  12  25  47  72 102 139 183 231 286 349 415
#     4  12  27  47  72 102 137 184 236 291 352 416
#     4  11  24  43  67 103 140 181 228 279 346 416
#     4  12  26  47  71 105 138 182 238 288 351 414
#     4  11  23  43  74  98 140 186 225 282 352 416
#     4  11  23  45  70  98 141 184 226 284 346 417
#
# _framework density 21.516766000000001
#
# number of rings (size 3 to 8) (size 9 to 14) (size 15 to 20)
#    0.000    0.500    2.500    7.875    1.750    0.000 
#    2.250    0.000    0.000    0.000    0.000    0.000 
#    0.000    0.000    0.000    0.000    0.000    0.000 
#
# Total GULP energy -198400.816095 kJ/mol
# GULP energy per Si atom -12400.051006 kJ/mol
# Density = 2.146779 g / cm^3
# Si number density = 21.516766 Si / 1000 Ang^3
#
#
#
# Elastic Constant Matrix: (Units=GPa)
#
#
# Indices 1 2 3 4 5 6 
#
# 1 117.9446 46.8380 35.0941 3.5956 4.7951 -11.3716
# 2 46.8380 123.5688 30.4568 -0.1547 2.9824 2.8044
# 3 35.0941 30.4568 123.6098 -9.2819 3.1694 -7.1239
# 4 3.5956 -0.1547 -9.2819 46.0173 -7.4462 4.8834
# 5 4.7951 2.9824 3.1694 -7.4462 46.6062 8.4967
# 6 -11.3716 2.8044 -7.1239 4.8834 8.4967 32.6824
#
#
#
# Elastic Compliance Matrix: (Units=1/GPa)
#
#
# Indices 1 2 3 4 5 6 
#
# 1 0.011188 -0.003786 -0.002088 -0.002108 -0.001939 0.004582
# 2 -0.003786 0.009952 -0.001513 0.000371 0.000400 -0.002660
# 3 -0.002088 -0.001513 0.009271 0.001861 -0.000242 0.001209
# 4 -0.002108 0.000371 0.001861 0.023588 0.004769 -0.005124
# 5 -0.001939 0.000400 -0.000242 0.004769 0.023806 -0.007663
# 6 0.004582 -0.002660 0.001209 -0.005124 -0.007663 0.035441
#
#
# Mechanical properties :
#
#
# Convention : Reuss Voigt Hill
#
# Bulk Modulus (GPa) = 63.95023 65.54456 64.74739
# Shear Modulus (GPa) = 37.52839 41.91013 39.71926
#
# Velocity S-wave (km/s) = 4.18083 4.41816 4.30113
# Velocity P-wave (km/s) = 7.28639 7.52031 7.40427
#
# Compressibility (1/GPa) = 0.01563716
#
# Stress axis : x y z
#
# Youngs Moduli (GPa) = 89.38011 100.48437 107.86100
#
# Poissons Ratio (x) = 0.38043 0.22523
# Poissons Ratio (y) = 0.33839 0.16318
# Poissons Ratio (z) = 0.18664 0.15202
#
# Static dielectric constant tensor:
#      x y z
#    x 4.258880 -0.247390 0.196190 
#    y -0.247390 3.454150 -0.146240 
#    z 0.196190 -0.146240 4.073990 
# 
# 
# High freq. dielectric constant tensor:
#      x y z
#    x 1.853790 -0.006880 0.006830 
#    y -0.006880 1.847210 -0.000370 
#    z 0.006830 -0.000370 1.863780 
# 
# From -- ./inp_files/319269.got.cif
#   From: 2010.06.25/outbox.cif.g09.slc.cpg/sg2_160_cif.got.tgz:319269.got - 2010.06.27 13:26:56.
