data_PCOD8032198
_publ_section_title
;
Structure prediction by ZEFSAII (Michael W. Deem and Ramdas Pophale) SiO2 
 PCOD8032198
Probable space group: P -1
;
_chemical_formula_sum "Si O2"
_cell_formula_units_Z 12
_cell_length_a 8.479787
_cell_length_b 14.946520
_cell_length_c 9.209367
_cell_angle_alpha 31.941454
_cell_angle_beta 68.150885
_cell_angle_gamma 79.577759
_cell_volume 551.108107
_symmetry_space_group_name_H-M "P -1"
_symmetry_group_IT_number 2
_symmetry_cell_setting 'triclinic'
loop_
_space_group_symop_operation_xyz
x,y,z
-x,-y,-z
loop_
_atom_site_type_symbol
_atom_site_label
_atom_site_fract_x
_atom_site_fract_y
_atom_site_fract_z
Si Si1 0.220056 0.485054 0.204836
Si Si2 0.967240 0.228007 0.110050
Si Si3 0.572450 0.032629 0.091973
Si Si4 0.953767 0.163495 0.867625
Si Si5 0.585429 0.736066 0.719292
Si Si6 0.274952 0.113425 0.247882
O O1 0.285569 0.389580 0.178447
O O2 0.118224 0.335771 0.556503
O O3 0.078342 0.593467 0.073893
O O4 0.400303 0.622468 0.010129
O O5 0.175211 0.255541 0.032228
O O6 0.854293 0.081969 0.461212
O O7 0.921720 0.155989 0.061089
O O8 0.451781 0.140001 0.060264
O O9 0.559892 0.845226 0.434202
O O10 0.770324 0.164003 0.850542
O O11 0.500000 0.000000 0.000000
O O12 0.000000 0.000000 0.000000
O O13 0.679763 0.874355 0.615159
#
# Coordination Sequence:
#
# PCOD8032198 Si02
#       6
#     2   2   2   2   2   2
#     4  11  24  43  68  97 136 172 220 275 330 384
#     4  11  23  41  69 101 132 173 222 271 328 391
#     4  12  24  43  71  98 128 175 224 270 325 397
#     4  12  23  44  67  97 135 174 220 274 332 384
#     4  11  23  46  69  96 133 178 217 271 332 391
#     4  11  23  43  70  97 133 177 220 265 332 399
#
# _framework density 21.774311000000001
#
# number of rings (size 3 to 8) (size 9 to 14) (size 15 to 20)
#    0.000    0.667    5.000    3.000    0.000    2.000 
#    6.000    1.667    0.000    0.000    0.000    0.000 
#    0.000    0.000    0.000    0.000    0.000    0.000 
#
# Total GULP energy -148683.798939 kJ/mol
# GULP energy per Si atom -12390.316578 kJ/mol
# Density = 2.172475 g / cm^3
# Si number density = 21.774311 Si / 1000 Ang^3
#
#
#
# Elastic Constant Matrix: (Units=GPa)
#
#
# Indices 1 2 3 4 5 6 
#
# 1 148.2345 68.8393 53.9639 10.8251 5.5858 -20.1531
# 2 68.8393 112.8690 31.6644 1.4155 22.2172 -28.9582
# 3 53.9639 31.6644 100.7285 -7.6667 -13.0181 -7.2187
# 4 10.8251 1.4155 -7.6667 27.8499 -2.9803 9.3874
# 5 5.5858 22.2172 -13.0181 -2.9803 40.3798 2.9857
# 6 -20.1531 -28.9582 -7.2187 9.3874 2.9857 54.8390
#
#
#
# Elastic Compliance Matrix: (Units=1/GPa)
#
#
# Indices 1 2 3 4 5 6 
#
# 1 0.011736 -0.004680 -0.005347 -0.006750 -0.001446 0.002372
# 2 -0.004680 0.017129 -0.004025 -0.004060 -0.010972 0.008088
# 3 -0.005347 -0.004025 0.015600 0.008898 0.008939 -0.004047
# 4 -0.006750 -0.004060 0.008898 0.046319 0.010338 -0.011945
# 5 -0.001446 -0.010972 0.008939 0.010338 0.035300 -0.008840
# 6 0.002372 0.008088 -0.004047 -0.011945 -0.008840 0.025371
#
#
# Mechanical properties :
#
#
# Convention : Reuss Voigt Hill
#
# Bulk Modulus (GPa) = 61.11836 74.52969 67.82403
# Shear Modulus (GPa) = 27.02532 38.43803 32.73168
#
# Velocity S-wave (km/s) = 3.52683 4.20610 3.88135
# Velocity P-wave (km/s) = 6.68690 7.60861 7.16260
#
# Compressibility (1/GPa) = 0.01636170
#
# Stress axis : x y z
#
# Youngs Moduli (GPa) = 85.21007 58.38061 64.10308
#
# Poissons Ratio (x) = 0.27321 0.34274
# Poissons Ratio (y) = 0.39877 0.25800
# Poissons Ratio (z) = 0.45559 0.23497
#
# Static dielectric constant tensor:
#      x y z
#    x 4.157790 -0.336980 -0.169040 
#    y -0.336980 3.995100 -0.034310 
#    z -0.169040 -0.034310 3.893450 
# 
# 
# High freq. dielectric constant tensor:
#      x y z
#    x 1.861820 -0.025980 -0.017430 
#    y -0.025980 1.860550 -0.000900 
#    z -0.017430 -0.000900 1.843220 
# 
# From -- ./inp_files/148058.got.cif
#   From: 2010.06.25/outbox.cif.g09.slc.cpg/sg2_75_cif.got.tgz:148058.got - 2010.06.27 13:26:56.
