data_PCOD8032725
_publ_section_title
;
Structure prediction by ZEFSAII (Michael W. Deem and Ramdas Pophale) SiO2 
 PCOD8032725
Probable space group: P -1
;
_chemical_formula_sum "Si O2"
_cell_formula_units_Z 16
_cell_length_a 10.438698
_cell_length_b 14.945622
_cell_length_c 8.813964
_cell_angle_alpha 87.925908
_cell_angle_beta 54.299323
_cell_angle_gamma 129.296591
_cell_volume 659.891827
_symmetry_space_group_name_H-M "P -1"
_symmetry_group_IT_number 2
_symmetry_cell_setting 'triclinic'
loop_
_space_group_symop_operation_xyz
x,y,z
-x,-y,-z
loop_
_atom_site_type_symbol
_atom_site_label
_atom_site_fract_x
_atom_site_fract_y
_atom_site_fract_z
Si Si1 0.942608 0.664669 0.405959
Si Si2 0.696591 0.051245 0.049033
Si Si3 0.882740 0.380186 0.212140
Si Si4 0.459997 0.661824 0.319340
Si Si5 0.445805 0.108690 0.325458
Si Si6 0.198093 0.381740 0.166707
Si Si7 0.425693 0.768380 0.068926
Si Si8 0.979026 0.125417 0.138785
O O1 0.646531 0.489889 0.583222
O O2 0.973260 0.709101 0.556342
O O3 0.032126 0.787029 0.228075
O O4 0.123899 0.660356 0.251990
O O5 0.473191 0.026897 0.219518
O O6 0.755717 0.044302 0.175972
O O7 0.578196 0.915219 0.046734
O O8 0.123699 0.444040 0.137116
O O9 0.681145 0.337489 0.466775
O O10 0.699953 0.226463 0.255498
O O11 0.000000 0.500000 0.000000
O O12 0.415710 0.671042 0.173252
O O13 0.779646 0.817644 0.113300
O O14 0.168817 0.994017 0.614505
O O15 0.443450 0.184937 0.191983
O O16 0.112968 0.274419 0.104195
O O17 0.500000 0.500000 0.000000
#
# Coordination Sequence:
#
# PCOD8032725 Si02
#       8
#     2   2   2   2   2   2   2   2
#     4  11  23  43  70  99 135 183 238 286 353 428
#     4  11  23  43  72  99 137 184 240 292 346 428
#     4  12  27  46  73 107 144 186 237 297 363 420
#     4  12  27  44  69 103 148 185 230 297 361 422
#     4  11  24  43  73 101 139 185 237 291 350 427
#     4  12  25  45  72 103 140 186 237 289 350 431
#     4  11  23  43  72 101 136 186 233 289 358 423
#     4  12  26  44  69 106 142 184 238 292 354 420
#
# _framework density 24.246397999999999
#
# number of rings (size 3 to 8) (size 9 to 14) (size 15 to 20)
#    0.000    0.500    3.750    6.000    1.750    4.000 
#    0.000    0.000    0.000    0.000    0.000    0.000 
#    0.000    0.000    0.000    0.000    0.000    0.000 
#
# Total GULP energy -198338.627760 kJ/mol
# GULP energy per Si atom -12396.164235 kJ/mol
# Density = 2.419121 g / cm^3
# Si number density = 24.246398 Si / 1000 Ang^3
#
#
#
# Elastic Constant Matrix: (Units=GPa)
#
#
# Indices 1 2 3 4 5 6 
#
# 1 65.0101 9.7574 51.6459 17.7373 0.3783 6.6667
# 2 9.7574 71.3599 24.2367 2.5098 -1.5874 16.5913
# 3 51.6459 24.2367 180.5150 11.2535 8.2537 4.2665
# 4 17.7373 2.5098 11.2535 39.0122 7.9846 2.9431
# 5 0.3783 -1.5874 8.2537 7.9846 36.5217 1.9494
# 6 6.6667 16.5913 4.2665 2.9431 1.9494 29.0185
#
#
#
# Elastic Compliance Matrix: (Units=1/GPa)
#
#
# Indices 1 2 3 4 5 6 
#
# 1 0.023083 0.000209 -0.006126 -0.009140 0.003356 -0.003820
# 2 0.000209 0.016992 -0.002184 -0.000203 0.001784 -0.009541
# 3 -0.006126 -0.002184 0.007577 0.001042 -0.002056 0.001575
# 4 -0.009140 -0.000203 0.001042 0.030957 -0.006885 -0.000614
# 5 0.003356 0.001784 -0.002056 -0.006885 0.029542 -0.002775
# 6 -0.003820 -0.009541 0.001575 -0.000614 -0.002775 0.040811
#
#
# Mechanical properties :
#
#
# Convention : Reuss Voigt Hill
#
# Bulk Modulus (GPa) = 31.79681 54.24054 43.01867
# Shear Modulus (GPa) = 28.46602 36.32682 32.39642
#
# Velocity S-wave (km/s) = 3.43013 3.87490 3.65928
# Velocity P-wave (km/s) = 5.36938 6.51452 5.96947
#
# Compressibility (1/GPa) = 0.03144970
#
# Stress axis : x y z
#
# Youngs Moduli (GPa) = 43.32137 58.85108 131.97178
#
# Poissons Ratio (x) = -0.01227 0.80840
# Poissons Ratio (y) = -0.00903 0.28829
# Poissons Ratio (z) = 0.26537 0.12856
#
# Static dielectric constant tensor:
#      x y z
#    x 4.367280 0.303680 0.021490 
#    y 0.303680 4.544610 0.043150 
#    z 0.021490 0.043150 4.879880 
# 
# 
# High freq. dielectric constant tensor:
#      x y z
#    x 1.931560 0.012910 0.010340 
#    y 0.012910 1.973670 0.004300 
#    z 0.010340 0.004300 1.982380 
# 
# From -- ./inp_files/277809.got.cif
#   From: 2010.06.25/outbox.cif.g09.slc.cpg/sg2_139_cif.got.tgz:277809.got - 2010.06.27 13:26:56.
