data_PCOD8032833
_publ_section_title
;
Structure prediction by ZEFSAII (Michael W. Deem and Ramdas Pophale) SiO2 
 PCOD8032833
Probable space group: P -1
;
_chemical_formula_sum "Si O2"
_cell_formula_units_Z 16
_cell_length_a 8.776277
_cell_length_b 15.073907
_cell_length_c 8.677808
_cell_angle_alpha 95.816168
_cell_angle_beta 47.991028
_cell_angle_gamma 70.088808
_cell_volume 707.367254
_symmetry_space_group_name_H-M "P -1"
_symmetry_group_IT_number 2
_symmetry_cell_setting 'triclinic'
loop_
_space_group_symop_operation_xyz
x,y,z
-x,-y,-z
loop_
_atom_site_type_symbol
_atom_site_label
_atom_site_fract_x
_atom_site_fract_y
_atom_site_fract_z
Si Si1 0.264602 0.112731 0.625105
Si Si2 0.989618 0.409737 0.572103
Si Si3 0.096987 0.862685 0.401174
Si Si4 0.709920 0.337424 0.582255
Si Si5 0.471434 0.210952 0.309915
Si Si6 0.155172 0.726667 0.852333
Si Si7 0.305316 0.967516 0.109866
Si Si8 0.179072 0.527928 0.955360
O O1 0.357983 0.189498 0.532006
O O2 0.108663 0.105350 0.588370
O O3 0.500000 0.000000 0.500000
O O4 0.088621 0.167018 0.900452
O O5 0.788067 0.413787 0.602676
O O6 0.000000 0.500000 0.500000
O O7 0.246415 0.293694 0.366010
O O8 0.893697 0.436954 0.814725
O O9 0.248957 0.738377 0.314445
O O10 0.302374 0.887696 0.224011
O O11 0.963108 0.924442 0.662678
O O12 0.869934 0.271272 0.313946
O O13 0.428058 0.413435 0.744105
O O14 0.612181 0.267352 0.264096
O O15 0.649987 0.093201 0.092294
O O16 0.192959 0.618767 0.874401
O O17 0.500000 0.000000 0.000000
O O18 0.000000 0.500000 0.000000
#
# Coordination Sequence:
#
# PCOD8032833 Si02
#       8
#     2   2   2   2   2   2   2   2
#     4  12  27  48  76 106 152 199 245 305 372 436
#     4  12  25  44  75 115 145 190 248 307 373 436
#     4  11  25  48  69 113 141 189 254 303 358 447
#     4  12  26  46  78 106 147 196 246 306 370 433
#     4  12  25  47  76 107 151 193 246 309 369 442
#     4  12  27  50  72 109 150 194 248 303 371 445
#     4  11  23  43  75 100 150 186 240 308 364 425
#     4  12  26  51  75 110 153 194 243 305 372 449
#
# _framework density 22.619084999999998
#
# number of rings (size 3 to 8) (size 9 to 14) (size 15 to 20)
#    0.000    0.250    5.000    3.000    3.500    3.500 
#    2.250    0.000    0.000    0.000    0.000    0.000 
#    0.000    0.000    0.000    0.000    0.000    0.000 
#
# Total GULP energy -198305.324629 kJ/mol
# GULP energy per Si atom -12394.082789 kJ/mol
# Density = 2.256760 g / cm^3
# Si number density = 22.619085 Si / 1000 Ang^3
#
#
#
# Elastic Constant Matrix: (Units=GPa)
#
#
# Indices 1 2 3 4 5 6 
#
# 1 131.5602 71.4884 57.3527 -8.9919 1.2100 15.6145
# 2 71.4884 167.8360 32.8301 -9.3487 -24.6463 11.6498
# 3 57.3527 32.8301 136.3939 -1.4237 2.9552 2.9128
# 4 -8.9919 -9.3487 -1.4237 42.4827 7.4123 -13.2776
# 5 1.2100 -24.6463 2.9552 7.4123 38.9443 1.3396
# 6 15.6145 11.6498 2.9128 -13.2776 1.3396 48.4866
#
#
#
# Elastic Compliance Matrix: (Units=1/GPa)
#
#
# Indices 1 2 3 4 5 6 
#
# 1 0.012217 -0.004700 -0.003877 0.001324 -0.003239 -0.002120
# 2 -0.004700 0.008925 -0.000285 -0.000344 0.005912 -0.000871
# 3 -0.003877 -0.000285 0.009028 -0.000225 -0.000727 0.000733
# 4 0.001324 -0.000344 -0.000225 0.026971 -0.005623 0.007211
# 5 -0.003239 0.005912 -0.000727 -0.005623 0.030739 -0.002723
# 6 -0.002120 -0.000871 0.000733 0.007211 -0.002723 0.023522
#
#
# Mechanical properties :
#
#
# Convention : Reuss Voigt Hill
#
# Bulk Modulus (GPa) = 80.34063 84.34804 82.34434
# Shear Modulus (GPa) = 37.51652 44.25732 40.88692
#
# Velocity S-wave (km/s) = 4.07704 4.42819 4.25623
# Velocity P-wave (km/s) = 7.59994 7.96974 7.78703
#
# Compressibility (1/GPa) = 0.01244700
#
# Stress axis : x y z
#
# Youngs Moduli (GPa) = 81.85334 112.04009 110.76486
#
# Poissons Ratio (x) = 0.52661 0.42938
# Poissons Ratio (y) = 0.38473 0.03157
# Poissons Ratio (z) = 0.31731 0.03193
#
# Static dielectric constant tensor:
#      x y z
#    x 4.124750 0.109290 -0.029370 
#    y 0.109290 4.502300 0.234920 
#    z -0.029370 0.234920 5.097240 
# 
# 
# High freq. dielectric constant tensor:
#      x y z
#    x 1.881680 0.021520 -0.001500 
#    y 0.021520 1.911270 -0.002960 
#    z -0.001500 -0.002960 1.911980 
# 
# From -- ./inp_files/207521.got.cif
#   From: 2010.06.25/outbox.cif.g09.slc.cpg/sg2_104_cif.got.tgz:207521.got - 2010.06.27 13:26:56.
