data_PCOD8032074
_publ_section_title
;
Structure prediction by ZEFSAII (Michael W. Deem and Ramdas Pophale) SiO2 
 PCOD8032074
Probable space group: P -1
;
_chemical_formula_sum "Si O2"
_cell_formula_units_Z 16
_cell_length_a 12.602508
_cell_length_b 5.218297
_cell_length_c 11.413477
_cell_angle_alpha 63.164914
_cell_angle_beta 93.168867
_cell_angle_gamma 74.133520
_cell_volume 630.126112
_symmetry_space_group_name_H-M "P -1"
_symmetry_group_IT_number 2
_symmetry_cell_setting 'triclinic'
loop_
_space_group_symop_operation_xyz
x,y,z
-x,-y,-z
loop_
_atom_site_type_symbol
_atom_site_label
_atom_site_fract_x
_atom_site_fract_y
_atom_site_fract_z
Si Si1 0.380405 0.787011 0.749935
Si Si2 0.781830 0.226578 0.079311
Si Si3 0.321059 0.696815 0.295470
Si Si4 0.190845 0.363101 0.199983
Si Si5 0.649987 0.508005 0.415276
Si Si6 0.433776 0.770537 0.067362
Si Si7 0.094501 0.729783 0.500628
Si Si8 0.009170 0.305246 0.728376
O O1 0.267339 0.717632 0.802544
O O2 0.409045 0.646322 0.650695
O O3 0.486061 0.584316 0.879740
O O4 0.368384 0.139246 0.685340
O O5 0.905697 0.976795 0.138437
O O6 0.799913 0.512610 0.956243
O O7 0.685509 0.123425 0.029641
O O8 0.271106 0.470779 0.269079
O O9 0.391348 0.520743 0.449040
O O10 0.407113 0.794909 0.199612
O O11 0.224479 0.002892 0.269186
O O12 0.063305 0.473191 0.220330
O O13 0.779706 0.286890 0.461927
O O14 0.500000 0.000000 0.000000
O O15 0.084371 0.426234 0.620332
O O16 0.079482 0.762467 0.352027
O O17 0.000000 0.000000 0.500000
#
# Coordination Sequence:
#
# PCOD8032074 Si02
#       8
#     2   2   2   2   2   2   2   2
#     4  12  26  45  74 105 141 189 248 299 360 416
#     4  11  24  47  71 104 145 191 242 294 353 434
#     4  11  25  47  74 105 145 186 238 296 364 422
#     4  11  24  45  70 106 149 189 232 290 354 436
#     4  12  25  45  74 105 146 184 238 302 359 428
#     4  11  26  49  75 104 143 194 245 304 357 422
#     4  11  23  40  70 102 149 187 233 294 350 435
#     4  11  23  42  68 107 140 192 233 285 364 425
#
# _framework density 25.391743999999999
#
# number of rings (size 3 to 8) (size 9 to 14) (size 15 to 20)
#    0.000    0.750    2.500    4.500    1.750    5.000 
#    4.500    3.125    0.000    0.000    0.000    0.000 
#    0.000    0.000    0.000    0.000    0.000    0.000 
#
# Total GULP energy -198323.448972 kJ/mol
# GULP energy per Si atom -12395.215561 kJ/mol
# Density = 2.533395 g / cm^3
# Si number density = 25.391744 Si / 1000 Ang^3
#
#
#
# Elastic Constant Matrix: (Units=GPa)
#
#
# Indices 1 2 3 4 5 6 
#
# 1 56.3006 -7.0571 23.7295 -3.3747 -5.7817 -4.6751
# 2 -7.0571 81.3916 13.8065 -17.7088 -1.6747 -5.5395
# 3 23.7295 13.8065 134.3780 -8.7216 -9.1861 -3.0485
# 4 -3.3747 -17.7088 -8.7216 37.6221 -13.6917 -0.4994
# 5 -5.7817 -1.6747 -9.1861 -13.6917 47.5123 2.5202
# 6 -4.6751 -5.5395 -3.0485 -0.4994 2.5202 39.7681
#
#
#
# Elastic Compliance Matrix: (Units=1/GPa)
#
#
# Indices 1 2 3 4 5 6 
#
# 1 0.020360 0.003381 -0.003451 0.003692 0.002863 0.002465
# 2 0.003381 0.014764 -0.001347 0.008011 0.002860 0.002270
# 3 -0.003451 -0.001347 0.008403 0.001593 0.001618 -0.000032
# 4 0.003692 0.008011 0.001593 0.035103 0.011080 0.001411
# 5 0.002863 0.002860 0.001618 0.011080 0.025033 -0.000588
# 6 0.002465 0.002270 -0.000032 0.001411 -0.000588 0.025804
#
#
# Mechanical properties :
#
#
# Convention : Reuss Voigt Hill
#
# Bulk Modulus (GPa) = 24.57484 37.00311 30.78898
# Shear Modulus (GPa) = 34.27774 41.08658 37.68216
#
# Velocity S-wave (km/s) = 3.67816 4.02694 3.85649
# Velocity P-wave (km/s) = 5.26667 6.01882 5.65526
#
# Compressibility (1/GPa) = 0.04069203
#
# Stress axis : x y z
#
# Youngs Moduli (GPa) = 49.11523 67.73079 119.00760
#
# Poissons Ratio (x) = -0.22898 0.41075
# Poissons Ratio (y) = -0.16605 0.16030
# Poissons Ratio (z) = 0.16952 0.09123
#
# Static dielectric constant tensor:
#      x y z
#    x 4.661670 -0.345090 -0.352220 
#    y -0.345090 4.449980 0.137790 
#    z -0.352220 0.137790 5.342630 
# 
# 
# High freq. dielectric constant tensor:
#      x y z
#    x 2.012670 -0.025380 -0.008770 
#    y -0.025380 2.004460 0.004350 
#    z -0.008770 0.004350 2.040130 
# 
# From -- ./inp_files/118065.got.cif
#   From: 2010.06.25/outbox.cif.g09.slc.cpg/sg2_60_cif.got.tgz:118065.got - 2010.06.27 13:26:56.
