data_PCOD8032945
_publ_section_title
;
Structure prediction by ZEFSAII (Michael W. Deem and Ramdas Pophale) SiO2 
 PCOD8032945
Probable space group: P -1
;
_chemical_formula_sum "Si O2"
_cell_formula_units_Z 14
_cell_length_a 19.952513
_cell_length_b 5.833490
_cell_length_c 6.669754
_cell_angle_alpha 72.545286
_cell_angle_beta 122.591493
_cell_angle_gamma 87.904932
_cell_volume 604.696190
_symmetry_space_group_name_H-M "P -1"
_symmetry_group_IT_number 2
_symmetry_cell_setting 'triclinic'
loop_
_space_group_symop_operation_xyz
x,y,z
-x,-y,-z
loop_
_atom_site_type_symbol
_atom_site_label
_atom_site_fract_x
_atom_site_fract_y
_atom_site_fract_z
Si Si1 0.443698 0.463222 0.732487
Si Si2 0.166584 0.825896 0.604482
Si Si3 0.253944 0.515756 0.483379
Si Si4 0.273952 0.087692 0.914452
Si Si5 0.544015 0.144364 0.676210
Si Si6 0.172331 0.395510 0.992308
Si Si7 0.953341 0.786041 0.911572
O O1 0.351071 0.492526 0.644453
O O2 0.489432 0.202343 0.775150
O O3 0.438978 0.635252 0.485507
O O4 0.500000 0.500000 0.000000
O O5 0.207255 0.757653 0.468810
O O6 0.237763 0.853556 0.866812
O O7 0.097040 0.082741 0.398489
O O8 0.131455 0.608155 0.707049
O O9 0.236579 0.282927 0.631262
O O10 0.211633 0.524448 0.198542
O O11 0.246271 0.191474 0.063326
O O12 0.370895 0.028420 0.068410
O O13 0.500000 0.000000 0.500000
O O14 0.104520 0.254397 0.989128
O O15 0.000000 0.500000 0.000000
O O16 0.000000 0.000000 0.000000
#
# Coordination Sequence:
#
# PCOD8032945 Si02
#       7
#     2   2   2   2   2   2   2
#     4  11  24  39  62  95 143 191 242 306 367 418
#     4  11  26  46  74 107 144 188 255 290 372 453
#     4  11  23  44  69 102 142 194 247 302 363 441
#     4  11  24  42  71 103 136 192 249 297 362 445
#     4  11  24  40  60  99 141 184 245 304 363 424
#     4  11  26  46  75 104 146 192 241 308 368 445
#     4  12  29  51  79 114 153 192 245 311 386 462
#
# _framework density 23.152123
#
# number of rings (size 3 to 8) (size 9 to 14) (size 15 to 20)
#    0.000    0.857    1.429    4.286    8.000   10.286 
#    0.000    0.000    0.000    0.000    0.000    0.000 
#    0.000    0.000    0.000    0.000    0.000    0.000 
#
# Total GULP energy -173461.804553 kJ/mol
# GULP energy per Si atom -12390.128897 kJ/mol
# Density = 2.309943 g / cm^3
# Si number density = 23.152123 Si / 1000 Ang^3
#
#
#
# Elastic Constant Matrix: (Units=GPa)
#
#
# Indices 1 2 3 4 5 6 
#
# 1 115.2209 51.4714 52.9382 -5.7995 3.2194 5.2982
# 2 51.4714 136.7084 55.9526 16.6549 7.8152 -13.4756
# 3 52.9382 55.9526 106.5920 8.8740 2.8423 -10.6811
# 4 -5.7995 16.6549 8.8740 48.1041 1.3187 0.9810
# 5 3.2194 7.8152 2.8423 1.3187 41.1688 4.3454
# 6 5.2982 -13.4756 -10.6811 0.9810 4.3454 43.2787
#
#
#
# Elastic Compliance Matrix: (Units=1/GPa)
#
#
# Indices 1 2 3 4 5 6 
#
# 1 0.013168 -0.003673 -0.005369 0.003926 0.000356 -0.004206
# 2 -0.003673 0.010881 -0.003205 -0.003637 -0.001790 0.003309
# 3 -0.005369 -0.003205 0.014248 -0.002226 -0.000227 0.003249
# 4 0.003926 -0.003637 -0.002226 0.022984 0.000085 -0.002692
# 5 0.000356 -0.001790 -0.000227 0.000085 0.024949 -0.003164
# 6 -0.004206 0.003309 0.003249 -0.002692 -0.003164 0.025832
#
#
# Mechanical properties :
#
#
# Convention : Reuss Voigt Hill
#
# Bulk Modulus (GPa) = 72.45954 75.47175 73.96565
# Shear Modulus (GPa) = 35.42118 39.72093 37.57106
#
# Velocity S-wave (km/s) = 3.91568 4.14653 4.03276
# Velocity P-wave (km/s) = 7.19781 7.45614 7.32811
#
# Compressibility (1/GPa) = 0.01380081
#
# Stress axis : x y z
#
# Youngs Moduli (GPa) = 75.94203 91.89929 70.18687
#
# Poissons Ratio (x) = 0.33759 0.37685
# Poissons Ratio (y) = 0.27897 0.22498
# Poissons Ratio (z) = 0.40775 0.29458
#
# Static dielectric constant tensor:
#      x y z
#    x 4.291010 -0.182650 -0.023330 
#    y -0.182650 4.381360 -0.096820 
#    z -0.023330 -0.096820 4.035730 
# 
# 
# High freq. dielectric constant tensor:
#      x y z
#    x 1.920050 0.001090 -0.009670 
#    y 0.001090 1.926810 -0.003840 
#    z -0.009670 -0.003840 1.923620 
# 
# From -- ./inp_files/7673.got.cif
#   From: 2010.06.25/outbox.cif.g09.slc.cpg/sg2_4_cif.got.tgz:7673.got - 2010.06.27 13:26:56.
