data_PCOD8032204
_publ_section_title
;
Structure prediction by ZEFSAII (Michael W. Deem and Ramdas Pophale) SiO2 
 PCOD8032204
Probable space group: P -1
;
_chemical_formula_sum "Si O2"
_cell_formula_units_Z 14
_cell_length_a 9.617781
_cell_length_b 18.904566
_cell_length_c 16.979017
_cell_angle_alpha 159.800518
_cell_angle_beta 34.303224
_cell_angle_gamma 138.137038
_cell_volume 593.308258
_symmetry_space_group_name_H-M "P -1"
_symmetry_group_IT_number 2
_symmetry_cell_setting 'triclinic'
loop_
_space_group_symop_operation_xyz
x,y,z
-x,-y,-z
loop_
_atom_site_type_symbol
_atom_site_label
_atom_site_fract_x
_atom_site_fract_y
_atom_site_fract_z
Si Si1 0.856245 0.691331 0.375597
Si Si2 0.343715 0.278088 0.148811
Si Si3 0.360332 0.333726 0.937675
Si Si4 0.620777 0.048719 0.076115
Si Si5 0.801646 0.021973 0.458338
Si Si6 0.918046 0.258894 0.846005
Si Si7 0.009622 0.676089 0.775406
O O1 0.564984 0.775872 0.606993
O O2 0.915371 0.444251 0.106946
O O3 0.003359 0.829437 0.510479
O O4 0.940097 0.698468 0.253836
O O5 0.628299 0.243555 0.949294
O O6 0.235287 0.517210 0.467198
O O7 0.169835 0.209075 0.088882
O O8 0.321796 0.155373 0.111384
O O9 0.149986 0.440824 0.209121
O O10 0.500000 0.500000 0.000000
O O11 0.226720 0.189798 0.792564
O O12 0.542970 0.177209 0.744526
O O13 0.876087 0.142930 0.042770
O O14 0.500000 0.000000 0.000000
O O15 0.923981 0.953047 0.414184
#
# Coordination Sequence:
#
# PCOD8032204 Si02
#       7
#     2   2   2   2   2   2   2
#     4  11  23  41  69 105 140 178 237 295 353 416
#     4  11  25  46  72 103 144 190 238 293 355 426
#     4  11  26  46  70 102 141 190 238 300 357 427
#     4  12  26  45  72 105 145 192 235 291 361 433
#     4  11  23  42  69 103 138 180 239 293 357 416
#     4  11  23  42  71 104 138 186 240 300 347 423
#     4  11  26  48  69 103 146 189 238 291 362 428
#
# _framework density 23.596503999999999
#
# number of rings (size 3 to 8) (size 9 to 14) (size 15 to 20)
#    0.000    0.857    2.857    3.429    2.000    6.286 
#    0.000    0.000    0.000    0.000    0.000    0.000 
#    0.000    0.000    0.000    0.000    0.000    0.000 
#
# Total GULP energy -173452.879177 kJ/mol
# GULP energy per Si atom -12389.491370 kJ/mol
# Density = 2.354280 g / cm^3
# Si number density = 23.596504 Si / 1000 Ang^3
#
#
#
# Elastic Constant Matrix: (Units=GPa)
#
#
# Indices 1 2 3 4 5 6 
#
# 1 151.3567 62.7090 44.5110 4.2112 -9.3390 13.7876
# 2 62.7090 116.8800 29.0725 -4.0777 2.6099 8.4790
# 3 44.5110 29.0725 101.6237 -2.7096 -14.4521 0.8541
# 4 4.2112 -4.0777 -2.7096 38.3782 9.7709 7.4659
# 5 -9.3390 2.6099 -14.4521 9.7709 35.8416 12.8442
# 6 13.7876 8.4790 0.8541 7.4659 12.8442 39.9120
#
#
#
# Elastic Compliance Matrix: (Units=1/GPa)
#
#
# Indices 1 2 3 4 5 6 
#
# 1 0.009790 -0.004552 -0.002510 -0.002030 0.003542 -0.003122
# 2 -0.004552 0.011609 -0.001730 0.002506 -0.003320 -0.000257
# 3 -0.002510 -0.001730 0.012081 -0.000122 0.004543 -0.000463
# 4 -0.002030 0.002506 -0.000122 0.029034 -0.007676 -0.002789
# 5 0.003542 -0.003320 0.004543 -0.007676 0.036958 -0.011073
# 6 -0.003122 -0.000257 -0.000463 -0.002789 -0.011073 0.030283
#
#
# Mechanical properties :
#
#
# Convention : Reuss Voigt Hill
#
# Bulk Modulus (GPa) = 62.91103 71.38281 67.14692
# Shear Modulus (GPa) = 32.75714 38.39755 35.57734
#
# Velocity S-wave (km/s) = 3.72992 4.03830 3.88717
# Velocity P-wave (km/s) = 6.72821 7.21533 6.97602
#
# Compressibility (1/GPa) = 0.01589546
#
# Stress axis : x y z
#
# Youngs Moduli (GPa) = 102.14097 86.14279 82.77241
#
# Poissons Ratio (x) = 0.39211 0.20777
# Poissons Ratio (y) = 0.46493 0.14323
# Poissons Ratio (z) = 0.25638 0.14907
#
# Static dielectric constant tensor:
#      x y z
#    x 4.319600 0.352870 0.006650 
#    y 0.352870 4.281040 0.210770 
#    z 0.006650 0.210770 4.754330 
# 
# 
# High freq. dielectric constant tensor:
#      x y z
#    x 1.938840 0.020030 -0.003810 
#    y 0.020030 1.931780 0.001820 
#    z -0.003810 0.001820 1.944920 
# 
# From -- ./inp_files/562697.got.cif
#   From: 2010.06.25/outbox.cif.g09.slc.cpg/sg2_282_cif.got.tgz:562697.got - 2010.06.27 13:26:56.
