data_PCOD8032767
_publ_section_title
;
Structure prediction by ZEFSAII (Michael W. Deem and Ramdas Pophale) SiO2 
 PCOD8032767
Probable space group: P -1
;
_chemical_formula_sum "Si O2"
_cell_formula_units_Z 12
_cell_length_a 8.154555
_cell_length_b 11.074757
_cell_length_c 13.484915
_cell_angle_alpha 34.053141
_cell_angle_beta 57.802573
_cell_angle_gamma 48.028963
_cell_volume 506.344547
_symmetry_space_group_name_H-M "P -1"
_symmetry_group_IT_number 2
_symmetry_cell_setting 'triclinic'
loop_
_space_group_symop_operation_xyz
x,y,z
-x,-y,-z
loop_
_atom_site_type_symbol
_atom_site_label
_atom_site_fract_x
_atom_site_fract_y
_atom_site_fract_z
Si Si1 0.703012 0.510114 0.471920
Si Si2 0.275169 0.132528 0.917763
Si Si3 0.344371 0.634960 0.201820
Si Si4 0.788797 0.455048 0.088550
Si Si5 0.927769 0.934297 0.464173
Si Si6 0.194239 0.445369 0.191979
O O1 0.500000 0.500000 0.500000
O O2 0.686676 0.768545 0.267699
O O3 0.698250 0.499207 0.599900
O O4 0.904074 0.280230 0.514002
O O5 0.067878 0.366907 0.875946
O O6 0.500000 0.000000 0.000000
O O7 0.198449 0.928297 0.060212
O O8 0.600424 0.582506 0.147352
O O9 0.277656 0.538404 0.193272
O O10 0.842801 0.172561 0.261839
O O11 0.677327 0.561859 0.945053
O O12 0.000000 0.500000 0.000000
O O13 0.756112 0.835329 0.614355
O O14 0.000000 0.000000 0.500000
#
# Coordination Sequence:
#
# PCOD8032767 Si02
#       6
#     2   2   2   2   2   2
#     4  11  24  41  71 103 135 180 236 286 343 411
#     4  11  23  43  72 101 137 181 233 283 342 420
#     4  12  26  44  70 106 143 177 232 297 353 403
#     4  12  25  43  71  98 140 188 235 281 343 424
#     4  11  24  44  70  99 138 183 235 283 340 419
#     4  11  26  46  69 104 141 182 231 290 356 404
#
# _framework density 23.699278
#
# number of rings (size 3 to 8) (size 9 to 14) (size 15 to 20)
#    0.000    0.667    3.333    4.000    2.333    6.000 
#    0.000    0.000    0.000    0.000    0.000    0.000 
#    0.000    0.000    0.000    0.000    0.000    0.000 
#
# Total GULP energy -148664.918447 kJ/mol
# GULP energy per Si atom -12388.743204 kJ/mol
# Density = 2.364534 g / cm^3
# Si number density = 23.699278 Si / 1000 Ang^3
#
#
#
# Elastic Constant Matrix: (Units=GPa)
#
#
# Indices 1 2 3 4 5 6 
#
# 1 66.8672 19.7071 26.1368 4.8720 -1.0226 19.7775
# 2 19.7071 79.1098 47.6231 21.8866 12.2306 9.8956
# 3 26.1368 47.6231 222.7018 12.4842 -4.4383 18.7559
# 4 4.8720 21.8866 12.4842 47.8528 14.6291 6.5636
# 5 -1.0226 12.2306 -4.4383 14.6291 33.7126 0.4771
# 6 19.7775 9.8956 18.7559 6.5636 0.4771 40.4196
#
#
#
# Elastic Compliance Matrix: (Units=1/GPa)
#
#
# Indices 1 2 3 4 5 6 
#
# 1 0.018663 -0.003605 -0.000742 0.000534 0.001658 -0.008012
# 2 -0.003605 0.017659 -0.003122 -0.005483 -0.004545 -0.000167
# 3 -0.000742 -0.003122 0.005417 -0.000331 0.001986 -0.001356
# 4 0.000534 -0.005483 -0.000331 0.026790 -0.009621 -0.003002
# 5 0.001658 -0.004545 0.001986 -0.009621 0.035791 0.000520
# 6 -0.008012 -0.000167 -0.001356 -0.003002 0.000520 0.029812
#
#
# Mechanical properties :
#
#
# Convention : Reuss Voigt Hill
#
# Bulk Modulus (GPa) = 37.31059 61.73474 49.52266
# Shear Modulus (GPa) = 31.64483 42.74446 37.19464
#
# Velocity S-wave (km/s) = 3.65809 4.25151 3.96592
# Velocity P-wave (km/s) = 5.79825 7.08563 6.47402
#
# Compressibility (1/GPa) = 0.02680204
#
# Stress axis : x y z
#
# Youngs Moduli (GPa) = 53.58080 56.62960 184.59043
#
# Poissons Ratio (x) = 0.20413 0.13691
# Poissons Ratio (y) = 0.19314 0.57635
# Poissons Ratio (z) = 0.03974 0.17682
#
# Static dielectric constant tensor:
#      x y z
#    x 3.976020 -0.112690 -0.120250 
#    y -0.112690 4.406540 -0.039930 
#    z -0.120250 -0.039930 5.196130 
# 
# 
# High freq. dielectric constant tensor:
#      x y z
#    x 1.921820 0.012510 -0.006780 
#    y 0.012510 1.939920 0.009220 
#    z -0.006780 0.009220 1.967990 
# 
# From -- ./inp_files/163011.got.cif
#   From: 2010.06.25/outbox.cif.g09.slc.cpg/sg2_82_cif.got.tgz:163011.got - 2010.06.27 13:26:56.
