data_PCOD8032984
_publ_section_title
;
Structure prediction by ZEFSAII (Michael W. Deem and Ramdas Pophale) SiO2 
 PCOD8032984
Probable space group: P -1
;
_chemical_formula_sum "Si O2"
_cell_formula_units_Z 14
_cell_length_a 15.493154
_cell_length_b 12.789283
_cell_length_c 9.410717
_cell_angle_alpha 55.186068
_cell_angle_beta 26.851757
_cell_angle_gamma 48.194070
_cell_volume 626.248741
_symmetry_space_group_name_H-M "P -1"
_symmetry_group_IT_number 2
_symmetry_cell_setting 'triclinic'
loop_
_space_group_symop_operation_xyz
x,y,z
-x,-y,-z
loop_
_atom_site_type_symbol
_atom_site_label
_atom_site_fract_x
_atom_site_fract_y
_atom_site_fract_z
Si Si1 0.185771 0.388391 0.223859
Si Si2 0.902433 0.485839 0.299541
Si Si3 0.047677 0.952610 0.626486
Si Si4 0.439055 0.226892 0.339506
Si Si5 0.282890 0.076667 0.343250
Si Si6 0.621682 0.327450 0.742744
Si Si7 0.694317 0.013438 0.322581
O O1 0.244609 0.233552 0.321364
O O2 0.000000 0.500000 0.500000
O O3 0.100239 0.395402 0.182717
O O4 0.399075 0.413080 0.916994
O O5 0.783193 0.638924 0.426717
O O6 0.732187 0.424786 0.561268
O O7 0.000000 0.500000 0.000000
O O8 0.230350 0.793805 0.487269
O O9 0.105626 0.076903 0.498210
O O10 0.000000 0.000000 0.500000
O O11 0.867791 0.946279 0.996760
O O12 0.431961 0.083909 0.406387
O O13 0.551935 0.178154 0.366011
O O14 0.590429 0.258179 0.986642
O O15 0.241093 0.991650 0.603846
O O16 0.500000 0.000000 0.000000
#
# Coordination Sequence:
#
# PCOD8032984 Si02
#       7
#     2   2   2   2   2   2   2
#     4  12  26  46  75 105 144 192 242 303 365 432
#     4  12  28  46  73 107 144 191 245 297 368 444
#     4  12  24  42  69 103 143 189 240 296 367 427
#     4  11  23  44  70 106 140 188 241 296 365 428
#     4  12  25  45  70 105 144 185 244 299 361 428
#     4  12  24  48  73 106 145 192 241 303 365 436
#     4  11  24  42  73 104 145 184 244 302 356 442
#
# _framework density 22.355336000000001
#
# number of rings (size 3 to 8) (size 9 to 14) (size 15 to 20)
#    0.000    0.286    5.714    2.571    4.000    0.571 
#    0.000    1.429    0.000    0.000    0.000    0.000 
#    0.000    0.000    0.000    0.000    0.000    0.000 
#
# Total GULP energy -173459.607700 kJ/mol
# GULP energy per Si atom -12389.971979 kJ/mol
# Density = 2.230445 g / cm^3
# Si number density = 22.355336 Si / 1000 Ang^3
#
#
#
# Elastic Constant Matrix: (Units=GPa)
#
#
# Indices 1 2 3 4 5 6 
#
# 1 154.4979 27.0606 57.5706 -17.2154 -8.3931 -17.6976
# 2 27.0606 93.3918 37.8140 1.9887 -5.4942 -8.0328
# 3 57.5706 37.8140 139.0634 -8.1020 12.2356 -14.8011
# 4 -17.2154 1.9887 -8.1020 41.9649 -0.0050 -3.3602
# 5 -8.3931 -5.4942 12.2356 -0.0050 49.8964 -6.4303
# 6 -17.6976 -8.0328 -14.8011 -3.3602 -6.4303 40.9564
#
#
#
# Elastic Compliance Matrix: (Units=1/GPa)
#
#
# Indices 1 2 3 4 5 6 
#
# 1 0.008610 -0.000932 -0.003010 0.003244 0.002484 0.003106
# 2 -0.000932 0.012517 -0.003175 -0.001499 0.002144 0.001119
# 3 -0.003010 -0.003175 0.009751 0.000893 -0.003094 0.001188
# 4 0.003244 -0.001499 0.000893 0.025695 0.000633 0.003638
# 5 0.002484 0.002144 -0.003094 0.000633 0.021954 0.003875
# 6 0.003106 0.001119 0.001188 0.003638 0.003875 0.027314
#
#
# Mechanical properties :
#
#
# Convention : Reuss Voigt Hill
#
# Bulk Modulus (GPa) = 60.07833 70.20483 65.14158
# Shear Modulus (GPa) = 39.80200 44.19739 41.99970
#
# Velocity S-wave (km/s) = 4.22409 4.45122 4.33914
# Velocity P-wave (km/s) = 7.12202 7.60855 7.36930
#
# Compressibility (1/GPa) = 0.01664494
#
# Stress axis : x y z
#
# Youngs Moduli (GPa) = 116.14967 79.88933 102.55315
#
# Poissons Ratio (x) = 0.07443 0.30868
# Poissons Ratio (y) = 0.10822 0.32559
# Poissons Ratio (z) = 0.34960 0.25364
#
# Static dielectric constant tensor:
#      x y z
#    x 4.426700 -0.120050 -0.532780 
#    y -0.120050 3.799250 0.264870 
#    z -0.532780 0.264870 3.586060 
# 
# 
# High freq. dielectric constant tensor:
#      x y z
#    x 1.900190 -0.004470 0.000960 
#    y -0.004470 1.874580 0.002890 
#    z 0.000960 0.002890 1.886530 
# 
# From -- ./inp_files/174864.got.cif
#   From: 2010.06.25/outbox.cif.g09.slc.cpg/sg2_88_cif.got.tgz:174864.got - 2010.06.27 13:26:56.
