data_PCOD8032916
_publ_section_title
;
Structure prediction by ZEFSAII (Michael W. Deem and Ramdas Pophale) SiO2 
 PCOD8032916
Probable space group: P -1
;
_chemical_formula_sum "Si O2"
_cell_formula_units_Z 16
_cell_length_a 9.146379
_cell_length_b 9.696051
_cell_length_c 14.901408
_cell_angle_alpha 114.010214
_cell_angle_beta 142.241181
_cell_angle_gamma 64.747251
_cell_volume 726.074865
_symmetry_space_group_name_H-M "P -1"
_symmetry_group_IT_number 2
_symmetry_cell_setting 'triclinic'
loop_
_space_group_symop_operation_xyz
x,y,z
-x,-y,-z
loop_
_atom_site_type_symbol
_atom_site_label
_atom_site_fract_x
_atom_site_fract_y
_atom_site_fract_z
Si Si1 0.706911 0.277058 0.843199
Si Si2 0.930874 0.274839 0.238765
Si Si3 0.759640 0.478475 0.571603
Si Si4 0.243930 0.960725 0.347836
Si Si5 0.605664 0.120823 0.927300
Si Si6 0.080324 0.203311 0.756470
Si Si7 0.374184 0.585200 0.710452
Si Si8 0.784781 0.771324 0.970123
O O1 0.646514 0.154279 0.852367
O O2 0.511445 0.434330 0.789757
O O3 0.710440 0.195370 0.727679
O O4 0.981680 0.309852 0.997294
O O5 0.848452 0.333675 0.314016
O O6 0.107569 0.378101 0.308586
O O7 0.081387 0.104052 0.259943
O O8 0.691664 0.261454 0.060714
O O9 0.500000 0.500000 0.500000
O O10 0.732281 0.457582 0.446529
O O11 0.943660 0.337869 0.664368
O O12 0.500000 0.000000 0.500000
O O13 0.098583 0.920262 0.354512
O O14 0.322104 0.122084 0.802207
O O15 0.745565 0.953767 0.981257
O O16 0.161904 0.260990 0.907447
O O17 0.555452 0.701716 0.809318
#
# Coordination Sequence:
#
# PCOD8032916 Si02
#       8
#     2   2   2   2   2   2   2   2
#     4  11  25  42  69 105 138 179 236 282 343 410
#     4  12  25  45  73  96 145 180 231 286 346 407
#     4  12  28  45  68 103 143 184 230 283 350 415
#     4  11  24  46  71  97 142 190 227 281 347 413
#     4  12  24  43  73 106 134 181 235 290 342 404
#     4  11  23  44  68 102 137 179 230 281 343 409
#     4  12  26  46  70 103 140 183 228 287 347 411
#     4  11  23  44  71 101 141 178 230 283 343 409
#
# _framework density 22.036294999999999
#
# number of rings (size 3 to 8) (size 9 to 14) (size 15 to 20)
#    0.000    0.500    3.750    6.000    3.500    3.000 
#    0.000    1.875    0.000    0.000    0.000    0.000 
#    0.000    0.000    0.000    0.000    0.000    0.000 
#
# Total GULP energy -198391.720858 kJ/mol
# GULP energy per Si atom -12399.482554 kJ/mol
# Density = 2.198614 g / cm^3
# Si number density = 22.036295 Si / 1000 Ang^3
#
#
#
# Elastic Constant Matrix: (Units=GPa)
#
#
# Indices 1 2 3 4 5 6 
#
# 1 102.7709 13.9576 31.3874 0.3855 23.6480 12.9469
# 2 13.9576 113.8137 35.1967 5.5061 -0.8826 12.6747
# 3 31.3874 35.1967 94.6329 -2.1975 25.9736 11.6751
# 4 0.3855 5.5061 -2.1975 43.0684 9.2548 5.2181
# 5 23.6480 -0.8826 25.9736 9.2548 42.9084 5.0520
# 6 12.9469 12.6747 11.6751 5.2181 5.0520 36.3654
#
#
#
# Elastic Compliance Matrix: (Units=1/GPa)
#
#
# Indices 1 2 3 4 5 6 
#
# 1 0.012005 -0.000697 -0.001826 0.001418 -0.005491 -0.002885
# 2 -0.000697 0.010707 -0.004672 -0.002227 0.004177 -0.002244
# 3 -0.001826 -0.004672 0.015764 0.003636 -0.009177 -0.002029
# 4 0.001418 -0.002227 0.003636 0.025858 -0.008197 -0.003468
# 5 -0.005491 0.004177 -0.009177 -0.008197 0.033749 -0.000067
# 6 -0.002885 -0.002244 -0.002029 -0.003468 -0.000067 0.030466
#
#
# Mechanical properties :
#
#
# Convention : Reuss Voigt Hill
#
# Bulk Modulus (GPa) = 41.52134 52.47786 46.99960
# Shear Modulus (GPa) = 33.11952 39.84684 36.48318
#
# Velocity S-wave (km/s) = 3.88100 4.25695 4.07331
# Velocity P-wave (km/s) = 6.24228 6.93023 6.59523
#
# Compressibility (1/GPa) = 0.02408400
#
# Stress axis : x y z
#
# Youngs Moduli (GPa) = 83.30202 93.39934 63.43448
#
# Poissons Ratio (x) = 0.06513 0.11585
# Poissons Ratio (y) = 0.05809 0.29638
# Poissons Ratio (z) = 0.15213 0.43638
#
# Static dielectric constant tensor:
#      x y z
#    x 4.625510 0.542320 1.025910 
#    y 0.542320 4.361300 0.621900 
#    z 1.025910 0.621900 5.039120 
# 
# 
# High freq. dielectric constant tensor:
#      x y z
#    x 1.878330 0.007520 0.023010 
#    y 0.007520 1.872590 -0.001410 
#    z 0.023010 -0.001410 1.867390 
# 
# From -- ./inp_files/209216.got.cif
#   From: 2010.06.25/outbox.cif.g09.slc.cpg/sg2_105_cif.got.tgz:209216.got - 2010.06.27 13:26:56.
