data_PCOD8032065
_publ_section_title
;
Structure prediction by ZEFSAII (Michael W. Deem and Ramdas Pophale) SiO2 
 PCOD8032065
Probable space group: P -1
;
_chemical_formula_sum "Si O2"
_cell_formula_units_Z 16
_cell_length_a 14.664866
_cell_length_b 18.445865
_cell_length_c 9.121470
_cell_angle_alpha 139.121687
_cell_angle_beta 39.117370
_cell_angle_gamma 151.253264
_cell_volume 724.906352
_symmetry_space_group_name_H-M "P -1"
_symmetry_group_IT_number 2
_symmetry_cell_setting 'triclinic'
loop_
_space_group_symop_operation_xyz
x,y,z
-x,-y,-z
loop_
_atom_site_type_symbol
_atom_site_label
_atom_site_fract_x
_atom_site_fract_y
_atom_site_fract_z
Si Si1 0.801899 0.098897 0.076457
Si Si2 0.338788 0.519998 0.626872
Si Si3 0.718949 0.344887 0.332496
Si Si4 0.410126 0.019742 0.363446
Si Si5 0.899243 0.562411 0.692343
Si Si6 0.080879 0.762868 0.156212
Si Si7 0.794542 0.935930 0.089258
Si Si8 0.525037 0.411470 0.123536
O O1 0.571053 0.018205 0.223847
O O2 0.925649 0.252357 0.257689
O O3 0.817162 0.989750 0.974783
O O4 0.902232 0.141010 0.853194
O O5 0.306234 0.620906 0.746674
O O6 0.457457 0.503565 0.340663
O O7 0.470306 0.618377 0.756543
O O8 0.132474 0.343746 0.658678
O O9 0.513877 0.177999 0.391388
O O10 0.779566 0.483151 0.567814
O O11 0.895604 0.346927 0.112867
O O12 0.280768 0.998873 0.626037
O O13 0.264228 0.877955 0.216531
O O14 0.000000 0.500000 0.500000
O O15 0.747886 0.518550 0.942452
O O16 0.631172 0.749924 0.015116
O O17 0.000000 0.000000 0.000000
#
# Coordination Sequence:
#
# PCOD8032065 Si02
#       8
#     2   2   2   2   2   2   2   2
#     4  11  24  43  69  96 131 179 221 277 333 391
#     4  11  25  44  66  99 134 177 219 273 330 400
#     4  11  23  40  69  98 129 173 215 279 330 383
#     4  11  24  44  66 102 137 170 226 275 335 401
#     4  12  21  43  69  96 130 168 227 276 325 392
#     4  11  23  44  67 102 136 171 224 276 332 400
#     4  12  27  46  65  98 135 181 223 274 335 401
#     4  11  25  46  65  91 139 175 226 268 331 401
#
# _framework density 22.071818
#
# number of rings (size 3 to 8) (size 9 to 14) (size 15 to 20)
#    0.000    0.750    5.000    3.000    7.000    1.500 
#    0.000    1.250    0.000    0.000    0.000    0.000 
#    0.000    0.000    0.000    0.000    0.000    0.000 
#
# Total GULP energy -198443.858035 kJ/mol
# GULP energy per Si atom -12402.741127 kJ/mol
# Density = 2.202158 g / cm^3
# Si number density = 22.071818 Si / 1000 Ang^3
#
#
#
# Elastic Constant Matrix: (Units=GPa)
#
#
# Indices 1 2 3 4 5 6 
#
# 1 119.2549 40.4032 18.1762 -9.5529 -4.4412 -4.3081
# 2 40.4032 76.9783 18.0356 -7.6708 -5.1815 16.4777
# 3 18.1762 18.0356 98.4428 -15.2507 1.1077 7.9367
# 4 -9.5529 -7.6708 -15.2507 36.5385 13.6729 8.8065
# 5 -4.4412 -5.1815 1.1077 13.6729 27.5616 1.6156
# 6 -4.3081 16.4777 7.9367 8.8065 1.6156 40.5378
#
#
#
# Elastic Compliance Matrix: (Units=1/GPa)
#
#
# Indices 1 2 3 4 5 6 
#
# 1 0.010825 -0.006218 -0.001192 -0.000077 0.000432 0.003911
# 2 -0.006218 0.018860 -0.001052 0.003545 0.001352 -0.008945
# 3 -0.001192 -0.001052 0.011933 0.006761 -0.004028 -0.003344
# 4 -0.000077 0.003545 0.006761 0.040705 -0.019175 -0.010851
# 5 0.000432 0.001352 -0.004028 -0.019175 0.046127 0.002612
# 6 0.003911 -0.008945 -0.003344 -0.010851 0.002612 0.031628
#
#
# Mechanical properties :
#
#
# Convention : Reuss Voigt Hill
#
# Bulk Modulus (GPa) = 40.49497 49.76735 45.13116
# Shear Modulus (GPa) = 26.99298 35.46499 31.22898
#
# Velocity S-wave (km/s) = 3.50088 4.01284 3.76557
# Velocity P-wave (km/s) = 5.89307 6.63833 6.27677
#
# Compressibility (1/GPa) = 0.02469442
#
# Stress axis : x y z
#
# Youngs Moduli (GPa) = 92.37966 53.02304 83.79907
#
# Poissons Ratio (x) = 0.32970 0.09985
# Poissons Ratio (y) = 0.57443 0.08817
# Poissons Ratio (z) = 0.11007 0.05579
#
# Static dielectric constant tensor:
#      x y z
#    x 4.085800 0.262160 0.333570 
#    y 0.262160 3.963490 0.103370 
#    z 0.333570 0.103370 4.173600 
# 
# 
# High freq. dielectric constant tensor:
#      x y z
#    x 1.873280 0.013890 0.013170 
#    y 0.013890 1.865710 -0.001260 
#    z 0.013170 -0.001260 1.866150 
# 
# From -- ./inp_files/298793.got.cif
#   From: 2010.06.25/outbox.cif.g09.slc.cpg/sg2_150_cif.got.tgz:298793.got - 2010.06.27 13:26:56.
