data_PCOD8032177
_publ_section_title
;
Structure prediction by ZEFSAII (Michael W. Deem and Ramdas Pophale) SiO2 
 PCOD8032177
Probable space group: P -1
;
_chemical_formula_sum "Si O2"
_cell_formula_units_Z 16
_cell_length_a 10.252689
_cell_length_b 12.861485
_cell_length_c 5.118978
_cell_angle_alpha 99.782525
_cell_angle_beta 103.158794
_cell_angle_gamma 100.110911
_cell_volume 631.382976
_symmetry_space_group_name_H-M "P -1"
_symmetry_group_IT_number 2
_symmetry_cell_setting 'triclinic'
loop_
_space_group_symop_operation_xyz
x,y,z
-x,-y,-z
loop_
_atom_site_type_symbol
_atom_site_label
_atom_site_fract_x
_atom_site_fract_y
_atom_site_fract_z
Si Si1 0.382389 0.113184 0.963958
Si Si2 0.618914 0.066991 0.750964
Si Si3 0.117351 0.005303 0.755986
Si Si4 0.419174 0.353158 0.105278
Si Si5 0.034500 0.188229 0.119609
Si Si6 0.742262 0.620209 0.475726
Si Si7 0.822264 0.275117 0.769615
Si Si8 0.745216 0.392628 0.282623
O O1 0.539645 0.124233 0.958486
O O2 0.261496 0.054780 0.680912
O O3 0.367626 0.228219 0.107175
O O4 0.318422 0.024683 0.123901
O O5 0.721082 0.156672 0.672158
O O6 0.500000 0.000000 0.500000
O O7 0.109487 0.098426 0.005361
O O8 0.000000 0.000000 0.500000
O O9 0.097999 0.881784 0.808803
O O10 0.345379 0.413100 0.312039
O O11 0.582490 0.386978 0.219230
O O12 0.366628 0.368531 0.796303
O O13 0.137369 0.272357 0.389198
O O14 0.974849 0.256885 0.895891
O O15 0.813846 0.520353 0.400221
O O16 0.808003 0.325771 0.501625
O O17 0.780662 0.353188 0.000067
#
# Coordination Sequence:
#
# PCOD8032177 Si02
#       8
#     2   2   2   2   2   2   2   2
#     4  11  23  41  68 102 139 182 225 283 356 421
#     4  11  25  39  67 103 142 182 228 282 354 429
#     4  11  24  44  68 101 144 185 235 287 355 424
#     4  12  24  46  75 108 141 180 240 298 362 422
#     4  11  27  43  69 107 140 191 237 294 350 432
#     4  12  27  47  75 105 140 188 242 300 355 420
#     4  12  27  47  72 102 150 186 243 291 356 426
#     4  12  27  49  73 104 141 191 239 304 356 412
#
# _framework density 25.341200000000001
#
# number of rings (size 3 to 8) (size 9 to 14) (size 15 to 20)
#    0.000    0.500    3.750    3.750    7.000    1.000 
#    0.000    0.000    0.000    0.000    0.000    0.000 
#    0.000    0.000    0.000    0.000    0.000    0.000 
#
# Total GULP energy -198244.501989 kJ/mol
# GULP energy per Si atom -12390.281374 kJ/mol
# Density = 2.528352 g / cm^3
# Si number density = 25.341200 Si / 1000 Ang^3
#
#
#
# Elastic Constant Matrix: (Units=GPa)
#
#
# Indices 1 2 3 4 5 6 
#
# 1 44.7239 -2.5823 0.9757 -9.3401 18.9268 0.1873
# 2 -2.5823 136.0016 32.2332 4.1337 13.4825 -5.6785
# 3 0.9757 32.2332 108.2545 1.7543 12.8661 -3.0920
# 4 -9.3401 4.1337 1.7543 32.1899 -1.3529 5.0102
# 5 18.9268 13.4825 12.8661 -1.3529 35.2183 -3.5103
# 6 0.1873 -5.6785 -3.0920 5.0102 -3.5103 32.6993
#
#
#
# Elastic Compliance Matrix: (Units=1/GPa)
#
#
# Indices 1 2 3 4 5 6 
#
# 1 0.031989 0.001756 0.001129 0.008705 -0.018247 -0.003064
# 2 0.001756 0.008260 -0.002044 -0.000732 -0.003289 0.000990
# 3 0.001129 -0.002044 0.010268 -0.000158 -0.003556 0.000252
# 4 0.008705 -0.000732 -0.000158 0.034454 -0.003600 -0.005858
# 5 -0.018247 -0.003289 -0.003556 -0.003600 0.041034 0.004154
# 6 -0.003064 0.000990 0.000252 -0.005858 0.004154 0.032138
#
#
# Mechanical properties :
#
#
# Convention : Reuss Voigt Hill
#
# Bulk Modulus (GPa) = 19.15744 38.91480 29.03612
# Shear Modulus (GPa) = 28.75823 37.24505 33.00164
#
# Velocity S-wave (km/s) = 3.37239 3.83788 3.61264
# Velocity P-wave (km/s) = 4.76868 5.91851 5.37443
#
# Compressibility (1/GPa) = 0.05219905
#
# Stress axis : x y z
#
# Youngs Moduli (GPa) = 31.26090 121.06031 97.38550
#
# Poissons Ratio (x) = -0.21261 -0.10993
# Poissons Ratio (y) = -0.05490 0.19909
# Poissons Ratio (z) = -0.03529 0.24749
#
# Static dielectric constant tensor:
#      x y z
#    x 7.319790 -2.196760 -0.777460 
#    y -2.196760 7.297870 0.297560 
#    z -0.777460 0.297560 4.472890 
# 
# 
# High freq. dielectric constant tensor:
#      x y z
#    x 2.010400 -0.006750 0.019680 
#    y -0.006750 2.025260 0.009300 
#    z 0.019680 0.009300 2.020360 
# 
# From -- ./inp_files/71499.got.cif
#   From: 2010.06.25/outbox.cif.g09.slc.cpg/sg2_36_cif.got.tgz:71499.got - 2010.06.27 13:26:56.
