data_PCOD8032579
_publ_section_title
;
Structure prediction by ZEFSAII (Michael W. Deem and Ramdas Pophale) SiO2 
 PCOD8032579
Probable space group: P -1
;
_chemical_formula_sum "Si O2"
_cell_formula_units_Z 10
_cell_length_a 14.498034
_cell_length_b 15.025341
_cell_length_c 12.335884
_cell_angle_alpha 150.667588
_cell_angle_beta 151.832933
_cell_angle_gamma 19.820144
_cell_volume 414.708576
_symmetry_space_group_name_H-M "P -1"
_symmetry_group_IT_number 2
_symmetry_cell_setting 'triclinic'
loop_
_space_group_symop_operation_xyz
x,y,z
-x,-y,-z
loop_
_atom_site_type_symbol
_atom_site_label
_atom_site_fract_x
_atom_site_fract_y
_atom_site_fract_z
Si Si1 0.898638 0.440612 0.594478
Si Si2 0.513825 0.399101 0.220623
Si Si3 0.910053 0.815678 0.928519
Si Si4 0.156539 0.703026 0.844361
Si Si5 0.699448 0.738769 0.003098
O O1 0.689455 0.466902 0.484276
O O2 0.774807 0.731874 0.759455
O O3 0.927439 0.333563 0.393197
O O4 0.216165 0.231514 0.760507
O O5 0.474461 0.328690 0.222286
O O6 0.202799 0.674255 0.143592
O O7 0.684483 0.140371 0.042441
O O8 0.008819 0.691940 0.777814
O O9 0.500000 0.500000 0.000000
O O10 0.000000 0.000000 0.000000
O O11 0.000000 0.500000 0.000000
O O12 0.500000 0.000000 0.000000
#
# Coordination Sequence:
#
# PCOD8032579 Si02
#       5
#     2   2   2   2   2
#     4  11  25  44  74  98 139 186 219 277 350 383
#     4  11  24  44  71 100 136 176 228 278 334 412
#     4  11  23  43  66 105 143 175 223 270 327 420
#     4  12  23  42  68 104 141 179 220 269 332 413
#     4  11  26  47  68 100 132 173 236 287 333 401
#
# _framework density 24.113319000000001
#
# number of rings (size 3 to 8) (size 9 to 14) (size 15 to 20)
#    0.000    0.800    4.000    3.000    0.000   11.200 
#    0.000    7.000    0.000    0.000    0.000    0.000 
#    0.000    0.000    0.000    0.000    0.000    0.000 
#
# Total GULP energy -123952.248149 kJ/mol
# GULP energy per Si atom -12395.224815 kJ/mol
# Density = 2.405844 g / cm^3
# Si number density = 24.113319 Si / 1000 Ang^3
#
#
#
# Elastic Constant Matrix: (Units=GPa)
#
#
# Indices 1 2 3 4 5 6 
#
# 1 161.2819 29.1815 18.0856 -14.1504 35.8461 4.2600
# 2 29.1815 127.3649 31.8401 -5.3205 1.0371 -0.2322
# 3 18.0856 31.8401 80.6446 -10.2106 28.0582 12.9289
# 4 -14.1504 -5.3205 -10.2106 21.6450 11.1633 -7.2702
# 5 35.8461 1.0371 28.0582 11.1633 55.0627 -1.6796
# 6 4.2600 -0.2322 12.9289 -7.2702 -1.6796 43.2670
#
#
#
# Elastic Compliance Matrix: (Units=1/GPa)
#
#
# Indices 1 2 3 4 5 6 
#
# 1 0.010048 -0.002831 0.004851 0.014079 -0.011831 -0.000548
# 2 -0.002831 0.009780 -0.006095 -0.004775 0.005781 0.001575
# 3 0.004851 -0.006095 0.024175 0.021716 -0.019913 -0.004858
# 4 0.014079 -0.004775 0.021716 0.085391 -0.037301 0.005000
# 5 -0.011831 0.005781 -0.019913 -0.037301 0.043542 0.002569
# 6 -0.000548 0.001575 -0.004858 0.005000 0.002569 0.025566
#
#
# Mechanical properties :
#
#
# Convention : Reuss Voigt Hill
#
# Bulk Modulus (GPa) = 27.89144 58.61176 43.25160
# Shear Modulus (GPa) = 22.87250 43.34055 33.10653
#
# Velocity S-wave (km/s) = 3.08318 4.24414 3.70936
# Velocity P-wave (km/s) = 4.92612 6.95532 6.02674
#
# Compressibility (1/GPa) = 0.03585329
#
# Stress axis : x y z
#
# Youngs Moduli (GPa) = 99.52355 102.24810 41.36518
#
# Poissons Ratio (x) = 0.28951 -0.20067
# Poissons Ratio (y) = 0.28179 0.25210
# Poissons Ratio (z) = -0.48281 0.62316
#
# Static dielectric constant tensor:
#      x y z
#    x 6.911650 -0.807080 -0.842890 
#    y -0.807080 4.654400 0.465450 
#    z -0.842890 0.465450 4.857460 
# 
# 
# High freq. dielectric constant tensor:
#      x y z
#    x 1.989020 0.007040 0.010800 
#    y 0.007040 1.957540 -0.002480 
#    z 0.010800 -0.002480 1.939920 
# 
# From -- ./inp_files/5562.got.cif
#   From: 2010.06.25/outbox.cif.g09.slc.cpg/sg2_3_cif.got.tgz:5562.got - 2010.06.27 13:26:56.
