data_PCOD8032236
_publ_section_title
;
Structure prediction by ZEFSAII (Michael W. Deem and Ramdas Pophale) SiO2 
 PCOD8032236
Probable space group: P -1
;
_chemical_formula_sum "Si O2"
_cell_formula_units_Z 16
_cell_length_a 10.829009
_cell_length_b 13.976228
_cell_length_c 14.211827
_cell_angle_alpha 30.648320
_cell_angle_beta 40.604436
_cell_angle_gamma 60.216568
_cell_volume 629.306547
_symmetry_space_group_name_H-M "P -1"
_symmetry_group_IT_number 2
_symmetry_cell_setting 'triclinic'
loop_
_space_group_symop_operation_xyz
x,y,z
-x,-y,-z
loop_
_atom_site_type_symbol
_atom_site_label
_atom_site_fract_x
_atom_site_fract_y
_atom_site_fract_z
Si Si1 0.621014 0.445624 0.676011
Si Si2 0.233417 0.139959 0.049023
Si Si3 0.544667 0.990892 0.345465
Si Si4 0.963668 0.677561 0.640492
Si Si5 0.137145 0.774110 0.882628
Si Si6 0.950326 0.311935 0.617559
Si Si7 0.467038 0.381908 0.020301
Si Si8 0.283312 0.136075 0.815896
O O1 0.720065 0.285306 0.733789
O O2 0.764552 0.670945 0.349034
O O3 0.377456 0.327934 0.877692
O O4 0.619359 0.506719 0.736770
O O5 0.007571 0.139517 0.158713
O O6 0.174117 0.909917 0.324206
O O7 0.362523 0.172681 0.848052
O O8 0.773923 0.099328 0.176724
O O9 0.481685 0.168935 0.203080
O O10 0.352788 0.814955 0.667311
O O11 0.547503 0.868447 0.352493
O O12 0.886200 0.632200 0.612168
O O13 0.779726 0.681144 0.809531
O O14 0.007830 0.482071 0.808327
O O15 0.000000 0.500000 0.500000
O O16 0.925058 0.100358 0.864186
O O17 0.500000 0.500000 0.000000
#
# Coordination Sequence:
#
# PCOD8032236 Si02
#       8
#     2   2   2   2   2   2   2   2
#     4  12  27  47  72 100 140 186 226 282 342 413
#     4  11  27  46  68 102 142 183 232 275 341 417
#     4  11  23  43  72 103 139 178 233 290 342 398
#     4  11  23  41  70  98 135 185 220 288 335 401
#     4  11  23  43  70 103 139 180 232 283 343 408
#     4  11  24  44  68 104 136 172 229 284 343 406
#     4  12  23  46  72 102 139 178 233 289 348 397
#     4  11  25  45  71 105 138 184 224 286 339 409
#
# _framework density 25.424810000000001
#
# number of rings (size 3 to 8) (size 9 to 14) (size 15 to 20)
#    0.000    0.750    3.750    3.375    1.750    6.500 
#    0.000    1.250    0.000    0.000    0.000    0.000 
#    0.000    0.000    0.000    0.000    0.000    0.000 
#
# Total GULP energy -198256.369230 kJ/mol
# GULP energy per Si atom -12391.023077 kJ/mol
# Density = 2.536694 g / cm^3
# Si number density = 25.424810 Si / 1000 Ang^3
#
#
#
# Elastic Constant Matrix: (Units=GPa)
#
#
# Indices 1 2 3 4 5 6 
#
# 1 60.9434 13.0193 17.0261 -17.5430 -6.9718 -1.0246
# 2 13.0193 87.9521 19.5440 -2.8421 4.6281 -2.8434
# 3 17.0261 19.5440 130.8156 -27.1138 34.2101 -5.4042
# 4 -17.5430 -2.8421 -27.1138 48.4048 1.5401 2.7636
# 5 -6.9718 4.6281 34.2101 1.5401 33.1580 3.3822
# 6 -1.0246 -2.8434 -5.4042 2.7636 3.3822 30.9240
#
#
#
# Elastic Compliance Matrix: (Units=1/GPa)
#
#
# Indices 1 2 3 4 5 6 
#
# 1 0.020256 -0.002559 -0.003328 0.005158 0.007961 -0.001477
# 2 -0.002559 0.012109 -0.001453 -0.001060 -0.000777 0.000954
# 3 -0.003328 -0.001453 0.013882 0.006790 -0.015468 0.003267
# 4 0.005158 -0.001060 0.006790 0.026511 -0.006969 -0.000347
# 5 0.007961 -0.000777 -0.015468 -0.006969 0.048962 -0.007243
# 6 -0.001477 0.000954 0.003267 -0.000347 -0.007243 0.033770
#
#
# Mechanical properties :
#
#
# Convention : Reuss Voigt Hill
#
# Bulk Modulus (GPa) = 31.67876 42.09888 36.88882
# Shear Modulus (GPa) = 27.67132 37.83878 32.75505
#
# Velocity S-wave (km/s) = 3.30261 3.86199 3.59320
# Velocity P-wave (km/s) = 5.19902 6.03993 5.63518
#
# Compressibility (1/GPa) = 0.03156689
#
# Stress axis : x y z
#
# Youngs Moduli (GPa) = 49.36901 82.58316 72.03555
#
# Poissons Ratio (x) = 0.21132 0.23972
# Poissons Ratio (y) = 0.12633 0.10468
# Poissons Ratio (z) = 0.16429 0.12001
#
# Static dielectric constant tensor:
#      x y z
#    x 5.055900 -0.682860 0.044280 
#    y -0.682860 4.035870 -0.069700 
#    z 0.044280 -0.069700 4.586910 
# 
# 
# High freq. dielectric constant tensor:
#      x y z
#    x 1.983820 -0.005090 0.018770 
#    y -0.005090 2.030950 0.002880 
#    z 0.018770 0.002880 2.026370 
# 
# From -- ./inp_files/522116.got.cif
#   From: 2010.06.25/outbox.cif.g09.slc.cpg/sg2_262_cif.got.tgz:522116.got - 2010.06.27 13:26:56.
