data_PCOD8032118
_publ_section_title
;
Structure prediction by ZEFSAII (Michael W. Deem and Ramdas Pophale) SiO2 
 PCOD8032118
Probable space group: P -1
;
_chemical_formula_sum "Si O2"
_cell_formula_units_Z 16
_cell_length_a 9.345872
_cell_length_b 15.830534
_cell_length_c 9.766122
_cell_angle_alpha 113.130453
_cell_angle_beta 134.042334
_cell_angle_gamma 98.573114
_cell_volume 734.994308
_symmetry_space_group_name_H-M "P -1"
_symmetry_group_IT_number 2
_symmetry_cell_setting 'triclinic'
loop_
_space_group_symop_operation_xyz
x,y,z
-x,-y,-z
loop_
_atom_site_type_symbol
_atom_site_label
_atom_site_fract_x
_atom_site_fract_y
_atom_site_fract_z
Si Si1 0.889090 0.182026 0.233069
Si Si2 0.903353 0.562920 0.546560
Si Si3 0.238350 0.479179 0.284436
Si Si4 0.834804 0.176528 0.493086
Si Si5 0.400148 0.225304 0.648747
Si Si6 0.239186 0.675277 0.306275
Si Si7 0.444622 0.032677 0.629041
Si Si8 0.572646 0.608558 0.026626
O O1 0.742150 0.123875 0.244089
O O2 0.985531 0.315711 0.379760
O O3 0.132646 0.186348 0.388121
O O4 0.706516 0.102722 0.935661
O O5 0.957333 0.589150 0.760255
O O6 0.591404 0.458978 0.262194
O O7 0.000000 0.500000 0.500000
O O8 0.500000 0.500000 0.500000
O O9 0.308000 0.606104 0.395074
O O10 0.066408 0.401720 0.987233
O O11 0.675844 0.216522 0.470329
O O12 0.787237 0.081554 0.510586
O O13 0.133201 0.292758 0.756765
O O14 0.599058 0.277240 0.692540
O O15 0.353420 0.110135 0.602773
O O16 0.515575 0.324675 0.908438
O O17 0.500000 0.000000 0.500000
O O18 0.500000 0.500000 0.000000
#
# Coordination Sequence:
#
# PCOD8032118 Si02
#       8
#     2   2   2   2   2   2   2   2
#     4  11  25  45  72 101 139 181 236 287 351 415
#     4  12  22  40  67 100 139 181 224 280 349 420
#     4  11  24  36  59  97 138 183 231 274 342 423
#     4  11  24  45  71 102 138 185 234 286 347 409
#     4  11  24  45  71 101 139 189 228 292 353 407
#     4  11  23  41  64  96 142 183 226 289 350 404
#     4  12  26  49  73 101 140 185 245 291 340 411
#     4  11  23  42  71 101 141 176 223 284 354 421
#
# _framework density 21.768877
#
# number of rings (size 3 to 8) (size 9 to 14) (size 15 to 20)
#    0.000    0.750    3.750    4.875    3.500    2.500 
#    2.250    1.250    0.000    0.000    0.000    0.000 
#    0.000    0.000    0.000    0.000    0.000    0.000 
#
# Total GULP energy -198319.865501 kJ/mol
# GULP energy per Si atom -12394.991594 kJ/mol
# Density = 2.171933 g / cm^3
# Si number density = 21.768877 Si / 1000 Ang^3
#
#
#
# Elastic Constant Matrix: (Units=GPa)
#
#
# Indices 1 2 3 4 5 6 
#
# 1 107.7564 55.4958 26.1279 0.6601 -15.9050 2.8292
# 2 55.4958 178.2455 24.1692 3.9251 2.5648 -0.5306
# 3 26.1279 24.1692 83.8482 -15.4246 -11.5615 -2.7645
# 4 0.6601 3.9251 -15.4246 31.5664 -3.6636 0.8763
# 5 -15.9050 2.5648 -11.5615 -3.6636 33.3988 -0.8946
# 6 2.8292 -0.5306 -2.7645 0.8763 -0.8946 43.8210
#
#
#
# Elastic Compliance Matrix: (Units=1/GPa)
#
#
# Indices 1 2 3 4 5 6 
#
# 1 0.012531 -0.003686 -0.002155 -0.000199 0.005459 -0.000874
# 2 -0.003686 0.007074 -0.001675 -0.001985 -0.003091 0.000195
# 3 -0.002155 -0.001675 0.015397 0.008372 0.005378 0.001033
# 4 -0.000199 -0.001985 0.008372 0.036835 0.006994 -0.000077
# 5 0.005459 -0.003091 0.005378 0.006994 0.035422 0.000533
# 6 -0.000874 0.000195 0.001033 -0.000077 0.000533 0.022956
#
#
# Mechanical properties :
#
#
# Convention : Reuss Voigt Hill
#
# Bulk Modulus (GPa) = 50.07870 64.60399 57.34134
# Shear Modulus (GPa) = 32.91557 39.36105 36.13831
#
# Velocity S-wave (km/s) = 3.89272 4.25683 4.07884
# Velocity P-wave (km/s) = 6.57716 7.34183 6.96999
#
# Compressibility (1/GPa) = 0.01996857
#
# Stress axis : x y z
#
# Youngs Moduli (GPa) = 79.80180 141.36598 64.94964
#
# Poissons Ratio (x) = 0.52108 0.13996
# Poissons Ratio (y) = 0.29415 0.10882
# Poissons Ratio (z) = 0.17197 0.23685
#
# Static dielectric constant tensor:
#      x y z
#    x 4.040400 0.134980 -0.154110 
#    y 0.134980 3.990230 0.095360 
#    z -0.154110 0.095360 4.346910 
# 
# 
# High freq. dielectric constant tensor:
#      x y z
#    x 1.864730 0.002360 -0.010000 
#    y 0.002360 1.865860 -0.003750 
#    z -0.010000 -0.003750 1.855670 
# 
# From -- ./inp_files/208548.got.cif
#   From: 2010.06.25/outbox.cif.g09.slc.cpg/sg2_105_cif.got.tgz:208548.got - 2010.06.27 13:26:56.
