data_PCOD8032604
_publ_section_title
;
Structure prediction by ZEFSAII (Michael W. Deem and Ramdas Pophale) SiO2 
 PCOD8032604
Probable space group: P -1
;
_chemical_formula_sum "Si O2"
_cell_formula_units_Z 16
_cell_length_a 9.739048
_cell_length_b 5.377132
_cell_length_c 16.510661
_cell_angle_alpha 116.798535
_cell_angle_beta 58.283832
_cell_angle_gamma 107.588611
_cell_volume 654.093123
_symmetry_space_group_name_H-M "P -1"
_symmetry_group_IT_number 2
_symmetry_cell_setting 'triclinic'
loop_
_space_group_symop_operation_xyz
x,y,z
-x,-y,-z
loop_
_atom_site_type_symbol
_atom_site_label
_atom_site_fract_x
_atom_site_fract_y
_atom_site_fract_z
Si Si1 0.748808 0.609176 0.899537
Si Si2 0.182315 0.753809 0.422328
Si Si3 0.241894 0.211523 0.254551
Si Si4 0.029938 0.675724 0.935414
Si Si5 0.479395 0.130087 0.885967
Si Si6 0.961654 0.863622 0.364274
Si Si7 0.291152 0.490488 0.716695
Si Si8 0.467111 0.057747 0.700880
O O1 0.805594 0.667084 0.799188
O O2 0.616386 0.352657 0.910657
O O3 0.906181 0.533590 0.887383
O O4 0.673169 0.876916 0.006200
O O5 0.227806 0.433735 0.364268
O O6 0.338626 0.943250 0.367459
O O7 0.026868 0.746162 0.410392
O O8 0.133948 0.864246 0.541988
O O9 0.432546 0.157909 0.184921
O O10 0.116893 0.942607 0.270233
O O11 0.209601 0.638374 0.840188
O O12 0.000000 0.500000 0.000000
O O13 0.000000 0.000000 0.000000
O O14 0.425336 0.195522 0.820775
O O15 0.841387 0.636221 0.324205
O O16 0.393941 0.241088 0.679823
O O17 0.397691 0.733233 0.670874
#
# Coordination Sequence:
#
# PCOD8032604 Si02
#       8
#     2   2   2   2   2   2   2   2
#     4  11  25  40  72 103 144 196 249 298 363 437
#     4  11  25  48  76 106 140 195 250 314 375 435
#     4  12  21  44  74 106 143 189 250 312 362 438
#     4  12  27  47  69 105 152 202 244 295 366 449
#     4  11  23  43  67 108 143 191 243 307 357 443
#     4  11  27  47  75 106 144 192 253 310 374 449
#     4  12  28  48  74 108 154 198 241 307 378 443
#     4  12  26  49  75 108 153 194 246 307 376 440
#
# _framework density 24.461348999999998
#
# number of rings (size 3 to 8) (size 9 to 14) (size 15 to 20)
#    0.000    0.500    2.500    5.250    7.000    1.000 
#    0.000    0.000    0.000    0.000    0.000    0.000 
#    0.000    0.000    0.000    0.000    0.000    0.000 
#
# Total GULP energy -198411.071960 kJ/mol
# GULP energy per Si atom -12400.691997 kJ/mol
# Density = 2.440567 g / cm^3
# Si number density = 24.461349 Si / 1000 Ang^3
#
#
#
# Elastic Constant Matrix: (Units=GPa)
#
#
# Indices 1 2 3 4 5 6 
#
# 1 109.0004 40.9183 9.8822 6.3572 -0.5174 3.2457
# 2 40.9183 114.9910 0.6697 3.0919 0.3119 -2.5645
# 3 9.8822 0.6697 98.7568 13.4929 -11.6345 0.2913
# 4 6.3572 3.0919 13.4929 35.2248 -2.4144 -5.6866
# 5 -0.5174 0.3119 -11.6345 -2.4144 28.6553 0.6782
# 6 3.2457 -2.5645 0.2913 -5.6866 0.6782 37.6517
#
#
#
# Elastic Compliance Matrix: (Units=1/GPa)
#
#
# Indices 1 2 3 4 5 6 
#
# 1 0.010823 -0.003836 -0.000869 -0.001526 -0.000211 -0.001414
# 2 -0.003836 0.010086 0.000325 -0.000163 -0.000084 0.000992
# 3 -0.000869 0.000325 0.011258 -0.004002 0.004230 -0.000671
# 4 -0.001526 -0.000163 -0.004002 0.031049 0.000851 0.004826
# 5 -0.000211 -0.000084 0.004230 0.000851 0.036697 -0.000553
# 6 -0.001414 0.000992 -0.000671 0.004826 -0.000553 0.027493
#
#
# Mechanical properties :
#
#
# Convention : Reuss Voigt Hill
#
# Bulk Modulus (GPa) = 42.72328 47.29874 45.01101
# Shear Modulus (GPa) = 34.72958 38.39157 36.56058
#
# Velocity S-wave (km/s) = 3.77208 3.96596 3.87023
# Velocity P-wave (km/s) = 6.03945 6.35216 6.19778
#
# Compressibility (1/GPa) = 0.02340644
#
# Stress axis : x y z
#
# Youngs Moduli (GPa) = 92.39315 99.14483 88.82711
#
# Poissons Ratio (x) = 0.38034 0.07720
# Poissons Ratio (y) = 0.35444 -0.02886
# Poissons Ratio (z) = 0.08030 -0.03221
#
# Static dielectric constant tensor:
#      x y z
#    x 4.522210 0.172410 -0.251360 
#    y 0.172410 4.103830 0.186560 
#    z -0.251360 0.186560 4.911920 
# 
# 
# High freq. dielectric constant tensor:
#      x y z
#    x 1.978140 0.011220 -0.009840 
#    y 0.011220 1.961970 0.012600 
#    z -0.009840 0.012600 1.982340 
# 
# From -- ./inp_files/143432.got.cif
#   From: 2010.06.25/outbox.cif.g09.slc.cpg/sg2_72_cif.got.tgz:143432.got - 2010.06.27 13:26:56.
