data_PCOD8032680
_publ_section_title
;
Structure prediction by ZEFSAII (Michael W. Deem and Ramdas Pophale) SiO2 
 PCOD8032680
Probable space group: P -1
;
_chemical_formula_sum "Si O2"
_cell_formula_units_Z 16
_cell_length_a 9.177471
_cell_length_b 9.201869
_cell_length_c 11.860932
_cell_angle_alpha 76.624253
_cell_angle_beta 80.056038
_cell_angle_gamma 48.065385
_cell_volume 724.699494
_symmetry_space_group_name_H-M "P -1"
_symmetry_group_IT_number 2
_symmetry_cell_setting 'triclinic'
loop_
_space_group_symop_operation_xyz
x,y,z
-x,-y,-z
loop_
_atom_site_type_symbol
_atom_site_label
_atom_site_fract_x
_atom_site_fract_y
_atom_site_fract_z
Si Si1 0.051919 0.151443 0.153292
Si Si2 0.583334 0.218728 0.720409
Si Si3 0.350345 0.975823 0.481432
Si Si4 0.096404 0.407237 0.387117
Si Si5 0.673882 0.474655 0.751434
Si Si6 0.741460 0.134319 0.259357
Si Si7 0.952038 0.815483 0.099055
Si Si8 0.160862 0.427180 0.820038
O O1 0.909080 0.146600 0.250215
O O2 0.973798 0.371625 0.126854
O O3 0.269846 0.994737 0.201101
O O4 0.044866 0.093764 0.035216
O O5 0.559149 0.192754 0.596190
O O6 0.664802 0.333911 0.698703
O O7 0.381545 0.339434 0.794167
O O8 0.276074 0.929078 0.604801
O O9 0.500000 0.000000 0.500000
O O10 0.174981 0.185680 0.409632
O O11 0.264906 0.420715 0.347465
O O12 0.000000 0.500000 0.500000
O O13 0.925709 0.541203 0.297288
O O14 0.458384 0.655695 0.794859
O O15 0.825234 0.345758 0.856296
O O16 0.806814 0.974623 0.184344
O O17 0.855307 0.722084 0.090690
#
# Coordination Sequence:
#
# PCOD8032680 Si02
#       8
#     2   2   2   2   2   2   2   2
#     4  12  26  47  69 103 141 182 235 296 339 408
#     4  12  26  45  70 104 143 180 231 283 350 415
#     4  12  24  44  70 101 143 180 225 284 344 417
#     4  11  23  43  69  99 142 183 227 282 342 409
#     4  11  25  44  70 104 139 181 233 280 348 417
#     4  12  25  44  69 105 139 184 232 282 349 410
#     4  11  26  47  73  99 141 181 238 290 346 405
#     4  11  25  45  69 104 136 181 234 284 351 410
#
# _framework density 22.078118
#
# number of rings (size 3 to 8) (size 9 to 14) (size 15 to 20)
#    0.000    0.500    5.000    3.750    0.000    4.000 
#    0.000    0.000    0.000    0.000    0.000    0.000 
#    0.000    0.000    0.000    0.000    0.000    0.000 
#
# Total GULP energy -198438.855464 kJ/mol
# GULP energy per Si atom -12402.428467 kJ/mol
# Density = 2.202787 g / cm^3
# Si number density = 22.078118 Si / 1000 Ang^3
#
#
#
# Elastic Constant Matrix: (Units=GPa)
#
#
# Indices 1 2 3 4 5 6 
#
# 1 100.6293 29.7946 26.2230 3.1631 3.7128 -0.0342
# 2 29.7946 129.4242 23.8628 12.4760 6.8622 -10.8638
# 3 26.2230 23.8628 100.2999 5.7993 8.0527 -10.3136
# 4 3.1631 12.4760 5.7993 26.4483 4.9518 2.3771
# 5 3.7128 6.8622 8.0527 4.9518 22.7833 5.5864
# 6 -0.0342 -10.8638 -10.3136 2.3771 5.5864 40.1931
#
#
#
# Elastic Compliance Matrix: (Units=1/GPa)
#
#
# Indices 1 2 3 4 5 6 
#
# 1 0.011263 -0.002266 -0.002559 0.000402 -0.000022 -0.001280
# 2 -0.002266 0.009105 -0.000929 -0.003707 -0.001902 0.002704
# 3 -0.002559 -0.000929 0.011599 -0.001365 -0.003928 0.003350
# 4 0.000402 -0.003707 -0.001365 0.041330 -0.006748 -0.002858
# 5 -0.000022 -0.001902 -0.003928 -0.006748 0.049278 -0.007972
# 6 -0.001280 0.002704 0.003350 -0.002858 -0.007972 0.027746
#
#
# Mechanical properties :
#
#
# Convention : Reuss Voigt Hill
#
# Bulk Modulus (GPa) = 48.87675 54.45715 51.66695
# Shear Modulus (GPa) = 29.64780 34.58314 32.11547
#
# Velocity S-wave (km/s) = 3.66848 3.96207 3.81810
# Velocity P-wave (km/s) = 6.33481 6.75647 6.54903
#
# Compressibility (1/GPa) = 0.02045963
#
# Stress axis : x y z
#
# Youngs Moduli (GPa) = 88.78691 109.83438 86.21704
#
# Poissons Ratio (x) = 0.24890 0.22060
# Poissons Ratio (y) = 0.20120 0.08005
# Poissons Ratio (z) = 0.22717 0.10198
#
# Static dielectric constant tensor:
#      x y z
#    x 4.035310 0.703940 -0.564920 
#    y 0.703940 3.856670 0.412510 
#    z -0.564920 0.412510 3.287430 
# 
# 
# High freq. dielectric constant tensor:
#      x y z
#    x 1.875750 0.004740 -0.002500 
#    y 0.004740 1.886370 0.000110 
#    z -0.002500 0.000110 1.863660 
# 
# From -- ./inp_files/187039.got.cif
#   From: 2010.06.25/outbox.cif.g09.slc.cpg/sg2_94_cif.got.tgz:187039.got - 2010.06.27 13:26:56.
