data_PCOD8032973
_publ_section_title
;
Structure prediction by ZEFSAII (Michael W. Deem and Ramdas Pophale) SiO2 
 PCOD8032973
Probable space group: P -1
;
_chemical_formula_sum "Si O2"
_cell_formula_units_Z 16
_cell_length_a 8.988119
_cell_length_b 9.031771
_cell_length_c 22.321370
_cell_angle_alpha 141.984430
_cell_angle_beta 137.559642
_cell_angle_gamma 45.221133
_cell_volume 719.373101
_symmetry_space_group_name_H-M "P -1"
_symmetry_group_IT_number 2
_symmetry_cell_setting 'triclinic'
loop_
_space_group_symop_operation_xyz
x,y,z
-x,-y,-z
loop_
_atom_site_type_symbol
_atom_site_label
_atom_site_fract_x
_atom_site_fract_y
_atom_site_fract_z
Si Si1 0.743216 0.525163 0.597854
Si Si2 0.411664 0.286766 0.873609
Si Si3 0.692626 0.090981 0.781607
Si Si4 0.866907 0.786261 0.039969
Si Si5 0.934016 0.239014 0.683398
Si Si6 0.476003 0.899106 0.866836
Si Si7 0.475746 0.648588 0.308876
Si Si8 0.052586 0.308960 0.509098
O O1 0.500000 0.500000 0.500000
O O2 0.859920 0.352161 0.632446
O O3 0.920061 0.453232 0.572945
O O4 0.676342 0.814281 0.686843
O O5 0.507734 0.258444 0.825993
O O6 0.133373 0.346654 0.804824
O O7 0.513086 0.024374 0.855327
O O8 0.500000 0.500000 0.000000
O O9 0.649109 0.231911 0.750464
O O10 0.951642 0.062598 0.870536
O O11 0.713817 0.893784 0.086540
O O12 0.719142 0.812584 0.944798
O O13 0.000000 0.500000 0.000000
O O14 0.713930 0.312638 0.683959
O O15 0.027772 0.935852 0.608128
O O16 0.396160 0.650432 0.754241
O O17 0.671893 0.779687 0.425231
O O18 0.000000 0.500000 0.500000
#
# Coordination Sequence:
#
# PCOD8032973 Si02
#       8
#     2   2   2   2   2   2   2   2
#     4  12  25  45  71 102 143 185 230 293 365 426
#     4  12  28  44  67 101 144 190 237 289 352 422
#     4  12  25  43  69 100 140 180 241 284 358 417
#     4  11  23  44  70 100 134 184 234 298 339 411
#     4  12  26  46  69 103 146 185 236 295 355 422
#     4  11  25  43  70  98 139 181 239 284 353 410
#     4  12  24  44  73 102 136 184 235 293 356 424
#     4  12  24  44  73 103 137 180 238 291 358 427
#
# _framework density 22.241586000000002
#
# number of rings (size 3 to 8) (size 9 to 14) (size 15 to 20)
#    0.000    0.250    1.250    8.250    5.250    0.500 
#    0.000    0.000    0.000    0.000    0.000    0.000 
#    0.000    0.000    0.000    0.000    0.000    0.000 
#
# Total GULP energy -198499.587879 kJ/mol
# GULP energy per Si atom -12406.224242 kJ/mol
# Density = 2.219096 g / cm^3
# Si number density = 22.241586 Si / 1000 Ang^3
#
#
#
# Elastic Constant Matrix: (Units=GPa)
#
#
# Indices 1 2 3 4 5 6 
#
# 1 139.0949 42.9363 43.4745 -20.6116 -5.6378 2.0360
# 2 42.9363 126.4427 46.5689 3.2491 -1.7601 13.2185
# 3 43.4745 46.5689 145.0572 2.5006 21.8308 -8.0142
# 4 -20.6116 3.2491 2.5006 43.1963 -5.5166 7.6791
# 5 -5.6378 -1.7601 21.8308 -5.5166 43.3803 -4.7012
# 6 2.0360 13.2185 -8.0142 7.6791 -4.7012 46.6286
#
#
#
# Elastic Compliance Matrix: (Units=1/GPa)
#
#
# Indices 1 2 3 4 5 6 
#
# 1 0.009734 -0.002279 -0.002809 0.005539 0.003198 -0.000851
# 2 -0.002279 0.010093 -0.002871 -0.001010 0.001107 -0.002977
# 3 -0.002809 -0.002871 0.009662 -0.002825 -0.005431 0.002515
# 4 0.005539 -0.001010 -0.002825 0.027476 0.005112 -0.004451
# 5 0.003198 0.001107 -0.005431 0.005112 0.026949 0.000488
# 6 -0.000851 -0.002977 0.002515 -0.004451 0.000488 0.023542
#
#
# Mechanical properties :
#
#
# Convention : Reuss Voigt Hill
#
# Bulk Modulus (GPa) = 73.69206 75.17269 74.43237
# Shear Modulus (GPa) = 39.09385 45.14871 42.12128
#
# Velocity S-wave (km/s) = 4.19703 4.51035 4.35651
# Velocity P-wave (km/s) = 7.52936 7.81000 7.67096
#
# Compressibility (1/GPa) = 0.01356998
#
# Stress axis : x y z
#
# Youngs Moduli (GPa) = 102.73428 99.08279 103.49475
#
# Poissons Ratio (x) = 0.22585 0.29075
# Poissons Ratio (y) = 0.23418 0.29709
# Poissons Ratio (z) = 0.28862 0.28442
#
# Static dielectric constant tensor:
#      x y z
#    x 4.118020 0.050930 0.083870 
#    y 0.050930 4.100440 -0.054900 
#    z 0.083870 -0.054900 4.316580 
# 
# 
# High freq. dielectric constant tensor:
#      x y z
#    x 1.888820 0.003710 0.002320 
#    y 0.003710 1.885070 -0.002510 
#    z 0.002320 -0.002510 1.896990 
# 
# From -- ./inp_files/606882.got.cif
#   From: 2010.06.25/outbox.cif.g09.slc.cpg/sg2_304_cif.got.tgz:606882.got - 2010.06.27 13:26:56.
