data_PCOD8032493
_publ_section_title
;
Structure prediction by ZEFSAII (Michael W. Deem and Ramdas Pophale) SiO2 
 PCOD8032493
Probable space group: P -1
;
_chemical_formula_sum "Si O2"
_cell_formula_units_Z 16
_cell_length_a 11.568947
_cell_length_b 14.073982
_cell_length_c 8.720500
_cell_angle_alpha 140.202269
_cell_angle_beta 107.052988
_cell_angle_gamma 52.658202
_cell_volume 679.633159
_symmetry_space_group_name_H-M "P -1"
_symmetry_group_IT_number 2
_symmetry_cell_setting 'triclinic'
loop_
_space_group_symop_operation_xyz
x,y,z
-x,-y,-z
loop_
_atom_site_type_symbol
_atom_site_label
_atom_site_fract_x
_atom_site_fract_y
_atom_site_fract_z
Si Si1 0.675646 0.612293 0.230907
Si Si2 0.060286 0.805928 0.194646
Si Si3 0.556197 0.825317 0.134628
Si Si4 0.793088 0.826285 0.595250
Si Si5 0.648291 0.457326 0.579342
Si Si6 0.591348 0.330398 0.702616
Si Si7 0.779908 0.920405 0.369956
Si Si8 0.949064 0.195800 0.170456
O O1 0.569744 0.764088 0.241525
O O2 0.795071 0.644855 0.378276
O O3 0.555220 0.666710 0.390293
O O4 0.772863 0.392133 0.930898
O O5 0.928757 0.783648 0.149749
O O6 0.081989 0.798213 0.012814
O O7 0.000000 0.000000 0.500000
O O8 0.648862 0.906640 0.248715
O O9 0.380065 0.981268 0.206292
O O10 0.627296 0.646768 0.833912
O O11 0.844399 0.844642 0.471518
O O12 0.914988 0.789865 0.723165
O O13 0.500000 0.500000 0.500000
O O14 0.669606 0.348660 0.610021
O O15 0.792452 0.347143 0.386588
O O16 0.724520 0.134487 0.597265
O O17 0.500000 0.500000 0.000000
O O18 0.000000 0.000000 0.000000
#
# Coordination Sequence:
#
# PCOD8032493 Si02
#       8
#     2   2   2   2   2   2   2   2
#     4  11  23  43  76 109 146 193 243 302 356 435
#     4  12  28  47  73 108 141 192 253 306 362 439
#     4  11  23  46  72 110 147 192 245 293 371 436
#     4  11  23  46  76 109 151 185 237 308 375 426
#     4  12  27  46  71 106 148 198 241 302 372 433
#     4  12  21  42  75 105 141 191 257 291 340 436
#     4  11  23  42  72 107 144 192 246 295 358 439
#     4  12  28  49  72 104 151 190 239 308 381 429
#
# _framework density 23.542113000000001
#
# number of rings (size 3 to 8) (size 9 to 14) (size 15 to 20)
#    0.000    0.500    3.750    4.500    5.250    1.500 
#    2.250    1.250    0.000    0.000    0.000    0.000 
#    0.000    0.000    0.000    0.000    0.000    0.000 
#
# Total GULP energy -198276.549703 kJ/mol
# GULP energy per Si atom -12392.284356 kJ/mol
# Density = 2.348853 g / cm^3
# Si number density = 23.542113 Si / 1000 Ang^3
#
#
#
# Elastic Constant Matrix: (Units=GPa)
#
#
# Indices 1 2 3 4 5 6 
#
# 1 118.3167 50.0492 56.3420 -5.1316 -37.0253 -12.6294
# 2 50.0492 89.7841 39.5837 -4.1852 -5.9204 -9.6236
# 3 56.3420 39.5837 134.8192 -1.6507 -11.6096 0.7450
# 4 -5.1316 -4.1852 -1.6507 41.2075 -2.7518 0.5314
# 5 -37.0253 -5.9204 -11.6096 -2.7518 50.5722 0.7469
# 6 -12.6294 -9.6236 0.7450 0.5314 0.7469 45.5069
#
#
#
# Elastic Compliance Matrix: (Units=1/GPa)
#
#
# Indices 1 2 3 4 5 6 
#
# 1 0.017029 -0.006453 -0.004287 0.001972 0.010788 0.003231
# 2 -0.006453 0.015676 -0.002201 0.000453 -0.003394 0.001611
# 3 -0.004287 -0.002201 0.009761 -0.000420 -0.001152 -0.001791
# 4 0.001972 0.000453 -0.000420 0.024721 0.002741 0.000316
# 5 0.010788 -0.003394 -0.001152 0.002741 0.027132 0.001818
# 6 0.003231 0.001611 -0.001791 0.000316 0.001818 0.023208
#
#
# Mechanical properties :
#
#
# Convention : Reuss Voigt Hill
#
# Bulk Modulus (GPa) = 60.30213 70.54108 65.42161
# Shear Modulus (GPa) = 33.57131 40.58699 37.07915
#
# Velocity S-wave (km/s) = 3.78035 4.15663 3.97295
# Velocity P-wave (km/s) = 6.68767 7.28462 6.99252
#
# Compressibility (1/GPa) = 0.01658316
#
# Stress axis : x y z
#
# Youngs Moduli (GPa) = 58.72234 63.79379 102.45221
#
# Poissons Ratio (x) = 0.41168 0.43918
# Poissons Ratio (y) = 0.37895 0.22552
# Poissons Ratio (z) = 0.25173 0.14042
#
# Static dielectric constant tensor:
#      x y z
#    x 5.312920 -0.054120 0.107080 
#    y -0.054120 3.879240 0.200820 
#    z 0.107080 0.200820 4.338030 
# 
# 
# High freq. dielectric constant tensor:
#      x y z
#    x 1.968550 -0.010770 0.005970 
#    y -0.010770 1.921010 0.019480 
#    z 0.005970 0.019480 1.932530 
# 
# From -- ./inp_files/274707.got.cif
#   From: 2010.06.25/outbox.cif.g09.slc.cpg/sg2_138_cif.got.tgz:274707.got - 2010.06.27 13:26:56.
