data_PCOD8032136
_publ_section_title
;
Structure prediction by ZEFSAII (Michael W. Deem and Ramdas Pophale) SiO2 
 PCOD8032136
Probable space group: P -1
;
_chemical_formula_sum "Si O2"
_cell_formula_units_Z 12
_cell_length_a 5.915563
_cell_length_b 16.120920
_cell_length_c 16.575464
_cell_angle_alpha 153.232549
_cell_angle_beta 72.220928
_cell_angle_gamma 88.654611
_cell_volume 490.383696
_symmetry_space_group_name_H-M "P -1"
_symmetry_group_IT_number 2
_symmetry_cell_setting 'triclinic'
loop_
_space_group_symop_operation_xyz
x,y,z
-x,-y,-z
loop_
_atom_site_type_symbol
_atom_site_label
_atom_site_fract_x
_atom_site_fract_y
_atom_site_fract_z
Si Si1 0.541870 0.794179 0.767246
Si Si2 0.702626 0.276166 0.996108
Si Si3 0.986150 0.470989 0.070062
Si Si4 0.233782 0.945771 0.771299
Si Si5 0.349594 0.040694 0.370496
Si Si6 0.219542 0.531952 0.398329
O O1 0.242174 0.944568 0.866938
O O2 0.537700 0.634239 0.695397
O O3 0.880453 0.608538 0.518544
O O4 0.500000 0.000000 0.000000
O O5 0.828655 0.043330 0.722131
O O6 0.700357 0.470530 0.116363
O O7 0.358242 0.390985 0.173226
O O8 0.920433 0.209501 0.993780
O O9 0.902876 0.711513 0.330307
O O10 0.000000 0.500000 0.000000
O O11 0.335564 0.200718 0.824204
O O12 0.556517 0.869603 0.633799
O O13 0.188332 0.762934 0.589483
#
# Coordination Sequence:
#
# PCOD8032136 Si02
#       6
#     2   2   2   2   2   2
#     4  11  25  41  63  97 137 185 242 293 354 418
#     4  11  26  44  72 102 143 188 237 292 362 423
#     4  11  26  48  75 111 146 185 236 295 360 434
#     4  11  23  42  65  98 140 184 241 290 358 417
#     4  11  25  44  76 105 149 186 238 294 356 431
#     4  11  23  41  65  94 139 186 237 293 359 413
#
# _framework density 24.470635000000001
#
# number of rings (size 3 to 8) (size 9 to 14) (size 15 to 20)
#    0.000    1.000    1.667    4.000    4.667    6.667 
#    0.000    0.000    0.000    0.000    0.000    0.000 
#    0.000    0.000    0.000    0.000    0.000    0.000 
#
# Total GULP energy -148729.867291 kJ/mol
# GULP energy per Si atom -12394.155608 kJ/mol
# Density = 2.441494 g / cm^3
# Si number density = 24.470635 Si / 1000 Ang^3
#
#
#
# Elastic Constant Matrix: (Units=GPa)
#
#
# Indices 1 2 3 4 5 6 
#
# 1 64.1735 32.0264 13.4051 -9.7789 18.2662 6.0675
# 2 32.0264 167.9335 39.3608 -8.6831 2.3343 10.0815
# 3 13.4051 39.3608 110.2005 -15.5174 19.7310 5.6860
# 4 -9.7789 -8.6831 -15.5174 40.4073 -3.4407 -0.1145
# 5 18.2662 2.3343 19.7310 -3.4407 33.3740 -3.1352
# 6 6.0675 10.0815 5.6860 -0.1145 -3.1352 34.8819
#
#
#
# Elastic Compliance Matrix: (Units=1/GPa)
#
#
# Indices 1 2 3 4 5 6 
#
# 1 0.021784 -0.003950 0.001809 0.004026 -0.012683 -0.004069
# 2 -0.003950 0.007329 -0.002686 -0.000146 0.003155 -0.000710
# 3 0.001809 -0.002686 0.011812 0.003743 -0.007600 -0.002134
# 4 0.004026 -0.000146 0.003743 0.026976 -0.001751 -0.001337
# 5 -0.012683 0.003155 -0.007600 -0.001751 0.041586 0.006265
# 6 -0.004069 -0.000710 -0.002134 -0.001337 0.006265 0.030488
#
#
# Mechanical properties :
#
#
# Convention : Reuss Voigt Hill
#
# Bulk Modulus (GPa) = 31.97875 56.87692 44.42784
# Shear Modulus (GPa) = 31.23985 38.90031 35.07008
#
# Velocity S-wave (km/s) = 3.57687 3.99140 3.78980
# Velocity P-wave (km/s) = 5.49138 6.67346 6.11107
#
# Compressibility (1/GPa) = 0.03127077
#
# Stress axis : x y z
#
# Youngs Moduli (GPa) = 45.90420 136.44856 84.66179
#
# Poissons Ratio (x) = 0.53892 -0.15312
# Poissons Ratio (y) = 0.18130 0.22741
# Poissons Ratio (z) = -0.08302 0.36651
#
# Static dielectric constant tensor:
#      x y z
#    x 4.291040 -0.056980 -0.068280 
#    y -0.056980 5.179460 0.241660 
#    z -0.068280 0.241660 4.469030 
# 
# 
# High freq. dielectric constant tensor:
#      x y z
#    x 1.957770 -0.000100 0.007470 
#    y -0.000100 1.987410 0.008400 
#    z 0.007470 0.008400 1.967650 
# 
# From -- ./inp_files/3293.got.cif
#   From: 2010.06.25/outbox.cif.g09.slc.cpg/sg2_2_cif.got.tgz:3293.got - 2010.06.27 13:26:56.
