data_PCOD8032267
_publ_section_title
;
Structure prediction by ZEFSAII (Michael W. Deem and Ramdas Pophale) SiO2 
 PCOD8032267
Probable space group: P -1
;
_chemical_formula_sum "Si O2"
_cell_formula_units_Z 16
_cell_length_a 4.973561
_cell_length_b 24.825261
_cell_length_c 18.517286
_cell_angle_alpha 19.956040
_cell_angle_beta 95.321673
_cell_angle_gamma 87.906908
_cell_volume 723.654539
_symmetry_space_group_name_H-M "P -1"
_symmetry_group_IT_number 2
_symmetry_cell_setting 'triclinic'
loop_
_space_group_symop_operation_xyz
x,y,z
-x,-y,-z
loop_
_atom_site_type_symbol
_atom_site_label
_atom_site_fract_x
_atom_site_fract_y
_atom_site_fract_z
Si Si1 0.596923 0.466962 0.763097
Si Si2 0.257160 0.461112 0.000918
Si Si3 0.715210 0.523778 0.536455
Si Si4 0.463598 0.927972 0.514046
Si Si5 0.178988 0.996685 0.822591
Si Si6 0.968888 0.385858 0.347676
Si Si7 0.835372 0.786789 0.121497
Si Si8 0.149565 0.934055 0.739147
O O1 0.571337 0.544946 0.584267
O O2 0.271884 0.523346 0.713201
O O3 0.774100 0.543326 0.724774
O O4 0.747054 0.265841 0.017968
O O5 0.370552 0.268971 0.222180
O O6 0.500000 0.500000 0.000000
O O7 0.159307 0.578130 0.780893
O O8 0.000000 0.500000 0.000000
O O9 0.500000 0.500000 0.500000
O O10 0.794667 0.690699 0.313988
O O11 0.013518 0.358958 0.750892
O O12 0.500000 0.000000 0.500000
O O13 0.595375 0.002372 0.358372
O O14 0.126260 0.970925 0.436947
O O15 0.094661 0.183955 0.615963
O O16 0.053744 0.989362 0.749137
O O17 0.523607 0.909672 0.932091
O O18 0.042719 0.895007 0.002099
#
# Coordination Sequence:
#
# PCOD8032267 Si02
#       8
#     2   2   2   2   2   2   2   2
#     4  12  26  45  70 102 142 181 222 286 353 402
#     4  12  25  47  71  96 134 191 232 274 340 421
#     4  11  24  44  74 107 133 181 230 281 337 411
#     4  12  25  42  64  99 134 168 226 291 339 395
#     4  12  24  45  68 101 133 180 228 283 328 412
#     4  12  28  46  67 103 146 178 225 285 354 403
#     4  11  23  41  73  99 133 169 237 274 323 398
#     4  12  24  42  70  97 127 179 230 279 336 401
#
# _framework density 22.109997
#
# number of rings (size 3 to 8) (size 9 to 14) (size 15 to 20)
#    0.000    0.250    2.500    7.125    5.250    0.000 
#    0.000    3.750    0.000    0.000    0.000    0.000 
#    0.000    0.000    0.000    0.000    0.000    0.000 
#
# Total GULP energy -198488.488159 kJ/mol
# GULP energy per Si atom -12405.530510 kJ/mol
# Density = 2.205967 g / cm^3
# Si number density = 22.109997 Si / 1000 Ang^3
#
#
#
# Elastic Constant Matrix: (Units=GPa)
#
#
# Indices 1 2 3 4 5 6 
#
# 1 106.9525 18.3470 24.4191 -1.9754 0.4432 -6.3658
# 2 18.3470 75.9030 20.3654 -0.0420 8.9911 -7.3081
# 3 24.4191 20.3654 115.1647 -18.3035 -3.8901 -5.6466
# 4 -1.9754 -0.0420 -18.3035 40.8135 -1.3368 -6.5573
# 5 0.4432 8.9911 -3.8901 -1.3368 47.9977 -1.1132
# 6 -6.3658 -7.3081 -5.6466 -6.5573 -1.1132 39.7193
#
#
#
# Elastic Compliance Matrix: (Units=1/GPa)
#
#
# Indices 1 2 3 4 5 6 
#
# 1 0.010138 -0.001891 -0.001785 -0.000146 0.000135 0.001003
# 2 -0.001891 0.014792 -0.002373 -0.000940 -0.002929 0.001844
# 3 -0.001785 -0.002373 0.010384 0.004873 0.001475 0.001600
# 4 -0.000146 -0.000940 0.004873 0.027544 0.001457 0.005085
# 5 0.000135 -0.002929 0.001475 0.001457 0.021554 0.000537
# 6 0.001003 0.001844 0.001600 0.005085 0.000537 0.026759
#
#
# Mechanical properties :
#
#
# Convention : Reuss Voigt Hill
#
# Bulk Modulus (GPa) = 43.07142 47.14259 45.10700
# Shear Modulus (GPa) = 38.16551 41.36534 39.76543
#
# Velocity S-wave (km/s) = 4.15922 4.33007 4.24551
# Velocity P-wave (km/s) = 6.52597 6.80937 6.66917
#
# Compressibility (1/GPa) = 0.02321725
#
# Stress axis : x y z
#
# Youngs Moduli (GPa) = 98.63591 67.60183 96.30162
#
# Poissons Ratio (x) = 0.12785 0.17187
# Poissons Ratio (y) = 0.18655 0.22850
# Poissons Ratio (z) = 0.17604 0.16041
#
# Static dielectric constant tensor:
#      x y z
#    x 4.297760 -0.057190 -0.113580 
#    y -0.057190 3.883170 -0.100630 
#    z -0.113580 -0.100630 4.167550 
# 
# 
# High freq. dielectric constant tensor:
#      x y z
#    x 1.891140 -0.006790 -0.002300 
#    y -0.006790 1.856000 -0.002170 
#    z -0.002300 -0.002170 1.887410 
# 
# From -- ./inp_files/551223.got.cif
#   From: 2010.06.25/outbox.cif.g09.slc.cpg/sg2_276_cif.got.tgz:551223.got - 2010.06.27 13:26:56.
