data_PCOD8032011
_publ_section_title
;
Structure prediction by ZEFSAII (Michael W. Deem and Ramdas Pophale) SiO2 
 PCOD8032011
Probable space group: P -1
;
_chemical_formula_sum "Si O2"
_cell_formula_units_Z 16
_cell_length_a 11.075133
_cell_length_b 16.082529
_cell_length_c 9.427200
_cell_angle_alpha 32.163537
_cell_angle_beta 108.257977
_cell_angle_gamma 122.523362
_cell_volume 715.065517
_symmetry_space_group_name_H-M "P -1"
_symmetry_group_IT_number 2
_symmetry_cell_setting 'triclinic'
loop_
_space_group_symop_operation_xyz
x,y,z
-x,-y,-z
loop_
_atom_site_type_symbol
_atom_site_label
_atom_site_fract_x
_atom_site_fract_y
_atom_site_fract_z
Si Si1 0.428205 0.611336 0.981554
Si Si2 0.444390 0.274205 0.440293
Si Si3 0.789714 0.138491 0.083515
Si Si4 0.701872 0.392933 0.581572
Si Si5 0.682775 0.148458 0.344925
Si Si6 0.546715 0.701408 0.182426
Si Si7 0.842338 0.043886 0.788847
Si Si8 0.035928 0.192414 0.910708
O O1 0.368862 0.392779 0.279798
O O2 0.558574 0.721822 0.988226
O O3 0.520311 0.709791 0.734175
O O4 0.295307 0.649682 0.908686
O O5 0.602285 0.352526 0.463875
O O6 0.330349 0.060189 0.741839
O O7 0.760448 0.150231 0.222320
O O8 0.796022 0.296137 0.757255
O O9 0.954775 0.175689 0.055827
O O10 0.591069 0.285451 0.829793
O O11 0.804515 0.613532 0.318928
O O12 0.500000 0.000000 0.500000
O O13 0.775119 0.127068 0.536195
O O14 0.500000 0.500000 0.500000
O O15 0.702652 0.861048 0.077920
O O16 0.940053 0.978321 0.836723
O O17 0.939127 0.184041 0.749052
#
# Coordination Sequence:
#
# PCOD8032011 Si02
#       8
#     2   2   2   2   2   2   2   2
#     4  11  23  40  65 109 133 165 222 297 347 384
#     4  11  24  41  71 101 137 173 229 291 338 401
#     4  12  25  43  69 103 135 181 230 279 343 412
#     4  12  24  42  68 100 136 180 227 286 333 398
#     4  12  23  44  73 102 136 171 232 296 336 395
#     4  12  20  40  74  99 129 175 234 285 338 393
#     4  11  24  45  70 103 136 185 225 281 346 406
#     4  11  27  45  66  97 149 184 226 270 344 427
#
# _framework density 22.375572999999999
#
# number of rings (size 3 to 8) (size 9 to 14) (size 15 to 20)
#    0.000    0.500    6.250    1.500    1.750    0.500 
#    0.000    1.875    0.000    0.000    0.000    0.000 
#    0.000    0.000    0.000    0.000    0.000    0.000 
#
# Total GULP energy -198282.161993 kJ/mol
# GULP energy per Si atom -12392.635125 kJ/mol
# Density = 2.232464 g / cm^3
# Si number density = 22.375573 Si / 1000 Ang^3
#
#
#
# Elastic Constant Matrix: (Units=GPa)
#
#
# Indices 1 2 3 4 5 6 
#
# 1 108.3138 29.2313 12.4960 12.4738 -1.8109 -15.7551
# 2 29.2313 105.4867 30.8964 15.4986 -6.0212 3.2366
# 3 12.4960 30.8964 61.1917 9.4253 11.9429 1.5267
# 4 12.4738 15.4986 9.4253 37.1917 0.2348 1.7936
# 5 -1.8109 -6.0212 11.9429 0.2348 46.3713 2.3186
# 6 -15.7551 3.2366 1.5267 1.7936 2.3186 39.2296
#
#
#
# Elastic Compliance Matrix: (Units=1/GPa)
#
#
# Indices 1 2 3 4 5 6 
#
# 1 0.011017 -0.002617 -0.000642 -0.002673 0.000030 0.004786
# 2 -0.002617 0.012605 -0.005974 -0.002789 0.003183 -0.001919
# 3 -0.000642 -0.005974 0.021106 -0.002600 -0.006218 -0.000100
# 4 -0.002673 -0.002789 -0.002600 0.029706 0.000158 -0.002110
# 5 0.000030 0.003183 -0.006218 0.000158 0.023651 -0.001414
# 6 0.004786 -0.001919 -0.000100 -0.002110 -0.001414 0.027755
#
#
# Mechanical properties :
#
#
# Convention : Reuss Voigt Hill
#
# Bulk Modulus (GPa) = 38.07743 46.69331 42.38537
# Shear Modulus (GPa) = 32.66667 38.04976 35.35822
#
# Velocity S-wave (km/s) = 3.82504 4.12819 3.97950
# Velocity P-wave (km/s) = 6.04668 6.60575 6.33238
#
# Compressibility (1/GPa) = 0.02626228
#
# Stress axis : x y z
#
# Youngs Moduli (GPa) = 90.76601 79.33232 47.37974
#
# Poissons Ratio (x) = 0.20765 0.03041
# Poissons Ratio (y) = 0.23758 0.28304
# Poissons Ratio (z) = 0.05826 0.47392
#
# Static dielectric constant tensor:
#      x y z
#    x 3.277680 0.438280 1.157180 
#    y 0.438280 3.716780 -0.485540 
#    z 1.157180 -0.485540 3.516340 
# 
# 
# High freq. dielectric constant tensor:
#      x y z
#    x 1.887190 -0.019710 0.018520 
#    y -0.019710 1.878730 0.004410 
#    z 0.018520 0.004410 1.881920 
# 
# From -- ./inp_files/271602.got.cif
#   From: 2010.06.25/outbox.cif.g09.slc.cpg/sg2_136_cif.got.tgz:271602.got - 2010.06.27 13:26:56.
