data_PCOD8032124
_publ_section_title
;
Structure prediction by ZEFSAII (Michael W. Deem and Ramdas Pophale) SiO2 
 PCOD8032124
Probable space group: P -1
;
_chemical_formula_sum "Si O2"
_cell_formula_units_Z 16
_cell_length_a 11.041272
_cell_length_b 11.443885
_cell_length_c 11.525000
_cell_angle_alpha 80.781448
_cell_angle_beta 50.859559
_cell_angle_gamma 119.240237
_cell_volume 711.171263
_symmetry_space_group_name_H-M "P -1"
_symmetry_group_IT_number 2
_symmetry_cell_setting 'triclinic'
loop_
_space_group_symop_operation_xyz
x,y,z
-x,-y,-z
loop_
_atom_site_type_symbol
_atom_site_label
_atom_site_fract_x
_atom_site_fract_y
_atom_site_fract_z
Si Si1 0.522500 0.633010 0.893530
Si Si2 0.401813 0.332332 0.422638
Si Si3 0.242191 0.100364 0.905182
Si Si4 0.134894 0.589807 0.100168
Si Si5 0.620555 0.060825 0.234307
Si Si6 0.154808 0.798090 0.685628
Si Si7 0.067533 0.097453 0.242068
Si Si8 0.699928 0.482531 0.441513
O O1 0.495091 0.587029 0.781151
O O2 0.789918 0.844037 0.732323
O O3 0.500000 0.500000 0.000000
O O4 0.323797 0.617486 0.053846
O O5 0.631854 0.440597 0.351519
O O6 0.262025 0.363959 0.555376
O O7 0.208039 0.112565 0.565218
O O8 0.481026 0.291851 0.670272
O O9 0.271973 0.975432 0.911421
O O10 0.235638 0.140546 0.033507
O O11 0.000000 0.000000 0.000000
O O12 0.952364 0.390920 0.180028
O O13 0.961293 0.570726 0.288687
O O14 0.286808 0.756351 0.890142
O O15 0.704254 0.069420 0.309904
O O16 0.325754 0.889311 0.452048
O O17 0.939749 0.764480 0.791232
#
# Coordination Sequence:
#
# PCOD8032124 Si02
#       8
#     2   2   2   2   2   2   2   2
#     4  12  27  47  67  97 140 194 236 279 346 419
#     4  11  25  44  72 106 136 181 235 290 350 419
#     4  12  22  43  70 105 140 178 223 287 356 410
#     4  12  26  43  67 103 139 184 231 288 350 410
#     4  11  24  40  67 105 138 177 221 293 358 407
#     4  11  23  41  65 101 143 172 228 288 351 415
#     4  12  24  46  71  99 142 187 234 278 345 429
#     4  11  25  44  71 110 142 171 234 297 356 408
#
# _framework density 22.498096
#
# number of rings (size 3 to 8) (size 9 to 14) (size 15 to 20)
#    0.000    0.500    5.000    3.000    7.000    0.000 
#    0.000    6.250    0.000    0.000    0.000    0.000 
#    0.000    0.000    0.000    0.000    0.000    0.000 
#
# Total GULP energy -198354.882751 kJ/mol
# GULP energy per Si atom -12397.180172 kJ/mol
# Density = 2.244689 g / cm^3
# Si number density = 22.498096 Si / 1000 Ang^3
#
#
#
# Elastic Constant Matrix: (Units=GPa)
#
#
# Indices 1 2 3 4 5 6 
#
# 1 111.4070 41.2322 52.1497 9.6238 -14.4345 -20.0687
# 2 41.2322 93.3498 33.3525 4.1791 -4.8501 -20.5107
# 3 52.1497 33.3525 116.6667 2.9172 2.9696 -14.0827
# 4 9.6238 4.1791 2.9172 36.8280 -9.7226 0.4568
# 5 -14.4345 -4.8501 2.9696 -9.7226 36.8475 3.0282
# 6 -20.0687 -20.5107 -14.0827 0.4568 3.0282 43.4278
#
#
#
# Elastic Compliance Matrix: (Units=1/GPa)
#
#
# Indices 1 2 3 4 5 6 
#
# 1 0.013806 -0.003387 -0.004935 -0.001629 0.004695 0.002869
# 2 -0.003387 0.013886 -0.001919 -0.000553 0.000151 0.004366
# 3 -0.004935 -0.001919 0.011509 -0.000272 -0.003249 0.000775
# 4 -0.001629 -0.000553 -0.000272 0.029609 0.007282 -0.001921
# 5 0.004695 0.000151 -0.003249 0.007282 0.031269 -0.001070
# 6 0.002869 0.004366 0.000775 -0.001921 -0.001070 0.026761
#
#
# Mechanical properties :
#
#
# Convention : Reuss Voigt Hill
#
# Bulk Modulus (GPa) = 53.42326 63.87692 58.65009
# Shear Modulus (GPa) = 32.56030 36.39993 34.48011
#
# Velocity S-wave (km/s) = 3.80840 4.02669 3.91906
# Velocity P-wave (km/s) = 6.56778 7.07621 6.82673
#
# Compressibility (1/GPa) = 0.01871844
#
# Stress axis : x y z
#
# Youngs Moduli (GPa) = 72.43342 72.01523 86.88930
#
# Poissons Ratio (x) = 0.24394 0.42881
# Poissons Ratio (y) = 0.24536 0.16670
# Poissons Ratio (z) = 0.35747 0.13816
#
# Static dielectric constant tensor:
#      x y z
#    x 4.101810 -0.102970 -0.229470 
#    y -0.102970 4.242650 0.004280 
#    z -0.229470 0.004280 4.104620 
# 
# 
# High freq. dielectric constant tensor:
#      x y z
#    x 1.870520 -0.025180 -0.013750 
#    y -0.025180 1.887920 -0.008760 
#    z -0.013750 -0.008760 1.899080 
# 
# From -- ./inp_files/428104.got.cif
#   From: 2010.06.25/outbox.cif.g09.slc.cpg/sg2_215_cif.got.tgz:428104.got - 2010.06.27 13:26:56.
