data_PCOD8032137
_publ_section_title
;
Structure prediction by ZEFSAII (Michael W. Deem and Ramdas Pophale) SiO2 
 PCOD8032137
Probable space group: P -1
;
_chemical_formula_sum "Si O2"
_cell_formula_units_Z 10
_cell_length_a 22.846575
_cell_length_b 9.083884
_cell_length_c 19.920833
_cell_angle_alpha 142.431034
_cell_angle_beta 168.995818
_cell_angle_gamma 36.497929
_cell_volume 469.158231
_symmetry_space_group_name_H-M "P -1"
_symmetry_group_IT_number 2
_symmetry_cell_setting 'triclinic'
loop_
_space_group_symop_operation_xyz
x,y,z
-x,-y,-z
loop_
_atom_site_type_symbol
_atom_site_label
_atom_site_fract_x
_atom_site_fract_y
_atom_site_fract_z
Si Si1 0.562444 0.227127 0.609717
Si Si2 0.936739 0.560336 0.671397
Si Si3 0.203444 0.751541 0.396239
Si Si4 0.515120 0.233811 0.145706
Si Si5 0.474623 0.940002 0.640168
O O1 0.257309 0.453505 0.356478
O O2 0.624581 0.153920 0.576303
O O3 0.500000 0.000000 0.500000
O O4 0.872555 0.309909 0.014125
O O5 0.776422 0.368430 0.460203
O O6 0.671156 0.766934 0.410782
O O7 0.172117 0.419066 0.828061
O O8 0.388133 0.855669 0.701734
O O9 0.343194 0.794736 0.497547
O O10 0.845829 0.893002 0.048146
O O11 0.500000 0.000000 0.000000
#
# Coordination Sequence:
#
# PCOD8032137 Si02
#       5
#     2   2   2   2   2
#     4  11  23  41  65  95 133 176 205 243 309 387
#     4  11  24  42  65  95 126 167 214 252 308 386
#     4  11  24  40  62  95 126 164 213 259 309 369
#     4  11  24  47  69  88 120 169 218 265 313 370
#     4  12  23  40  62  97 134 162 199 261 314 370
#
# _framework density 21.314768999999998
#
# number of rings (size 3 to 8) (size 9 to 14) (size 15 to 20)
#    0.000    0.800    0.000    9.600    0.000    4.800 
#    0.000    6.000    0.000    0.000    0.000    0.000 
#    0.000    0.000    0.000    0.000    0.000    0.000 
#
# Total GULP energy -124042.399527 kJ/mol
# GULP energy per Si atom -12404.239953 kJ/mol
# Density = 2.126626 g / cm^3
# Si number density = 21.314769 Si / 1000 Ang^3
#
#
#
# Elastic Constant Matrix: (Units=GPa)
#
#
# Indices 1 2 3 4 5 6 
#
# 1 146.7205 77.5141 62.5165 16.1555 -1.9929 -4.9060
# 2 77.5141 160.6720 94.8141 -12.7599 -13.2315 -9.6086
# 3 62.5165 94.8141 123.5920 -16.5717 23.0456 -1.4056
# 4 16.1555 -12.7599 -16.5717 53.6133 -3.1164 5.2765
# 5 -1.9929 -13.2315 23.0456 -3.1164 33.1555 -0.1568
# 6 -4.9060 -9.6086 -1.4056 5.2765 -0.1568 41.7618
#
#
#
# Elastic Compliance Matrix: (Units=1/GPa)
#
#
# Indices 1 2 3 4 5 6 
#
# 1 0.010823 -0.002777 -0.004438 -0.005284 0.002136 0.001159
# 2 -0.002777 0.019542 -0.017068 0.001003 0.019606 0.003542
# 3 -0.004438 -0.017068 0.029069 0.005116 -0.026822 -0.004217
# 4 -0.005284 0.001003 0.005116 0.022283 -0.001393 -0.003038
# 5 0.002136 0.019606 -0.026822 -0.001393 0.056646 0.004248
# 6 0.001159 0.003542 -0.004217 -0.003038 0.004248 0.025154
#
#
# Mechanical properties :
#
#
# Convention : Reuss Voigt Hill
#
# Bulk Modulus (GPa) = 92.00880 100.07489 96.04184
# Shear Modulus (GPa) = 23.17986 38.78210 30.98098
#
# Velocity S-wave (km/s) = 3.30131 4.27018 3.81661
# Velocity P-wave (km/s) = 7.60210 8.44781 8.03609
#
# Compressibility (1/GPa) = 0.01086853
#
# Stress axis : x y z
#
# Youngs Moduli (GPa) = 92.39198 51.17299 34.40133
#
# Poissons Ratio (x) = 0.14213 0.15266
# Poissons Ratio (y) = 0.25661 0.58714
# Poissons Ratio (z) = 0.41000 0.87340
#
# Static dielectric constant tensor:
#      x y z
#    x 4.102520 -0.093300 -0.151740 
#    y -0.093300 4.261300 -0.222720 
#    z -0.151740 -0.222720 3.947460 
# 
# 
# High freq. dielectric constant tensor:
#      x y z
#    x 1.843410 0.002030 0.013760 
#    y 0.002030 1.842490 -0.021700 
#    z 0.013760 -0.021700 1.837500 
# 
# From -- ./inp_files/3961.got.cif
#   From: 2010.06.25/outbox.cif.g09.slc.cpg/sg2_2_cif.got.tgz:3961.got - 2010.06.27 13:26:56.
