data_PCOD8032701
_publ_section_title
;
Structure prediction by ZEFSAII (Michael W. Deem and Ramdas Pophale) SiO2 
 PCOD8032701
Probable space group: P -1
;
_chemical_formula_sum "Si O2"
_cell_formula_units_Z 16
_cell_length_a 9.303110
_cell_length_b 9.248253
_cell_length_c 16.970849
_cell_angle_alpha 139.125776
_cell_angle_beta 102.066237
_cell_angle_gamma 93.011258
_cell_volume 882.351850
_symmetry_space_group_name_H-M "P -1"
_symmetry_group_IT_number 2
_symmetry_cell_setting 'triclinic'
loop_
_space_group_symop_operation_xyz
x,y,z
-x,-y,-z
loop_
_atom_site_type_symbol
_atom_site_label
_atom_site_fract_x
_atom_site_fract_y
_atom_site_fract_z
Si Si1 0.389435 0.798501 0.501915
Si Si2 0.813533 0.712955 0.552579
Si Si3 0.006922 0.433671 0.883905
Si Si4 0.727226 0.090267 0.621845
Si Si5 0.056479 0.927600 0.057184
Si Si6 0.640033 0.715839 0.690560
Si Si7 0.328955 0.800353 0.672995
Si Si8 0.888430 0.950520 0.204400
O O1 0.268373 0.823029 0.431717
O O2 0.414643 0.547472 0.390046
O O3 0.310096 0.813203 0.582034
O O4 0.550582 0.012116 0.601182
O O5 0.680607 0.711094 0.601024
O O6 0.785259 0.450309 0.412084
O O7 0.793265 0.872489 0.543365
O O8 0.982309 0.813522 0.652578
O O9 0.834245 0.297482 0.774885
O O10 0.112665 0.263876 0.825798
O O11 0.000000 0.500000 0.000000
O O12 0.081676 0.675433 0.944252
O O13 0.925781 0.902673 0.099032
O O14 0.216894 0.122406 0.177031
O O15 0.000000 0.000000 0.000000
O O16 0.504351 0.829869 0.730210
O O17 0.276939 0.005203 0.791666
#
# Coordination Sequence:
#
# PCOD8032701 Si02
#       8
#     2   2   2   2   2   2   2   2
#     4  10  19  29  52  79 109 130 165 211 261 305
#     4   9  16  32  51  74 102 139 165 198 242 320
#     4   9  19  35  55  70  99 138 180 208 241 303
#     4  10  17  31  51  80  99 132 177 209 248 297
#     4  10  20  37  58  73  94 134 181 215 245 297
#     4  10  18  32  54  77 100 135 174 203 249 311
#     4  11  18  32  49  79 107 133 162 208 259 308
#     4   9  20  33  53  75 102 132 171 206 256 304
#
# _framework density 18.133355000000002
#
# number of rings (size 3 to 8) (size 9 to 14) (size 15 to 20)
#    0.000    2.250    2.500    2.625    0.000    0.000 
#    0.000    5.000    0.000    0.000    0.000    0.000 
#    0.000    0.000    0.000    0.000    0.000    0.000 
#
# Total GULP energy -198342.435297 kJ/mol
# GULP energy per Si atom -12396.402206 kJ/mol
# Density = 1.809208 g / cm^3
# Si number density = 18.133355 Si / 1000 Ang^3
#
#
#
# Elastic Constant Matrix: (Units=GPa)
#
#
# Indices 1 2 3 4 5 6 
#
# 1 71.1287 36.2581 28.3094 4.8179 -12.0019 -18.0702
# 2 36.2581 137.3020 48.6546 -4.7441 -0.1856 -16.8901
# 3 28.3094 48.6546 88.1024 4.9446 8.1717 -8.6235
# 4 4.8179 -4.7441 4.9446 29.7706 -4.3748 2.9817
# 5 -12.0019 -0.1856 8.1717 -4.3748 21.6927 5.7676
# 6 -18.0702 -16.8901 -8.6235 2.9817 5.7676 22.8600
#
#
#
# Elastic Compliance Matrix: (Units=1/GPa)
#
#
# Indices 1 2 3 4 5 6 
#
# 1 0.022532 -0.002678 -0.005519 -0.002680 0.010969 0.011332
# 2 -0.002678 0.010083 -0.004510 0.002442 -0.000091 0.003336
# 3 -0.005519 -0.004510 0.017094 -0.004493 -0.011000 0.002115
# 4 -0.002680 0.002442 -0.004493 0.037635 0.010355 -0.009530
# 5 0.010969 -0.000091 -0.011000 0.010355 0.061713 -0.012467
# 6 0.011332 0.003336 0.002115 -0.009530 -0.012467 0.060354
#
#
# Mechanical properties :
#
#
# Convention : Reuss Voigt Hill
#
# Bulk Modulus (GPa) = 41.16049 58.10859 49.63454
# Shear Modulus (GPa) = 20.58262 27.08539 23.83401
#
# Velocity S-wave (km/s) = 3.37273 3.86901 3.62936
# Velocity P-wave (km/s) = 6.15753 7.21621 6.70779
#
# Compressibility (1/GPa) = 0.02429514
#
# Stress axis : x y z
#
# Youngs Moduli (GPa) = 44.38108 99.17428 58.50089
#
# Poissons Ratio (x) = 0.26561 0.32286
# Poissons Ratio (y) = 0.11886 0.26384
# Poissons Ratio (z) = 0.24493 0.44727
#
# Static dielectric constant tensor:
#      x y z
#    x 3.068170 -0.028690 0.288560 
#    y -0.028690 3.855280 0.535520 
#    z 0.288560 0.535520 3.816640 
# 
# 
# High freq. dielectric constant tensor:
#      x y z
#    x 1.668670 -0.015900 0.021690 
#    y -0.015900 1.716750 0.013250 
#    z 0.021690 0.013250 1.689480 
# 
# From -- ./inp_files/180332.got.cif
#   From: 2010.06.25/outbox.cif.g09.slc.cpg/sg2_91_cif.got.tgz:180332.got - 2010.06.27 13:26:56.
