data_PCOD8032817
_publ_section_title
;
Structure prediction by ZEFSAII (Michael W. Deem and Ramdas Pophale) SiO2 
 PCOD8032817
Probable space group: P -1
;
_chemical_formula_sum "Si O2"
_cell_formula_units_Z 16
_cell_length_a 21.774834
_cell_length_b 9.624382
_cell_length_c 12.454747
_cell_angle_alpha 44.199341
_cell_angle_beta 144.748719
_cell_angle_gamma 152.000935
_cell_volume 707.142582
_symmetry_space_group_name_H-M "P -1"
_symmetry_group_IT_number 2
_symmetry_cell_setting 'triclinic'
loop_
_space_group_symop_operation_xyz
x,y,z
-x,-y,-z
loop_
_atom_site_type_symbol
_atom_site_label
_atom_site_fract_x
_atom_site_fract_y
_atom_site_fract_z
Si Si1 0.133337 0.477782 0.177033
Si Si2 0.827143 0.042761 0.087361
Si Si3 0.021005 0.801686 0.114266
Si Si4 0.338820 0.525966 0.963816
Si Si5 0.846620 0.350533 0.299623
Si Si6 0.562819 0.297584 0.459549
Si Si7 0.650477 0.803845 0.191539
Si Si8 0.623137 0.697411 0.661448
O O1 0.262341 0.482752 0.361359
O O2 0.020001 0.308088 0.214846
O O3 0.223988 0.817368 0.116941
O O4 0.018528 0.296647 0.011084
O O5 0.778912 0.787660 0.089139
O O6 0.756638 0.938680 0.163121
O O7 0.897622 0.508231 0.170837
O O8 0.201389 0.998843 0.294384
O O9 0.000000 0.000000 0.000000
O O10 0.261502 0.638984 0.795972
O O11 0.501918 0.753161 0.001005
O O12 0.372853 0.493444 0.151169
O O13 0.000000 0.500000 0.500000
O O14 0.750270 0.015738 0.320145
O O15 0.577330 0.482555 0.283534
O O16 0.437990 0.194686 0.424485
O O17 0.500000 0.000000 0.500000
O O18 0.500000 0.500000 0.500000
#
# Coordination Sequence:
#
# PCOD8032817 Si02
#       8
#     2   2   2   2   2   2   2   2
#     4  11  23  43  74 101 143 184 237 294 353 422
#     4  11  23  45  74 100 137 189 235 289 357 420
#     4  12  23  45  75 100 138 192 242 289 355 423
#     4  11  24  47  69  99 143 184 235 289 354 422
#     4  12  28  47  69 106 146 187 237 296 356 418
#     4  11  27  46  69 106 146 180 240 296 354 427
#     4  11  26  46  71 102 143 188 231 292 363 422
#     4  11  24  42  72 104 138 185 239 291 353 420
#
# _framework density 22.626270000000002
#
# number of rings (size 3 to 8) (size 9 to 14) (size 15 to 20)
#    0.000    0.750    3.750    3.000    8.750    0.500 
#    4.500    0.000    0.000    0.000    0.000    0.000 
#    0.000    0.000    0.000    0.000    0.000    0.000 
#
# Total GULP energy -198344.842166 kJ/mol
# GULP energy per Si atom -12396.552635 kJ/mol
# Density = 2.257477 g / cm^3
# Si number density = 22.626270 Si / 1000 Ang^3
#
#
#
# Elastic Constant Matrix: (Units=GPa)
#
#
# Indices 1 2 3 4 5 6 
#
# 1 144.7266 66.3384 55.6514 -1.6041 19.3339 0.9225
# 2 66.3384 118.9175 27.3714 -1.9477 2.1173 -5.8615
# 3 55.6514 27.3714 98.7217 13.4086 25.0562 -8.8594
# 4 -1.6041 -1.9477 13.4086 31.0175 0.9786 6.0015
# 5 19.3339 2.1173 25.0562 0.9786 39.1409 6.3147
# 6 0.9225 -5.8615 -8.8594 6.0015 6.3147 38.8256
#
#
#
# Elastic Compliance Matrix: (Units=1/GPa)
#
#
# Indices 1 2 3 4 5 6 
#
# 1 0.011679 -0.005336 -0.005300 0.003097 -0.001764 -0.002484
# 2 -0.005336 0.011582 -0.000721 0.000445 0.002254 0.001275
# 3 -0.005300 -0.000721 0.017566 -0.008959 -0.009485 0.006953
# 4 0.003097 0.000445 -0.008959 0.037829 0.004631 -0.008651
# 5 -0.001764 0.002254 -0.009485 0.004631 0.033537 -0.007953
# 6 -0.002484 0.001275 0.006953 -0.008651 -0.007953 0.030225
#
#
# Mechanical properties :
#
#
# Convention : Reuss Voigt Hill
#
# Bulk Modulus (GPa) = 55.21264 73.45426 64.33345
# Shear Modulus (GPa) = 29.21089 35.99712 32.60400
#
# Velocity S-wave (km/s) = 3.59697 3.99299 3.80014
# Velocity P-wave (km/s) = 6.45801 7.33439 6.91011
#
# Compressibility (1/GPa) = 0.01811180
#
# Stress axis : x y z
#
# Youngs Moduli (GPa) = 85.62262 86.34272 56.92975
#
# Poissons Ratio (x) = 0.46069 0.30174
# Poissons Ratio (y) = 0.45685 0.04107
# Poissons Ratio (z) = 0.45382 0.06230
#
# Static dielectric constant tensor:
#      x y z
#    x 4.188380 -0.056960 0.265330 
#    y -0.056960 4.445050 0.118570 
#    z 0.265330 0.118570 4.035780 
# 
# 
# High freq. dielectric constant tensor:
#      x y z
#    x 1.909090 0.003470 0.020390 
#    y 0.003470 1.907900 0.012720 
#    z 0.020390 0.012720 1.871670 
# 
# From -- ./inp_files/469864.got.cif
#   From: 2010.06.25/outbox.cif.g09.slc.cpg/sg2_235_cif.got.tgz:469864.got - 2010.06.27 13:26:56.
