data_PCOD8032730
_publ_section_title
;
Structure prediction by ZEFSAII (Michael W. Deem and Ramdas Pophale) SiO2 
 PCOD8032730
Probable space group: P -1
;
_chemical_formula_sum "Si O2"
_cell_formula_units_Z 12
_cell_length_a 11.075043
_cell_length_b 9.232950
_cell_length_c 10.023506
_cell_angle_alpha 119.219668
_cell_angle_beta 81.566583
_cell_angle_gamma 139.141542
_cell_volume 538.912474
_symmetry_space_group_name_H-M "P -1"
_symmetry_group_IT_number 2
_symmetry_cell_setting 'triclinic'
loop_
_space_group_symop_operation_xyz
x,y,z
-x,-y,-z
loop_
_atom_site_type_symbol
_atom_site_label
_atom_site_fract_x
_atom_site_fract_y
_atom_site_fract_z
Si Si1 0.900425 0.562220 0.496295
Si Si2 0.403318 0.716099 0.360788
Si Si3 0.207775 0.563547 0.057399
Si Si4 0.759594 0.870448 0.443060
Si Si5 0.793585 0.064660 0.801088
Si Si6 0.641795 0.375297 0.218391
O O1 0.789568 0.520255 0.622181
O O2 0.735963 0.360839 0.313580
O O3 0.000000 0.500000 0.500000
O O4 0.069696 0.870146 0.560431
O O5 0.338708 0.619302 0.175197
O O6 0.550408 0.725505 0.372566
O O7 0.500000 0.000000 0.500000
O O8 0.180298 0.726026 0.176030
O O9 0.329216 0.686858 0.954092
O O10 0.988807 0.241275 0.940457
O O11 0.761806 0.677227 0.330437
O O12 0.795015 0.934500 0.623182
O O13 0.591624 0.837659 0.817448
#
# Coordination Sequence:
#
# PCOD8032730 Si02
#       6
#     2   2   2   2   2   2
#     4  12  24  41  73 103 135 182 232 280 335 412
#     4  12  24  45  69 102 139 180 229 282 342 411
#     4  11  25  43  69 105 139 176 235 287 335 411
#     4  12  25  45  73 103 140 183 230 281 347 411
#     4  11  23  43  70  99 139 184 229 276 342 410
#     4  12  26  44  74 103 139 182 232 283 345 408
#
# _framework density 22.267067999999998
#
# number of rings (size 3 to 8) (size 9 to 14) (size 15 to 20)
#    0.000    0.333    6.667    1.500    2.333    2.000 
#    0.000    1.667    0.000    0.000    0.000    0.000 
#    0.000    0.000    0.000    0.000    0.000    0.000 
#
# Total GULP energy -148859.233119 kJ/mol
# GULP energy per Si atom -12404.936093 kJ/mol
# Density = 2.221639 g / cm^3
# Si number density = 22.267068 Si / 1000 Ang^3
#
#
#
# Elastic Constant Matrix: (Units=GPa)
#
#
# Indices 1 2 3 4 5 6 
#
# 1 88.9347 17.6095 28.5619 -7.3231 20.2607 4.5556
# 2 17.6095 119.9497 25.2025 -8.0927 12.4646 32.7268
# 3 28.5619 25.2025 115.2957 -16.7255 21.0642 -4.6694
# 4 -7.3231 -8.0927 -16.7255 35.9907 3.2133 -1.7095
# 5 20.2607 12.4646 21.0642 3.2133 31.0343 -2.1706
# 6 4.5556 32.7268 -4.6694 -1.7095 -2.1706 37.5563
#
#
#
# Elastic Compliance Matrix: (Units=1/GPa)
#
#
# Indices 1 2 3 4 5 6 
#
# 1 0.014048 -0.000047 -0.001607 0.002754 -0.008502 -0.002229
# 2 -0.000047 0.012445 -0.002099 0.001680 -0.004506 -0.011284
# 3 -0.001607 -0.002099 0.011583 0.005304 -0.006285 0.003342
# 4 0.002754 0.001680 0.005304 0.032017 -0.009403 -0.000224
# 5 -0.008502 -0.004506 -0.006285 -0.009403 0.045268 0.006365
# 6 -0.002229 -0.011284 0.003342 -0.000224 0.006365 0.037503
#
#
# Mechanical properties :
#
#
# Convention : Reuss Voigt Hill
#
# Bulk Modulus (GPa) = 32.71197 51.88088 42.29643
# Shear Modulus (GPa) = 29.31531 37.76999 33.54265
#
# Velocity S-wave (km/s) = 3.63234 4.12299 3.88542
# Velocity P-wave (km/s) = 5.68458 6.78347 6.25819
#
# Compressibility (1/GPa) = 0.03056985
#
# Stress axis : x y z
#
# Youngs Moduli (GPa) = 71.18678 80.35388 86.33100
#
# Poissons Ratio (x) = 0.00380 0.13874
# Poissons Ratio (y) = 0.00336 0.18118
# Poissons Ratio (z) = 0.11440 0.16864
#
# Static dielectric constant tensor:
#      x y z
#    x 4.386810 0.185420 0.131510 
#    y 0.185420 4.092520 0.065220 
#    z 0.131510 0.065220 4.102860 
# 
# 
# High freq. dielectric constant tensor:
#      x y z
#    x 1.884670 0.021530 0.009220 
#    y 0.021530 1.882040 0.001110 
#    z 0.009220 0.001110 1.873510 
# 
# From -- ./inp_files/148804.got.cif
#   From: 2010.06.25/outbox.cif.g09.slc.cpg/sg2_75_cif.got.tgz:148804.got - 2010.06.27 13:26:56.
