data_PCOD8032712
_publ_section_title
;
Structure prediction by ZEFSAII (Michael W. Deem and Ramdas Pophale) SiO2 
 PCOD8032712
Probable space group: P -1
;
_chemical_formula_sum "Si O2"
_cell_formula_units_Z 12
_cell_length_a 14.382791
_cell_length_b 8.693139
_cell_length_c 11.862515
_cell_angle_alpha 69.607732
_cell_angle_beta 160.152043
_cell_angle_gamma 108.025737
_cell_volume 471.239192
_symmetry_space_group_name_H-M "P -1"
_symmetry_group_IT_number 2
_symmetry_cell_setting 'triclinic'
loop_
_space_group_symop_operation_xyz
x,y,z
-x,-y,-z
loop_
_atom_site_type_symbol
_atom_site_label
_atom_site_fract_x
_atom_site_fract_y
_atom_site_fract_z
Si Si1 0.874856 0.901758 0.280618
Si Si2 0.346646 0.381492 0.776308
Si Si3 0.353127 0.732621 0.474571
Si Si4 0.232224 0.811767 0.081363
Si Si5 0.010902 0.311829 0.729123
Si Si6 0.674276 0.631135 0.489604
O O1 0.658583 0.791991 0.123542
O O2 0.068714 0.771155 0.461516
O O3 0.000000 0.000000 0.500000
O O4 0.738226 0.026204 0.001621
O O5 0.479585 0.349966 0.812674
O O6 0.057334 0.490373 0.398121
O O7 0.500000 0.500000 0.000000
O O8 0.300523 0.857177 0.277748
O O9 0.243496 0.560360 0.346364
O O10 0.163181 0.783359 0.351776
O O11 0.666870 0.718069 0.874272
O O12 0.467598 0.682292 0.340130
O O13 0.932939 0.743345 0.748816
#
# Coordination Sequence:
#
# PCOD8032712 Si02
#       6
#     2   2   2   2   2   2
#     4  12  27  46  73 110 154 187 240 306 371 429
#     4  11  25  47  77 104 149 198 247 291 359 449
#     4  11  24  47  76 102 144 192 252 290 361 438
#     4  12  26  44  72 110 148 188 234 312 367 422
#     4  11  26  48  76 105 141 197 246 298 356 437
#     4  11  23  43  70 109 144 189 243 297 363 431
#
# _framework density 25.464773999999998
#
# number of rings (size 3 to 8) (size 9 to 14) (size 15 to 20)
#    0.000    0.667    1.667    6.500    2.333    4.667 
#    0.000    0.000    0.000    0.000    0.000    0.000 
#    0.000    0.000    0.000    0.000    0.000    0.000 
#
# Total GULP energy -148722.948174 kJ/mol
# GULP energy per Si atom -12393.579014 kJ/mol
# Density = 2.540681 g / cm^3
# Si number density = 25.464774 Si / 1000 Ang^3
#
#
#
# Elastic Constant Matrix: (Units=GPa)
#
#
# Indices 1 2 3 4 5 6 
#
# 1 159.0594 25.5048 31.5450 7.8242 -12.1309 12.2419
# 2 25.5048 89.4334 22.6299 13.3613 -17.8248 18.8404
# 3 31.5450 22.6299 82.6689 24.0060 1.6468 18.9904
# 4 7.8242 13.3613 24.0060 31.7410 5.6545 -10.9416
# 5 -12.1309 -17.8248 1.6468 5.6545 48.1903 -10.9770
# 6 12.2419 18.8404 18.9904 -10.9416 -10.9770 39.6966
#
#
#
# Elastic Compliance Matrix: (Units=1/GPa)
#
#
# Indices 1 2 3 4 5 6 
#
# 1 0.007059 -0.001190 -0.002580 0.000515 0.001399 0.000151
# 2 -0.001190 0.015926 0.001856 -0.012138 0.004642 -0.010142
# 3 -0.002580 0.001856 0.024101 -0.024522 -0.002235 -0.018992
# 4 0.000515 -0.012138 -0.024522 0.067733 -0.003489 0.035037
# 5 0.001399 0.004642 -0.002235 -0.003489 0.024258 0.004181
# 6 0.000151 -0.010142 -0.018992 0.035037 0.004181 0.049857
#
#
# Mechanical properties :
#
#
# Convention : Reuss Voigt Hill
#
# Bulk Modulus (GPa) = 23.11680 54.50235 38.80957
# Shear Modulus (GPa) = 24.13343 40.69104 32.41224
#
# Velocity S-wave (km/s) = 3.08184 4.00175 3.57154
# Velocity P-wave (km/s) = 4.66490 6.54229 5.68168
#
# Compressibility (1/GPa) = 0.04325858
#
# Stress axis : x y z
#
# Youngs Moduli (GPa) = 141.65893 62.78960 41.49225
#
# Poissons Ratio (x) = 0.07474 0.10705
# Poissons Ratio (y) = 0.16861 -0.07702
# Poissons Ratio (z) = 0.36547 -0.11656
#
# Static dielectric constant tensor:
#      x y z
#    x 5.158330 -0.156950 -0.220350 
#    y -0.156950 5.035040 -0.257010 
#    z -0.220350 -0.257010 4.450400 
# 
# 
# High freq. dielectric constant tensor:
#      x y z
#    x 2.046920 0.003830 -0.015610 
#    y 0.003830 2.013810 0.004530 
#    z -0.015610 0.004530 2.000100 
# 
# From -- ./inp_files/363706.got.cif
#   From: 2010.06.25/outbox.cif.g09.slc.cpg/sg2_182_cif.got.tgz:363706.got - 2010.06.27 13:26:56.
