data_PCOD8032033
_publ_section_title
;
Structure prediction by ZEFSAII (Michael W. Deem and Ramdas Pophale) SiO2 
 PCOD8032033
Probable space group: P -1
;
_chemical_formula_sum "Si O2"
_cell_formula_units_Z 16
_cell_length_a 9.944503
_cell_length_b 13.179927
_cell_length_c 10.617292
_cell_angle_alpha 34.857776
_cell_angle_beta 93.633778
_cell_angle_gamma 80.065405
_cell_volume 729.664870
_symmetry_space_group_name_H-M "P -1"
_symmetry_group_IT_number 2
_symmetry_cell_setting 'triclinic'
loop_
_space_group_symop_operation_xyz
x,y,z
-x,-y,-z
loop_
_atom_site_type_symbol
_atom_site_label
_atom_site_fract_x
_atom_site_fract_y
_atom_site_fract_z
Si Si1 0.994993 0.382334 0.742024
Si Si2 0.590502 0.351779 0.050995
Si Si3 0.599716 0.859581 0.754224
Si Si4 0.136906 0.862955 0.566429
Si Si5 0.757509 0.999895 0.803735
Si Si6 0.459881 0.807772 0.207103
Si Si7 0.899832 0.522814 0.088723
Si Si8 0.675490 0.419524 0.727550
O O1 0.847353 0.342199 0.783645
O O2 0.000000 0.500000 0.500000
O O3 0.016681 0.482894 0.769497
O O4 0.134308 0.185440 0.927318
O O5 0.479118 0.272658 0.060916
O O6 0.720295 0.170587 0.307616
O O7 0.500000 0.500000 0.000000
O O8 0.653688 0.448600 0.848093
O O9 0.618117 0.977124 0.754235
O O10 0.500000 0.000000 0.500000
O O11 0.762328 0.724449 0.853330
O O12 0.146095 0.655695 0.737638
O O13 0.141387 0.959039 0.335892
O O14 0.000000 0.000000 0.500000
O O15 0.674253 0.162937 0.734193
O O16 0.603007 0.628109 0.444461
O O17 0.395881 0.735245 0.155671
O O18 0.500000 0.000000 0.000000
O O19 0.000000 0.500000 0.000000
#
# Coordination Sequence:
#
# PCOD8032033 Si02
#       8
#     2   2   2   2   2   2   2   2
#     4  11  26  48  70 101 141 187 237 288 356 426
#     4  12  23  42  69 101 137 179 229 288 357 416
#     4  11  23  40  67 102 135 177 232 287 352 423
#     4  12  24  43  66 100 141 179 226 289 353 420
#     4  11  24  44  69  98 139 178 231 282 352 421
#     4  11  25  47  72 100 136 183 237 293 354 415
#     4  11  25  44  69  98 143 184 231 292 352 418
#     4  11  26  46  71 101 143 182 238 291 354 427
#
# _framework density 21.927875
#
# number of rings (size 3 to 8) (size 9 to 14) (size 15 to 20)
#    0.000    0.750    2.500    5.250    1.750    2.500 
#    6.750    0.000    0.000    0.000    0.000    0.000 
#    0.000    0.000    0.000    0.000    0.000    0.000 
#
# Total GULP energy -198307.312651 kJ/mol
# GULP energy per Si atom -12394.207041 kJ/mol
# Density = 2.187797 g / cm^3
# Si number density = 21.927875 Si / 1000 Ang^3
#
#
#
# Elastic Constant Matrix: (Units=GPa)
#
#
# Indices 1 2 3 4 5 6 
#
# 1 101.2602 37.5497 39.6235 14.3969 3.5376 -9.7043
# 2 37.5497 108.5493 40.1460 8.1125 3.8202 -14.9275
# 3 39.6235 40.1460 111.1974 13.4355 9.3430 2.8573
# 4 14.3969 8.1125 13.4355 37.3383 0.0352 -5.8412
# 5 3.5376 3.8202 9.3430 0.0352 46.5493 -2.0832
# 6 -9.7043 -14.9275 2.8573 -5.8412 -2.0832 36.6210
#
#
#
# Elastic Compliance Matrix: (Units=1/GPa)
#
#
# Indices 1 2 3 4 5 6 
#
# 1 0.012765 -0.002703 -0.003286 -0.002826 0.000007 0.002087
# 2 -0.002703 0.012057 -0.003569 0.000419 0.000136 0.004551
# 3 -0.003286 -0.003569 0.012074 -0.002902 -0.002051 -0.003847
# 4 -0.002826 0.000419 -0.002902 0.029514 0.000938 0.004409
# 5 0.000007 0.000136 -0.002051 0.000938 0.021954 0.001616
# 6 0.002087 0.004551 -0.003847 0.004409 0.001616 0.030810
#
#
# Mechanical properties :
#
#
# Convention : Reuss Voigt Hill
#
# Bulk Modulus (GPa) = 56.23674 61.73837 58.98755
# Shear Modulus (GPa) = 34.67013 37.68089 36.17551
#
# Velocity S-wave (km/s) = 3.98062 4.14986 4.06612
# Velocity P-wave (km/s) = 6.84317 7.15389 7.00025
#
# Compressibility (1/GPa) = 0.01778197
#
# Stress axis : x y z
#
# Youngs Moduli (GPa) = 78.33940 82.93880 82.82174
#
# Poissons Ratio (x) = 0.22415 0.27212
# Poissons Ratio (y) = 0.21172 0.29558
# Poissons Ratio (z) = 0.25739 0.29600
#
# Static dielectric constant tensor:
#      x y z
#    x 4.285810 0.118940 0.060760 
#    y 0.118940 4.242450 0.048070 
#    z 0.060760 0.048070 3.752070 
# 
# 
# High freq. dielectric constant tensor:
#      x y z
#    x 1.877900 -0.003410 0.002420 
#    y -0.003410 1.869720 0.001110 
#    z 0.002420 0.001110 1.866060 
# 
# From -- ./inp_files/398148.got.cif
#   From: 2010.06.25/outbox.cif.g09.slc.cpg/sg2_200_cif.got.tgz:398148.got - 2010.06.27 13:26:56.
