data_PCOD8032949
_publ_section_title
;
Structure prediction by ZEFSAII (Michael W. Deem and Ramdas Pophale) SiO2 
 PCOD8032949
Probable space group: P -1
;
_chemical_formula_sum "Si O2"
_cell_formula_units_Z 12
_cell_length_a 14.204360
_cell_length_b 10.229084
_cell_length_c 11.007575
_cell_angle_alpha 140.474647
_cell_angle_beta 138.667882
_cell_angle_gamma 32.965843
_cell_volume 528.427937
_symmetry_space_group_name_H-M "P -1"
_symmetry_group_IT_number 2
_symmetry_cell_setting 'triclinic'
loop_
_space_group_symop_operation_xyz
x,y,z
-x,-y,-z
loop_
_atom_site_type_symbol
_atom_site_label
_atom_site_fract_x
_atom_site_fract_y
_atom_site_fract_z
Si Si1 0.634259 0.789208 0.880834
Si Si2 0.537276 0.663843 0.272076
Si Si3 0.720137 0.096598 0.017950
Si Si4 0.169384 0.420097 0.683141
Si Si5 0.130432 0.694891 0.086598
Si Si6 0.610438 0.158388 0.499933
O O1 0.814717 0.542820 0.943223
O O2 0.533329 0.690837 0.641250
O O3 0.500000 0.000000 0.000000
O O4 0.687373 0.912723 0.922526
O O5 0.600486 0.378170 0.170671
O O6 0.697576 0.602399 0.301407
O O7 0.501459 0.819422 0.473049
O O8 0.348518 0.842119 0.143686
O O9 0.934562 0.954879 0.122092
O O10 0.000000 0.500000 0.500000
O O11 0.256651 0.141920 0.630127
O O12 0.123057 0.626743 0.890738
O O13 0.280837 0.735617 0.281694
#
# Coordination Sequence:
#
# PCOD8032949 Si02
#       6
#     2   2   2   2   2   2
#     4  12  24  48  71  97 139 188 231 276 346 412
#     4  11  23  44  69 104 137 179 232 279 349 399
#     4  11  24  44  73 100 141 181 224 289 338 410
#     4  12  25  43  73 104 141 178 229 289 339 410
#     4  12  26  46  68 108 140 178 234 281 339 409
#     4  12  25  44  73 100 137 184 228 284 343 406
#
# _framework density 22.708867999999999
#
# number of rings (size 3 to 8) (size 9 to 14) (size 15 to 20)
#    0.000    0.333    3.333    6.500    2.333    2.000 
#    0.000    1.667    0.000    0.000    0.000    0.000 
#    0.000    0.000    0.000    0.000    0.000    0.000 
#
# Total GULP energy -148778.077374 kJ/mol
# GULP energy per Si atom -12398.173114 kJ/mol
# Density = 2.265718 g / cm^3
# Si number density = 22.708868 Si / 1000 Ang^3
#
#
#
# Elastic Constant Matrix: (Units=GPa)
#
#
# Indices 1 2 3 4 5 6 
#
# 1 80.4924 41.8160 49.2963 -10.5411 -3.0548 -5.4935
# 2 41.8160 96.2314 19.9163 -21.1371 1.3979 0.2073
# 3 49.2963 19.9163 141.4206 -16.7311 -3.9233 -6.2425
# 4 -10.5411 -21.1371 -16.7311 44.3103 -1.0206 5.7682
# 5 -3.0548 1.3979 -3.9233 -1.0206 33.8910 4.7550
# 6 -5.4935 0.2073 -6.2425 5.7682 4.7550 31.1396
#
#
#
# Elastic Compliance Matrix: (Units=1/GPa)
#
#
# Indices 1 2 3 4 5 6 
#
# 1 0.020192 -0.007895 -0.005965 -0.001521 0.001053 0.002540
# 2 -0.007895 0.014891 0.001243 0.005971 -0.000687 -0.002244
# 3 -0.005965 0.001243 0.009317 0.002674 0.000538 0.000230
# 4 -0.001521 0.005971 0.002674 0.026741 0.001425 -0.004943
# 5 0.001053 -0.000687 0.000538 0.001425 0.030381 -0.004605
# 6 0.002540 -0.002244 0.000230 -0.004943 -0.004605 0.034241
#
#
# Mechanical properties :
#
#
# Convention : Reuss Voigt Hill
#
# Bulk Modulus (GPa) = 52.17444 60.02242 56.09843
# Shear Modulus (GPa) = 29.87108 35.67590 32.77349
#
# Velocity S-wave (km/s) = 3.63077 3.96790 3.80307
# Velocity P-wave (km/s) = 6.37196 6.89064 6.63637
#
# Compressibility (1/GPa) = 0.01916647
#
# Stress axis : x y z
#
# Youngs Moduli (GPa) = 49.52369 67.15391 107.33140
#
# Poissons Ratio (x) = 0.53015 0.64028
# Poissons Ratio (y) = 0.39097 -0.13342
# Poissons Ratio (z) = 0.29543 -0.08348
#
# Static dielectric constant tensor:
#      x y z
#    x 3.992160 0.116230 -0.089410 
#    y 0.116230 4.414200 0.011800 
#    z -0.089410 0.011800 4.271350 
# 
# 
# High freq. dielectric constant tensor:
#      x y z
#    x 1.891280 0.002770 -0.000190 
#    y 0.002770 1.910730 -0.001770 
#    z -0.000190 -0.001770 1.903050 
# 
# From -- ./inp_files/463331.got.cif
#   From: 2010.06.25/outbox.cif.g09.slc.cpg/sg2_232_cif.got.tgz:463331.got - 2010.06.27 13:26:56.
