data_PCOD8032173
_publ_section_title
;
Structure prediction by ZEFSAII (Michael W. Deem and Ramdas Pophale) SiO2 
 PCOD8032173
Probable space group: P -1
;
_chemical_formula_sum "Si O2"
_cell_formula_units_Z 16
_cell_length_a 8.950285
_cell_length_b 11.799600
_cell_length_c 24.975142
_cell_angle_alpha 34.528692
_cell_angle_beta 151.367822
_cell_angle_gamma 137.861175
_cell_volume 714.756530
_symmetry_space_group_name_H-M "P -1"
_symmetry_group_IT_number 2
_symmetry_cell_setting 'triclinic'
loop_
_space_group_symop_operation_xyz
x,y,z
-x,-y,-z
loop_
_atom_site_type_symbol
_atom_site_label
_atom_site_fract_x
_atom_site_fract_y
_atom_site_fract_z
Si Si1 0.332757 0.921462 0.144555
Si Si2 0.763348 0.284065 0.093763
Si Si3 0.895466 0.202962 0.447222
Si Si4 0.474001 0.980330 0.284471
Si Si5 0.188025 0.694898 0.500681
Si Si6 0.818457 0.510598 0.766385
Si Si7 0.224423 0.011567 0.300591
Si Si8 0.286163 0.580797 0.793345
O O1 0.362903 0.878038 0.234184
O O2 0.346650 0.715367 0.194915
O O3 0.601031 0.087317 0.147436
O O4 0.000000 0.000000 0.000000
O O5 0.919755 0.441228 0.124778
O O6 0.510319 0.397248 0.936382
O O7 0.028744 0.209856 0.166111
O O8 0.959504 0.261550 0.505647
O O9 0.832769 0.391163 0.315840
O O10 0.196092 0.096256 0.562316
O O11 0.590592 0.053687 0.409497
O O12 0.207684 0.926444 0.267344
O O13 0.520835 0.221184 0.200709
O O14 0.559198 0.671762 0.629389
O O15 0.099197 0.859860 0.365832
O O16 0.000000 0.500000 0.500000
O O17 0.980087 0.531671 0.751559
#
# Coordination Sequence:
#
# PCOD8032173 Si02
#       8
#     2   2   2   2   2   2   2   2
#     4  12  25  45  70 104 139 179 227 279 339 406
#     4  12  24  46  69 102 137 183 230 274 345 408
#     4  11  23  43  68 100 135 174 230 282 338 405
#     4  11  23  43  70 102 135 177 228 282 341 402
#     4  12  25  43  67 102 135 176 228 284 344 404
#     4  12  23  43  72 101 135 181 227 281 338 406
#     4  11  24  43  70  99 136 176 224 288 338 401
#     4  11  23  41  68 100 134 177 230 277 338 410
#
# _framework density 22.385245000000001
#
# number of rings (size 3 to 8) (size 9 to 14) (size 15 to 20)
#    0.000    0.500    3.750    6.750    0.000    3.000 
#    2.250    3.125    0.000    0.000    0.000    0.000 
#    0.000    0.000    0.000    0.000    0.000    0.000 
#
# Total GULP energy -198400.019310 kJ/mol
# GULP energy per Si atom -12400.001207 kJ/mol
# Density = 2.233430 g / cm^3
# Si number density = 22.385245 Si / 1000 Ang^3
#
#
#
# Elastic Constant Matrix: (Units=GPa)
#
#
# Indices 1 2 3 4 5 6 
#
# 1 130.9936 40.6437 60.4218 -5.1877 0.9101 -4.0512
# 2 40.6437 88.3121 18.9066 -6.0350 -8.4756 -8.1315
# 3 60.4218 18.9066 116.8125 -9.8212 0.6178 0.7393
# 4 -5.1877 -6.0350 -9.8212 32.2848 1.6175 1.5614
# 5 0.9101 -8.4756 0.6178 1.6175 39.0094 -3.0931
# 6 -4.0512 -8.1315 0.7393 1.5614 -3.0931 20.1074
#
#
#
# Elastic Compliance Matrix: (Units=1/GPa)
#
#
# Indices 1 2 3 4 5 6 
#
# 1 0.011353 -0.004174 -0.005241 -0.000532 -0.001013 0.000678
# 2 -0.004174 0.014193 -0.000062 0.001528 0.003541 0.005327
# 3 -0.005241 -0.000062 0.011526 0.002755 -0.000328 -0.001769
# 4 -0.000532 0.001528 0.002755 0.032183 -0.001214 -0.002276
# 5 -0.001013 0.003541 -0.000328 -0.001214 0.026917 0.005475
# 6 0.000678 0.005327 -0.001769 -0.002276 0.005475 0.053107
#
#
# Mechanical properties :
#
#
# Convention : Reuss Voigt Hill
#
# Bulk Modulus (GPa) = 55.19283 64.00691 59.59987
# Shear Modulus (GPa) = 28.69054 32.69007 30.69031
#
# Velocity S-wave (km/s) = 3.58393 3.82559 3.70673
# Velocity P-wave (km/s) = 6.46804 6.94038 6.70837
#
# Compressibility (1/GPa) = 0.01811829
#
# Stress axis : x y z
#
# Youngs Moduli (GPa) = 88.07983 70.45905 86.76043
#
# Poissons Ratio (x) = 0.29412 0.45468
# Poissons Ratio (y) = 0.36768 0.00537
# Poissons Ratio (z) = 0.46159 0.00436
#
# Static dielectric constant tensor:
#      x y z
#    x 3.802760 0.006280 0.361310 
#    y 0.006280 3.986100 -0.185160 
#    z 0.361310 -0.185160 4.789320 
# 
# 
# High freq. dielectric constant tensor:
#      x y z
#    x 1.889800 0.000360 0.010470 
#    y 0.000360 1.869390 0.002400 
#    z 0.010470 0.002400 1.892850 
# 
# From -- ./inp_files/350031.got.cif
#   From: 2010.06.25/outbox.cif.g09.slc.cpg/sg2_176_cif.got.tgz:350031.got - 2010.06.27 13:26:56.
