data_PCOD8032141
_publ_section_title
;
Structure prediction by ZEFSAII (Michael W. Deem and Ramdas Pophale) SiO2 
 PCOD8032141
Probable space group: P -1
;
_chemical_formula_sum "Si O2"
_cell_formula_units_Z 16
_cell_length_a 4.862273
_cell_length_b 18.950676
_cell_length_c 14.563499
_cell_angle_alpha 39.660746
_cell_angle_beta 119.383681
_cell_angle_gamma 100.124970
_cell_volume 695.358905
_symmetry_space_group_name_H-M "P -1"
_symmetry_group_IT_number 2
_symmetry_cell_setting 'triclinic'
loop_
_space_group_symop_operation_xyz
x,y,z
-x,-y,-z
loop_
_atom_site_type_symbol
_atom_site_label
_atom_site_fract_x
_atom_site_fract_y
_atom_site_fract_z
Si Si1 0.267513 0.517731 0.094145
Si Si2 0.022441 0.528220 0.721548
Si Si3 0.797320 0.232521 0.187843
Si Si4 0.951299 0.097630 0.684256
Si Si5 0.697786 0.174789 0.931573
Si Si6 0.526101 0.785284 0.351008
Si Si7 0.247052 0.285093 0.905291
Si Si8 0.452823 0.880627 0.585068
O O1 0.661438 0.425720 0.251308
O O2 0.104219 0.529152 0.156122
O O3 0.362751 0.627592 0.961621
O O4 0.000000 0.500000 0.000000
O O5 0.134814 0.426996 0.761546
O O6 0.710691 0.643106 0.522660
O O7 0.803755 0.151097 0.358112
O O8 0.179358 0.218362 0.239371
O O9 0.582795 0.205161 0.097789
O O10 0.783466 0.174887 0.668443
O O11 0.669074 0.115460 0.542534
O O12 0.230582 0.147208 0.643828
O O13 0.133052 0.959606 0.873177
O O14 0.622087 0.171184 0.816269
O O15 0.346695 0.248288 0.852860
O O16 0.942783 0.245097 0.924405
O O17 0.500000 0.000000 0.500000
#
# Coordination Sequence:
#
# PCOD8032141 Si02
#       8
#     2   2   2   2   2   2   2   2
#     4  11  24  41  68  94 140 183 225 271 336 423
#     4  11  25  44  66 105 140 178 231 289 345 406
#     4  11  23  41  65  98 134 176 220 274 338 404
#     4  12  26  45  69 101 141 178 232 288 343 416
#     4  12  25  46  74  96 132 188 234 289 354 400
#     4  12  27  46  70 101 141 179 231 291 347 417
#     4  11  23  44  70  99 137 176 236 290 337 413
#     4  12  25  41  67 100 137 178 225 275 338 406
#
# _framework density 23.009699999999999
#
# number of rings (size 3 to 8) (size 9 to 14) (size 15 to 20)
#    0.000    0.500    0.000    9.750    5.250    1.000 
#    0.000    0.000    0.000    0.000    0.000    0.000 
#    0.000    0.000    0.000    0.000    0.000    0.000 
#
# Total GULP energy -198383.201085 kJ/mol
# GULP energy per Si atom -12398.950068 kJ/mol
# Density = 2.295733 g / cm^3
# Si number density = 23.009700 Si / 1000 Ang^3
#
#
#
# Elastic Constant Matrix: (Units=GPa)
#
#
# Indices 1 2 3 4 5 6 
#
# 1 90.5132 11.8741 10.1918 -9.2691 -4.9469 3.1048
# 2 11.8741 89.5859 27.9003 -0.3231 -6.0685 1.1070
# 3 10.1918 27.9003 52.4213 -5.3100 -3.1489 7.4224
# 4 -9.2691 -0.3231 -5.3100 30.1320 -6.2656 -3.1078
# 5 -4.9469 -6.0685 -3.1489 -6.2656 35.6725 -0.3856
# 6 3.1048 1.1070 7.4224 -3.1078 -0.3856 39.0463
#
#
#
# Elastic Compliance Matrix: (Units=1/GPa)
#
#
# Indices 1 2 3 4 5 6 
#
# 1 0.011831 -0.001043 -0.001187 0.003802 0.002022 -0.000363
# 2 -0.001043 0.013624 -0.007215 -0.001061 0.001361 0.000997
# 3 -0.001187 -0.007215 0.024166 0.003684 0.001345 -0.003988
# 4 0.003802 -0.001061 0.003684 0.036687 0.007138 0.002018
# 5 0.002022 0.001361 0.001345 0.007138 0.029922 0.000409
# 6 -0.000363 0.000997 -0.003988 0.002018 0.000409 0.026534
#
#
# Mechanical properties :
#
#
# Convention : Reuss Voigt Hill
#
# Bulk Modulus (GPa) = 32.54151 36.93919 34.74035
# Shear Modulus (GPa) = 29.08715 33.14044 31.11380
#
# Velocity S-wave (km/s) = 3.55931 3.79922 3.68122
# Velocity P-wave (km/s) = 5.57358 5.94424 5.76189
#
# Compressibility (1/GPa) = 0.03072998
#
# Stress axis : x y z
#
# Youngs Moduli (GPa) = 84.52393 73.40082 41.38071
#
# Poissons Ratio (x) = 0.07658 0.04912
# Poissons Ratio (y) = 0.08818 0.29857
# Poissons Ratio (z) = 0.10032 0.52960
#
# Static dielectric constant tensor:
#      x y z
#    x 4.103620 0.201470 -0.189450 
#    y 0.201470 4.080640 0.094740 
#    z -0.189450 0.094740 3.749940 
# 
# 
# High freq. dielectric constant tensor:
#      x y z
#    x 1.928920 0.008230 0.005050 
#    y 0.008230 1.907640 -0.001260 
#    z 0.005050 -0.001260 1.911570 
# 
# From -- ./inp_files/485225.got.cif
#   From: 2010.06.25/outbox.cif.g09.slc.cpg/sg2_243_cif.got.tgz:485225.got - 2010.06.27 13:26:56.
