data_PCOD8032807
_publ_section_title
;
Structure prediction by ZEFSAII (Michael W. Deem and Ramdas Pophale) SiO2 
 PCOD8032807
Probable space group: P -1
;
_chemical_formula_sum "Si O2"
_cell_formula_units_Z 14
_cell_length_a 9.512657
_cell_length_b 8.358979
_cell_length_c 26.295889
_cell_angle_alpha 149.355806
_cell_angle_beta 144.019766
_cell_angle_gamma 47.563854
_cell_volume 624.536812
_symmetry_space_group_name_H-M "P -1"
_symmetry_group_IT_number 2
_symmetry_cell_setting 'triclinic'
loop_
_space_group_symop_operation_xyz
x,y,z
-x,-y,-z
loop_
_atom_site_type_symbol
_atom_site_label
_atom_site_fract_x
_atom_site_fract_y
_atom_site_fract_z
Si Si1 0.293122 0.385349 0.809104
Si Si2 0.522060 0.139208 0.599720
Si Si3 0.805469 0.242592 0.018945
Si Si4 0.179106 0.381832 0.977120
Si Si5 0.896363 0.249414 0.573583
Si Si6 0.372237 0.833669 0.749328
Si Si7 0.053844 0.132222 0.294078
O O1 0.170803 0.555147 0.867383
O O2 0.541066 0.566912 0.910045
O O3 0.101546 0.383478 0.708399
O O4 0.337300 0.023438 0.738251
O O5 0.490088 0.508158 0.685211
O O6 0.500000 0.000000 0.500000
O O7 0.325860 0.935776 0.517255
O O8 0.771703 0.101851 0.691647
O O9 0.833969 0.458133 0.037411
O O10 0.543858 0.062080 0.897156
O O11 0.000000 0.000000 0.000000
O O12 0.000000 0.500000 0.000000
O O13 0.085543 0.024686 0.838784
O O14 0.807246 0.547536 0.597988
O O15 0.000000 0.000000 0.500000
O O16 0.124836 0.759641 0.685476
#
# Coordination Sequence:
#
# PCOD8032807 Si02
#       7
#     2   2   2   2   2   2   2
#     4  11  25  47  74 106 145 192 239 291 371 427
#     4  12  29  47  76 104 136 198 246 288 356 430
#     4  11  23  43  73 108 144 183 241 298 356 435
#     4  11  25  43  72 108 142 183 234 303 362 419
#     4  12  29  46  69 105 147 191 235 295 353 426
#     4  11  23  47  76 102 141 186 240 303 351 423
#     4  12  25  49  73 102 147 183 241 298 358 423
#
# _framework density 22.416613000000002
#
# number of rings (size 3 to 8) (size 9 to 14) (size 15 to 20)
#    0.000    0.571    4.286    3.000    8.000    4.000 
#    0.000    0.000    0.000    0.000    0.000    0.000 
#    0.000    0.000    0.000    0.000    0.000    0.000 
#
# Total GULP energy -173551.367884 kJ/mol
# GULP energy per Si atom -12396.526277 kJ/mol
# Density = 2.236559 g / cm^3
# Si number density = 22.416613 Si / 1000 Ang^3
#
#
#
# Elastic Constant Matrix: (Units=GPa)
#
#
# Indices 1 2 3 4 5 6 
#
# 1 124.7013 20.2968 31.4327 8.9004 -7.6657 -7.5650
# 2 20.2968 114.4618 30.2827 18.7171 -8.6657 -8.6584
# 3 31.4327 30.2827 88.0913 10.3296 -13.0263 12.1905
# 4 8.9004 18.7171 10.3296 49.7199 0.9209 3.5956
# 5 -7.6657 -8.6657 -13.0263 0.9209 38.0950 7.0738
# 6 -7.5650 -8.6584 12.1905 3.5956 7.0738 24.0381
#
#
#
# Elastic Compliance Matrix: (Units=1/GPa)
#
#
# Indices 1 2 3 4 5 6 
#
# 1 0.009414 -0.000048 -0.003996 -0.001211 -0.000434 0.005281
# 2 -0.000048 0.010979 -0.004266 -0.003720 -0.000124 0.006696
# 3 -0.003996 -0.004266 0.017106 -0.000389 0.006562 -0.013342
# 4 -0.001211 -0.003720 -0.000389 0.022158 -0.000910 -0.004570
# 5 -0.000434 -0.000124 0.006562 -0.000910 0.030704 -0.012408
# 6 0.005281 0.006696 -0.013342 -0.004570 -0.012408 0.056776
#
#
# Mechanical properties :
#
#
# Convention : Reuss Voigt Hill
#
# Bulk Modulus (GPa) = 47.89055 54.58653 51.23854
# Shear Modulus (GPa) = 29.28818 38.72007 34.00413
#
# Velocity S-wave (km/s) = 3.61853 4.16058 3.89899
# Velocity P-wave (km/s) = 6.23447 6.89089 6.57088
#
# Compressibility (1/GPa) = 0.02088095
#
# Stress axis : x y z
#
# Youngs Moduli (GPa) = 106.22233 91.08240 58.45743
#
# Poissons Ratio (x) = 0.00433 0.23358
# Poissons Ratio (y) = 0.00505 0.24938
# Poissons Ratio (z) = 0.42444 0.38856
#
# Static dielectric constant tensor:
#      x y z
#    x 6.851620 -1.308940 -0.475990 
#    y -1.308940 4.694490 0.176600 
#    z -0.475990 0.176600 4.224120 
# 
# 
# High freq. dielectric constant tensor:
#      x y z
#    x 1.892440 -0.002370 0.010930 
#    y -0.002370 1.887950 0.009280 
#    z 0.010930 0.009280 1.896840 
# 
# From -- ./inp_files/356546.got.cif
#   From: 2010.06.25/outbox.cif.g09.slc.cpg/sg2_179_cif.got.tgz:356546.got - 2010.06.27 13:26:56.
