data_PCOD8032780
_publ_section_title
;
Structure prediction by ZEFSAII (Michael W. Deem and Ramdas Pophale) SiO2 
 PCOD8032780
Probable space group: P -1
;
_chemical_formula_sum "Si O2"
_cell_formula_units_Z 16
_cell_length_a 13.567377
_cell_length_b 12.171378
_cell_length_c 13.975594
_cell_angle_alpha 47.470606
_cell_angle_beta 30.751683
_cell_angle_gamma 68.771847
_cell_volume 707.918661
_symmetry_space_group_name_H-M "P -1"
_symmetry_group_IT_number 2
_symmetry_cell_setting 'triclinic'
loop_
_space_group_symop_operation_xyz
x,y,z
-x,-y,-z
loop_
_atom_site_type_symbol
_atom_site_label
_atom_site_fract_x
_atom_site_fract_y
_atom_site_fract_z
Si Si1 0.501807 0.925798 0.750272
Si Si2 0.114580 0.713145 0.870922
Si Si3 0.928780 0.798510 0.666119
Si Si4 0.407181 0.878904 0.244506
Si Si5 0.272142 0.495467 0.537719
Si Si6 0.280833 0.457440 0.847066
Si Si7 0.976329 0.633605 0.373323
Si Si8 0.274576 0.295952 0.308033
O O1 0.640989 0.834200 0.699741
O O2 0.654161 0.078358 0.451970
O O3 0.471962 0.001831 0.830912
O O4 0.232626 0.781009 0.025159
O O5 0.222599 0.602019 0.824067
O O6 0.990070 0.648400 0.115658
O O7 0.910331 0.684201 0.987437
O O8 0.886230 0.736322 0.629266
O O9 0.132632 0.784811 0.543577
O O10 0.715987 0.651169 0.998464
O O11 0.000000 0.000000 0.500000
O O12 0.419198 0.705972 0.328884
O O13 0.500000 0.000000 0.000000
O O14 0.438879 0.434679 0.473292
O O15 0.221284 0.485365 0.472787
O O16 0.000000 0.500000 0.500000
O O17 0.885531 0.738758 0.445490
O O18 0.500000 0.500000 0.000000
#
# Coordination Sequence:
#
# PCOD8032780 Si02
#       8
#     2   2   2   2   2   2   2   2
#     4  12  26  47  70 104 146 187 235 297 355 421
#     4  11  24  47  70 103 145 190 240 292 349 428
#     4  12  21  40  68 103 137 175 235 293 353 417
#     4  12  23  40  69 107 142 175 236 302 356 411
#     4  12  26  45  74 104 143 194 238 293 355 424
#     4  11  23  43  72 105 144 183 239 296 359 415
#     4  12  27  47  69 106 148 187 237 290 363 431
#     4  12  25  43  71 100 143 188 229 292 361 424
#
# _framework density 22.601465999999999
#
# number of rings (size 3 to 8) (size 9 to 14) (size 15 to 20)
#    0.000    0.250    5.000    4.875    0.000    3.500 
#    0.000    1.250    0.000    0.000    0.000    0.000 
#    0.000    0.000    0.000    0.000    0.000    0.000 
#
# Total GULP energy -198295.795405 kJ/mol
# GULP energy per Si atom -12393.487213 kJ/mol
# Density = 2.255002 g / cm^3
# Si number density = 22.601466 Si / 1000 Ang^3
#
#
#
# Elastic Constant Matrix: (Units=GPa)
#
#
# Indices 1 2 3 4 5 6 
#
# 1 88.1145 49.4214 17.9226 -4.0208 -10.4876 -2.9441
# 2 49.4214 100.7713 29.9468 4.6453 -5.8040 6.5608
# 3 17.9226 29.9468 118.3535 -6.2162 1.1993 -11.8815
# 4 -4.0208 4.6453 -6.2162 36.8205 -5.9983 -3.0462
# 5 -10.4876 -5.8040 1.1993 -5.9983 45.3454 5.8319
# 6 -2.9441 6.5608 -11.8815 -3.0462 5.8319 29.6128
#
#
#
# Elastic Compliance Matrix: (Units=1/GPa)
#
#
# Indices 1 2 3 4 5 6 
#
# 1 0.016673 -0.008437 0.000113 0.003644 0.002819 0.003392
# 2 -0.008437 0.015726 -0.003539 -0.003948 0.000435 -0.006235
# 3 0.000113 -0.003539 0.009993 0.002410 -0.001049 0.005259
# 4 0.003644 -0.003948 0.002410 0.029420 0.003584 0.004525
# 5 0.002819 0.000435 -0.001049 0.003584 0.023849 -0.004565
# 6 0.003392 -0.006235 0.005259 0.004525 -0.004565 0.038962
#
#
# Mechanical properties :
#
#
# Convention : Reuss Voigt Hill
#
# Bulk Modulus (GPa) = 53.57320 55.75788 54.66554
# Shear Modulus (GPa) = 30.38191 36.35230 33.36710
#
# Velocity S-wave (km/s) = 3.67037 4.01484 3.84647
# Velocity P-wave (km/s) = 6.45887 6.79820 6.63071
#
# Compressibility (1/GPa) = 0.01866605
#
# Stress axis : x y z
#
# Youngs Moduli (GPa) = 59.97646 63.58891 100.07228
#
# Poissons Ratio (x) = 0.53651 -0.01134
# Poissons Ratio (y) = 0.50603 0.35417
# Poissons Ratio (z) = -0.00680 0.22505
#
# Static dielectric constant tensor:
#      x y z
#    x 3.913690 -0.043780 -0.013010 
#    y -0.043780 4.970410 -0.034320 
#    z -0.013010 -0.034320 4.285490 
# 
# 
# High freq. dielectric constant tensor:
#      x y z
#    x 1.884950 -0.005160 -0.004070 
#    y -0.005160 1.893940 0.013850 
#    z -0.004070 0.013850 1.904630 
# 
# From -- ./inp_files/454780.got.cif
#   From: 2010.06.25/outbox.cif.g09.slc.cpg/sg2_228_cif.got.tgz:454780.got - 2010.06.27 13:26:56.
