data_PCOD8032802
_publ_section_title
;
Structure prediction by ZEFSAII (Michael W. Deem and Ramdas Pophale) SiO2 
 PCOD8032802
Probable space group: P -1
;
_chemical_formula_sum "Si O2"
_cell_formula_units_Z 14
_cell_length_a 21.099144
_cell_length_b 21.192426
_cell_length_c 8.944520
_cell_angle_alpha 29.703105
_cell_angle_beta 28.338201
_cell_angle_gamma 20.186799
_cell_volume 632.674975
_symmetry_space_group_name_H-M "P -1"
_symmetry_group_IT_number 2
_symmetry_cell_setting 'triclinic'
loop_
_space_group_symop_operation_xyz
x,y,z
-x,-y,-z
loop_
_atom_site_type_symbol
_atom_site_label
_atom_site_fract_x
_atom_site_fract_y
_atom_site_fract_z
Si Si1 0.135711 0.022723 0.128508
Si Si2 0.675150 0.917163 0.194215
Si Si3 0.970639 0.762593 0.383854
Si Si4 0.527481 0.611752 0.130076
Si Si5 0.418542 0.437801 0.212903
Si Si6 0.403290 0.944483 0.245909
Si Si7 0.893264 0.520815 0.535711
O O1 0.366856 0.825645 0.080510
O O2 0.136678 0.147303 0.977823
O O3 0.071387 0.099554 0.935983
O O4 0.000000 0.000000 0.500000
O O5 0.756778 0.731844 0.324018
O O6 0.500000 0.000000 0.500000
O O7 0.594481 0.058358 0.933616
O O8 0.183512 0.621257 0.309411
O O9 0.958312 0.634213 0.584719
O O10 0.819848 0.893902 0.560622
O O11 0.500000 0.500000 0.500000
O O12 0.477784 0.629663 0.023355
O O13 0.752181 0.501586 0.914980
O O14 0.474243 0.266967 0.528891
O O15 0.500000 0.500000 0.000000
O O16 0.500000 0.000000 0.000000
O O17 0.000000 0.500000 0.500000
#
# Coordination Sequence:
#
# PCOD8032802 Si02
#       7
#     2   2   2   2   2   2   2
#     4  12  24  43  72 104 143 186 241 296 357 428
#     4  12  26  46  73 106 139 188 245 297 359 432
#     4  11  25  49  71 103 148 186 242 295 361 435
#     4  11  24  44  69 102 145 186 237 295 354 423
#     4  11  27  47  71 104 145 190 237 296 365 428
#     4  12  27  48  74 104 150 194 234 302 366 432
#     4  11  23  43  73 105 142 185 240 301 352 423
#
# _framework density 22.128266
#
# number of rings (size 3 to 8) (size 9 to 14) (size 15 to 20)
#    0.000    0.571    4.286    4.286    4.000    4.000 
#    0.000    0.000    0.000    0.000    0.000    0.000 
#    0.000    0.000    0.000    0.000    0.000    0.000 
#
# Total GULP energy -173548.517686 kJ/mol
# GULP energy per Si atom -12396.322692 kJ/mol
# Density = 2.207790 g / cm^3
# Si number density = 22.128266 Si / 1000 Ang^3
#
#
#
# Elastic Constant Matrix: (Units=GPa)
#
#
# Indices 1 2 3 4 5 6 
#
# 1 149.3981 30.2053 70.2929 5.7694 -3.1824 -13.3200
# 2 30.2053 110.8493 44.4339 -8.4605 8.4276 -9.7463
# 3 70.2929 44.4339 154.0571 -14.6529 7.6230 -5.7291
# 4 5.7694 -8.4605 -14.6529 37.1017 -0.3707 2.2307
# 5 -3.1824 8.4276 7.6230 -0.3707 52.8545 -2.5728
# 6 -13.3200 -9.7463 -5.7291 2.2307 -2.5728 32.9977
#
#
#
# Elastic Compliance Matrix: (Units=1/GPa)
#
#
# Indices 1 2 3 4 5 6 
#
# 1 0.009343 -0.000935 -0.004286 -0.003531 0.001456 0.003103
# 2 -0.000935 0.010620 -0.002350 0.001497 -0.001296 0.002149
# 3 -0.004286 -0.002350 0.009521 0.003946 -0.001284 -0.001138
# 4 -0.003531 0.001497 0.003946 0.029535 -0.000929 -0.002367
# 5 0.001456 -0.001296 -0.001284 -0.000929 0.019469 0.001563
# 6 0.003103 0.002149 -0.001138 -0.002367 0.001563 0.032277
#
#
# Mechanical properties :
#
#
# Convention : Reuss Voigt Hill
#
# Bulk Modulus (GPa) = 69.72523 78.24096 73.98310
# Shear Modulus (GPa) = 38.25928 42.54894 40.40411
#
# Velocity S-wave (km/s) = 4.16261 4.38977 4.27770
# Velocity P-wave (km/s) = 7.39466 7.81845 7.60951
#
# Compressibility (1/GPa) = 0.01434201
#
# Stress axis : x y z
#
# Youngs Moduli (GPa) = 107.02985 94.16413 105.03145
#
# Poissons Ratio (x) = 0.08807 0.45014
# Poissons Ratio (y) = 0.10010 0.24681
# Poissons Ratio (z) = 0.45871 0.22127
#
# Static dielectric constant tensor:
#      x y z
#    x 4.002760 0.135430 -0.018350 
#    y 0.135430 4.445180 -0.343930 
#    z -0.018350 -0.343930 4.048890 
# 
# 
# High freq. dielectric constant tensor:
#      x y z
#    x 1.876580 -0.003790 -0.002710 
#    y -0.003790 1.889290 -0.016170 
#    z -0.002710 -0.016170 1.870120 
# 
# From -- ./inp_files/281363.got.cif
#   From: 2010.06.25/outbox.cif.g09.slc.cpg/sg2_141_cif.got.tgz:281363.got - 2010.06.27 13:26:56.
