data_PCOD8032224
_publ_section_title
;
Structure prediction by ZEFSAII (Michael W. Deem and Ramdas Pophale) SiO2 
 PCOD8032224
Probable space group: P -1
;
_chemical_formula_sum "Si O2"
_cell_formula_units_Z 14
_cell_length_a 13.086645
_cell_length_b 12.268139
_cell_length_c 5.938166
_cell_angle_alpha 68.967268
_cell_angle_beta 132.711932
_cell_angle_gamma 113.748820
_cell_volume 635.958299
_symmetry_space_group_name_H-M "P -1"
_symmetry_group_IT_number 2
_symmetry_cell_setting 'triclinic'
loop_
_space_group_symop_operation_xyz
x,y,z
-x,-y,-z
loop_
_atom_site_type_symbol
_atom_site_label
_atom_site_fract_x
_atom_site_fract_y
_atom_site_fract_z
Si Si1 0.275608 0.040413 0.133620
Si Si2 0.448626 0.912932 0.189314
Si Si3 0.095389 0.811980 0.201452
Si Si4 0.179322 0.272850 0.835599
Si Si5 0.722296 0.304373 0.142158
Si Si6 0.981358 0.370582 0.171592
Si Si7 0.422460 0.488463 0.141868
O O1 0.419428 0.087569 0.453094
O O2 0.314998 0.958749 0.055471
O O3 0.141036 0.955769 0.125273
O O4 0.226642 0.157902 0.884858
O O5 0.392606 0.774678 0.138697
O O6 0.500000 0.000000 0.000000
O O7 0.236073 0.783169 0.545284
O O8 0.950136 0.777307 0.150307
O O9 0.075515 0.739086 0.996176
O O10 0.130324 0.351342 0.507736
O O11 0.312237 0.359401 0.094371
O O12 0.868207 0.371951 0.195288
O O13 0.656391 0.404453 0.083104
O O14 0.000000 0.500000 0.000000
O O15 0.500000 0.500000 0.500000
O O16 0.500000 0.500000 0.000000
#
# Coordination Sequence:
#
# PCOD8032224 Si02
#       7
#     2   2   2   2   2   2   2
#     4  11  24  43  69 102 141 178 237 294 363 434
#     4  11  23  41  70 100 138 187 226 287 357 431
#     4  11  23  43  71 101 133 187 233 294 363 431
#     4  11  27  45  68 107 139 184 237 302 360 429
#     4  11  24  45  71 102 136 183 245 290 358 434
#     4  11  24  44  73  96 139 186 236 293 354 428
#     4  12  30  48  75 108 147 194 242 305 370 432
#
# _framework density 22.014021
#
# number of rings (size 3 to 8) (size 9 to 14) (size 15 to 20)
#    0.000    0.857    2.857    3.000    8.000    4.000 
#    0.000    0.000    0.000    0.000    0.000    0.000 
#    0.000    0.000    0.000    0.000    0.000    0.000 
#
# Total GULP energy -173500.268351 kJ/mol
# GULP energy per Si atom -12392.876311 kJ/mol
# Density = 2.196392 g / cm^3
# Si number density = 22.014021 Si / 1000 Ang^3
#
#
#
# Elastic Constant Matrix: (Units=GPa)
#
#
# Indices 1 2 3 4 5 6 
#
# 1 100.4007 40.4824 42.5974 -4.5191 9.0980 -10.1517
# 2 40.4824 158.0269 51.1752 -8.8474 17.3505 -1.7321
# 3 42.5974 51.1752 103.7485 -7.5698 -0.6051 2.6351
# 4 -4.5191 -8.8474 -7.5698 44.3139 -1.6775 2.6878
# 5 9.0980 17.3505 -0.6051 -1.6775 29.7219 0.6535
# 6 -10.1517 -1.7321 2.6351 2.6878 0.6535 39.5360
#
#
#
# Elastic Compliance Matrix: (Units=1/GPa)
#
#
# Indices 1 2 3 4 5 6 
#
# 1 0.013284 -0.001411 -0.004882 -0.000118 -0.003431 0.003739
# 2 -0.001411 0.008369 -0.003528 0.000738 -0.004490 0.000263
# 3 -0.004882 -0.003528 0.013572 0.001416 0.003964 -0.002474
# 4 -0.000118 0.000738 0.001416 0.023082 0.000973 -0.001678
# 5 -0.003431 -0.004490 0.003964 0.000973 0.037496 -0.002028
# 6 0.003739 0.000263 -0.002474 -0.001678 -0.002028 0.026578
#
#
# Mechanical properties :
#
#
# Convention : Reuss Voigt Hill
#
# Bulk Modulus (GPa) = 64.16667 70.07622 67.12144
# Shear Modulus (GPa) = 33.96333 37.90911 35.93622
#
# Velocity S-wave (km/s) = 3.93212 4.15425 4.04471
# Velocity P-wave (km/s) = 7.05881 7.41027 7.23667
#
# Compressibility (1/GPa) = 0.01558442
#
# Stress axis : x y z
#
# Youngs Moduli (GPa) = 75.27923 119.48706 73.67842
#
# Poissons Ratio (x) = 0.16860 0.35968
# Poissons Ratio (y) = 0.10622 0.25992
# Poissons Ratio (z) = 0.36749 0.42153
#
# Static dielectric constant tensor:
#      x y z
#    x 4.058190 -0.067260 -0.093790 
#    y -0.067260 4.044660 0.032750 
#    z -0.093790 0.032750 4.268550 
# 
# 
# High freq. dielectric constant tensor:
#      x y z
#    x 1.870540 0.002810 0.005400 
#    y 0.002810 1.887540 0.003290 
#    z 0.005400 0.003290 1.867550 
# 
# From -- ./inp_files/28412.got.cif
#   From: 2010.06.25/outbox.cif.g09.slc.cpg/sg2_15_cif.got.tgz:28412.got - 2010.06.27 13:26:56.
