data_PCOD8032429
_publ_section_title
;
Structure prediction by ZEFSAII (Michael W. Deem and Ramdas Pophale) SiO2 
 PCOD8032429
Probable space group: P -1
;
_chemical_formula_sum "Si O2"
_cell_formula_units_Z 16
_cell_length_a 6.900600
_cell_length_b 21.748826
_cell_length_c 13.949609
_cell_angle_alpha 159.278396
_cell_angle_beta 84.467453
_cell_angle_gamma 92.076528
_cell_volume 728.607936
_symmetry_space_group_name_H-M "P -1"
_symmetry_group_IT_number 2
_symmetry_cell_setting 'triclinic'
loop_
_space_group_symop_operation_xyz
x,y,z
-x,-y,-z
loop_
_atom_site_type_symbol
_atom_site_label
_atom_site_fract_x
_atom_site_fract_y
_atom_site_fract_z
Si Si1 0.225149 0.495431 0.598719
Si Si2 0.960782 0.227463 0.255768
Si Si3 0.913102 0.698431 0.270960
Si Si4 0.294461 0.998952 0.556139
Si Si5 0.615084 0.241814 0.164215
Si Si6 0.956699 0.251505 0.875874
Si Si7 0.129106 0.848482 0.648151
Si Si8 0.487060 0.885887 0.576557
O O1 0.428674 0.364912 0.396651
O O2 0.248988 0.656873 0.763451
O O3 0.046604 0.384139 0.423297
O O4 0.170168 0.571933 0.818798
O O5 0.752548 0.187348 0.168524
O O6 0.926823 0.270534 0.433922
O O7 0.112421 0.050217 0.976171
O O8 0.985660 0.731810 0.211563
O O9 0.675468 0.737292 0.335043
O O10 0.987923 0.825298 0.531343
O O11 0.000000 0.500000 0.000000
O O12 0.335748 0.915267 0.536886
O O13 0.188950 0.891401 0.326512
O O14 0.500000 0.000000 0.500000
O O15 0.150834 0.189193 0.843207
O O16 0.553542 0.073366 0.869664
O O17 0.360277 0.804622 0.545595
#
# Coordination Sequence:
#
# PCOD8032429 Si02
#       8
#     2   2   2   2   2   2   2   2
#     4  11  25  43  68 106 140 178 229 290 347 414
#     4  11  24  44  69  99 138 184 234 283 342 407
#     4  12  26  47  69 102 141 185 232 289 345 415
#     4  11  23  42  70 102 134 181 229 280 350 410
#     4  11  25  44  70 103 139 183 228 290 350 406
#     4  11  25  42  69 102 141 177 228 283 343 421
#     4  11  25  44  71  99 134 186 238 282 342 413
#     4  12  24  45  73 103 142 182 237 286 350 423
#
# _framework density 21.959686000000001
#
# number of rings (size 3 to 8) (size 9 to 14) (size 15 to 20)
#    0.000    0.750    5.000    1.875    3.500    6.000 
#    2.250    0.000    0.000    0.000    0.000    0.000 
#    0.000    0.000    0.000    0.000    0.000    0.000 
#
# Total GULP energy -198303.042228 kJ/mol
# GULP energy per Si atom -12393.940139 kJ/mol
# Density = 2.190970 g / cm^3
# Si number density = 21.959686 Si / 1000 Ang^3
#
#
#
# Elastic Constant Matrix: (Units=GPa)
#
#
# Indices 1 2 3 4 5 6 
#
# 1 130.0791 54.5665 36.6572 -8.1902 -4.9508 3.8226
# 2 54.5665 95.4094 32.0336 -9.1920 -9.2632 6.9929
# 3 36.6572 32.0336 83.4461 -7.7435 -10.3304 4.3451
# 4 -8.1902 -9.1920 -7.7435 37.5556 4.2306 -0.3551
# 5 -4.9508 -9.2632 -10.3304 4.2306 33.6739 0.6634
# 6 3.8226 6.9929 4.3451 -0.3551 0.6634 39.8066
#
#
#
# Elastic Compliance Matrix: (Units=1/GPa)
#
#
# Indices 1 2 3 4 5 6 
#
# 1 0.010641 -0.005205 -0.002731 0.000574 -0.000781 0.000209
# 2 -0.005205 0.014954 -0.002924 0.001648 0.002281 -0.001831
# 3 -0.002731 -0.002924 0.014877 0.001387 0.003201 -0.000889
# 4 0.000574 0.001648 0.001387 0.027723 -0.002516 -0.000207
# 5 -0.000781 0.002281 0.003201 -0.002516 0.031531 -0.001223
# 6 0.000209 -0.001831 -0.000889 -0.000207 -0.001223 0.025539
#
#
# Mechanical properties :
#
#
# Convention : Reuss Voigt Hill
#
# Bulk Modulus (GPa) = 53.32296 61.71658 57.51977
# Shear Modulus (GPa) = 32.62985 34.58570 33.60777
#
# Velocity S-wave (km/s) = 3.85892 3.97289 3.91632
# Velocity P-wave (km/s) = 6.64755 7.01503 6.83376
#
# Compressibility (1/GPa) = 0.01875365
#
# Stress axis : x y z
#
# Youngs Moduli (GPa) = 93.97866 66.87264 67.21759
#
# Poissons Ratio (x) = 0.34805 0.18355
# Poissons Ratio (y) = 0.48913 0.19651
# Poissons Ratio (z) = 0.25663 0.19551
#
# Static dielectric constant tensor:
#      x y z
#    x 4.017720 0.033550 -0.064110 
#    y 0.033550 4.249930 -0.129880 
#    z -0.064110 -0.129880 3.909330 
# 
# 
# High freq. dielectric constant tensor:
#      x y z
#    x 1.876920 0.013740 -0.003170 
#    y 0.013740 1.864650 -0.008370 
#    z -0.003170 -0.008370 1.860280 
# 
# From -- ./inp_files/72392.got.cif
#   From: 2010.06.25/outbox.cif.g09.slc.cpg/sg2_37_cif.got.tgz:72392.got - 2010.06.27 13:26:56.
