data_PCOD8032209
_publ_section_title
;
Structure prediction by ZEFSAII (Michael W. Deem and Ramdas Pophale) SiO2 
 PCOD8032209
Probable space group: P -1
;
_chemical_formula_sum "Si O2"
_cell_formula_units_Z 16
_cell_length_a 14.614157
_cell_length_b 11.070578
_cell_length_c 11.635731
_cell_angle_alpha 120.546216
_cell_angle_beta 152.673477
_cell_angle_gamma 52.794399
_cell_volume 686.136988
_symmetry_space_group_name_H-M "P -1"
_symmetry_group_IT_number 2
_symmetry_cell_setting 'triclinic'
loop_
_space_group_symop_operation_xyz
x,y,z
-x,-y,-z
loop_
_atom_site_type_symbol
_atom_site_label
_atom_site_fract_x
_atom_site_fract_y
_atom_site_fract_z
Si Si1 0.179909 0.925785 0.260341
Si Si2 0.469157 0.582005 0.384335
Si Si3 0.227623 0.398875 0.451125
Si Si4 0.438930 0.114430 0.706638
Si Si5 0.794149 0.549700 0.102468
Si Si6 0.908814 0.084907 0.243481
Si Si7 0.247795 0.568547 0.768362
Si Si8 0.725166 0.872447 0.225251
O O1 0.285415 0.747798 0.270601
O O2 0.375179 0.987420 0.508844
O O3 0.053829 0.959423 0.255748
O O4 0.000000 0.000000 0.000000
O O5 0.500000 0.500000 0.500000
O O6 0.685061 0.589713 0.572554
O O7 0.419216 0.475809 0.184037
O O8 0.391626 0.251312 0.629169
O O9 0.161361 0.548195 0.535726
O O10 0.979785 0.416716 0.169166
O O11 0.287101 0.170761 0.675287
O O12 0.689992 0.052005 0.002108
O O13 0.824339 0.523271 0.260213
O O14 0.763276 0.722596 0.120121
O O15 0.833113 0.257409 0.196893
O O16 0.069355 0.074476 0.527668
O O17 0.500000 0.500000 0.000000
O O18 0.500000 0.000000 0.000000
#
# Coordination Sequence:
#
# PCOD8032209 Si02
#       8
#     2   2   2   2   2   2   2   2
#     4  11  25  47  69 101 145 191 244 289 350 427
#     4  12  30  49  68  98 146 197 249 294 347 429
#     4  12  23  42  75 107 136 182 233 294 368 423
#     4  11  23  42  74 106 140 177 233 302 350 428
#     4  12  23  42  74 103 141 183 232 296 362 432
#     4  11  23  41  69 107 136 180 233 293 360 423
#     4  12  19  39  73 114 142 166 226 299 371 427
#     4  11  25  41  64 105 149 182 223 289 372 430
#
# _framework density 23.318957999999999
#
# number of rings (size 3 to 8) (size 9 to 14) (size 15 to 20)
#    0.000    0.500    5.000    4.125    3.500    4.000 
#    2.250    0.000    0.000    0.000    0.000    0.000 
#    0.000    0.000    0.000    0.000    0.000    0.000 
#
# Total GULP energy -198225.318016 kJ/mol
# GULP energy per Si atom -12389.082376 kJ/mol
# Density = 2.326588 g / cm^3
# Si number density = 23.318958 Si / 1000 Ang^3
#
#
#
# Elastic Constant Matrix: (Units=GPa)
#
#
# Indices 1 2 3 4 5 6 
#
# 1 112.6924 28.1080 7.3663 -10.2865 11.4907 -1.3530
# 2 28.1080 113.5392 52.9214 -2.3217 0.4690 -10.0779
# 3 7.3663 52.9214 140.0842 -1.3248 20.4827 7.5015
# 4 -10.2865 -2.3217 -1.3248 45.3043 -4.1091 -0.6968
# 5 11.4907 0.4690 20.4827 -4.1091 37.7814 -3.8756
# 6 -1.3530 -10.0779 7.5015 -0.6968 -3.8756 27.9208
#
#
#
# Elastic Compliance Matrix: (Units=1/GPa)
#
#
# Indices 1 2 3 4 5 6 
#
# 1 0.010110 -0.003194 0.001313 0.001811 -0.003702 -0.001484
# 2 -0.003194 0.012839 -0.005713 0.000288 0.004624 0.006663
# 3 0.001313 -0.005713 0.010505 -0.000380 -0.006655 -0.005754
# 4 0.001811 0.000288 -0.000380 0.022709 0.002241 0.001171
# 5 -0.003702 0.004624 -0.006655 0.002241 0.032189 0.007802
# 6 -0.001484 0.006663 -0.005754 0.001171 0.007802 0.040807
#
#
# Mechanical properties :
#
#
# Convention : Reuss Voigt Hill
#
# Bulk Modulus (GPa) = 54.74503 60.34526 57.54515
# Shear Modulus (GPa) = 33.23684 40.72930 36.98307
#
# Velocity S-wave (km/s) = 3.77943 4.18379 3.98674
# Velocity P-wave (km/s) = 6.52480 7.01948 6.77666
#
# Compressibility (1/GPa) = 0.01826650
#
# Stress axis : x y z
#
# Youngs Moduli (GPa) = 98.91580 77.88621 95.18985
#
# Poissons Ratio (x) = 0.24878 -0.12499
# Poissons Ratio (y) = 0.31596 0.54379
# Poissons Ratio (z) = -0.12988 0.44494
#
# Static dielectric constant tensor:
#      x y z
#    x 4.007560 -0.042520 0.329540 
#    y -0.042520 4.315970 0.669090 
#    z 0.329540 0.669090 5.271380 
# 
# 
# High freq. dielectric constant tensor:
#      x y z
#    x 1.900450 -0.013920 0.024740 
#    y -0.013920 1.917490 0.004850 
#    z 0.024740 0.004850 1.943240 
# 
# From -- ./inp_files/451711.got.cif
#   From: 2010.06.25/outbox.cif.g09.slc.cpg/sg2_226_cif.got.tgz:451711.got - 2010.06.27 13:26:56.
