data_PCOD8032777
_publ_section_title
;
Structure prediction by ZEFSAII (Michael W. Deem and Ramdas Pophale) SiO2 
 PCOD8032777
Probable space group: P -1
;
_chemical_formula_sum "Si O2"
_cell_formula_units_Z 12
_cell_length_a 9.738878
_cell_length_b 12.917894
_cell_length_c 8.948242
_cell_angle_alpha 43.322389
_cell_angle_beta 87.175526
_cell_angle_gamma 60.071460
_cell_volume 568.648850
_symmetry_space_group_name_H-M "P -1"
_symmetry_group_IT_number 2
_symmetry_cell_setting 'triclinic'
loop_
_space_group_symop_operation_xyz
x,y,z
-x,-y,-z
loop_
_atom_site_type_symbol
_atom_site_label
_atom_site_fract_x
_atom_site_fract_y
_atom_site_fract_z
Si Si1 0.420221 0.407254 0.171918
Si Si2 0.763976 0.987917 0.281674
Si Si3 0.054932 0.608971 0.468965
Si Si4 0.868877 0.239798 0.965388
Si Si5 0.218747 0.038776 0.347170
Si Si6 0.664193 0.716126 0.975954
O O1 0.273747 0.547425 0.162391
O O2 0.587590 0.186883 0.465655
O O3 0.316147 0.389988 0.067479
O O4 0.500000 0.500000 0.000000
O O5 0.883397 0.776533 0.409618
O O6 0.832099 0.944598 0.494297
O O7 0.550453 0.093642 0.172707
O O8 0.782210 0.139569 0.049006
O O9 0.093158 0.718521 0.241561
O O10 0.000000 0.500000 0.500000
O O11 0.241373 0.447475 0.724608
O O12 0.059432 0.079278 0.215475
O O13 0.228802 0.206412 0.129047
#
# Coordination Sequence:
#
# PCOD8032777 Si02
#       6
#     2   2   2   2   2   2
#     4  11  23  43  72 105 126 167 229 276 332 385
#     4  11  25  44  68  97 133 174 225 275 329 384
#     4  12  28  44  65  99 138 181 221 262 334 401
#     4  12  25  44  68 101 134 175 219 276 329 395
#     4  11  24  42  73  99 133 170 222 282 328 383
#     4  11  25  45  69  99 135 175 219 277 328 392
#
# _framework density 21.102653
#
# number of rings (size 3 to 8) (size 9 to 14) (size 15 to 20)
#    0.000    0.667    5.000    4.000    7.000    4.000 
#    0.000    0.000    0.000    0.000    0.000    0.000 
#    0.000    0.000    0.000    0.000    0.000    0.000 
#
# Total GULP energy -148902.176060 kJ/mol
# GULP energy per Si atom -12408.514672 kJ/mol
# Density = 2.105462 g / cm^3
# Si number density = 21.102653 Si / 1000 Ang^3
#
#
#
# Elastic Constant Matrix: (Units=GPa)
#
#
# Indices 1 2 3 4 5 6 
#
# 1 51.9419 9.2674 4.1499 -4.2240 -8.7848 -3.2599
# 2 9.2674 65.8921 39.3908 -10.0528 21.7273 0.4164
# 3 4.1499 39.3908 101.1417 2.9679 4.4861 -12.2454
# 4 -4.2240 -10.0528 2.9679 25.5997 -0.4574 -13.5421
# 5 -8.7848 21.7273 4.4861 -0.4574 42.8417 -2.8488
# 6 -3.2599 0.4164 -12.2454 -13.5421 -2.8488 20.1129
#
#
#
# Elastic Compliance Matrix: (Units=1/GPa)
#
#
# Indices 1 2 3 4 5 6 
#
# 1 0.022943 -0.006432 0.002340 0.007103 0.008547 0.011270
# 2 -0.006432 0.029221 -0.011263 0.009029 -0.015167 -0.004573
# 3 0.002340 -0.011263 0.015223 -0.000129 0.005298 0.010544
# 4 0.007103 0.009029 -0.000129 0.068864 0.000775 0.047362
# 5 0.008547 -0.015167 0.005298 0.000775 0.032912 0.010108
# 6 0.011270 -0.004573 0.010544 0.047362 0.010108 0.091381
#
#
# Mechanical properties :
#
#
# Convention : Reuss Voigt Hill
#
# Bulk Modulus (GPa) = 27.26296 36.06575 31.66436
# Shear Modulus (GPa) = 16.47561 28.78870 22.63216
#
# Velocity S-wave (km/s) = 2.79720 3.69754 3.27843
# Velocity P-wave (km/s) = 4.83525 5.94616 5.41925
#
# Compressibility (1/GPa) = 0.03667980
#
# Stress axis : x y z
#
# Youngs Moduli (GPa) = 43.58575 34.22150 65.69057
#
# Poissons Ratio (x) = 0.22010 -0.15375
# Poissons Ratio (y) = 0.28033 0.73985
# Poissons Ratio (z) = -0.10201 0.38542
#
# Static dielectric constant tensor:
#      x y z
#    x 3.473860 0.514530 -0.237690 
#    y 0.514530 3.157610 0.234400 
#    z -0.237690 0.234400 3.843930 
# 
# 
# High freq. dielectric constant tensor:
#      x y z
#    x 1.835990 -0.001810 -0.003970 
#    y -0.001810 1.829140 -0.008310 
#    z -0.003970 -0.008310 1.839200 
# 
# From -- ./inp_files/183435.got.cif
#   From: 2010.06.25/outbox.cif.g09.slc.cpg/sg2_92_cif.got.tgz:183435.got - 2010.06.27 13:26:56.
