data_PCOD8032774
_publ_section_title
;
Structure prediction by ZEFSAII (Michael W. Deem and Ramdas Pophale) SiO2 
 PCOD8032774
Probable space group: P -1
;
_chemical_formula_sum "Si O2"
_cell_formula_units_Z 16
_cell_length_a 9.286513
_cell_length_b 21.589047
_cell_length_c 15.367883
_cell_angle_alpha 160.847049
_cell_angle_beta 69.959014
_cell_angle_gamma 120.728923
_cell_volume 754.313854
_symmetry_space_group_name_H-M "P -1"
_symmetry_group_IT_number 2
_symmetry_cell_setting 'triclinic'
loop_
_space_group_symop_operation_xyz
x,y,z
-x,-y,-z
loop_
_atom_site_type_symbol
_atom_site_label
_atom_site_fract_x
_atom_site_fract_y
_atom_site_fract_z
Si Si1 0.438530 0.498149 0.413243
Si Si2 0.689327 0.988347 0.247915
Si Si3 0.666965 0.817090 0.637943
Si Si4 0.906067 0.706558 0.348619
Si Si5 0.205405 0.681825 0.660351
Si Si6 0.019192 0.231324 0.783534
Si Si7 0.354262 0.812936 0.211914
Si Si8 0.709086 0.329765 0.565139
O O1 0.500000 0.500000 0.500000
O O2 0.611858 0.635134 0.487884
O O3 0.342287 0.630467 0.607828
O O4 0.289408 0.219063 0.049857
O O5 0.482302 0.864401 0.170035
O O6 0.682371 0.107556 0.320908
O O7 0.875398 0.187162 0.530165
O O8 0.847171 0.867811 0.613208
O O9 0.491155 0.711987 0.467136
O O10 0.714385 0.053083 0.983172
O O11 0.891938 0.678742 0.211338
O O12 0.750490 0.450451 0.081198
O O13 0.184751 0.635335 0.500364
O O14 0.000000 0.500000 0.500000
O O15 0.805491 0.153412 0.734943
O O16 0.000000 0.000000 0.500000
O O17 0.162834 0.435202 0.091938
O O18 0.500000 0.000000 0.500000
#
# Coordination Sequence:
#
# PCOD8032774 Si02
#       8
#     2   2   2   2   2   2   2   2
#     4  11  23  43  72 104 135 185 239 286 354 423
#     4  12  24  45  74 102 144 184 234 296 351 425
#     4  11  25  45  71 105 147 187 235 296 358 422
#     4  12  26  48  69 108 144 187 242 286 356 429
#     4  11  25  45  72 102 146 190 233 299 358 419
#     4  12  29  45  73 107 144 189 240 293 354 431
#     4  12  25  47  73 100 142 188 236 292 355 410
#     4  11  26  46  69 104 146 185 241 295 356 425
#
# _framework density 21.211328000000002
#
# number of rings (size 3 to 8) (size 9 to 14) (size 15 to 20)
#    0.000    0.500    3.750    4.875    8.750    2.500 
#    0.000    2.500    0.000    0.000    0.000    0.000 
#    0.000    0.000    0.000    0.000    0.000    0.000 
#
# Total GULP energy -198427.455329 kJ/mol
# GULP energy per Si atom -12401.715958 kJ/mol
# Density = 2.116305 g / cm^3
# Si number density = 21.211328 Si / 1000 Ang^3
#
#
#
# Elastic Constant Matrix: (Units=GPa)
#
#
# Indices 1 2 3 4 5 6 
#
# 1 116.4446 85.1951 51.1566 -3.5738 0.3829 -1.9372
# 2 85.1951 152.7865 68.2036 -0.4089 6.3552 -4.2345
# 3 51.1566 68.2036 133.4099 0.6193 -4.4052 -13.5566
# 4 -3.5738 -0.4089 0.6193 39.5335 -2.5576 -0.8894
# 5 0.3829 6.3552 -4.4052 -2.5576 40.0401 -0.4750
# 6 -1.9372 -4.2345 -13.5566 -0.8894 -0.4750 45.0165
#
#
#
# Elastic Compliance Matrix: (Units=1/GPa)
#
#
# Indices 1 2 3 4 5 6 
#
# 1 0.014984 -0.007547 -0.001925 0.001353 0.000922 -0.000608
# 2 -0.007547 0.012432 -0.003563 -0.000655 -0.002338 -0.000266
# 3 -0.001925 -0.003563 0.010391 -0.000199 0.001747 0.002726
# 4 0.001353 -0.000655 -0.000199 0.025534 0.001706 0.000459
# 5 0.000922 -0.002338 0.001747 0.001706 0.025646 0.000650
# 6 -0.000608 -0.000266 0.002726 0.000459 0.000650 0.023000
#
#
# Mechanical properties :
#
#
# Convention : Reuss Voigt Hill
#
# Bulk Modulus (GPa) = 85.20316 90.19463 87.69890
# Shear Modulus (GPa) = 35.21903 38.12373 36.67138
#
# Velocity S-wave (km/s) = 4.07921 4.24409 4.16246
# Velocity P-wave (km/s) = 7.90206 8.16276 8.03346
#
# Compressibility (1/GPa) = 0.01173665
#
# Stress axis : x y z
#
# Youngs Moduli (GPa) = 66.73933 80.43660 96.23964
#
# Poissons Ratio (x) = 0.60709 0.18523
# Poissons Ratio (y) = 0.50371 0.34288
# Poissons Ratio (z) = 0.12845 0.28658
#
# Static dielectric constant tensor:
#      x y z
#    x 6.219890 2.060340 0.664320 
#    y 2.060340 5.854000 0.863710 
#    z 0.664320 0.863710 4.562940 
# 
# 
# High freq. dielectric constant tensor:
#      x y z
#    x 1.833700 -0.000530 -0.006840 
#    y -0.000530 1.845610 0.001690 
#    z -0.006840 0.001690 1.851900 
# 
# From -- ./inp_files/207545.got.cif
#   From: 2010.06.25/outbox.cif.g09.slc.cpg/sg2_104_cif.got.tgz:207545.got - 2010.06.27 13:26:56.
