data_PCOD8032593
_publ_section_title
;
Structure prediction by ZEFSAII (Michael W. Deem and Ramdas Pophale) SiO2 
 PCOD8032593
Probable space group: P -1
;
_chemical_formula_sum "Si O2"
_cell_formula_units_Z 14
_cell_length_a 28.253525
_cell_length_b 14.055361
_cell_length_c 11.606736
_cell_angle_alpha 148.022401
_cell_angle_beta 21.156708
_cell_angle_gamma 157.578472
_cell_volume 631.292515
_symmetry_space_group_name_H-M "P -1"
_symmetry_group_IT_number 2
_symmetry_cell_setting 'triclinic'
loop_
_space_group_symop_operation_xyz
x,y,z
-x,-y,-z
loop_
_atom_site_type_symbol
_atom_site_label
_atom_site_fract_x
_atom_site_fract_y
_atom_site_fract_z
Si Si1 0.492461 0.705866 0.718995
Si Si2 0.516238 0.967073 0.296268
Si Si3 0.888523 0.174948 0.226230
Si Si4 0.760340 0.382142 0.606311
Si Si5 0.377392 0.321222 0.200242
Si Si6 0.018980 0.058574 0.384235
Si Si7 0.717297 0.446808 0.194035
O O1 0.500000 0.500000 0.500000
O O2 0.363162 0.648051 0.848210
O O3 0.698445 0.977817 0.523701
O O4 0.407049 0.713897 0.033098
O O5 0.324359 0.816043 0.510476
O O6 0.500000 0.000000 0.500000
O O7 0.675242 0.234535 0.150704
O O8 0.549788 0.788468 0.019312
O O9 0.899418 0.381867 0.355706
O O10 0.061366 0.319060 0.068755
O O11 0.888816 0.021733 0.970968
O O12 0.863068 0.651732 0.601704
O O13 0.382379 0.477236 0.446426
O O14 0.500000 0.500000 0.000000
O O15 0.176398 0.087386 0.373853
O O16 0.000000 0.000000 0.500000
#
# Coordination Sequence:
#
# PCOD8032593 Si02
#       7
#     2   2   2   2   2   2   2
#     4  12  25  50  77 102 147 191 240 299 358 427
#     4  12  25  42  71 103 142 190 234 293 360 420
#     4  11  26  47  71 108 143 184 246 292 355 431
#     4  12  26  47  73 104 144 191 237 299 359 420
#     4  11  23  43  67 100 142 183 234 289 354 421
#     4  11  26  43  70 102 139 190 235 294 357 421
#     4  11  26  47  71 105 143 188 239 295 357 424
#
# _framework density 22.176725000000001
#
# number of rings (size 3 to 8) (size 9 to 14) (size 15 to 20)
#    0.000    0.571    4.286    3.000    6.000    1.714 
#    2.571    0.000    0.000    0.000    0.000    0.000 
#    0.000    0.000    0.000    0.000    0.000    0.000 
#
# Total GULP energy -173659.226147 kJ/mol
# GULP energy per Si atom -12404.230439 kJ/mol
# Density = 2.212625 g / cm^3
# Si number density = 22.176725 Si / 1000 Ang^3
#
#
#
# Elastic Constant Matrix: (Units=GPa)
#
#
# Indices 1 2 3 4 5 6 
#
# 1 107.2065 43.8466 30.0671 -9.8718 4.2501 -7.3108
# 2 43.8466 135.9119 40.4282 -11.2147 2.8978 -15.1533
# 3 30.0671 40.4282 73.9117 -7.6919 -4.9318 -1.2276
# 4 -9.8718 -11.2147 -7.6919 41.3143 -7.4231 -8.0657
# 5 4.2501 2.8978 -4.9318 -7.4231 34.8916 5.6465
# 6 -7.3108 -15.1533 -1.2276 -8.0657 5.6465 43.8657
#
#
#
# Elastic Compliance Matrix: (Units=1/GPa)
#
#
# Indices 1 2 3 4 5 6 
#
# 1 0.011544 -0.002422 -0.003298 0.001488 -0.001593 0.001474
# 2 -0.002422 0.009978 -0.004322 0.001754 -0.001324 0.003415
# 3 -0.003298 -0.004322 0.017641 0.001683 0.003894 -0.001741
# 4 0.001488 0.001754 0.001683 0.027254 0.004853 0.005288
# 5 -0.001593 -0.001324 0.003894 0.004853 0.031151 -0.003731
# 6 0.001474 0.003415 -0.001741 0.005288 -0.003731 0.025626
#
#
# Mechanical properties :
#
#
# Convention : Reuss Voigt Hill
#
# Bulk Modulus (GPa) = 52.41157 60.63486 56.52321
# Shear Modulus (GPa) = 33.41371 37.52687 35.47029
#
# Velocity S-wave (km/s) = 3.88584 4.11807 4.00364
# Velocity P-wave (km/s) = 6.61951 7.07194 6.84946
#
# Compressibility (1/GPa) = 0.01907976
#
# Stress axis : x y z
#
# Youngs Moduli (GPa) = 86.62412 100.21642 56.68506
#
# Poissons Ratio (x) = 0.24273 0.18696
# Poissons Ratio (y) = 0.20981 0.24498
# Poissons Ratio (z) = 0.28570 0.43311
#
# Static dielectric constant tensor:
#      x y z
#    x 4.079720 -0.007940 -0.093960 
#    y -0.007940 4.218330 0.058370 
#    z -0.093960 0.058370 4.107570 
# 
# 
# High freq. dielectric constant tensor:
#      x y z
#    x 1.882100 -0.001480 -0.007140 
#    y -0.001480 1.892440 0.004850 
#    z -0.007140 0.004850 1.877020 
# 
# From -- ./inp_files/426327.got.cif
#   From: 2010.06.25/outbox.cif.g09.slc.cpg/sg2_214_cif.got.tgz:426327.got - 2010.06.27 13:26:56.
