data_PCOD8032594
_publ_section_title
;
Structure prediction by ZEFSAII (Michael W. Deem and Ramdas Pophale) SiO2 
 PCOD8032594
Probable space group: P -1
;
_chemical_formula_sum "Si O2"
_cell_formula_units_Z 16
_cell_length_a 8.705812
_cell_length_b 12.099381
_cell_length_c 14.392609
_cell_angle_alpha 139.541039
_cell_angle_beta 129.629223
_cell_angle_gamma 50.930696
_cell_volume 725.111769
_symmetry_space_group_name_H-M "P -1"
_symmetry_group_IT_number 2
_symmetry_cell_setting 'triclinic'
loop_
_space_group_symop_operation_xyz
x,y,z
-x,-y,-z
loop_
_atom_site_type_symbol
_atom_site_label
_atom_site_fract_x
_atom_site_fract_y
_atom_site_fract_z
Si Si1 0.254156 0.542049 0.916394
Si Si2 0.862318 0.177873 0.107174
Si Si3 0.873960 0.796350 0.401856
Si Si4 0.240077 0.811901 0.425911
Si Si5 0.480086 0.529957 0.619464
Si Si6 0.983073 0.318036 0.417336
Si Si7 0.989342 0.311056 0.905199
Si Si8 0.557950 0.815326 0.952828
O O1 0.170157 0.646737 0.856201
O O2 0.204526 0.353009 0.775730
O O3 0.500000 0.500000 0.000000
O O4 0.129314 0.670822 0.031075
O O5 0.009856 0.182146 0.255238
O O6 0.626040 0.183164 0.045074
O O7 0.000000 0.000000 0.000000
O O8 0.102968 0.790423 0.448847
O O9 0.870074 0.764445 0.491385
O O10 0.723838 0.993318 0.443436
O O11 0.461858 0.661808 0.428434
O O12 0.132873 0.780361 0.269790
O O13 0.500000 0.500000 0.500000
O O14 0.249887 0.648553 0.619364
O O15 0.613924 0.649823 0.794665
O O16 0.000000 0.500000 0.500000
O O17 0.000000 0.500000 0.000000
O O18 0.227018 0.189171 0.917013
O O19 0.500000 0.000000 0.000000
#
# Coordination Sequence:
#
# PCOD8032594 Si02
#       8
#     2   2   2   2   2   2   2   2
#     4  12  26  46  69 100 145 187 230 286 358 419
#     4  11  26  46  67 101 141 181 232 291 357 415
#     4  11  24  45  69 103 139 182 234 289 346 418
#     4  11  25  43  72 103 139 180 239 291 346 406
#     4  11  23  43  67 101 133 178 232 283 342 412
#     4  11  24  44  69  94 139 180 224 281 351 414
#     4  12  23  43  72  98 137 183 236 286 345 413
#     4  11  25  42  71 102 132 180 238 289 343 415
#
# _framework density 22.065563000000001
#
# number of rings (size 3 to 8) (size 9 to 14) (size 15 to 20)
#    0.000    0.750    5.000    1.500    7.000    1.000 
#    2.250    1.250    0.000    0.000    0.000    0.000 
#    0.000    0.000    0.000    0.000    0.000    0.000 
#
# Total GULP energy -198326.470803 kJ/mol
# GULP energy per Si atom -12395.404425 kJ/mol
# Density = 2.201534 g / cm^3
# Si number density = 22.065563 Si / 1000 Ang^3
#
#
#
# Elastic Constant Matrix: (Units=GPa)
#
#
# Indices 1 2 3 4 5 6 
#
# 1 87.9724 22.8216 34.5842 1.2851 -15.0585 10.1766
# 2 22.8216 137.6748 42.8387 17.3263 -4.3215 9.6308
# 3 34.5842 42.8387 112.5104 10.0359 -22.3051 4.5177
# 4 1.2851 17.3263 10.0359 44.4497 5.3994 2.0610
# 5 -15.0585 -4.3215 -22.3051 5.3994 37.4990 1.6368
# 6 10.1766 9.6308 4.5177 2.0610 1.6368 40.5499
#
#
#
# Elastic Compliance Matrix: (Units=1/GPa)
#
#
# Indices 1 2 3 4 5 6 
#
# 1 0.013811 -0.001071 -0.003016 0.000390 0.003706 -0.003045
# 2 -0.001071 0.008722 -0.002845 -0.002582 -0.000687 -0.001327
# 3 -0.003016 -0.002845 0.012324 -0.002328 0.006130 -0.000070
# 4 0.000390 -0.002582 -0.002328 0.024646 -0.005062 -0.000274
# 5 0.003706 -0.000687 0.006130 -0.005062 0.032561 -0.002507
# 6 -0.003045 -0.001327 -0.000070 -0.000274 -0.002507 0.025863
#
#
# Mechanical properties :
#
#
# Convention : Reuss Voigt Hill
#
# Bulk Modulus (GPa) = 47.62902 59.84963 53.73933
# Shear Modulus (GPa) = 36.02630 40.36060 38.19345
#
# Velocity S-wave (km/s) = 4.04504 4.28146 4.16493
# Velocity P-wave (km/s) = 6.59155 7.18496 6.89464
#
# Compressibility (1/GPa) = 0.02099560
#
# Stress axis : x y z
#
# Youngs Moduli (GPa) = 72.40387 114.64913 81.14408
#
# Poissons Ratio (x) = 0.12277 0.24469
# Poissons Ratio (y) = 0.07754 0.23082
# Poissons Ratio (z) = 0.21834 0.32612
#
# Static dielectric constant tensor:
#      x y z
#    x 3.655450 0.045570 -0.142680 
#    y 0.045570 4.195370 0.033180 
#    z -0.142680 0.033180 4.126570 
# 
# 
# High freq. dielectric constant tensor:
#      x y z
#    x 1.863040 0.008660 -0.012130 
#    y 0.008660 1.880760 0.003620 
#    z -0.012130 0.003620 1.875950 
# 
# From -- ./inp_files/272718.got.cif
#   From: 2010.06.25/outbox.cif.g09.slc.cpg/sg2_137_cif.got.tgz:272718.got - 2010.06.27 13:26:56.
