data_PCOD8032633
_publ_section_title
;
Structure prediction by ZEFSAII (Michael W. Deem and Ramdas Pophale) SiO2 
 PCOD8032633
Probable space group: P -1
;
_chemical_formula_sum "Si O2"
_cell_formula_units_Z 16
_cell_length_a 8.193345
_cell_length_b 11.591320
_cell_length_c 9.520120
_cell_angle_alpha 101.178499
_cell_angle_beta 121.419711
_cell_angle_gamma 69.183728
_cell_volume 721.162543
_symmetry_space_group_name_H-M "P -1"
_symmetry_group_IT_number 2
_symmetry_cell_setting 'triclinic'
loop_
_space_group_symop_operation_xyz
x,y,z
-x,-y,-z
loop_
_atom_site_type_symbol
_atom_site_label
_atom_site_fract_x
_atom_site_fract_y
_atom_site_fract_z
Si Si1 0.929317 0.759623 0.372774
Si Si2 0.293769 0.719481 0.322588
Si Si3 0.454026 0.030383 0.825734
Si Si4 0.117391 0.475611 0.826194
Si Si5 0.989845 0.264978 0.274307
Si Si6 0.180970 0.876162 0.042354
Si Si7 0.421480 0.218698 0.339622
Si Si8 0.696212 0.536497 0.807813
O O1 0.771746 0.882568 0.271816
O O2 0.843255 0.644800 0.281554
O O3 0.963258 0.776098 0.555449
O O4 0.139121 0.738889 0.385397
O O5 0.174004 0.789107 0.150433
O O6 0.470850 0.775028 0.461682
O O7 0.394800 0.574411 0.297100
O O8 0.607819 0.097365 0.851147
O O9 0.467280 0.907056 0.717841
O O10 0.500000 0.000000 0.000000
O O11 0.117246 0.588249 0.750384
O O12 0.911585 0.502555 0.823956
O O13 0.292119 0.452987 0.015811
O O14 0.192322 0.225583 0.263681
O O15 0.842084 0.194391 0.127351
O O16 0.000000 0.000000 0.000000
O O17 0.442486 0.332856 0.281709
#
# Coordination Sequence:
#
# PCOD8032633 Si02
#       8
#     2   2   2   2   2   2   2   2
#     4  11  25  41  67  98 137 169 217 270 324 383
#     4  11  24  43  68 102 128 173 218 269 323 388
#     4  12  27  45  67  97 133 174 218 267 328 389
#     4   9  18  38  66  94 132 170 215 264 330 379
#     4  11  23  43  68  98 130 175 216 274 322 382
#     4  12  25  44  70  95 132 170 223 264 328 390
#     4  11  24  41  69  94 134 174 221 264 324 385
#     4   9  18  38  68  98 125 169 220 270 316 384
#
# _framework density 22.186399000000002
#
# number of rings (size 3 to 8) (size 9 to 14) (size 15 to 20)
#    0.000    1.250    2.500    3.000    5.250    1.500 
#    0.000    1.875    0.000    0.000    0.000    0.000 
#    0.000    0.000    0.000    0.000    0.000    0.000 
#
# Total GULP energy -198494.911183 kJ/mol
# GULP energy per Si atom -12405.931949 kJ/mol
# Density = 2.213590 g / cm^3
# Si number density = 22.186399 Si / 1000 Ang^3
#
#
#
# Elastic Constant Matrix: (Units=GPa)
#
#
# Indices 1 2 3 4 5 6 
#
# 1 29.7990 10.8606 4.5019 2.1393 4.6019 7.6740
# 2 10.8606 150.1220 55.6931 9.0445 4.2904 6.1835
# 3 4.5019 55.6931 156.1963 6.1607 0.2722 10.2708
# 4 2.1393 9.0445 6.1607 47.3356 10.4105 2.6355
# 5 4.6019 4.2904 0.2722 10.4105 31.3236 -3.3254
# 6 7.6740 6.1835 10.2708 2.6355 -3.3254 25.8337
#
#
#
# Elastic Compliance Matrix: (Units=1/GPa)
#
#
# Indices 1 2 3 4 5 6 
#
# 1 0.038430 -0.002320 0.000490 0.000826 -0.006884 -0.012026
# 2 -0.002320 0.007907 -0.002708 -0.000959 -0.000409 -0.000081
# 3 0.000490 -0.002708 0.007529 -0.000370 0.000098 -0.002440
# 4 0.000826 -0.000959 -0.000370 0.023278 -0.008072 -0.003282
# 5 -0.006884 -0.000409 0.000098 -0.008072 0.036483 0.007624
# 6 -0.012026 -0.000081 -0.002440 -0.003282 0.007624 0.044587
#
#
# Mechanical properties :
#
#
# Convention : Reuss Voigt Hill
#
# Bulk Modulus (GPa) = 22.32701 53.13649 37.73175
# Shear Modulus (GPa) = 27.43932 38.56937 33.00435
#
# Velocity S-wave (km/s) = 3.52058 4.17396 3.86112
# Velocity P-wave (km/s) = 5.15860 6.87251 6.07629
#
# Compressibility (1/GPa) = 0.04478880
#
# Stress axis : x y z
#
# Youngs Moduli (GPa) = 26.02113 126.47565 132.82548
#
# Poissons Ratio (x) = 0.29337 -0.06503
# Poissons Ratio (y) = 0.06036 0.35975
# Poissons Ratio (z) = -0.01274 0.34255
#
# Static dielectric constant tensor:
#      x y z
#    x 3.777940 0.176260 0.065080 
#    y 0.176260 4.183150 0.078070 
#    z 0.065080 0.078070 4.044500 
# 
# 
# High freq. dielectric constant tensor:
#      x y z
#    x 1.849050 0.007970 0.002160 
#    y 0.007970 1.886670 0.001870 
#    z 0.002160 0.001870 1.889030 
# 
# From -- ./inp_files/184822.got.cif
#   From: 2010.06.25/outbox.cif.g09.slc.cpg/sg2_93_cif.got.tgz:184822.got - 2010.06.27 13:26:56.
