data_PCOD8032441
_publ_section_title
;
Structure prediction by ZEFSAII (Michael W. Deem and Ramdas Pophale) SiO2 
 PCOD8032441
Probable space group: P -1
;
_chemical_formula_sum "Si O2"
_cell_formula_units_Z 14
_cell_length_a 21.857967
_cell_length_b 9.496837
_cell_length_c 9.450097
_cell_angle_alpha 134.023397
_cell_angle_beta 136.679929
_cell_angle_gamma 27.093977
_cell_volume 605.916588
_symmetry_space_group_name_H-M "P -1"
_symmetry_group_IT_number 2
_symmetry_cell_setting 'triclinic'
loop_
_space_group_symop_operation_xyz
x,y,z
-x,-y,-z
loop_
_atom_site_type_symbol
_atom_site_label
_atom_site_fract_x
_atom_site_fract_y
_atom_site_fract_z
Si Si1 0.751782 0.241087 0.298087
Si Si2 0.913521 0.167806 0.758972
Si Si3 0.043887 0.460043 0.887220
Si Si4 0.499667 0.210712 0.574346
Si Si5 0.316120 0.596707 0.272187
Si Si6 0.761292 0.450747 0.174532
Si Si7 0.736475 0.906184 0.577076
O O1 0.837029 0.260863 0.544077
O O2 0.594513 0.483399 0.272094
O O3 0.739153 0.333218 0.180804
O O4 0.832360 0.897132 0.205135
O O5 0.840176 0.169629 0.760986
O O6 0.897983 0.421529 0.950503
O O7 0.074254 0.823098 0.780804
O O8 0.903030 0.665877 0.701721
O O9 0.000000 0.500000 0.000000
O O10 0.433808 0.307577 0.373374
O O11 0.500000 0.000000 0.500000
O O12 0.660159 0.016657 0.681978
O O13 0.337294 0.793020 0.424578
O O14 0.330681 0.464706 0.053819
O O15 0.708567 0.755012 0.339767
#
# Coordination Sequence:
#
# PCOD8032441 Si02
#       7
#     2   2   2   2   2   2   2
#     4  11  23  45  72 106 141 188 233 289 347 414
#     4  11  23  42  70 105 146 180 233 289 346 417
#     4  12  23  39  75 109 138 180 237 289 348 409
#     4  11  26  50  74  98 141 192 234 290 351 418
#     4  11  27  45  69 104 147 182 234 291 351 419
#     4  12  22  41  73 105 141 183 235 288 353 407
#     4  12  25  45  74 103 146 186 229 290 355 414
#
# _framework density 23.10549
#
# number of rings (size 3 to 8) (size 9 to 14) (size 15 to 20)
#    0.000    0.571    5.714    2.143    2.000    3.429 
#    0.000    5.714    0.000    0.000    0.000    0.000 
#    0.000    0.000    0.000    0.000    0.000    0.000 
#
# Total GULP energy -173646.710278 kJ/mol
# GULP energy per Si atom -12403.336448 kJ/mol
# Density = 2.305290 g / cm^3
# Si number density = 23.105490 Si / 1000 Ang^3
#
#
#
# Elastic Constant Matrix: (Units=GPa)
#
#
# Indices 1 2 3 4 5 6 
#
# 1 128.5350 47.8950 27.0612 19.1324 3.8025 10.8533
# 2 47.8950 118.4700 41.8640 35.2708 0.4176 8.7622
# 3 27.0612 41.8640 69.2062 13.3440 -6.8458 4.4347
# 4 19.1324 35.2708 13.3440 35.4071 14.9879 -13.1092
# 5 3.8025 0.4176 -6.8458 14.9879 35.1377 3.9129
# 6 10.8533 8.7622 4.4347 -13.1092 3.9129 41.9029
#
#
#
# Elastic Compliance Matrix: (Units=1/GPa)
#
#
# Indices 1 2 3 4 5 6 
#
# 1 0.009717 -0.001709 -0.001500 -0.004794 0.001123 -0.003605
# 2 -0.001709 0.019305 -0.003904 -0.026547 0.011921 -0.012599
# 3 -0.001500 -0.003904 0.019872 -0.007539 0.007739 -0.003979
# 4 -0.004794 -0.026547 -0.007539 0.094848 -0.045717 0.041533
# 5 0.001123 0.011921 0.007739 -0.045717 0.051736 -0.022736
# 6 -0.003605 -0.012599 -0.003979 0.041533 -0.022736 0.042971
#
#
# Mechanical properties :
#
#
# Convention : Reuss Voigt Hill
#
# Bulk Modulus (GPa) = 28.84483 61.09464 44.96974
# Shear Modulus (GPa) = 18.92288 35.78226 27.35257
#
# Velocity S-wave (km/s) = 2.86488 3.93956 3.44439
# Velocity P-wave (km/s) = 4.84298 6.86968 5.94336
#
# Compressibility (1/GPa) = 0.03466825
#
# Stress axis : x y z
#
# Youngs Moduli (GPa) = 102.91095 51.80065 50.32220
#
# Poissons Ratio (x) = 0.08851 0.07547
# Poissons Ratio (y) = 0.17584 0.19648
# Poissons Ratio (z) = 0.15433 0.20225
#
# Static dielectric constant tensor:
#      x y z
#    x 4.459730 -0.174520 0.059040 
#    y -0.174520 4.366660 0.104600 
#    z 0.059040 0.104600 4.325090 
# 
# 
# High freq. dielectric constant tensor:
#      x y z
#    x 1.920970 -0.003440 -0.004690 
#    y -0.003440 1.922140 0.004880 
#    z -0.004690 0.004880 1.906060 
# 
# From -- ./inp_files/343884.got.cif
#   From: 2010.06.25/outbox.cif.g09.slc.cpg/sg2_172_cif.got.tgz:343884.got - 2010.06.27 13:26:56.
