data_PCOD8032256
_publ_section_title
;
Structure prediction by ZEFSAII (Michael W. Deem and Ramdas Pophale) SiO2 
 PCOD8032256
Probable space group: P -1
;
_chemical_formula_sum "Si O2"
_cell_formula_units_Z 14
_cell_length_a 18.452706
_cell_length_b 6.592804
_cell_length_c 8.971759
_cell_angle_alpha 103.156599
_cell_angle_beta 47.540303
_cell_angle_gamma 125.496197
_cell_volume 630.555151
_symmetry_space_group_name_H-M "P -1"
_symmetry_group_IT_number 2
_symmetry_cell_setting 'triclinic'
loop_
_space_group_symop_operation_xyz
x,y,z
-x,-y,-z
loop_
_atom_site_type_symbol
_atom_site_label
_atom_site_fract_x
_atom_site_fract_y
_atom_site_fract_z
Si Si1 0.420417 0.507747 0.237835
Si Si2 0.120217 0.585559 0.763564
Si Si3 0.204477 0.483522 0.906665
Si Si4 0.698418 0.831304 0.364759
Si Si5 0.025078 0.301102 0.371008
Si Si6 0.839968 0.709100 0.560332
Si Si7 0.412913 0.035855 0.715137
O O1 0.385296 0.325297 0.401454
O O2 0.302012 0.458316 0.313291
O O3 0.513007 0.796935 0.216391
O O4 0.500000 0.500000 0.000000
O O5 0.202595 0.544565 0.747128
O O6 0.091868 0.400534 0.632345
O O7 0.197168 0.887263 0.665445
O O8 0.000000 0.500000 0.000000
O O9 0.240175 0.288214 0.821615
O O10 0.302253 0.762126 0.893304
O O11 0.073397 0.365991 0.145077
O O12 0.625226 0.834417 0.327924
O O13 0.134860 0.317122 0.306794
O O14 0.000000 0.500000 0.500000
O O15 0.901065 0.010017 0.493397
O O16 0.500000 0.000000 0.500000
#
# Coordination Sequence:
#
# PCOD8032256 Si02
#       7
#     2   2   2   2   2   2   2
#     4  12  27  44  71 101 141 186 233 289 343 410
#     4  11  23  41  72 105 134 172 233 292 342 418
#     4  11  24  42  71 100 132 181 233 278 354 416
#     4  11  24  44  71  98 140 181 227 287 348 411
#     4  11  27  45  71  97 140 185 224 288 360 414
#     4  11  26  47  64 103 143 172 237 285 344 420
#     4  11  24  46  69 101 138 180 237 280 342 421
#
# _framework density 22.202656999999999
#
# number of rings (size 3 to 8) (size 9 to 14) (size 15 to 20)
#    0.000    0.857    2.857    3.000    8.000    3.429 
#    0.000    2.143    0.000    0.000    0.000    0.000 
#    0.000    0.000    0.000    0.000    0.000    0.000 
#
# Total GULP energy -173531.538448 kJ/mol
# GULP energy per Si atom -12395.109889 kJ/mol
# Density = 2.215212 g / cm^3
# Si number density = 22.202657 Si / 1000 Ang^3
#
#
#
# Elastic Constant Matrix: (Units=GPa)
#
#
# Indices 1 2 3 4 5 6 
#
# 1 82.3672 31.8023 5.4206 3.1064 -6.8865 2.5396
# 2 31.8023 151.6091 39.3718 9.5299 -1.7762 4.0843
# 3 5.4206 39.3718 119.0015 19.2510 -5.6642 -7.2978
# 4 3.1064 9.5299 19.2510 39.6683 -1.6018 -1.6236
# 5 -6.8865 -1.7762 -5.6642 -1.6018 29.3167 3.3669
# 6 2.5396 4.0843 -7.2978 -1.6236 3.3669 39.8202
#
#
#
# Elastic Compliance Matrix: (Units=1/GPa)
#
#
# Indices 1 2 3 4 5 6 
#
# 1 0.013527 -0.002884 0.000527 -0.000526 0.003163 -0.000759
# 2 -0.002884 0.007902 -0.002490 -0.000531 -0.000588 -0.001055
# 3 0.000527 -0.002490 0.010060 -0.004193 0.001484 0.001769
# 4 -0.000526 -0.000531 -0.004193 0.027449 0.000488 0.000397
# 5 0.003163 -0.000588 0.001484 0.000488 0.035458 -0.002848
# 6 -0.000759 -0.001055 0.001769 0.000397 -0.002848 0.025851
#
#
# Mechanical properties :
#
#
# Convention : Reuss Voigt Hill
#
# Bulk Modulus (GPa) = 45.87872 56.24080 51.05976
# Shear Modulus (GPa) = 36.44137 40.18659 38.31398
#
# Velocity S-wave (km/s) = 4.05570 4.25901 4.15860
# Velocity P-wave (km/s) = 6.52994 7.04069 6.79011
#
# Compressibility (1/GPa) = 0.02179660
#
# Stress axis : x y z
#
# Youngs Moduli (GPa) = 73.92492 126.54435 99.39870
#
# Poissons Ratio (x) = 0.36493 -0.05238
# Poissons Ratio (y) = 0.21319 0.24749
# Poissons Ratio (z) = -0.03896 0.31508
#
# Static dielectric constant tensor:
#      x y z
#    x 4.205250 0.133990 0.061170 
#    y 0.133990 4.094800 -0.044240 
#    z 0.061170 -0.044240 3.843230 
# 
# 
# High freq. dielectric constant tensor:
#      x y z
#    x 1.887480 0.003340 -0.000730 
#    y 0.003340 1.890140 0.002940 
#    z -0.000730 0.002940 1.869940 
# 
# From -- ./inp_files/35124.got.cif
#   From: 2010.06.25/outbox.cif.g09.slc.cpg/sg2_18_cif.got.tgz:35124.got - 2010.06.27 13:26:56.
