data_PCOD8032750
_publ_section_title
;
Structure prediction by ZEFSAII (Michael W. Deem and Ramdas Pophale) SiO2 
 PCOD8032750
Probable space group: P -1
;
_chemical_formula_sum "Si O2"
_cell_formula_units_Z 16
_cell_length_a 14.487378
_cell_length_b 14.797984
_cell_length_c 9.004519
_cell_angle_alpha 134.581828
_cell_angle_beta 50.893143
_cell_angle_gamma 150.175657
_cell_volume 682.520262
_symmetry_space_group_name_H-M "P -1"
_symmetry_group_IT_number 2
_symmetry_cell_setting 'triclinic'
loop_
_space_group_symop_operation_xyz
x,y,z
-x,-y,-z
loop_
_atom_site_type_symbol
_atom_site_label
_atom_site_fract_x
_atom_site_fract_y
_atom_site_fract_z
Si Si1 0.018805 0.676168 0.354241
Si Si2 0.873084 0.449741 0.700840
Si Si3 0.689185 0.882364 0.402704
Si Si4 0.002618 0.256201 0.854424
Si Si5 0.630045 0.253986 0.271590
Si Si6 0.363049 0.402085 0.667304
Si Si7 0.376459 0.041599 0.021990
Si Si8 0.500687 0.733048 0.124136
O O1 0.012851 0.651702 0.154753
O O2 0.804797 0.485939 0.408233
O O3 0.151981 0.681610 0.302516
O O4 0.103578 0.886304 0.542940
O O5 0.675291 0.335393 0.707176
O O6 0.000000 0.500000 0.500000
O O7 0.962284 0.646302 0.912392
O O8 0.542701 0.869192 0.585327
O O9 0.670300 0.753778 0.389567
O O10 0.637415 0.798060 0.190529
O O11 0.161377 0.285459 0.683984
O O12 0.800084 0.021922 0.807636
O O13 0.562898 0.230124 0.142372
O O14 0.688218 0.155953 0.113452
O O15 0.500000 0.500000 0.500000
O O16 0.451759 0.572534 0.889123
O O17 0.398312 0.083804 0.874525
#
# Coordination Sequence:
#
# PCOD8032750 Si02
#       8
#     2   2   2   2   2   2   2   2
#     4  12  24  41  71 106 142 185 231 291 353 422
#     4  11  24  42  70 105 146 186 226 289 361 424
#     4  12  26  46  69 104 140 191 239 284 358 422
#     4  11  24  44  71 104 141 180 243 290 344 421
#     4  11  23  43  71 106 148 184 233 293 351 421
#     4  11  26  52  77  97 136 191 245 299 347 411
#     4  11  23  43  71 107 143 187 235 293 357 419
#     4  11  26  45  71 101 145 188 233 294 358 418
#
# _framework density 23.442525
#
# number of rings (size 3 to 8) (size 9 to 14) (size 15 to 20)
#    0.000    0.750    2.500    5.250    3.500    1.500 
#    2.250    0.625    0.000    0.000    0.000    0.000 
#    0.000    0.000    0.000    0.000    0.000    0.000 
#
# Total GULP energy -198361.670488 kJ/mol
# GULP energy per Si atom -12397.604405 kJ/mol
# Density = 2.338917 g / cm^3
# Si number density = 23.442525 Si / 1000 Ang^3
#
#
#
# Elastic Constant Matrix: (Units=GPa)
#
#
# Indices 1 2 3 4 5 6 
#
# 1 123.5428 68.0212 45.2322 7.0116 8.5127 -4.9605
# 2 68.0212 159.3230 50.1420 2.3556 -2.3870 10.0703
# 3 45.2322 50.1420 103.6760 -12.7182 -1.8624 6.6426
# 4 7.0116 2.3556 -12.7182 30.7099 5.0854 0.5297
# 5 8.5127 -2.3870 -1.8624 5.0854 33.4684 -6.4832
# 6 -4.9605 10.0703 6.6426 0.5297 -6.4832 31.3016
#
#
#
# Elastic Compliance Matrix: (Units=1/GPa)
#
#
# Indices 1 2 3 4 5 6 
#
# 1 0.012495 -0.004241 -0.004168 -0.003925 -0.002379 0.003803
# 2 -0.004241 0.009064 -0.002441 -0.000885 0.001179 -0.002811
# 3 -0.004168 -0.002441 0.013669 0.006841 0.000049 -0.002882
# 4 -0.003925 -0.000885 0.006841 0.037250 -0.005014 -0.003458
# 5 -0.002379 0.001179 0.000049 -0.005014 0.032505 0.006050
# 6 0.003803 -0.002811 -0.002882 -0.003458 0.006050 0.035377
#
#
# Mechanical properties :
#
#
# Convention : Reuss Voigt Hill
#
# Bulk Modulus (GPa) = 73.91822 79.25917 76.58870
# Shear Modulus (GPa) = 30.01779 33.97241 31.99510
#
# Velocity S-wave (km/s) = 3.58227 3.81094 3.69837
# Velocity P-wave (km/s) = 6.97928 7.29710 7.13996
#
# Compressibility (1/GPa) = 0.01352846
#
# Stress axis : x y z
#
# Youngs Moduli (GPa) = 80.03407 110.33193 73.15768
#
# Poissons Ratio (x) = 0.46787 0.30494
# Poissons Ratio (y) = 0.33939 0.17855
# Poissons Ratio (z) = 0.33360 0.26928
#
# Static dielectric constant tensor:
#      x y z
#    x 4.458220 0.169540 0.114630 
#    y 0.169540 4.237200 -0.034390 
#    z 0.114630 -0.034390 4.018510 
# 
# 
# High freq. dielectric constant tensor:
#      x y z
#    x 1.932880 0.007170 0.014600 
#    y 0.007170 1.935600 -0.004850 
#    z 0.014600 -0.004850 1.911810 
# 
# From -- ./inp_files/315830.got.cif
#   From: 2010.06.25/outbox.cif.g09.slc.cpg/sg2_158_cif.got.tgz:315830.got - 2010.06.27 13:26:56.
