data_PCOD8032939
_publ_section_title
;
Structure prediction by ZEFSAII (Michael W. Deem and Ramdas Pophale) SiO2 
 PCOD8032939
Probable space group: P -1
;
_chemical_formula_sum "Si O2"
_cell_formula_units_Z 16
_cell_length_a 11.406181
_cell_length_b 13.529404
_cell_length_c 7.047369
_cell_angle_alpha 112.916015
_cell_angle_beta 87.746561
_cell_angle_gamma 52.014001
_cell_volume 728.886637
_symmetry_space_group_name_H-M "P -1"
_symmetry_group_IT_number 2
_symmetry_cell_setting 'triclinic'
loop_
_space_group_symop_operation_xyz
x,y,z
-x,-y,-z
loop_
_atom_site_type_symbol
_atom_site_label
_atom_site_fract_x
_atom_site_fract_y
_atom_site_fract_z
Si Si1 0.681615 0.707243 0.349752
Si Si2 0.518776 0.329482 0.881914
Si Si3 0.328368 0.161885 0.895327
Si Si4 0.545042 0.125259 0.165571
Si Si5 0.208087 0.888598 0.049529
Si Si6 0.009428 0.581570 0.723909
Si Si7 0.403513 0.556605 0.354154
Si Si8 0.077974 0.781470 0.737487
O O1 0.575914 0.715086 0.204740
O O2 0.679277 0.823511 0.325649
O O3 0.605639 0.755821 0.599436
O O4 0.854608 0.542219 0.229492
O O5 0.512722 0.410707 0.763585
O O6 0.704884 0.187033 0.812272
O O7 0.427570 0.428545 0.150802
O O8 0.338527 0.031068 0.851057
O O9 0.478525 0.125343 0.967611
O O10 0.161199 0.316147 0.088888
O O11 0.656990 0.158969 0.149314
O O12 0.130189 0.824746 0.942377
O O13 0.081259 0.064003 0.224334
O O14 0.047083 0.678771 0.724457
O O15 0.000000 0.500000 0.500000
O O16 0.500000 0.500000 0.500000
O O17 0.215025 0.695363 0.503305
#
# Coordination Sequence:
#
# PCOD8032939 Si02
#       8
#     2   2   2   2   2   2   2   2
#     4  12  25  41  72 103 136 185 236 286 350 408
#     4  11  25  41  71 107 135 181 236 283 341 425
#     4  11  24  46  70  99 138 188 235 286 346 408
#     4  11  23  46  72  98 141 183 232 291 344 414
#     4  11  23  46  71 104 139 179 237 282 349 414
#     4  12  26  46  69 103 142 184 232 287 353 412
#     4  11  23  44  69 100 141 180 227 283 347 411
#     4  11  25  44  75  97 140 192 218 290 356 404
#
# _framework density 21.951288000000002
#
# number of rings (size 3 to 8) (size 9 to 14) (size 15 to 20)
#    0.000    0.750    5.000    2.250    5.250    0.500 
#    2.250    0.000    0.000    0.000    0.000    0.000 
#    0.000    0.000    0.000    0.000    0.000    0.000 
#
# Total GULP energy -198349.403817 kJ/mol
# GULP energy per Si atom -12396.837739 kJ/mol
# Density = 2.190133 g / cm^3
# Si number density = 21.951288 Si / 1000 Ang^3
#
#
#
# Elastic Constant Matrix: (Units=GPa)
#
#
# Indices 1 2 3 4 5 6 
#
# 1 76.9497 27.8474 16.6237 0.7061 8.3450 6.1104
# 2 27.8474 147.3001 36.3352 1.4628 5.2458 -9.5040
# 3 16.6237 36.3352 79.6500 -7.5263 -7.5218 -0.9936
# 4 0.7061 1.4628 -7.5263 33.8772 -5.6795 -4.8977
# 5 8.3450 5.2458 -7.5218 -5.6795 35.5452 6.3520
# 6 6.1104 -9.5040 -0.9936 -4.8977 6.3520 38.0757
#
#
#
# Elastic Compliance Matrix: (Units=1/GPa)
#
#
# Indices 1 2 3 4 5 6 
#
# 1 0.014982 -0.002203 -0.002661 -0.001791 -0.003566 -0.002659
# 2 -0.002203 0.008350 -0.003621 -0.001104 -0.002114 0.002554
# 3 -0.002661 -0.003621 0.015683 0.004526 0.005266 -0.000364
# 4 -0.001791 -0.001104 0.004526 0.032099 0.006091 0.003243
# 5 -0.003566 -0.002114 0.005266 0.006091 0.032156 -0.004399
# 6 -0.002659 0.002554 -0.000364 0.003243 -0.004399 0.028469
#
#
# Mechanical properties :
#
#
# Convention : Reuss Voigt Hill
#
# Bulk Modulus (GPa) = 45.36431 51.72361 48.54396
# Shear Modulus (GPa) = 32.03959 36.37253 34.20606
#
# Velocity S-wave (km/s) = 3.82459 4.07500 3.95178
# Velocity P-wave (km/s) = 6.34145 6.76424 6.55625
#
# Compressibility (1/GPa) = 0.02204376
#
# Stress axis : x y z
#
# Youngs Moduli (GPa) = 66.74736 119.76571 63.76387
#
# Poissons Ratio (x) = 0.26380 0.16969
# Poissons Ratio (y) = 0.14702 0.23092
# Poissons Ratio (z) = 0.17763 0.43372
#
# Static dielectric constant tensor:
#      x y z
#    x 4.016390 0.001390 -0.073670 
#    y 0.001390 4.339130 0.135760 
#    z -0.073670 0.135760 3.902760 
# 
# 
# High freq. dielectric constant tensor:
#      x y z
#    x 1.863570 0.002450 -0.004450 
#    y 0.002450 1.889440 0.001370 
#    z -0.004450 0.001370 1.849960 
# 
# From -- ./inp_files/78362.got.cif
#   From: 2010.06.25/outbox.cif.g09.slc.cpg/sg2_40_cif.got.tgz:78362.got - 2010.06.27 13:26:56.
