data_PCOD8032299
_publ_section_title
;
Structure prediction by ZEFSAII (Michael W. Deem and Ramdas Pophale) SiO2 
 PCOD8032299
Probable space group: P -1
;
_chemical_formula_sum "Si O2"
_cell_formula_units_Z 14
_cell_length_a 7.541800
_cell_length_b 12.131641
_cell_length_c 7.590965
_cell_angle_alpha 120.131857
_cell_angle_beta 117.694635
_cell_angle_gamma 82.035820
_cell_volume 527.778028
_symmetry_space_group_name_H-M "P -1"
_symmetry_group_IT_number 2
_symmetry_cell_setting 'triclinic'
loop_
_space_group_symop_operation_xyz
x,y,z
-x,-y,-z
loop_
_atom_site_type_symbol
_atom_site_label
_atom_site_fract_x
_atom_site_fract_y
_atom_site_fract_z
Si Si1 0.243121 0.776444 0.570114
Si Si2 0.721551 0.054019 0.589222
Si Si3 0.641266 0.660658 0.439172
Si Si4 0.486461 0.613783 0.767603
Si Si5 0.132503 0.404395 0.860564
Si Si6 0.047920 0.118723 0.241680
Si Si7 0.260598 0.681479 0.068675
O O1 0.293910 0.908570 0.593060
O O2 0.442130 0.707061 0.658111
O O3 0.083036 0.682364 0.304108
O O4 0.145207 0.812760 0.738895
O O5 0.819057 0.178327 0.855227
O O6 0.500000 0.000000 0.500000
O O7 0.857342 0.938137 0.582441
O O8 0.605223 0.533436 0.443939
O O9 0.745881 0.623330 0.278655
O O10 0.788416 0.774941 0.690344
O O11 0.426260 0.705573 0.323672
O O12 0.723725 0.624530 0.931879
O O13 0.360647 0.652860 0.908673
O O14 0.099777 0.557429 0.955002
O O15 0.000000 0.000000 0.000000
#
# Coordination Sequence:
#
# PCOD8032299 Si02
#       7
#     2   2   2   2   2   2   2
#     4  11  24  42  64  99 131 162 218 274 316 370
#     4  12  25  43  64  86 133 182 211 259 319 378
#     4   8  16  35  65  93 130 162 206 264 322 380
#     4   9  18  38  69  98 121 163 209 268 333 379
#     4   8  18  36  65  98 126 161 206 272 324 375
#     4  11  23  42  64  95 129 171 218 257 312 389
#     4   9  17  37  65  93 124 169 212 250 327 388
#
# _framework density 26.526304
#
# number of rings (size 3 to 8) (size 9 to 14) (size 15 to 20)
#    0.000    2.286    1.429    3.000    0.000    6.857 
#    2.571    4.286    0.000    0.000    0.000    0.000 
#    0.000    0.000    0.000    0.000    0.000    0.000 
#
# Total GULP energy -173578.355967 kJ/mol
# GULP energy per Si atom -12398.453998 kJ/mol
# Density = 2.646593 g / cm^3
# Si number density = 26.526304 Si / 1000 Ang^3
#
#
#
# Elastic Constant Matrix: (Units=GPa)
#
#
# Indices 1 2 3 4 5 6 
#
# 1 63.9685 34.3994 24.2870 4.8193 23.2042 -0.3357
# 2 34.3994 141.4705 42.5132 -0.7665 18.1610 4.3524
# 3 24.2870 42.5132 125.8919 19.3762 14.8443 5.9471
# 4 4.8193 -0.7665 19.3762 48.9792 -3.7992 1.1952
# 5 23.2042 18.1610 14.8443 -3.7992 32.8851 6.1879
# 6 -0.3357 4.3524 5.9471 1.1952 6.1879 51.7611
#
#
#
# Elastic Compliance Matrix: (Units=1/GPa)
#
#
# Indices 1 2 3 4 5 6 
#
# 1 0.023719 -0.003558 -0.001236 -0.003127 -0.015039 0.002465
# 2 -0.003558 0.008794 -0.002347 0.001344 -0.001057 -0.000398
# 3 -0.001236 -0.002347 0.009938 -0.004042 -0.002683 -0.000538
# 4 -0.003127 0.001344 -0.004042 0.022840 0.006102 -0.000926
# 5 -0.015039 -0.001057 -0.002683 0.006102 0.044491 -0.005160
# 6 0.002465 -0.000398 -0.000538 -0.000926 -0.005160 0.020069
#
#
# Mechanical properties :
#
#
# Convention : Reuss Voigt Hill
#
# Bulk Modulus (GPa) = 35.49968 59.30335 47.40152
# Shear Modulus (GPa) = 32.56814 42.06716 37.31765
#
# Velocity S-wave (km/s) = 3.50775 3.98661 3.75482
# Velocity P-wave (km/s) = 5.46055 6.60271 6.05861
#
# Compressibility (1/GPa) = 0.02816927
#
# Stress axis : x y z
#
# Youngs Moduli (GPa) = 42.15992 113.71157 100.62172
#
# Poissons Ratio (x) = 0.40461 0.12439
# Poissons Ratio (y) = 0.15001 0.23614
# Poissons Ratio (z) = 0.05212 0.26686
#
# Static dielectric constant tensor:
#      x y z
#    x 5.153580 -0.105080 0.055080 
#    y -0.105080 5.556300 0.159340 
#    z 0.055080 0.159340 4.758900 
# 
# 
# High freq. dielectric constant tensor:
#      x y z
#    x 2.091700 -0.002170 -0.023390 
#    y -0.002170 2.076280 0.007110 
#    z -0.023390 0.007110 2.051680 
# 
# From -- ./inp_files/190532.got.cif
#   From: 2010.06.25/outbox.cif.g09.slc.cpg/sg2_96_cif.got.tgz:190532.got - 2010.06.27 13:26:56.
