data_PCOD8032018
_publ_section_title
;
Structure prediction by ZEFSAII (Michael W. Deem and Ramdas Pophale) SiO2 
 PCOD8032018
Probable space group: P -1
;
_chemical_formula_sum "Si O2"
_cell_formula_units_Z 16
_cell_length_a 27.070945
_cell_length_b 10.878391
_cell_length_c 9.886839
_cell_angle_alpha 42.065889
_cell_angle_beta 150.961797
_cell_angle_gamma 147.210038
_cell_volume 765.058284
_symmetry_space_group_name_H-M "P -1"
_symmetry_group_IT_number 2
_symmetry_cell_setting 'triclinic'
loop_
_space_group_symop_operation_xyz
x,y,z
-x,-y,-z
loop_
_atom_site_type_symbol
_atom_site_label
_atom_site_fract_x
_atom_site_fract_y
_atom_site_fract_z
Si Si1 0.399186 0.437376 0.198365
Si Si2 0.611989 0.190818 0.024853
Si Si3 0.604202 0.189371 0.697305
Si Si4 0.128911 0.729800 0.409203
Si Si5 0.017942 0.790148 0.579552
Si Si6 0.865547 0.985546 0.048257
Si Si7 0.210138 0.927067 0.711902
Si Si8 0.425148 0.431337 0.740739
O O1 0.500000 0.500000 0.500000
O O2 0.340653 0.570705 0.989491
O O3 0.470297 0.510073 0.167251
O O4 0.282452 0.171824 0.138353
O O5 0.559740 0.150074 0.779334
O O6 0.725540 0.171267 0.325403
O O7 0.500000 0.000000 0.000000
O O8 0.635935 0.432370 0.535024
O O9 0.500000 0.000000 0.500000
O O10 0.727798 0.193302 0.980767
O O11 0.034622 0.466617 0.365092
O O12 0.105584 0.771779 0.473254
O O13 0.107151 0.870681 0.137970
O O14 0.913824 0.831354 0.262311
O O15 0.140474 0.955886 0.644118
O O16 0.056744 0.839324 0.788287
O O17 0.313856 0.166127 0.694067
O O18 0.500000 0.500000 0.000000
#
# Coordination Sequence:
#
# PCOD8032018 Si02
#       8
#     2   2   2   2   2   2   2   2
#     4  12  22  42  69  98 137 175 216 281 338 390
#     4  11  23  40  65  99 134 172 223 275 334 399
#     4  11  24  42  63  97 140 175 217 274 336 399
#     4  11  24  43  67  97 130 169 231 277 329 397
#     4  11  25  48  66  95 136 178 224 277 328 397
#     4  11  25  44  69  98 133 177 223 275 336 398
#     4  11  25  43  68  97 133 178 227 272 334 399
#     4  12  24  41  64  98 139 178 220 272 338 403
#
# _framework density 20.913437999999999
#
# number of rings (size 3 to 8) (size 9 to 14) (size 15 to 20)
#    0.000    0.750    3.750    4.500    0.000    1.500 
#    0.000    0.000    0.000    0.000    0.000    0.000 
#    0.000    0.000    0.000    0.000    0.000    0.000 
#
# Total GULP energy -198418.865348 kJ/mol
# GULP energy per Si atom -12401.179084 kJ/mol
# Density = 2.086584 g / cm^3
# Si number density = 20.913438 Si / 1000 Ang^3
#
#
#
# Elastic Constant Matrix: (Units=GPa)
#
#
# Indices 1 2 3 4 5 6 
#
# 1 110.4225 19.9453 42.9726 -0.7608 -11.4209 2.6952
# 2 19.9453 96.8849 40.5491 0.5804 -2.7364 -5.7531
# 3 42.9726 40.5491 132.9937 -11.0402 -18.1123 -2.6979
# 4 -0.7608 0.5804 -11.0402 29.1846 -1.8443 -0.0609
# 5 -11.4209 -2.7364 -18.1123 -1.8443 33.2405 2.4073
# 6 2.6952 -5.7531 -2.6979 -0.0609 2.4073 36.9274
#
#
#
# Elastic Compliance Matrix: (Units=1/GPa)
#
#
# Indices 1 2 3 4 5 6 
#
# 1 0.010611 -0.000967 -0.002942 -0.000692 0.002017 -0.001273
# 2 -0.000967 0.012149 -0.003718 -0.001770 -0.001586 0.001792
# 3 -0.002942 -0.003718 0.010602 0.004304 0.004691 0.000111
# 4 -0.000692 -0.001770 0.004304 0.036161 0.003976 -0.000110
# 5 0.002017 -0.001586 0.004691 0.003976 0.033584 -0.002234
# 6 -0.001273 0.001792 0.000111 -0.000110 -0.002234 0.027606
#
#
# Mechanical properties :
#
#
# Convention : Reuss Voigt Hill
#
# Bulk Modulus (GPa) = 55.23026 60.80390 58.01708
# Shear Modulus (GPa) = 32.89386 35.65946 34.27666
#
# Velocity S-wave (km/s) = 3.97023 4.13376 4.05282
# Velocity P-wave (km/s) = 6.89081 7.20564 7.04998
#
# Compressibility (1/GPa) = 0.01810602
#
# Stress axis : x y z
#
# Youngs Moduli (GPa) = 94.24405 82.31076 94.32297
#
# Poissons Ratio (x) = 0.07963 0.27752
# Poissons Ratio (y) = 0.09118 0.35071
# Poissons Ratio (z) = 0.27728 0.30605
#
# Static dielectric constant tensor:
#      x y z
#    x 3.171310 -0.257130 0.180870 
#    y -0.257130 3.577300 -0.037900 
#    z 0.180870 -0.037900 3.936060 
# 
# 
# High freq. dielectric constant tensor:
#      x y z
#    x 1.830630 -0.011140 -0.008140 
#    y -0.011140 1.822060 -0.002430 
#    z -0.008140 -0.002430 1.826930 
# 
# From -- ./inp_files/226388.got.cif
#   From: 2010.06.25/outbox.cif.g09.slc.cpg/sg2_114_cif.got.tgz:226388.got - 2010.06.27 13:26:56.
