data_PCOD8032301
_publ_section_title
;
Structure prediction by ZEFSAII (Michael W. Deem and Ramdas Pophale) SiO2 
 PCOD8032301
Probable space group: P -1
;
_chemical_formula_sum "Si O2"
_cell_formula_units_Z 14
_cell_length_a 6.950240
_cell_length_b 14.664082
_cell_length_c 14.415349
_cell_angle_alpha 28.241768
_cell_angle_beta 108.539547
_cell_angle_gamma 98.760968
_cell_volume 631.827527
_symmetry_space_group_name_H-M "P -1"
_symmetry_group_IT_number 2
_symmetry_cell_setting 'triclinic'
loop_
_space_group_symop_operation_xyz
x,y,z
-x,-y,-z
loop_
_atom_site_type_symbol
_atom_site_label
_atom_site_fract_x
_atom_site_fract_y
_atom_site_fract_z
Si Si1 0.858322 0.442238 0.109108
Si Si2 0.526130 0.473661 0.756691
Si Si3 0.123966 0.650693 0.417682
Si Si4 0.471179 0.751326 0.860317
Si Si5 0.276968 0.195334 0.481380
Si Si6 0.286914 0.158448 0.732302
Si Si7 0.367554 0.745157 0.204294
O O1 0.702298 0.322536 0.155278
O O2 0.025159 0.289311 0.339981
O O3 0.710549 0.646508 0.952529
O O4 0.000000 0.500000 0.000000
O O5 0.295061 0.553068 0.607959
O O6 0.603119 0.640008 0.676139
O O7 0.674909 0.395017 0.759705
O O8 0.531669 0.297477 0.987593
O O9 0.195099 0.766838 0.238882
O O10 0.000000 0.500000 0.500000
O O11 0.955484 0.814582 0.304384
O O12 0.393537 0.994336 0.621227
O O13 0.320255 0.153243 0.633222
O O14 0.398134 0.325698 0.644452
O O15 0.396812 0.941141 0.984328
#
# Coordination Sequence:
#
# PCOD8032301 Si02
#       7
#     2   2   2   2   2   2   2
#     4  11  25  51  77 104 137 177 227 292 358 425
#     4  12  23  45  67 100 141 182 235 282 341 417
#     4  12  23  39  64  94 137 192 234 281 339 397
#     4  11  26  49  74 105 140 176 230 289 353 427
#     4  12  24  47  74 103 143 184 229 291 353 410
#     4  11  23  42  65  96 138 185 235 283 342 409
#     4  11  23  42  64  95 141 185 234 285 335 405
#
# _framework density 22.157945999999999
#
# number of rings (size 3 to 8) (size 9 to 14) (size 15 to 20)
#    0.000    0.571    5.714    3.000    0.000    0.571 
#   10.286    0.000    0.000    0.000    0.000    0.000 
#    0.000    0.000    0.000    0.000    0.000    0.000 
#
# Total GULP energy -173469.547703 kJ/mol
# GULP energy per Si atom -12390.681979 kJ/mol
# Density = 2.210751 g / cm^3
# Si number density = 22.157946 Si / 1000 Ang^3
#
#
#
# Elastic Constant Matrix: (Units=GPa)
#
#
# Indices 1 2 3 4 5 6 
#
# 1 105.1599 27.7810 24.3572 -5.0054 14.6856 3.6629
# 2 27.7810 92.9341 32.6193 -10.0500 15.0554 16.4900
# 3 24.3572 32.6193 79.3144 -3.7204 14.4570 5.9264
# 4 -5.0054 -10.0500 -3.7204 38.3267 -4.2012 6.4231
# 5 14.6856 15.0554 14.4570 -4.2012 40.8760 2.3837
# 6 3.6629 16.4900 5.9264 6.4231 2.3837 27.7358
#
#
#
# Elastic Compliance Matrix: (Units=1/GPa)
#
#
# Indices 1 2 3 4 5 6 
#
# 1 0.010892 -0.002204 -0.002023 0.000314 -0.002379 0.000436
# 2 -0.002204 0.015373 -0.004348 0.004532 -0.002355 -0.008766
# 3 -0.002023 -0.004348 0.015603 -0.000215 -0.003203 -0.000157
# 4 0.000314 0.004532 -0.000215 0.029109 0.001845 -0.009590
# 5 -0.002379 -0.002355 -0.003203 0.001845 0.027532 -0.000395
# 6 0.000436 -0.008766 -0.000157 -0.009590 -0.000395 0.043497
#
#
# Mechanical properties :
#
#
# Convention : Reuss Voigt Hill
#
# Bulk Modulus (GPa) = 40.45708 49.65817 45.05762
# Shear Modulus (GPa) = 29.86935 34.23109 32.05022
#
# Velocity S-wave (km/s) = 3.67552 3.93474 3.80734
# Velocity P-wave (km/s) = 6.02584 6.56526 6.30132
#
# Compressibility (1/GPa) = 0.02471756
#
# Stress axis : x y z
#
# Youngs Moduli (GPa) = 91.80967 65.05091 64.08998
#
# Poissons Ratio (x) = 0.14337 0.12963
# Poissons Ratio (y) = 0.20234 0.27869
# Poissons Ratio (z) = 0.18570 0.28287
#
# Static dielectric constant tensor:
#      x y z
#    x 4.346830 0.043560 0.308090 
#    y 0.043560 4.023270 0.016220 
#    z 0.308090 0.016220 4.238420 
# 
# 
# High freq. dielectric constant tensor:
#      x y z
#    x 1.870120 0.000780 0.002060 
#    y 0.000780 1.878530 0.008150 
#    z 0.002060 0.008150 1.883370 
# 
# From -- ./inp_files/335345.got.cif
#   From: 2010.06.25/outbox.cif.g09.slc.cpg/sg2_168_cif.got.tgz:335345.got - 2010.06.27 13:26:56.
