data_PCOD8032249
_publ_section_title
;
Structure prediction by ZEFSAII (Michael W. Deem and Ramdas Pophale) SiO2 
 PCOD8032249
Probable space group: P -1
;
_chemical_formula_sum "Si O2"
_cell_formula_units_Z 16
_cell_length_a 17.513098
_cell_length_b 8.974064
_cell_length_c 12.156129
_cell_angle_alpha 143.059033
_cell_angle_beta 50.475097
_cell_angle_gamma 102.364718
_cell_volume 683.940937
_symmetry_space_group_name_H-M "P -1"
_symmetry_group_IT_number 2
_symmetry_cell_setting 'triclinic'
loop_
_space_group_symop_operation_xyz
x,y,z
-x,-y,-z
loop_
_atom_site_type_symbol
_atom_site_label
_atom_site_fract_x
_atom_site_fract_y
_atom_site_fract_z
Si Si1 0.315203 0.291720 0.917816
Si Si2 0.838501 0.927804 0.127124
Si Si3 0.010373 0.760045 0.685971
Si Si4 0.715720 0.539321 0.712636
Si Si5 0.413106 0.317271 0.629566
Si Si6 0.340354 0.220780 0.415672
Si Si7 0.455435 0.793405 0.860253
Si Si8 0.959195 0.359689 0.041658
O O1 0.201730 0.274913 0.001569
O O2 0.313504 0.457175 0.905201
O O3 0.447742 0.935010 0.595318
O O4 0.295708 0.485078 0.159596
O O5 0.717503 0.262959 0.492165
O O6 0.893828 0.998552 0.017001
O O7 0.958334 0.699599 0.963176
O O8 0.000000 0.500000 0.500000
O O9 0.147539 0.557928 0.500364
O O10 0.995711 0.018002 0.766620
O O11 0.608256 0.895181 0.976031
O O12 0.378373 0.171540 0.481286
O O13 0.410717 0.596022 0.743242
O O14 0.391318 0.395987 0.411783
O O15 0.191240 0.397118 0.647707
O O16 0.416114 0.885675 0.079491
O O17 0.000000 0.500000 0.000000
#
# Coordination Sequence:
#
# PCOD8032249 Si02
#       8
#     2   2   2   2   2   2   2   2
#     4  11  25  43  66  97 141 178 226 276 345 408
#     4  11  24  46  70  97 137 183 225 281 335 411
#     4  11  23  41  71  99 132 183 231 279 333 408
#     4  11  23  43  69 101 133 177 233 278 338 411
#     4  11  26  43  64 101 138 179 220 286 342 401
#     4  11  24  44  69 100 136 175 228 279 344 406
#     4  11  25  40  73 103 129 179 229 285 341 403
#     4  11  25  45  69 100 139 181 226 284 342 407
#
# _framework density 23.393830999999999
#
# number of rings (size 3 to 8) (size 9 to 14) (size 15 to 20)
#    0.000    1.000    2.500    4.125    7.000    3.000 
#    0.000    3.125    0.000    0.000    0.000    0.000 
#    0.000    0.000    0.000    0.000    0.000    0.000 
#
# Total GULP energy -198217.239280 kJ/mol
# GULP energy per Si atom -12388.577455 kJ/mol
# Density = 2.334059 g / cm^3
# Si number density = 23.393831 Si / 1000 Ang^3
#
#
#
# Elastic Constant Matrix: (Units=GPa)
#
#
# Indices 1 2 3 4 5 6 
#
# 1 84.9725 34.5848 23.0350 -3.9578 2.1656 -2.6904
# 2 34.5848 130.2496 44.0623 -14.9310 2.3261 1.8406
# 3 23.0350 44.0623 90.3052 -21.0607 -0.2900 -0.2464
# 4 -3.9578 -14.9310 -21.0607 37.1268 -2.4934 6.7340
# 5 2.1656 2.3261 -0.2900 -2.4934 45.2265 -8.6594
# 6 -2.6904 1.8406 -0.2464 6.7340 -8.6594 32.0210
#
#
#
# Elastic Compliance Matrix: (Units=1/GPa)
#
#
# Indices 1 2 3 4 5 6 
#
# 1 0.013611 -0.003001 -0.002323 -0.001367 -0.000300 0.001505
# 2 -0.003001 0.009955 -0.003675 0.001813 -0.000557 -0.001384
# 3 -0.002323 -0.003675 0.015115 0.007106 0.000557 -0.001211
# 4 -0.001367 0.001813 0.007106 0.032841 0.000500 -0.006935
# 5 -0.000300 -0.000557 0.000557 0.000500 0.023377 0.006228
# 6 0.001505 -0.001384 -0.001211 -0.006935 0.006228 0.034569
#
#
# Mechanical properties :
#
#
# Convention : Reuss Voigt Hill
#
# Bulk Modulus (GPa) = 48.34806 56.54352 52.44579
# Shear Modulus (GPa) = 32.39186 36.46453 34.42819
#
# Velocity S-wave (km/s) = 3.72510 3.95235 3.84041
# Velocity P-wave (km/s) = 6.26209 6.71199 6.49094
#
# Compressibility (1/GPa) = 0.02068335
#
# Stress axis : x y z
#
# Youngs Moduli (GPa) = 73.46817 100.45464 66.16034
#
# Poissons Ratio (x) = 0.30144 0.15372
# Poissons Ratio (y) = 0.22046 0.24311
# Poissons Ratio (z) = 0.17070 0.36912
#
# Static dielectric constant tensor:
#      x y z
#    x 4.417780 0.033420 -0.044260 
#    y 0.033420 4.258830 -0.307930 
#    z -0.044260 -0.307930 4.363680 
# 
# 
# High freq. dielectric constant tensor:
#      x y z
#    x 1.937080 0.004260 -0.003390 
#    y 0.004260 1.907340 -0.021930 
#    z -0.003390 -0.021930 1.926420 
# 
# From -- ./inp_files/462565.got.cif
#   From: 2010.06.25/outbox.cif.g09.slc.cpg/sg2_232_cif.got.tgz:462565.got - 2010.06.27 13:26:56.
