data_PCOD8032530
_publ_section_title
;
Structure prediction by ZEFSAII (Michael W. Deem and Ramdas Pophale) SiO2 
 PCOD8032530
Probable space group: P -1
;
_chemical_formula_sum "Si O2"
_cell_formula_units_Z 14
_cell_length_a 9.690404
_cell_length_b 11.847916
_cell_length_c 9.348266
_cell_angle_alpha 98.148515
_cell_angle_beta 43.717712
_cell_angle_gamma 118.205729
_cell_volume 617.476000
_symmetry_space_group_name_H-M "P -1"
_symmetry_group_IT_number 2
_symmetry_cell_setting 'triclinic'
loop_
_space_group_symop_operation_xyz
x,y,z
-x,-y,-z
loop_
_atom_site_type_symbol
_atom_site_label
_atom_site_fract_x
_atom_site_fract_y
_atom_site_fract_z
Si Si1 0.901106 0.275710 0.609086
Si Si2 0.567909 0.513554 0.788254
Si Si3 0.002194 0.071304 0.367273
Si Si4 0.635874 0.392808 0.279007
Si Si5 0.029593 0.689815 0.109920
Si Si6 0.783601 0.835321 0.268358
Si Si7 0.586200 0.770893 0.121433
O O1 0.683475 0.280384 0.714064
O O2 0.149161 0.415347 0.419886
O O3 0.884418 0.154114 0.510629
O O4 0.873690 0.250541 0.794408
O O5 0.477977 0.594377 0.780296
O O6 0.425214 0.357521 0.819020
O O7 0.500000 0.500000 0.000000
O O8 0.268247 0.174603 0.125810
O O9 0.000000 0.000000 0.500000
O O10 0.851585 0.960717 0.341121
O O11 0.794329 0.537904 0.264771
O O12 0.434368 0.299708 0.523728
O O13 0.777322 0.320410 0.126792
O O14 0.987821 0.801410 0.090342
O O15 0.719773 0.876775 0.171305
#
# Coordination Sequence:
#
# PCOD8032530 Si02
#       7
#     2   2   2   2   2   2   2
#     4  12  26  45  73 107 138 186 233 285 358 418
#     4  12  22  43  72 103 148 174 227 294 351 408
#     4  12  27  49  72  99 142 190 241 287 341 415
#     4  11  24  43  72 107 139 185 227 293 349 420
#     4  11  23  42  74 106 136 184 234 276 361 414
#     4  12  25  48  72 101 146 183 236 286 346 415
#     4  12  28  45  73 105 143 185 232 294 351 410
#
# _framework density 22.672947000000001
#
# number of rings (size 3 to 8) (size 9 to 14) (size 15 to 20)
#    0.000    0.286    5.714    3.000    2.000    5.714 
#    0.000    0.000    0.000    0.000    0.000    0.000 
#    0.000    0.000    0.000    0.000    0.000    0.000 
#
# Total GULP energy -173578.942349 kJ/mol
# GULP energy per Si atom -12398.495882 kJ/mol
# Density = 2.262134 g / cm^3
# Si number density = 22.672947 Si / 1000 Ang^3
#
#
#
# Elastic Constant Matrix: (Units=GPa)
#
#
# Indices 1 2 3 4 5 6 
#
# 1 123.4301 23.8757 45.1396 2.9502 7.0253 16.2461
# 2 23.8757 99.4167 27.6556 20.1992 1.3030 6.3345
# 3 45.1396 27.6556 84.7712 5.8909 6.2094 -11.7352
# 4 2.9502 20.1992 5.8909 33.2381 1.3162 11.9888
# 5 7.0253 1.3030 6.2094 1.3162 33.7519 0.6997
# 6 16.2461 6.3345 -11.7352 11.9888 0.6997 29.4230
#
#
#
# Elastic Compliance Matrix: (Units=1/GPa)
#
#
# Indices 1 2 3 4 5 6 
#
# 1 0.013096 -0.001043 -0.008718 0.005662 -0.001038 -0.012766
# 2 -0.001043 0.012621 -0.003228 -0.006784 0.000603 -0.000679
# 3 -0.008718 -0.003228 0.020369 -0.006721 -0.001886 0.016416
# 4 0.005662 -0.006784 -0.006721 0.042780 -0.000898 -0.021757
# 5 -0.001038 0.000603 -0.001886 -0.000898 0.030216 -0.000662
# 6 -0.012766 -0.000679 0.016416 -0.021757 -0.000662 0.056610
#
#
# Mechanical properties :
#
#
# Convention : Reuss Voigt Hill
#
# Bulk Modulus (GPa) = 49.73331 55.66221 52.69776
# Shear Modulus (GPa) = 23.99524 33.34574 28.67049
#
# Velocity S-wave (km/s) = 3.25671 3.83917 3.55987
# Velocity P-wave (km/s) = 6.01035 6.65249 6.33955
#
# Compressibility (1/GPa) = 0.02010725
#
# Stress axis : x y z
#
# Youngs Moduli (GPa) = 76.36111 79.23225 49.09313
#
# Poissons Ratio (x) = 0.08268 0.42797
# Poissons Ratio (y) = 0.07968 0.15850
# Poissons Ratio (z) = 0.66568 0.25580
#
# Static dielectric constant tensor:
#      x y z
#    x 3.876780 -0.629300 0.703380 
#    y -0.629300 2.576600 1.421320 
#    z 0.703380 1.421320 -1.075190 
# 
# 
# High freq. dielectric constant tensor:
#      x y z
#    x 1.895690 0.012380 0.007100 
#    y 0.012380 1.906030 0.010230 
#    z 0.007100 0.010230 1.900890 
# 
# From -- ./inp_files/188254.got.cif
#   From: 2010.06.25/outbox.cif.g09.slc.cpg/sg2_95_cif.got.tgz:188254.got - 2010.06.27 13:26:56.
