data_PCOD8032187
_publ_section_title
;
Structure prediction by ZEFSAII (Michael W. Deem and Ramdas Pophale) SiO2 
 PCOD8032187
Probable space group: P -1
;
_chemical_formula_sum "Si O2"
_cell_formula_units_Z 14
_cell_length_a 15.481807
_cell_length_b 15.451976
_cell_length_c 9.567833
_cell_angle_alpha 35.805545
_cell_angle_beta 141.320217
_cell_angle_gamma 150.056510
_cell_volume 644.168643
_symmetry_space_group_name_H-M "P -1"
_symmetry_group_IT_number 2
_symmetry_cell_setting 'triclinic'
loop_
_space_group_symop_operation_xyz
x,y,z
-x,-y,-z
loop_
_atom_site_type_symbol
_atom_site_label
_atom_site_fract_x
_atom_site_fract_y
_atom_site_fract_z
Si Si1 0.800223 0.494698 0.598347
Si Si2 0.582368 0.011890 0.443980
Si Si3 0.652896 0.081532 0.974755
Si Si4 0.556144 0.664559 0.748694
Si Si5 0.918366 0.833201 0.825846
Si Si6 0.969711 0.327290 0.607831
Si Si7 0.993426 0.810613 0.650435
O O1 0.789996 0.311593 0.831843
O O2 0.600329 0.426070 0.446171
O O3 0.875290 0.594922 0.410914
O O4 0.921651 0.627557 0.706924
O O5 0.458490 0.023675 0.168490
O O6 0.575969 0.833122 0.635684
O O7 0.500000 0.000000 0.500000
O O8 0.787046 0.206412 0.445856
O O9 0.789810 0.044479 0.237866
O O10 0.500000 0.000000 0.000000
O O11 0.733218 0.743002 0.786015
O O12 0.500000 0.500000 0.000000
O O13 0.887301 0.735936 0.762039
O O14 0.036619 0.060565 0.646519
O O15 0.034486 0.807237 0.107659
O O16 0.000000 0.500000 0.500000
#
# Coordination Sequence:
#
# PCOD8032187 Si02
#       7
#     2   2   2   2   2   2   2
#     4  11  23  41  68  98 129 178 233 279 338 405
#     4  11  25  43  69 100 132 180 226 280 342 401
#     4  11  23  45  66  96 139 177 225 280 342 409
#     4  11  23  43  65 100 139 174 224 283 344 400
#     4  11  25  43  66  95 141 177 223 289 344 408
#     4  12  24  43  70 100 134 178 234 288 338 405
#     4  11  24  43  66 100 135 181 228 277 345 411
#
# _framework density 21.733440000000002
#
# number of rings (size 3 to 8) (size 9 to 14) (size 15 to 20)
#    0.000    0.857    1.429    7.286    2.000    2.857 
#    0.000    0.000    0.000    0.000    0.000    0.000 
#    0.000    0.000    0.000    0.000    0.000    0.000 
#
# Total GULP energy -173583.438694 kJ/mol
# GULP energy per Si atom -12398.817050 kJ/mol
# Density = 2.168397 g / cm^3
# Si number density = 21.733440 Si / 1000 Ang^3
#
#
#
# Elastic Constant Matrix: (Units=GPa)
#
#
# Indices 1 2 3 4 5 6 
#
# 1 151.1064 41.1962 26.9817 12.2146 -13.2323 0.6623
# 2 41.1962 124.3282 45.0563 21.1624 -2.1801 -10.8151
# 3 26.9817 45.0563 102.8568 9.4678 -6.2176 -8.6449
# 4 12.2146 21.1624 9.4678 35.1896 6.4007 -6.1442
# 5 -13.2323 -2.1801 -6.2176 6.4007 39.4052 3.0106
# 6 0.6623 -10.8151 -8.6449 -6.1442 3.0106 30.8836
#
#
#
# Elastic Compliance Matrix: (Units=1/GPa)
#
#
# Indices 1 2 3 4 5 6 
#
# 1 0.007750 -0.001976 -0.000959 -0.002073 0.002817 -0.001814
# 2 -0.001976 0.010992 -0.003714 -0.004577 -0.000047 0.001946
# 3 -0.000959 -0.003714 0.011882 -0.000551 0.001299 0.001810
# 4 -0.002073 -0.004577 -0.000551 0.034335 -0.007057 0.005806
# 5 0.002817 -0.000047 0.001299 -0.007057 0.027966 -0.003843
# 6 -0.001814 0.001946 0.001810 0.005806 -0.003843 0.035136
#
#
# Mechanical properties :
#
#
# Convention : Reuss Voigt Hill
#
# Bulk Modulus (GPa) = 57.71957 67.19554 62.45755
# Shear Modulus (GPa) = 33.98264 38.76616 36.37440
#
# Velocity S-wave (km/s) = 3.95854 4.22798 4.09548
# Velocity P-wave (km/s) = 6.89268 7.40403 7.15292
#
# Compressibility (1/GPa) = 0.01732515
#
# Stress axis : x y z
#
# Youngs Moduli (GPa) = 129.03265 90.97890 84.15983
#
# Poissons Ratio (x) = 0.17978 0.08069
# Poissons Ratio (y) = 0.25498 0.31261
# Poissons Ratio (z) = 0.12371 0.33794
#
# Static dielectric constant tensor:
#      x y z
#    x 4.054220 0.113360 0.015940 
#    y 0.113360 3.965950 0.145000 
#    z 0.015940 0.145000 4.075770 
# 
# 
# High freq. dielectric constant tensor:
#      x y z
#    x 1.865360 0.007360 -0.003750 
#    y 0.007360 1.849220 0.005800 
#    z -0.003750 0.005800 1.868270 
# 
# From -- ./inp_files/157477.got.cif
#   From: 2010.06.25/outbox.cif.g09.slc.cpg/sg2_79_cif.got.tgz:157477.got - 2010.06.27 13:26:56.
