data_PCOD8032404
_publ_section_title
;
Structure prediction by ZEFSAII (Michael W. Deem and Ramdas Pophale) SiO2 
 PCOD8032404
Probable space group: P -1
;
_chemical_formula_sum "Si O2"
_cell_formula_units_Z 16
_cell_length_a 19.488676
_cell_length_b 17.704846
_cell_length_c 9.981447
_cell_angle_alpha 34.517235
_cell_angle_beta 151.904779
_cell_angle_gamma 150.926606
_cell_volume 766.760435
_symmetry_space_group_name_H-M "P -1"
_symmetry_group_IT_number 2
_symmetry_cell_setting 'triclinic'
loop_
_space_group_symop_operation_xyz
x,y,z
-x,-y,-z
loop_
_atom_site_type_symbol
_atom_site_label
_atom_site_fract_x
_atom_site_fract_y
_atom_site_fract_z
Si Si1 0.955956 0.624730 0.075305
Si Si2 0.580844 0.906691 0.710302
Si Si3 0.424917 0.530012 0.456164
Si Si4 0.149400 0.969146 0.790464
Si Si5 0.390956 0.109396 0.754694
Si Si6 0.935336 0.617370 0.357427
Si Si7 0.702408 0.084883 0.391014
Si Si8 0.558762 0.447172 0.049387
O O1 0.926657 0.658784 0.127095
O O2 0.058042 0.537809 0.386486
O O3 0.772804 0.520271 0.834436
O O4 0.081939 0.787559 0.973904
O O5 0.451678 0.720515 0.716963
O O6 0.500000 0.000000 0.500000
O O7 0.689565 0.995351 0.635656
O O8 0.706771 0.909488 0.034449
O O9 0.500000 0.500000 0.500000
O O10 0.556376 0.714996 0.446131
O O11 0.432415 0.430849 0.736149
O O12 0.226376 0.011635 0.711793
O O13 0.000000 0.000000 0.500000
O O14 0.335794 0.021382 0.648121
O O15 0.558639 0.128346 0.086962
O O16 0.761280 0.585555 0.173044
O O17 0.102537 0.761442 0.509909
O O18 0.500000 0.500000 0.000000
#
# Coordination Sequence:
#
# PCOD8032404 Si02
#       8
#     2   2   2   2   2   2   2   2
#     4  11  23  42  69 105 133 173 243 288 328 401
#     4  12  24  45  73 100 136 186 239 278 334 420
#     4  12  23  44  71  99 139 183 225 276 349 411
#     4  12  25  41  67 104 136 177 229 286 337 402
#     4  11  25  44  67 103 140 178 222 282 355 409
#     4  11  24  43  71 101 133 180 233 286 337 406
#     4  11  24  45  71  99 137 179 227 287 344 405
#     4  12  28  46  68 105 145 182 223 287 359 411
#
# _framework density 20.867013
#
# number of rings (size 3 to 8) (size 9 to 14) (size 15 to 20)
#    0.000    0.500    5.000    3.750    1.750    2.000 
#    0.000    3.125    0.000    0.000    0.000    0.000 
#    0.000    0.000    0.000    0.000    0.000    0.000 
#
# Total GULP energy -198417.764386 kJ/mol
# GULP energy per Si atom -12401.110274 kJ/mol
# Density = 2.081952 g / cm^3
# Si number density = 20.867013 Si / 1000 Ang^3
#
#
#
# Elastic Constant Matrix: (Units=GPa)
#
#
# Indices 1 2 3 4 5 6 
#
# 1 119.8342 37.5843 44.7724 6.5157 3.8763 6.7730
# 2 37.5843 128.8084 18.2621 -2.6212 7.8793 -1.5634
# 3 44.7724 18.2621 86.3482 10.7283 7.5507 -6.3379
# 4 6.5157 -2.6212 10.7283 38.5474 5.0411 3.3451
# 5 3.8763 7.8793 7.5507 5.0411 30.8095 2.6189
# 6 6.7730 -1.5634 -6.3379 3.3451 2.6189 30.2537
#
#
#
# Elastic Compliance Matrix: (Units=1/GPa)
#
#
# Indices 1 2 3 4 5 6 
#
# 1 0.011545 -0.002669 -0.005765 -0.000318 0.001034 -0.003985
# 2 -0.002669 0.008765 -0.000377 0.001342 -0.002118 0.001007
# 3 -0.005765 -0.000377 0.015720 -0.003498 -0.002901 0.005202
# 4 -0.000318 0.001342 -0.003498 0.027837 -0.003716 -0.003349
# 5 0.001034 -0.002118 -0.002901 -0.003716 0.034488 -0.003523
# 6 -0.003985 0.001007 0.005202 -0.003349 -0.003523 0.035763
#
#
# Mechanical properties :
#
#
# Convention : Reuss Voigt Hill
#
# Bulk Modulus (GPa) = 54.32750 59.58092 56.95421
# Shear Modulus (GPa) = 31.67024 35.54693 33.60859
#
# Velocity S-wave (km/s) = 3.90002 4.13182 4.01759
# Velocity P-wave (km/s) = 6.80968 7.16780 6.99103
#
# Compressibility (1/GPa) = 0.01840688
#
# Stress axis : x y z
#
# Youngs Moduli (GPa) = 86.61706 114.09079 63.61251
#
# Poissons Ratio (x) = 0.30455 0.36673
# Poissons Ratio (y) = 0.23121 0.02400
# Poissons Ratio (z) = 0.49935 0.04304
#
# Static dielectric constant tensor:
#      x y z
#    x 3.716740 -0.035350 -0.048460 
#    y -0.035350 3.767880 0.031150 
#    z -0.048460 0.031150 3.867430 
# 
# 
# High freq. dielectric constant tensor:
#      x y z
#    x 1.812870 0.003930 -0.002520 
#    y 0.003930 1.828990 -0.001260 
#    z -0.002520 -0.001260 1.830360 
# 
# From -- ./inp_files/263334.got.cif
#   From: 2010.06.25/outbox.cif.g09.slc.cpg/sg2_132_cif.got.tgz:263334.got - 2010.06.27 13:26:56.
