data_PCOD8032816
_publ_section_title
;
Structure prediction by ZEFSAII (Michael W. Deem and Ramdas Pophale) SiO2 
 PCOD8032816
Probable space group: P -1
;
_chemical_formula_sum "Si O2"
_cell_formula_units_Z 12
_cell_length_a 9.786869
_cell_length_b 9.484036
_cell_length_c 8.909120
_cell_angle_alpha 110.119915
_cell_angle_beta 72.722151
_cell_angle_gamma 137.775339
_cell_volume 520.647096
_symmetry_space_group_name_H-M "P -1"
_symmetry_group_IT_number 2
_symmetry_cell_setting 'triclinic'
loop_
_space_group_symop_operation_xyz
x,y,z
-x,-y,-z
loop_
_atom_site_type_symbol
_atom_site_label
_atom_site_fract_x
_atom_site_fract_y
_atom_site_fract_z
Si Si1 0.931776 0.344301 0.325066
Si Si2 0.655426 0.390735 0.858663
Si Si3 0.479991 0.954997 0.812805
Si Si4 0.680492 0.804782 0.626225
Si Si5 0.582198 0.542475 0.198035
Si Si6 0.905274 0.989855 0.312745
O O1 0.738798 0.262120 0.262898
O O2 0.000000 0.500000 0.500000
O O3 0.106664 0.465561 0.187595
O O4 0.879749 0.141578 0.331565
O O5 0.599747 0.481143 0.795039
O O6 0.533861 0.147143 0.775771
O O7 0.594170 0.396472 0.048180
O O8 0.646858 0.955871 0.716783
O O9 0.500000 0.000000 0.000000
O O10 0.476542 0.558223 0.650454
O O11 0.754915 0.837260 0.445757
O O12 0.862635 0.884229 0.702853
O O13 0.793132 0.784763 0.168475
#
# Coordination Sequence:
#
# PCOD8032816 Si02
#       6
#     2   2   2   2   2   2
#     4  12  28  47  75 107 148 191 240 295 365 435
#     4  11  25  44  72 106 141 190 242 291 363 426
#     4  12  27  48  73 108 148 188 236 307 359 422
#     4  11  25  44  71 106 144 186 244 294 361 418
#     4  11  23  43  74 101 140 189 239 300 349 429
#     4  11  25  45  73 102 143 194 239 296 355 437
#
# _framework density 23.048242999999999
#
# number of rings (size 3 to 8) (size 9 to 14) (size 15 to 20)
#    0.000    0.667    5.000    1.500    4.667    6.667 
#    0.000    0.000    0.000    0.000    0.000    0.000 
#    0.000    0.000    0.000    0.000    0.000    0.000 
#
# Total GULP energy -148688.058332 kJ/mol
# GULP energy per Si atom -12390.671528 kJ/mol
# Density = 2.299578 g / cm^3
# Si number density = 23.048243 Si / 1000 Ang^3
#
#
#
# Elastic Constant Matrix: (Units=GPa)
#
#
# Indices 1 2 3 4 5 6 
#
# 1 98.8452 22.0991 39.8715 0.8392 -6.7485 1.4454
# 2 22.0991 129.1780 24.9729 0.6208 -6.6649 -4.8290
# 3 39.8715 24.9729 56.8628 -1.5781 -0.6110 -5.1343
# 4 0.8392 0.6208 -1.5781 34.8201 4.2388 -3.4773
# 5 -6.7485 -6.6649 -0.6110 4.2388 36.5380 11.3114
# 6 1.4454 -4.8290 -5.1343 -3.4773 11.3114 32.1241
#
#
#
# Elastic Compliance Matrix: (Units=1/GPa)
#
#
# Indices 1 2 3 4 5 6 
#
# 1 0.014813 -0.000431 -0.010562 -0.001702 0.003910 -0.003981
# 2 -0.000431 0.008562 -0.003436 -0.000449 0.001411 0.000212
# 3 -0.010562 -0.003436 0.027080 0.002679 -0.004324 0.006099
# 4 -0.001702 -0.000449 0.002679 0.030138 -0.005604 0.005673
# 5 0.003910 0.001411 -0.004324 -0.005604 0.032904 -0.012847
# 6 -0.003981 0.000212 0.006099 0.005673 -0.012847 0.037453
#
#
# Mechanical properties :
#
#
# Convention : Reuss Voigt Hill
#
# Bulk Modulus (GPa) = 46.30392 50.97477 48.63934
# Shear Modulus (GPa) = 26.73683 33.89258 30.31470
#
# Velocity S-wave (km/s) = 3.40963 3.83888 3.63060
# Velocity P-wave (km/s) = 5.96945 6.46637 6.22287
#
# Compressibility (1/GPa) = 0.02159645
#
# Stress axis : x y z
#
# Youngs Moduli (GPa) = 67.50659 116.79256 36.92765
#
# Poissons Ratio (x) = 0.05036 0.39004
# Poissons Ratio (y) = 0.02911 0.12689
# Poissons Ratio (z) = 0.71302 0.40132
#
# Static dielectric constant tensor:
#      x y z
#    x 4.095470 0.008710 -0.042310 
#    y 0.008710 4.339800 0.151020 
#    z -0.042310 0.151020 4.035320 
# 
# 
# High freq. dielectric constant tensor:
#      x y z
#    x 1.911490 -0.008150 -0.010240 
#    y -0.008150 1.933710 0.001150 
#    z -0.010240 0.001150 1.905510 
# 
# From -- ./inp_files/26173.got.cif
#   From: 2010.06.25/outbox.cif.g09.slc.cpg/sg2_14_cif.got.tgz:26173.got - 2010.06.27 13:26:56.
