data_PCOD8032624
_publ_section_title
;
Structure prediction by ZEFSAII (Michael W. Deem and Ramdas Pophale) SiO2 
 PCOD8032624
Probable space group: P -1
;
_chemical_formula_sum "Si O2"
_cell_formula_units_Z 14
_cell_length_a 8.892446
_cell_length_b 11.149343
_cell_length_c 17.492957
_cell_angle_alpha 30.102047
_cell_angle_beta 129.702731
_cell_angle_gamma 112.049973
_cell_volume 594.459491
_symmetry_space_group_name_H-M "P -1"
_symmetry_group_IT_number 2
_symmetry_cell_setting 'triclinic'
loop_
_space_group_symop_operation_xyz
x,y,z
-x,-y,-z
loop_
_atom_site_type_symbol
_atom_site_label
_atom_site_fract_x
_atom_site_fract_y
_atom_site_fract_z
Si Si1 0.353191 0.473641 0.397441
Si Si2 0.978278 0.029443 0.626246
Si Si3 0.707571 0.536461 0.019619
Si Si4 0.898420 0.516024 0.246633
Si Si5 0.390115 0.989574 0.388783
Si Si6 0.314126 0.936911 0.043611
Si Si7 0.798139 0.788236 0.290648
O O1 0.500000 0.500000 0.500000
O O2 0.218261 0.770509 0.151971
O O3 0.159441 0.415596 0.398074
O O4 0.478315 0.258272 0.489624
O O5 0.849316 0.265239 0.391488
O O6 0.168550 0.096932 0.682067
O O7 0.828427 0.030445 0.648056
O O8 0.085622 0.743699 0.779136
O O9 0.653426 0.739834 0.819521
O O10 0.500000 0.500000 0.000000
O O11 0.803254 0.633638 0.067671
O O12 0.759918 0.758799 0.123678
O O13 0.500000 0.000000 0.500000
O O14 0.577079 0.756119 0.237072
O O15 0.230166 0.975173 0.908532
O O16 0.000000 0.500000 0.500000
#
# Coordination Sequence:
#
# PCOD8032624 Si02
#       7
#     2   2   2   2   2   2   2
#     4  12  27  46  73 105 151 195 243 304 372 440
#     4  12  25  43  75  98 145 185 245 298 362 427
#     4  12  26  47  72 102 145 191 243 301 375 436
#     4  12  25  46  71 107 145 189 243 297 373 442
#     4  12  28  47  72 106 142 191 253 302 360 435
#     4  11  25  41  72 102 144 187 239 290 364 427
#     4  11  23  43  68 106 140 184 238 301 353 427
#
# _framework density 23.550806999999999
#
# number of rings (size 3 to 8) (size 9 to 14) (size 15 to 20)
#    0.000    0.286    1.429    7.286    8.000    0.000 
#    0.000    0.000    0.000    0.000    0.000    0.000 
#    0.000    0.000    0.000    0.000    0.000    0.000 
#
# Total GULP energy -173529.751340 kJ/mol
# GULP energy per Si atom -12394.982239 kJ/mol
# Density = 2.349720 g / cm^3
# Si number density = 23.550807 Si / 1000 Ang^3
#
#
#
# Elastic Constant Matrix: (Units=GPa)
#
#
# Indices 1 2 3 4 5 6 
#
# 1 132.2546 22.9615 61.6155 -6.0855 -8.1948 2.0317
# 2 22.9615 103.1454 29.5893 13.0582 0.5710 -12.3140
# 3 61.6155 29.5893 125.3116 -9.6746 -17.7498 1.4286
# 4 -6.0855 13.0582 -9.6746 52.4549 -1.9249 2.8233
# 5 -8.1948 0.5710 -17.7498 -1.9249 61.1709 -3.8597
# 6 2.0317 -12.3140 1.4286 2.8233 -3.8597 35.8869
#
#
#
# Elastic Compliance Matrix: (Units=1/GPa)
#
#
# Indices 1 2 3 4 5 6 
#
# 1 0.009915 -0.001070 -0.004568 0.000616 -0.000018 -0.000797
# 2 -0.001070 0.011723 -0.002712 -0.003812 -0.000882 0.004396
# 3 -0.004568 -0.002712 0.011454 0.002413 0.002748 -0.001022
# 4 0.000616 -0.003812 0.002413 0.020734 0.001286 -0.002932
# 5 -0.000018 -0.000882 0.002748 0.001286 0.017276 0.001346
# 6 -0.000797 0.004396 -0.001022 -0.002932 0.001346 0.029835
#
#
# Mechanical properties :
#
#
# Convention : Reuss Voigt Hill
#
# Bulk Modulus (GPa) = 61.00280 65.44934 63.22607
# Shear Modulus (GPa) = 40.61706 46.33891 43.47799
#
# Velocity S-wave (km/s) = 4.15740 4.44059 4.30133
# Velocity P-wave (km/s) = 7.00030 7.35818 7.18147
#
# Compressibility (1/GPa) = 0.01639269
#
# Stress axis : x y z
#
# Youngs Moduli (GPa) = 100.86041 85.30019 87.30651
#
# Poissons Ratio (x) = 0.09124 0.39885
# Poissons Ratio (y) = 0.10789 0.23674
# Poissons Ratio (z) = 0.46077 0.23130
#
# Static dielectric constant tensor:
#      x y z
#    x 7.568540 5.169580 -1.653720 
#    y 5.169580 12.971590 -2.303890 
#    z -1.653720 -2.303890 5.053560 
# 
# 
# High freq. dielectric constant tensor:
#      x y z
#    x 1.944800 -0.008250 -0.013000 
#    y -0.008250 1.936740 0.003480 
#    z -0.013000 0.003480 1.947820 
# 
# From -- ./inp_files/338649.got.cif
#   From: 2010.06.25/outbox.cif.g09.slc.cpg/sg2_170_cif.got.tgz:338649.got - 2010.06.27 13:26:56.
