data_PCOD8032419
_publ_section_title
;
Structure prediction by ZEFSAII (Michael W. Deem and Ramdas Pophale) SiO2 
 PCOD8032419
Probable space group: P -1
;
_chemical_formula_sum "Si O2"
_cell_formula_units_Z 16
_cell_length_a 9.530266
_cell_length_b 23.330492
_cell_length_c 8.582616
_cell_angle_alpha 124.091843
_cell_angle_beta 90.811956
_cell_angle_gamma 42.985169
_cell_volume 768.316395
_symmetry_space_group_name_H-M "P -1"
_symmetry_group_IT_number 2
_symmetry_cell_setting 'triclinic'
loop_
_space_group_symop_operation_xyz
x,y,z
-x,-y,-z
loop_
_atom_site_type_symbol
_atom_site_label
_atom_site_fract_x
_atom_site_fract_y
_atom_site_fract_z
Si Si1 0.634855 0.872505 0.877528
Si Si2 0.205585 0.575546 0.945380
Si Si3 0.669426 0.606311 0.826004
Si Si4 0.361629 0.128801 0.756334
Si Si5 0.694067 0.116181 0.245848
Si Si6 0.758944 0.427362 0.704869
Si Si7 0.290034 0.394428 0.519736
Si Si8 0.315582 0.878675 0.382769
O O1 0.444201 0.889563 0.850638
O O2 0.963611 0.723444 0.603353
O O3 0.642428 0.873325 0.062969
O O4 0.500000 0.000000 0.000000
O O5 0.143097 0.590609 0.149487
O O6 0.960802 0.729668 0.102756
O O7 0.523693 0.468534 0.766831
O O8 0.183927 0.513062 0.761064
O O9 0.608521 0.555411 0.807088
O O10 0.554730 0.665193 0.737297
O O11 0.014070 0.464033 0.609980
O O12 0.517881 0.725515 0.120665
O O13 0.551075 0.112610 0.685408
O O14 0.500000 0.000000 0.500000
O O15 0.508696 0.265372 0.446230
O O16 0.709220 0.094471 0.395039
O O17 0.000000 0.000000 0.000000
O O18 0.000000 0.000000 0.500000
#
# Coordination Sequence:
#
# PCOD8032419 Si02
#       8
#     2   2   2   2   2   2   2   2
#     4  12  26  46  69  97 135 176 223 274 332 396
#     4  11  25  44  68  99 134 174 223 273 330 394
#     4  11  23  42  69  99 132 171 221 274 329 392
#     4  12  26  46  69  97 135 176 223 274 332 396
#     4  12  26  45  70  99 134 175 222 274 332 394
#     4  11  25  44  68  99 134 174 223 273 330 394
#     4  11  23  42  69  99 132 171 221 274 329 392
#     4  12  26  45  70  99 134 175 222 274 332 394
#
# _framework density 20.824753999999999
#
# number of rings (size 3 to 8) (size 9 to 14) (size 15 to 20)
#    0.000    0.500    2.500    6.000    3.500    3.000 
#    0.000    0.000    0.000    0.000    0.000    0.000 
#    0.000    0.000    0.000    0.000    0.000    0.000 
#
# Total GULP energy -198507.806601 kJ/mol
# GULP energy per Si atom -12406.737913 kJ/mol
# Density = 2.077736 g / cm^3
# Si number density = 20.824754 Si / 1000 Ang^3
#
#
#
# Elastic Constant Matrix: (Units=GPa)
#
#
# Indices 1 2 3 4 5 6 
#
# 1 73.8750 36.6027 46.5120 2.2223 0.3313 4.3743
# 2 36.6027 110.1995 47.5436 -6.7303 -11.5351 1.5159
# 3 46.5120 47.5436 138.8498 -4.4387 -1.6316 3.8335
# 4 2.2223 -6.7303 -4.4387 51.1003 4.0446 5.4533
# 5 0.3313 -11.5351 -1.6316 4.0446 35.5306 2.6609
# 6 4.3743 1.5159 3.8335 5.4533 2.6609 40.5697
#
#
#
# Elastic Compliance Matrix: (Units=1/GPa)
#
#
# Indices 1 2 3 4 5 6 
#
# 1 0.018909 -0.004433 -0.004855 -0.001586 -0.001576 -0.001098
# 2 -0.004433 0.012130 -0.002580 0.001287 0.003726 -0.000149
# 3 -0.004855 -0.002580 0.009743 0.000790 -0.000406 -0.000380
# 4 -0.001586 0.001287 0.000790 0.020281 -0.001647 -0.002570
# 5 -0.001576 0.003726 -0.000406 -0.001647 0.029662 -0.001655
# 6 -0.001098 -0.000149 -0.000380 -0.002570 -0.001655 0.025263
#
#
# Mechanical properties :
#
#
# Convention : Reuss Voigt Hill
#
# Bulk Modulus (GPa) = 58.66100 64.91567 61.78834
# Shear Modulus (GPa) = 34.38646 38.25785 36.32215
#
# Velocity S-wave (km/s) = 4.06794 4.29083 4.18087
# Velocity P-wave (km/s) = 7.09184 7.46916 7.28294
#
# Compressibility (1/GPa) = 0.01704710
#
# Stress axis : x y z
#
# Youngs Moduli (GPa) = 52.88384 82.43781 102.64009
#
# Poissons Ratio (x) = 0.36542 0.49836
# Poissons Ratio (y) = 0.23442 0.26478
# Poissons Ratio (z) = 0.25677 0.21266
#
# Static dielectric constant tensor:
#      x y z
#    x 3.839470 -0.065570 0.056740 
#    y -0.065570 4.101100 -0.145570 
#    z 0.056740 -0.145570 3.920240 
# 
# 
# High freq. dielectric constant tensor:
#      x y z
#    x 1.821790 0.002960 0.000500 
#    y 0.002960 1.833580 -0.004250 
#    z 0.000500 -0.004250 1.832220 
# 
# From -- ./inp_files/223814.got.cif
#   From: 2010.06.25/outbox.cif.g09.slc.cpg/sg2_112_cif.got.tgz:223814.got - 2010.06.27 13:26:56.
