data_PCOD8032528
_publ_section_title
;
Structure prediction by ZEFSAII (Michael W. Deem and Ramdas Pophale) SiO2 
 PCOD8032528
Probable space group: P -1
;
_chemical_formula_sum "Si O2"
_cell_formula_units_Z 16
_cell_length_a 8.816665
_cell_length_b 14.788354
_cell_length_c 5.197373
_cell_angle_alpha 88.575430
_cell_angle_beta 86.200711
_cell_angle_gamma 76.394194
_cell_volume 657.159657
_symmetry_space_group_name_H-M "P -1"
_symmetry_group_IT_number 2
_symmetry_cell_setting 'triclinic'
loop_
_space_group_symop_operation_xyz
x,y,z
-x,-y,-z
loop_
_atom_site_type_symbol
_atom_site_label
_atom_site_fract_x
_atom_site_fract_y
_atom_site_fract_z
Si Si1 0.366095 0.564148 0.347706
Si Si2 0.602659 0.067495 0.889183
Si Si3 0.136346 0.738170 0.916604
Si Si4 0.464207 0.722563 0.027451
Si Si5 0.760317 0.576880 0.901634
Si Si6 0.224725 0.982362 0.618698
Si Si7 0.910320 0.437078 0.265281
Si Si8 0.974700 0.151530 0.563496
O O1 0.500000 0.500000 0.500000
O O2 0.418939 0.657753 0.262194
O O3 0.344182 0.498297 0.119333
O O4 0.195585 0.591400 0.498552
O O5 0.742832 0.052575 0.087307
O O6 0.521301 0.177099 0.879606
O O7 0.631485 0.034545 0.593572
O O8 0.500000 0.000000 0.000000
O O9 0.100478 0.636382 0.959443
O O10 0.025593 0.784871 0.691348
O O11 0.322163 0.731557 0.834619
O O12 0.100888 0.790679 0.186257
O O13 0.638290 0.676959 0.904533
O O14 0.903991 0.574596 0.680836
O O15 0.844579 0.543858 0.168099
O O16 0.119435 0.924097 0.491662
O O17 0.148121 0.093239 0.622041
#
# Coordination Sequence:
#
# PCOD8032528 Si02
#       8
#     2   2   2   2   2   2   2   2
#     4  12  23  44  74 106 141 196 249 305 363 446
#     4  12  27  47  73 106 152 196 244 310 375 447
#     4  12  23  42  72 110 144 187 250 303 358 455
#     4  12  24  45  71 106 143 194 256 296 370 443
#     4  11  25  44  66 104 146 193 235 307 373 440
#     4  11  23  46  71 103 141 185 245 308 372 434
#     4  11  25  44  67 101 152 184 240 300 375 437
#     4  11  23  42  74 105 135 182 243 308 366 423
#
# _framework density 24.347203
#
# number of rings (size 3 to 8) (size 9 to 14) (size 15 to 20)
#    0.000    0.500    5.000    3.375    0.000    5.000 
#    0.000    1.250    0.000    0.000    0.000    0.000 
#    0.000    0.000    0.000    0.000    0.000    0.000 
#
# Total GULP energy -198210.706161 kJ/mol
# GULP energy per Si atom -12388.169135 kJ/mol
# Density = 2.429179 g / cm^3
# Si number density = 24.347203 Si / 1000 Ang^3
#
#
#
# Elastic Constant Matrix: (Units=GPa)
#
#
# Indices 1 2 3 4 5 6 
#
# 1 98.4824 50.9496 8.4262 -0.2969 -8.6207 -6.1314
# 2 50.9496 150.2714 25.8406 -16.6525 4.2288 -18.4907
# 3 8.4262 25.8406 90.4476 -10.7453 4.9663 -17.6099
# 4 -0.2969 -16.6525 -10.7453 22.9900 6.7231 -0.3262
# 5 -8.6207 4.2288 4.9663 6.7231 35.8254 -2.6607
# 6 -6.1314 -18.4907 -17.6099 -0.3262 -2.6607 48.6182
#
#
#
# Elastic Compliance Matrix: (Units=1/GPa)
#
#
# Indices 1 2 3 4 5 6 
#
# 1 0.013266 -0.005138 -0.000729 -0.005321 0.004875 -0.000314
# 2 -0.005138 0.009810 -0.000676 0.007804 -0.003565 0.002695
# 3 -0.000729 -0.000676 0.013076 0.006494 -0.002809 0.004277
# 4 -0.005321 0.007804 0.006494 0.056068 -0.013305 0.004297
# 5 0.004875 -0.003565 -0.002809 -0.013305 0.032388 -0.000075
# 6 -0.000314 0.002695 0.004277 0.004297 -0.000075 0.023128
#
#
# Mechanical properties :
#
#
# Convention : Reuss Voigt Hill
#
# Bulk Modulus (GPa) = 43.35617 56.62604 49.99111
# Shear Modulus (GPa) = 29.67201 38.41905 34.04553
#
# Velocity S-wave (km/s) = 3.49478 3.97667 3.74349
# Velocity P-wave (km/s) = 5.84215 6.66284 6.26595
#
# Compressibility (1/GPa) = 0.02306477
#
# Stress axis : x y z
#
# Youngs Moduli (GPa) = 75.38267 101.94037 76.47749
#
# Poissons Ratio (x) = 0.52375 0.05575
# Poissons Ratio (y) = 0.38730 0.05173
# Poissons Ratio (z) = 0.05495 0.06895
#
# Static dielectric constant tensor:
#      x y z
#    x 5.126460 -0.589650 0.403740 
#    y -0.589650 6.147650 0.481410 
#    z 0.403740 0.481410 5.247210 
# 
# 
# High freq. dielectric constant tensor:
#      x y z
#    x 1.960590 -0.004550 0.004790 
#    y -0.004550 1.982230 -0.000820 
#    z 0.004790 -0.000820 1.957120 
# 
# From -- ./inp_files/38739.got.cif
#   From: 2010.06.25/outbox.cif.g09.slc.cpg/sg2_20_cif.got.tgz:38739.got - 2010.06.27 13:26:56.
