data_PCOD8032713
_publ_section_title
;
Structure prediction by ZEFSAII (Michael W. Deem and Ramdas Pophale) SiO2 
 PCOD8032713
Probable space group: P -1
;
_chemical_formula_sum "Si O2"
_cell_formula_units_Z 12
_cell_length_a 17.539889
_cell_length_b 11.220704
_cell_length_c 7.292687
_cell_angle_alpha 128.641986
_cell_angle_beta 127.098933
_cell_angle_gamma 30.762046
_cell_volume 565.357364
_symmetry_space_group_name_H-M "P -1"
_symmetry_group_IT_number 2
_symmetry_cell_setting 'triclinic'
loop_
_space_group_symop_operation_xyz
x,y,z
-x,-y,-z
loop_
_atom_site_type_symbol
_atom_site_label
_atom_site_fract_x
_atom_site_fract_y
_atom_site_fract_z
Si Si1 0.579413 0.695325 0.683263
Si Si2 0.864258 0.495421 0.423158
Si Si3 0.469337 0.148849 0.845204
Si Si4 0.415694 0.754896 0.186117
Si Si5 0.093818 0.731449 0.369566
Si Si6 0.923873 0.765834 0.854929
O O1 0.577580 0.871150 0.773532
O O2 0.462982 0.732391 0.441177
O O3 0.748059 0.423973 0.646077
O O4 0.532823 0.742789 0.873635
O O5 0.696529 0.709324 0.303407
O O6 0.876221 0.355955 0.463778
O O7 0.905279 0.607656 0.675127
O O8 0.979253 0.302102 0.245199
O O9 0.538712 0.157579 0.788194
O O10 0.236693 0.949162 0.109221
O O11 0.500000 0.500000 0.000000
O O12 0.000000 0.000000 0.500000
O O13 0.007241 0.708360 0.107821
#
# Coordination Sequence:
#
# PCOD8032713 Si02
#       6
#     2   2   2   2   2   2
#     4  11  23  43  70  95 125 170 226 255 318 390
#     4  11  23  44  70  93 130 171 215 270 318 374
#     4  11  23  43  73  92 125 177 215 265 320 378
#     4  12  25  42  66  97 134 169 211 268 321 383
#     4  12  25  41  66  98 133 172 210 262 328 386
#     4  11  25  42  65 103 125 165 225 266 314 376
#
# _framework density 21.225512999999999
#
# number of rings (size 3 to 8) (size 9 to 14) (size 15 to 20)
#    0.000    0.667    5.000    3.000    0.000    4.000 
#    0.000    0.000    0.000    0.000    0.000    0.000 
#    0.000    0.000    0.000    0.000    0.000    0.000 
#
# Total GULP energy -148895.240293 kJ/mol
# GULP energy per Si atom -12407.936691 kJ/mol
# Density = 2.117720 g / cm^3
# Si number density = 21.225513 Si / 1000 Ang^3
#
#
#
# Elastic Constant Matrix: (Units=GPa)
#
#
# Indices 1 2 3 4 5 6 
#
# 1 38.5474 7.6489 13.9861 -0.6542 -3.0050 -20.3204
# 2 7.6489 108.7087 16.6015 7.4296 -11.4484 -21.7898
# 3 13.9861 16.6015 118.1866 -12.3629 -9.8335 -1.2594
# 4 -0.6542 7.4296 -12.3629 38.2546 -10.0387 4.4565
# 5 -3.0050 -11.4484 -9.8335 -10.0387 19.2678 3.3232
# 6 -20.3204 -21.7898 -1.2594 4.4565 3.3232 36.5800
#
#
#
# Elastic Compliance Matrix: (Units=1/GPa)
#
#
# Indices 1 2 3 4 5 6 
#
# 1 0.040202 0.003171 -0.005601 -0.005049 -0.001611 0.024790
# 2 0.003171 0.011556 -0.001935 -0.002942 0.003351 0.008632
# 3 -0.005601 -0.001935 0.010638 0.006348 0.007638 -0.005365
# 4 -0.005049 -0.002942 0.006348 0.035411 0.020975 -0.010558
# 5 -0.001611 0.003351 0.007638 0.020975 0.069765 -0.007529
# 6 0.024790 0.008632 -0.005365 -0.010558 -0.007529 0.048036
#
#
# Mechanical properties :
#
#
# Convention : Reuss Voigt Hill
#
# Bulk Modulus (GPa) = 18.63400 37.99064 28.31232
# Shear Modulus (GPa) = 20.64182 33.96756 27.30469
#
# Velocity S-wave (km/s) = 3.12188 4.00474 3.59055
# Velocity P-wave (km/s) = 4.66829 6.27067 5.52785
#
# Compressibility (1/GPa) = 0.05366535
#
# Stress axis : x y z
#
# Youngs Moduli (GPa) = 24.87445 86.53834 94.00082
#
# Poissons Ratio (x) = -0.27442 0.52649
# Poissons Ratio (y) = -0.07888 0.18192
# Poissons Ratio (z) = 0.13932 0.16748
#
# Static dielectric constant tensor:
#      x y z
#    x 3.641160 -0.229300 -0.060580 
#    y -0.229300 3.922400 -0.033900 
#    z -0.060580 -0.033900 4.153050 
# 
# 
# High freq. dielectric constant tensor:
#      x y z
#    x 1.815820 -0.015570 -0.003860 
#    y -0.015570 1.842590 0.000240 
#    z -0.003860 0.000240 1.856110 
# 
# From -- ./inp_files/117990.got.cif
#   From: 2010.06.25/outbox.cif.g09.slc.cpg/sg2_59_cif.got.tgz:117990.got - 2010.06.27 13:26:56.
