data_PCOD8032176
_publ_section_title
;
Structure prediction by ZEFSAII (Michael W. Deem and Ramdas Pophale) SiO2 
 PCOD8032176
Probable space group: P -1
;
_chemical_formula_sum "Si O2"
_cell_formula_units_Z 14
_cell_length_a 10.950749
_cell_length_b 19.603066
_cell_length_c 19.696793
_cell_angle_alpha 20.361959
_cell_angle_beta 22.461655
_cell_angle_gamma 30.939515
_cell_volume 560.905447
_symmetry_space_group_name_H-M "P -1"
_symmetry_group_IT_number 2
_symmetry_cell_setting 'triclinic'
loop_
_space_group_symop_operation_xyz
x,y,z
-x,-y,-z
loop_
_atom_site_type_symbol
_atom_site_label
_atom_site_fract_x
_atom_site_fract_y
_atom_site_fract_z
Si Si1 0.192435 0.300125 0.659367
Si Si2 0.166384 0.903688 0.850850
Si Si3 0.070638 0.729069 0.327762
Si Si4 0.168991 0.404841 0.786658
Si Si5 0.231405 0.145201 0.123289
Si Si6 0.074484 0.706487 0.733765
Si Si7 0.854035 0.772957 0.642133
O O1 0.111728 0.509685 0.539315
O O2 0.567914 0.267070 0.504708
O O3 0.107378 0.291869 0.632430
O O4 0.976251 0.136489 0.963061
O O5 0.530929 0.853461 0.703919
O O6 0.138638 0.140616 0.635022
O O7 0.950982 0.782540 0.020506
O O8 0.415216 0.846947 0.034174
O O9 0.500000 0.500000 0.500000
O O10 0.918465 0.573758 0.755164
O O11 0.203634 0.332117 0.914085
O O12 0.986349 0.138757 0.319402
O O13 0.141173 0.939383 0.323422
O O14 0.829796 0.727723 0.777325
O O15 0.000000 0.500000 0.000000
#
# Coordination Sequence:
#
# PCOD8032176 Si02
#       7
#     2   2   2   2   2   2   2
#     4  11  24  43  72 103 140 179 229 290 349 411
#     4  12  27  45  69 101 145 183 232 283 344 420
#     4  11  23  41  68 102 134 179 229 283 346 404
#     4  12  27  49  72 101 139 187 239 288 344 411
#     4  12  25  45  74 103 141 185 235 288 347 415
#     4  12  22  45  73 103 141 178 229 291 351 408
#     4  12  27  46  72 104 139 185 234 288 352 413
#
# _framework density 24.959643
#
# number of rings (size 3 to 8) (size 9 to 14) (size 15 to 20)
#    0.000    0.286    2.857    6.429    2.000    5.143 
#    0.000    0.000    0.000    0.000    0.000    0.000 
#    0.000    0.000    0.000    0.000    0.000    0.000 
#
# Total GULP energy -173641.331714 kJ/mol
# GULP energy per Si atom -12402.952265 kJ/mol
# Density = 2.490283 g / cm^3
# Si number density = 24.959643 Si / 1000 Ang^3
#
#
#
# Elastic Constant Matrix: (Units=GPa)
#
#
# Indices 1 2 3 4 5 6 
#
# 1 64.5443 28.9140 6.3370 4.3486 -19.3968 -1.5001
# 2 28.9140 164.7887 11.1322 -8.4311 -14.8712 6.3166
# 3 6.3370 11.1322 71.9909 -1.7884 -9.3573 -1.4814
# 4 4.3486 -8.4311 -1.7884 38.8904 5.3322 -9.9425
# 5 -19.3968 -14.8712 -9.3573 5.3322 41.1579 -0.1447
# 6 -1.5001 6.3166 -1.4814 -9.9425 -0.1447 33.8265
#
#
#
# Elastic Compliance Matrix: (Units=1/GPa)
#
#
# Indices 1 2 3 4 5 6 
#
# 1 0.019689 -0.002865 -0.000252 -0.003958 0.008700 0.000271
# 2 -0.002865 0.006797 -0.000685 0.001399 0.000765 -0.001012
# 3 -0.000252 -0.000685 0.014419 0.000372 0.002867 0.000870
# 4 -0.003958 0.001399 0.000372 0.029252 -0.005036 0.008156
# 5 0.008700 0.000765 0.002867 -0.005036 0.029974 -0.000984
# 6 0.000271 -0.001012 0.000870 0.008156 -0.000984 0.032195
#
#
# Mechanical properties :
#
#
# Convention : Reuss Voigt Hill
#
# Bulk Modulus (GPa) = 30.03103 43.78779 36.90941
# Shear Modulus (GPa) = 33.10596 39.77102 36.43849
#
# Velocity S-wave (km/s) = 3.64590 3.99609 3.82500
# Velocity P-wave (km/s) = 5.45723 6.23483 5.85895
#
# Compressibility (1/GPa) = 0.03329890
#
# Stress axis : x y z
#
# Youngs Moduli (GPa) = 50.78944 147.12758 69.35511
#
# Poissons Ratio (x) = 0.42158 0.01747
# Poissons Ratio (y) = 0.14553 0.04754
# Poissons Ratio (z) = 0.01280 0.10085
#
# Static dielectric constant tensor:
#      x y z
#    x 4.378590 0.039420 -0.042970 
#    y 0.039420 5.145020 -0.239580 
#    z -0.042970 -0.239580 4.475870 
# 
# 
# High freq. dielectric constant tensor:
#      x y z
#    x 1.994060 -0.003680 -0.007910 
#    y -0.003680 2.011810 -0.021550 
#    z -0.007910 -0.021550 1.988790 
# 
# From -- ./inp_files/596204.got.cif
#   From: 2010.06.25/outbox.cif.g09.slc.cpg/sg2_299_cif.got.tgz:596204.got - 2010.06.27 13:26:56.
