data_PCOD8032871
_publ_section_title
;
Structure prediction by ZEFSAII (Michael W. Deem and Ramdas Pophale) SiO2 
 PCOD8032871
Probable space group: P -1
;
_chemical_formula_sum "Si O2"
_cell_formula_units_Z 14
_cell_length_a 16.215555
_cell_length_b 14.297922
_cell_length_c 7.803838
_cell_angle_alpha 53.823380
_cell_angle_beta 108.574210
_cell_angle_gamma 149.698208
_cell_volume 650.736789
_symmetry_space_group_name_H-M "P -1"
_symmetry_group_IT_number 2
_symmetry_cell_setting 'triclinic'
loop_
_space_group_symop_operation_xyz
x,y,z
-x,-y,-z
loop_
_atom_site_type_symbol
_atom_site_label
_atom_site_fract_x
_atom_site_fract_y
_atom_site_fract_z
Si Si1 0.959125 0.720106 0.640572
Si Si2 0.230619 0.371105 0.129295
Si Si3 0.503157 0.488343 0.713556
Si Si4 0.336661 0.077870 0.571184
Si Si5 0.135698 0.078798 0.104481
Si Si6 0.502158 0.868979 0.692264
Si Si7 0.471645 0.839296 0.088381
O O1 0.948499 0.813390 0.671756
O O2 0.750806 0.429986 0.792505
O O3 0.111004 0.809796 0.724580
O O4 0.029886 0.844589 0.367065
O O5 0.396504 0.517533 0.198185
O O6 0.211747 0.245565 0.124335
O O7 0.297135 0.569509 0.868594
O O8 0.500000 0.500000 0.500000
O O9 0.597863 0.710671 0.630983
O O10 0.297313 0.225481 0.930471
O O11 0.373378 0.054080 0.443924
O O12 0.438984 0.142901 0.732726
O O13 0.000000 0.000000 0.000000
O O14 0.500000 0.000000 0.500000
O O15 0.570538 0.939132 0.860400
O O16 0.500000 0.000000 0.000000
#
# Coordination Sequence:
#
# PCOD8032871 Si02
#       7
#     2   2   2   2   2   2   2
#     4  11  26  43  69 105 137 183 241 290 356 429
#     4  11  23  44  63  98 141 180 224 290 356 411
#     4  12  24  42  70 101 143 189 228 285 360 426
#     4  12  24  46  74 101 144 187 236 296 356 423
#     4  12  23  38  65 102 143 178 234 285 349 427
#     4  11  23  45  72  98 136 191 239 289 355 420
#     4  11  25  49  73  99 140 187 239 299 360 420
#
# _framework density 21.514074000000001
#
# number of rings (size 3 to 8) (size 9 to 14) (size 15 to 20)
#    0.000    0.571    4.286    5.143    2.000    0.571 
#    0.000    0.714    0.000    0.000    0.000    0.000 
#    0.000    0.000    0.000    0.000    0.000    0.000 
#
# Total GULP energy -173465.693582 kJ/mol
# GULP energy per Si atom -12390.406684 kJ/mol
# Density = 2.146511 g / cm^3
# Si number density = 21.514074 Si / 1000 Ang^3
#
#
#
# Elastic Constant Matrix: (Units=GPa)
#
#
# Indices 1 2 3 4 5 6 
#
# 1 125.7299 38.0136 57.1708 1.1736 -22.5213 3.6717
# 2 38.0136 109.3229 45.2523 5.6264 -14.8623 20.2218
# 3 57.1708 45.2523 119.6515 10.4954 -16.4955 9.2496
# 4 1.1736 5.6264 10.4954 29.8504 -4.0978 -8.0354
# 5 -22.5213 -14.8623 -16.4955 -4.0978 55.0478 -0.0859
# 6 3.6717 20.2218 9.2496 -8.0354 -0.0859 41.7488
#
#
#
# Elastic Compliance Matrix: (Units=1/GPa)
#
#
# Indices 1 2 3 4 5 6 
#
# 1 0.011011 -0.001993 -0.004429 0.002268 0.002811 0.001420
# 2 -0.001993 0.012417 -0.002874 -0.002583 0.001475 -0.005696
# 3 -0.004429 -0.002874 0.012134 -0.003892 0.000756 -0.001655
# 4 0.002268 -0.002583 -0.003892 0.038014 0.001909 0.009234
# 5 0.002811 0.001475 0.000756 0.001909 0.020082 -0.000720
# 6 0.001420 -0.005696 -0.001655 0.009234 -0.000720 0.028729
#
#
# Mechanical properties :
#
#
# Convention : Reuss Voigt Hill
#
# Bulk Modulus (GPa) = 58.92295 70.61976 64.77136
# Shear Modulus (GPa) = 34.09858 39.61390 36.85624
#
# Velocity S-wave (km/s) = 3.98545 4.29569 4.14348
# Velocity P-wave (km/s) = 6.97323 7.58289 7.28444
#
# Compressibility (1/GPa) = 0.01697132
#
# Stress axis : x y z
#
# Youngs Moduli (GPa) = 90.82158 80.53641 82.41333
#
# Poissons Ratio (x) = 0.16049 0.36497
# Poissons Ratio (y) = 0.18099 0.23682
# Poissons Ratio (z) = 0.40221 0.23143
#
# Static dielectric constant tensor:
#      x y z
#    x 4.326020 -0.150630 -0.064640 
#    y -0.150630 3.961170 0.121190 
#    z -0.064640 0.121190 4.153540 
# 
# 
# High freq. dielectric constant tensor:
#      x y z
#    x 1.859720 -0.004070 -0.008670 
#    y -0.004070 1.839280 0.012660 
#    z -0.008670 0.012660 1.850390 
# 
# From -- ./inp_files/169905.got.cif
#   From: 2010.06.25/outbox.cif.g09.slc.cpg/sg2_85_cif.got.tgz:169905.got - 2010.06.27 13:26:56.
