data_PCOD8032234
_publ_section_title
;
Structure prediction by ZEFSAII (Michael W. Deem and Ramdas Pophale) SiO2 
 PCOD8032234
Probable space group: P -1
;
_chemical_formula_sum "Si O2"
_cell_formula_units_Z 12
_cell_length_a 9.514392
_cell_length_b 11.018689
_cell_length_c 9.890925
_cell_angle_alpha 84.682650
_cell_angle_beta 136.421887
_cell_angle_gamma 119.583900
_cell_volume 557.589608
_symmetry_space_group_name_H-M "P -1"
_symmetry_group_IT_number 2
_symmetry_cell_setting 'triclinic'
loop_
_space_group_symop_operation_xyz
x,y,z
-x,-y,-z
loop_
_atom_site_type_symbol
_atom_site_label
_atom_site_fract_x
_atom_site_fract_y
_atom_site_fract_z
Si Si1 0.035380 0.870501 0.670729
Si Si2 0.807210 0.324643 0.258640
Si Si3 0.299740 0.664155 0.529603
Si Si4 0.419612 0.208309 0.787887
Si Si5 0.884409 0.837626 0.864958
Si Si6 0.849403 0.320560 0.867524
O O1 0.168041 0.790387 0.795630
O O2 0.787376 0.766350 0.406674
O O3 0.930629 0.883726 0.736388
O O4 0.257895 0.036349 0.749177
O O5 0.694312 0.252780 0.337202
O O6 0.096399 0.484422 0.446639
O O7 0.606646 0.329995 0.025926
O O8 0.579502 0.709509 0.695058
O O9 0.204469 0.701714 0.328361
O O10 0.579125 0.219614 0.768769
O O11 0.001482 0.750451 0.996543
O O12 0.000000 0.000000 0.000000
O O13 0.000000 0.500000 0.000000
#
# Coordination Sequence:
#
# PCOD8032234 Si02
#       6
#     2   2   2   2   2   2
#     4  11  24  42  70  98 133 184 227 274 339 410
#     4  11  24  44  69  95 139 181 221 284 338 404
#     4  11  26  43  67 104 136 176 230 283 340 397
#     4  11  23  41  70  97 130 178 229 274 333 405
#     4  12  27  44  70 104 139 177 228 286 336 402
#     4  12  25  45  73 102 136 181 226 283 338 405
#
# _framework density 21.521204999999998
#
# number of rings (size 3 to 8) (size 9 to 14) (size 15 to 20)
#    0.000    0.667    5.000    1.500    4.667    6.000 
#    0.000    3.333    0.000    0.000    0.000    0.000 
#    0.000    0.000    0.000    0.000    0.000    0.000 
#
# Total GULP energy -148729.516630 kJ/mol
# GULP energy per Si atom -12394.126386 kJ/mol
# Density = 2.147222 g / cm^3
# Si number density = 21.521205 Si / 1000 Ang^3
#
#
#
# Elastic Constant Matrix: (Units=GPa)
#
#
# Indices 1 2 3 4 5 6 
#
# 1 119.2049 57.9847 46.8318 3.8919 -6.5247 27.4861
# 2 57.9847 97.4077 36.5358 -5.2603 8.6512 13.0553
# 3 46.8318 36.5358 118.6908 -5.0224 -4.3836 11.8649
# 4 3.8919 -5.2603 -5.0224 27.3848 8.3738 1.4427
# 5 -6.5247 8.6512 -4.3836 8.3738 45.9043 -2.8564
# 6 27.4861 13.0553 11.8649 1.4427 -2.8564 52.8576
#
#
#
# Elastic Compliance Matrix: (Units=1/GPa)
#
#
# Indices 1 2 3 4 5 6 
#
# 1 0.014784 -0.007623 -0.003082 -0.005063 0.003871 -0.004766
# 2 -0.007623 0.016327 -0.001977 0.005498 -0.005356 -0.000064
# 3 -0.003082 -0.001977 0.010373 0.001796 0.000581 -0.000255
# 4 -0.005063 0.005498 0.001796 0.041474 -0.009197 -0.000757
# 5 0.003871 -0.005356 0.000581 -0.009197 0.025126 0.000788
# 6 -0.004766 -0.000064 -0.000255 -0.000757 0.000788 0.021533
#
#
# Mechanical properties :
#
#
# Convention : Reuss Voigt Hill
#
# Bulk Modulus (GPa) = 62.03287 68.66757 65.35022
# Shear Modulus (GPa) = 31.18136 38.15942 34.67039
#
# Velocity S-wave (km/s) = 3.81053 4.21540 4.01806
# Velocity P-wave (km/s) = 6.94599 7.46116 7.20818
#
# Compressibility (1/GPa) = 0.01612049
#
# Stress axis : x y z
#
# Youngs Moduli (GPa) = 67.64241 61.24983 96.40800
#
# Poissons Ratio (x) = 0.46691 0.29708
# Poissons Ratio (y) = 0.51564 0.19056
# Poissons Ratio (z) = 0.20844 0.12107
#
# Static dielectric constant tensor:
#      x y z
#    x 4.233430 0.344100 -0.175690 
#    y 0.344100 3.780150 -0.060140 
#    z -0.175690 -0.060140 4.405090 
# 
# 
# High freq. dielectric constant tensor:
#      x y z
#    x 1.848690 0.031120 0.003700 
#    y 0.031120 1.840700 -0.004220 
#    z 0.003700 -0.004220 1.866400 
# 
# From -- ./inp_files/169152.got.cif
#   From: 2010.06.25/outbox.cif.g09.slc.cpg/sg2_85_cif.got.tgz:169152.got - 2010.06.27 13:26:56.
