data_PCOD8032837
_publ_section_title
;
Structure prediction by ZEFSAII (Michael W. Deem and Ramdas Pophale) SiO2 
 PCOD8032837
Probable space group: P -1
;
_chemical_formula_sum "Si O2"
_cell_formula_units_Z 16
_cell_length_a 9.644973
_cell_length_b 16.674648
_cell_length_c 8.768613
_cell_angle_alpha 83.056148
_cell_angle_beta 128.416219
_cell_angle_gamma 60.224256
_cell_volume 743.623763
_symmetry_space_group_name_H-M "P -1"
_symmetry_group_IT_number 2
_symmetry_cell_setting 'triclinic'
loop_
_space_group_symop_operation_xyz
x,y,z
-x,-y,-z
loop_
_atom_site_type_symbol
_atom_site_label
_atom_site_fract_x
_atom_site_fract_y
_atom_site_fract_z
Si Si1 0.536129 0.481188 0.349597
Si Si2 0.880121 0.064796 0.562172
Si Si3 0.189943 0.701285 0.851256
Si Si4 0.748608 0.953611 0.012070
Si Si5 0.217215 0.057783 0.301145
Si Si6 0.064348 0.403572 0.673265
Si Si7 0.778873 0.804233 0.302904
Si Si8 0.519328 0.662893 0.838669
O O1 0.500000 0.500000 0.500000
O O2 0.510905 0.397054 0.294733
O O3 0.810689 0.432846 0.517931
O O4 0.296664 0.602982 0.069682
O O5 0.665637 0.205200 0.376242
O O6 0.135844 0.008820 0.833639
O O7 0.742293 0.041823 0.570356
O O8 0.000000 0.000000 0.500000
O O9 0.435052 0.663734 0.950894
O O10 0.997612 0.826092 0.773667
O O11 0.039372 0.710287 0.605069
O O12 0.815126 0.847274 0.166644
O O13 0.880985 0.909217 0.947114
O O14 0.440129 0.078506 0.769536
O O15 0.500000 0.000000 0.500000
O O16 0.275277 0.270013 0.771545
O O17 0.000000 0.500000 0.500000
O O18 0.188807 0.398210 0.917466
#
# Coordination Sequence:
#
# PCOD8032837 Si02
#       8
#     2   2   2   2   2   2   2   2
#     4  12  29  49  74 106 145 186 238 306 360 413
#     4  12  24  45  70 102 144 186 239 286 355 437
#     4  12  23  46  74 100 142 190 239 290 354 426
#     4  11  24  43  69 105 143 185 237 290 360 423
#     4  12  27  43  67 110 143 184 232 298 360 420
#     4  12  25  45  75 104 136 187 243 290 353 425
#     4  11  23  43  75 103 138 191 238 289 355 433
#     4  12  25  48  76 104 140 193 245 290 349 435
#
# _framework density 21.516257
#
# number of rings (size 3 to 8) (size 9 to 14) (size 15 to 20)
#    0.000    0.250    6.250    2.250    7.000    0.500 
#    2.250    0.000    0.000    0.000    0.000    0.000 
#    0.000    0.000    0.000    0.000    0.000    0.000 
#
# Total GULP energy -198315.645914 kJ/mol
# GULP energy per Si atom -12394.727870 kJ/mol
# Density = 2.146729 g / cm^3
# Si number density = 21.516257 Si / 1000 Ang^3
#
#
#
# Elastic Constant Matrix: (Units=GPa)
#
#
# Indices 1 2 3 4 5 6 
#
# 1 96.5399 55.5826 38.0872 9.9996 -26.1049 12.1699
# 2 55.5826 155.3622 58.7196 8.6059 -16.3702 14.8346
# 3 38.0872 58.7196 135.2467 8.5959 -9.2708 9.7479
# 4 9.9996 8.6059 8.5959 43.2526 6.7793 -7.3440
# 5 -26.1049 -16.3702 -9.2708 6.7793 44.2115 4.7665
# 6 12.1699 14.8346 9.7479 -7.3440 4.7665 36.3176
#
#
#
# Elastic Compliance Matrix: (Units=1/GPa)
#
#
# Indices 1 2 3 4 5 6 
#
# 1 0.017147 -0.003489 -0.001828 -0.005532 0.009972 -0.006258
# 2 -0.003489 0.009073 -0.002657 -0.001018 0.001133 -0.002178
# 3 -0.001828 -0.002657 0.009213 -0.001074 0.000142 -0.001011
# 4 -0.005532 -0.001018 -0.001074 0.027843 -0.009150 0.009389
# 5 0.009972 0.001133 0.000142 -0.009150 0.031417 -0.009816
# 6 -0.006258 -0.002178 -0.001011 0.009389 -0.009816 0.033980
#
#
# Mechanical properties :
#
#
# Convention : Reuss Voigt Hill
#
# Bulk Modulus (GPa) = 51.32201 76.88084 64.10143
# Shear Modulus (GPa) = 33.08717 40.40696 36.74706
#
# Velocity S-wave (km/s) = 3.92570 4.33826 4.13713
# Velocity P-wave (km/s) = 6.66728 7.80404 7.25795
#
# Compressibility (1/GPa) = 0.01948482
#
# Stress axis : x y z
#
# Youngs Moduli (GPa) = 58.32047 110.21905 108.54037
#
# Poissons Ratio (x) = 0.38455 0.19838
# Poissons Ratio (y) = 0.20348 0.28842
# Poissons Ratio (z) = 0.10660 0.29288
#
# Static dielectric constant tensor:
#      x y z
#    x 3.980740 0.078880 0.110030 
#    y 0.078880 4.341570 -0.056240 
#    z 0.110030 -0.056240 4.214920 
# 
# 
# High freq. dielectric constant tensor:
#      x y z
#    x 1.833750 0.007730 -0.001060 
#    y 0.007730 1.856550 0.002030 
#    z -0.001060 0.002030 1.866110 
# 
# From -- ./inp_files/207166.got.cif
#   From: 2010.06.25/outbox.cif.g09.slc.cpg/sg2_104_cif.got.tgz:207166.got - 2010.06.27 13:26:56.
