data_PCOD8032915
_publ_section_title
;
Structure prediction by ZEFSAII (Michael W. Deem and Ramdas Pophale) SiO2 
 PCOD8032915
Probable space group: P -1
;
_chemical_formula_sum "Si O2"
_cell_formula_units_Z 16
_cell_length_a 13.842845
_cell_length_b 14.271421
_cell_length_c 10.492134
_cell_angle_alpha 69.926139
_cell_angle_beta 47.403246
_cell_angle_gamma 33.278180
_cell_volume 698.612984
_symmetry_space_group_name_H-M "P -1"
_symmetry_group_IT_number 2
_symmetry_cell_setting 'triclinic'
loop_
_space_group_symop_operation_xyz
x,y,z
-x,-y,-z
loop_
_atom_site_type_symbol
_atom_site_label
_atom_site_fract_x
_atom_site_fract_y
_atom_site_fract_z
Si Si1 0.234058 0.065318 0.026944
Si Si2 0.356092 0.853392 0.519288
Si Si3 0.144723 0.330287 0.349877
Si Si4 0.255844 0.899065 0.310060
Si Si5 0.967259 0.447090 0.171644
Si Si6 0.080108 0.719595 0.319597
Si Si7 0.109900 0.844404 0.877868
Si Si8 0.514661 0.552669 0.130339
O O1 0.539762 0.886071 0.798992
O O2 0.065157 0.276599 0.108631
O O3 0.113532 0.084010 0.006331
O O4 0.213002 0.014266 0.194928
O O5 0.346351 0.891562 0.362399
O O6 0.656210 0.655061 0.397359
O O7 0.235581 0.822557 0.658253
O O8 0.158688 0.071113 0.652157
O O9 0.000000 0.500000 0.500000
O O10 0.117432 0.378647 0.201389
O O11 0.018983 0.304863 0.493445
O O12 0.506541 0.660701 0.163995
O O13 0.000000 0.000000 0.500000
O O14 0.000000 0.500000 0.000000
O O15 0.208526 0.720833 0.293981
O O16 0.321825 0.523596 0.105534
O O17 0.349257 0.626249 0.831227
O O18 0.000000 0.000000 0.000000
#
# Coordination Sequence:
#
# PCOD8032915 Si02
#       8
#     2   2   2   2   2   2   2   2
#     4  12  27  49  73 104 151 192 242 301 366 438
#     4  12  24  43  74 101 142 182 243 294 362 430
#     4  12  28  46  76 104 142 195 252 296 363 439
#     4  12  23  42  69 107 136 186 239 287 360 437
#     4  12  28  51  74 105 150 197 243 302 364 436
#     4  11  23  44  68 102 136 194 234 297 354 431
#     4  12  26  43  71 114 145 184 235 313 366 426
#     4  11  24  41  71 100 150 179 237 297 364 417
#
# _framework density 22.902522999999999
#
# number of rings (size 3 to 8) (size 9 to 14) (size 15 to 20)
#    0.000    0.250    3.750    4.875    7.000    2.000 
#    0.000    1.875    0.000    0.000    0.000    0.000 
#    0.000    0.000    0.000    0.000    0.000    0.000 
#
# Total GULP energy -198378.391219 kJ/mol
# GULP energy per Si atom -12398.649451 kJ/mol
# Density = 2.285040 g / cm^3
# Si number density = 22.902523 Si / 1000 Ang^3
#
#
#
# Elastic Constant Matrix: (Units=GPa)
#
#
# Indices 1 2 3 4 5 6 
#
# 1 113.2763 36.7133 32.3569 8.6478 5.3907 1.3037
# 2 36.7133 152.4887 45.4844 -0.9108 -1.0527 10.2647
# 3 32.3569 45.4844 112.1280 -2.7555 -17.4879 2.4638
# 4 8.6478 -0.9108 -2.7555 50.8773 -9.3451 -1.7242
# 5 5.3907 -1.0527 -17.4879 -9.3451 27.3819 2.2534
# 6 1.3037 10.2647 2.4638 -1.7242 2.2534 37.8712
#
#
#
# Elastic Compliance Matrix: (Units=1/GPa)
#
#
# Indices 1 2 3 4 5 6 
#
# 1 0.010821 -0.001689 -0.003368 -0.003031 -0.005421 0.000489
# 2 -0.001689 0.007931 -0.002848 0.000025 -0.001021 -0.001844
# 3 -0.003368 -0.002848 0.012635 0.002969 0.009667 -0.000374
# 4 -0.003031 0.000025 0.002969 0.022186 0.010040 0.000317
# 5 -0.005421 -0.001021 0.009667 0.010040 0.047357 -0.002526
# 6 0.000489 -0.001844 -0.000374 0.000317 -0.002526 0.027077
#
#
# Mechanical properties :
#
#
# Convention : Reuss Voigt Hill
#
# Bulk Modulus (GPa) = 64.20019 67.44469 65.82244
# Shear Modulus (GPa) = 33.55465 40.78198 37.16831
#
# Velocity S-wave (km/s) = 3.83182 4.22438 4.03288
# Velocity P-wave (km/s) = 6.90434 7.30112 7.10550
#
# Compressibility (1/GPa) = 0.01557628
#
# Stress axis : x y z
#
# Youngs Moduli (GPa) = 92.40998 126.08288 79.14820
#
# Poissons Ratio (x) = 0.21297 0.26660
# Poissons Ratio (y) = 0.15609 0.22542
# Poissons Ratio (z) = 0.31127 0.35909
#
# Static dielectric constant tensor:
#      x y z
#    x 3.411150 -0.342220 0.369210 
#    y -0.342220 4.075180 0.240380 
#    z 0.369210 0.240380 4.257660 
# 
# 
# High freq. dielectric constant tensor:
#      x y z
#    x 1.895600 0.005390 0.006080 
#    y 0.005390 1.924200 0.006190 
#    z 0.006080 0.006190 1.919940 
# 
# From -- ./inp_files/455623.got.cif
#   From: 2010.06.25/outbox.cif.g09.slc.cpg/sg2_228_cif.got.tgz:455623.got - 2010.06.27 13:26:56.
