data_PCOD8032742
_publ_section_title
;
Structure prediction by ZEFSAII (Michael W. Deem and Ramdas Pophale) SiO2 
 PCOD8032742
Probable space group: P -1
;
_chemical_formula_sum "Si O2"
_cell_formula_units_Z 12
_cell_length_a 13.306577
_cell_length_b 10.362718
_cell_length_c 5.144931
_cell_angle_alpha 90.714879
_cell_angle_beta 99.599110
_cell_angle_gamma 45.006247
_cell_volume 488.997807
_symmetry_space_group_name_H-M "P -1"
_symmetry_group_IT_number 2
_symmetry_cell_setting 'triclinic'
loop_
_space_group_symop_operation_xyz
x,y,z
-x,-y,-z
loop_
_atom_site_type_symbol
_atom_site_label
_atom_site_fract_x
_atom_site_fract_y
_atom_site_fract_z
Si Si1 0.139430 0.845021 0.885701
Si Si2 0.269917 0.092500 0.354252
Si Si3 0.411770 0.485824 0.278052
Si Si4 0.767910 0.586511 0.715218
Si Si5 0.932360 0.360585 0.296722
Si Si6 0.337579 0.879837 0.871203
O O1 0.190733 0.926793 0.755949
O O2 0.275642 0.689309 0.122967
O O3 0.898835 0.238498 0.323921
O O4 0.000000 0.000000 0.000000
O O5 0.311169 0.203731 0.324031
O O6 0.096457 0.236177 0.281529
O O7 0.339059 0.987888 0.654453
O O8 0.338062 0.942713 0.155544
O O9 0.500000 0.500000 0.500000
O O10 0.352305 0.413378 0.403564
O O11 0.518472 0.340170 0.089743
O O12 0.896722 0.465296 0.552835
O O13 0.831546 0.506673 0.027243
#
# Coordination Sequence:
#
# PCOD8032742 Si02
#       6
#     2   2   2   2   2   2
#     4  11  24  46  75 106 139 186 247 295 354 422
#     4  12  25  43  72 104 147 187 238 291 356 431
#     4  11  26  48  73 105 149 189 237 298 364 424
#     4  11  25  45  71 104 141 194 236 291 359 424
#     4  11  23  43  71 104 144 181 243 301 353 411
#     4  12  26  44  71 107 149 186 233 295 361 426
#
# _framework density 24.53999
#
# number of rings (size 3 to 8) (size 9 to 14) (size 15 to 20)
#    0.000    0.667    1.667    5.500    2.333    7.333 
#    0.000    0.000    0.000    0.000    0.000    0.000 
#    0.000    0.000    0.000    0.000    0.000    0.000 
#
# Total GULP energy -148865.688330 kJ/mol
# GULP energy per Si atom -12405.474028 kJ/mol
# Density = 2.448414 g / cm^3
# Si number density = 24.539990 Si / 1000 Ang^3
#
#
#
# Elastic Constant Matrix: (Units=GPa)
#
#
# Indices 1 2 3 4 5 6 
#
# 1 113.5180 39.9845 19.8402 -2.1018 -3.9159 5.3407
# 2 39.9845 154.9535 23.7934 25.0098 -4.8470 -9.1435
# 3 19.8402 23.7934 70.9028 18.7648 -10.8949 -0.5182
# 4 -2.1018 25.0098 18.7648 37.3602 -5.6516 -1.6224
# 5 -3.9159 -4.8470 -10.8949 -5.6516 30.1144 -2.4848
# 6 5.3407 -9.1435 -0.5182 -1.6224 -2.4848 48.6128
#
#
#
# Elastic Compliance Matrix: (Units=1/GPa)
#
#
# Indices 1 2 3 4 5 6 
#
# 1 0.010555 -0.003009 -0.002971 0.004099 0.000451 -0.001597
# 2 -0.003009 0.008276 -0.000513 -0.005396 -0.000118 0.001696
# 3 -0.002971 -0.000513 0.017962 -0.008143 0.004533 0.000381
# 4 0.004099 -0.005396 -0.008143 0.035190 0.003305 -0.000209
# 5 0.000451 -0.000118 0.004533 0.003305 0.035664 0.001910
# 6 -0.001597 0.001696 0.000381 -0.000209 0.001910 0.021160
#
#
# Mechanical properties :
#
#
# Convention : Reuss Voigt Hill
#
# Bulk Modulus (GPa) = 42.00490 56.29005 49.14748
# Shear Modulus (GPa) = 33.39371 40.26790 36.83080
#
# Velocity S-wave (km/s) = 3.69289 4.05521 3.87828
# Velocity P-wave (km/s) = 5.94452 6.70180 6.33449
#
# Compressibility (1/GPa) = 0.02380674
#
# Stress axis : x y z
#
# Youngs Moduli (GPa) = 94.74209 120.82961 55.67417
#
# Poissons Ratio (x) = 0.36360 0.16541
# Poissons Ratio (y) = 0.28510 0.02855
# Poissons Ratio (z) = 0.28148 0.06196
#
# Static dielectric constant tensor:
#      x y z
#    x 4.928380 0.140620 -0.262800 
#    y 0.140620 4.678340 -0.011160 
#    z -0.262800 -0.011160 4.077600 
# 
# 
# High freq. dielectric constant tensor:
#      x y z
#    x 1.990810 0.003590 -0.011570 
#    y 0.003590 1.992390 0.001160 
#    z -0.011570 0.001160 1.963420 
# 
# From -- ./inp_files/94583.got.cif
#   From: 2010.06.25/outbox.cif.g09.slc.cpg/sg2_48_cif.got.tgz:94583.got - 2010.06.27 13:26:56.
