data_PCOD8032022
_publ_section_title
;
Structure prediction by ZEFSAII (Michael W. Deem and Ramdas Pophale) SiO2 
 PCOD8032022
Probable space group: P -1
;
_chemical_formula_sum "Si O2"
_cell_formula_units_Z 16
_cell_length_a 18.709927
_cell_length_b 10.782950
_cell_length_c 10.321236
_cell_angle_alpha 133.958947
_cell_angle_beta 36.820989
_cell_angle_gamma 147.875790
_cell_volume 662.749579
_symmetry_space_group_name_H-M "P -1"
_symmetry_group_IT_number 2
_symmetry_cell_setting 'triclinic'
loop_
_space_group_symop_operation_xyz
x,y,z
-x,-y,-z
loop_
_atom_site_type_symbol
_atom_site_label
_atom_site_fract_x
_atom_site_fract_y
_atom_site_fract_z
Si Si1 0.167149 0.705090 0.786246
Si Si2 0.153235 0.413197 0.785018
Si Si3 0.626358 0.589186 0.045560
Si Si4 0.504191 0.343715 0.475500
Si Si5 0.921160 0.018178 0.508657
Si Si6 0.331718 0.121657 0.032353
Si Si7 0.214092 0.826332 0.523895
Si Si8 0.091446 0.355692 0.279931
O O1 0.150518 0.488134 0.695281
O O2 0.255580 0.810214 0.598084
O O3 0.281987 0.895784 0.871080
O O4 0.991363 0.623295 0.962421
O O5 0.329309 0.603711 0.734095
O O6 0.125530 0.181723 0.665512
O O7 0.518780 0.327668 0.952390
O O8 0.774585 0.655137 0.960779
O O9 0.526319 0.620334 0.306085
O O10 0.707449 0.768222 0.936844
O O11 0.500000 0.500000 0.500000
O O12 0.367368 0.079369 0.432388
O O13 0.765874 0.961984 0.752423
O O14 0.000000 0.000000 0.500000
O O15 0.026689 0.260188 0.451874
O O16 0.179269 0.626380 0.341504
O O17 0.055441 0.794734 0.718564
#
# Coordination Sequence:
#
# PCOD8032022 Si02
#       8
#     2   2   2   2   2   2   2   2
#     4  11  24  43  69 104 136 179 225 280 342 402
#     4  11  25  41  67 106 137 177 224 282 339 399
#     4  11  24  43  67 102 135 182 228 278 343 401
#     4  12  27  47  68 102 138 181 228 285 341 403
#     4  12  20  41  69  97 136 178 226 273 335 400
#     4  11  23  40  66 104 138 173 229 277 337 406
#     4  11  27  47  66  99 137 181 229 279 348 402
#     4  11  26  46  69  96 138 185 225 281 338 416
#
# _framework density 24.141848
#
# number of rings (size 3 to 8) (size 9 to 14) (size 15 to 20)
#    0.000    0.750    5.000    1.500    5.250    1.000 
#    0.000    0.625    0.000    0.000    0.000    0.000 
#    0.000    0.000    0.000    0.000    0.000    0.000 
#
# Total GULP energy -198330.345065 kJ/mol
# GULP energy per Si atom -12395.646567 kJ/mol
# Density = 2.408690 g / cm^3
# Si number density = 24.141848 Si / 1000 Ang^3
#
#
#
# Elastic Constant Matrix: (Units=GPa)
#
#
# Indices 1 2 3 4 5 6 
#
# 1 74.6172 19.1039 1.7409 -4.4157 -7.4642 -4.4881
# 2 19.1039 127.2830 9.2635 -6.8294 -2.6224 3.0657
# 3 1.7409 9.2635 40.8107 -2.4746 -5.3931 3.3458
# 4 -4.4157 -6.8294 -2.4746 20.8572 1.7265 1.0965
# 5 -7.4642 -2.6224 -5.3931 1.7265 31.7860 -10.3010
# 6 -4.4881 3.0657 3.3458 1.0965 -10.3010 45.0655
#
#
#
# Elastic Compliance Matrix: (Units=1/GPa)
#
#
# Indices 1 2 3 4 5 6 
#
# 1 0.014590 -0.002082 0.000298 0.001985 0.003986 0.002436
# 2 -0.002082 0.008419 -0.001683 0.002198 -0.000463 -0.000814
# 3 0.000298 -0.001683 0.025596 0.002279 0.003848 -0.000932
# 4 0.001985 0.002198 0.002279 0.049639 -0.002260 -0.001846
# 5 0.003986 -0.000463 0.003848 -0.002260 0.035854 0.008393
# 6 0.002436 -0.000814 -0.000932 -0.001846 0.008393 0.024521
#
#
# Mechanical properties :
#
#
# Convention : Reuss Voigt Hill
#
# Bulk Modulus (GPa) = 23.99762 33.65863 28.82813
# Shear Modulus (GPa) = 27.86367 33.71522 30.78944
#
# Velocity S-wave (km/s) = 3.40099 3.74109 3.57509
# Velocity P-wave (km/s) = 5.03826 5.71256 5.38597
#
# Compressibility (1/GPa) = 0.04167080
#
# Stress axis : x y z
#
# Youngs Moduli (GPa) = 68.53795 118.77280 39.06873
#
# Poissons Ratio (x) = 0.24724 -0.01163
# Poissons Ratio (y) = 0.14267 0.06577
# Poissons Ratio (z) = -0.02039 0.19995
#
# Static dielectric constant tensor:
#      x y z
#    x 4.143330 -0.110230 -0.291110 
#    y -0.110230 4.626280 -0.235880 
#    z -0.291110 -0.235880 3.661270 
# 
# 
# High freq. dielectric constant tensor:
#      x y z
#    x 1.952620 -0.003690 -0.010840 
#    y -0.003690 1.977440 -0.008480 
#    z -0.010840 -0.008480 1.926290 
# 
# From -- ./inp_files/345388.got.cif
#   From: 2010.06.25/outbox.cif.g09.slc.cpg/sg2_173_cif.got.tgz:345388.got - 2010.06.27 13:26:56.
