data_PCOD8032963
_publ_section_title
;
Structure prediction by ZEFSAII (Michael W. Deem and Ramdas Pophale) SiO2 
 PCOD8032963
Probable space group: P -1
;
_chemical_formula_sum "Si O2"
_cell_formula_units_Z 16
_cell_length_a 14.335675
_cell_length_b 17.618883
_cell_length_c 23.146518
_cell_angle_alpha 19.229366
_cell_angle_beta 158.374776
_cell_angle_gamma 149.287263
_cell_volume 701.751913
_symmetry_space_group_name_H-M "P -1"
_symmetry_group_IT_number 2
_symmetry_cell_setting 'triclinic'
loop_
_space_group_symop_operation_xyz
x,y,z
-x,-y,-z
loop_
_atom_site_type_symbol
_atom_site_label
_atom_site_fract_x
_atom_site_fract_y
_atom_site_fract_z
Si Si1 0.005739 0.226548 0.878839
Si Si2 0.659864 0.049044 0.001928
Si Si3 0.574110 0.588011 0.571905
Si Si4 0.152467 0.156206 0.369930
Si Si5 0.704931 0.743925 0.863894
Si Si6 0.820546 0.921694 0.685357
Si Si7 0.490893 0.716393 0.921306
Si Si8 0.362391 0.965093 0.784091
O O1 0.725847 0.374892 0.611496
O O2 0.093263 0.170380 0.036502
O O3 0.213207 0.365254 0.867803
O O4 0.000000 0.000000 0.000000
O O5 0.645393 0.324268 0.781291
O O6 0.560564 0.919158 0.983692
O O7 0.952332 0.938308 0.263676
O O8 0.500000 0.000000 0.000000
O O9 0.748174 0.620331 0.705063
O O10 0.645180 0.770570 0.433436
O O11 0.092774 0.214738 0.226321
O O12 0.917927 0.074393 0.328573
O O13 0.386678 0.944143 0.660592
O O14 0.796278 0.738013 0.854385
O O15 0.435710 0.906444 0.596448
O O16 0.672657 0.481563 0.049301
O O17 0.468451 0.774685 0.934350
#
# Coordination Sequence:
#
# PCOD8032963 Si02
#       8
#     2   2   2   2   2   2   2   2
#     4  12  22  44  71 100 133 164 222 281 326 384
#     4  12  27  43  65  95 139 180 218 269 326 398
#     4  11  25  42  70 100 127 180 221 274 332 381
#     4  11  23  44  69  96 138 168 224 272 332 395
#     4  11  26  43  71  96 129 178 222 270 328 399
#     4  11  25  45  65  94 138 177 219 261 335 392
#     4  11  24  41  71  99 125 173 224 278 327 379
#     4  11  24  45  65 102 133 170 225 278 325 390
#
# _framework density 22.800080000000001
#
# number of rings (size 3 to 8) (size 9 to 14) (size 15 to 20)
#    0.000    0.750    5.000    3.000    7.000    1.500 
#    0.000    0.625    0.000    0.000    0.000    0.000 
#    0.000    0.000    0.000    0.000    0.000    0.000 
#
# Total GULP energy -198369.256035 kJ/mol
# GULP energy per Si atom -12398.078502 kJ/mol
# Density = 2.274819 g / cm^3
# Si number density = 22.800080 Si / 1000 Ang^3
#
#
#
# Elastic Constant Matrix: (Units=GPa)
#
#
# Indices 1 2 3 4 5 6 
#
# 1 161.6151 44.8193 21.0347 20.4400 -6.3451 -7.9556
# 2 44.8193 116.1164 30.7991 24.6815 -5.4851 -10.6344
# 3 21.0347 30.7991 48.7966 23.6195 4.3577 -3.3976
# 4 20.4400 24.6815 23.6195 42.0238 4.0380 -1.8151
# 5 -6.3451 -5.4851 4.3577 4.0380 25.8941 18.9860
# 6 -7.9556 -10.6344 -3.3976 -1.8151 18.9860 46.8115
#
#
#
# Elastic Compliance Matrix: (Units=1/GPa)
#
#
# Indices 1 2 3 4 5 6 
#
# 1 0.007195 -0.002005 -0.001105 -0.001896 0.001950 -0.000177
# 2 -0.002005 0.011624 -0.005126 -0.003218 0.002865 0.000641
# 3 -0.001105 -0.005126 0.031517 -0.013359 -0.006950 0.003236
# 4 -0.001896 -0.003218 -0.013359 0.034704 -0.005427 0.001524
# 5 0.001950 0.002865 -0.006950 -0.005427 0.059098 -0.023702
# 6 -0.000177 0.000641 0.003236 0.001524 -0.023702 0.031385
#
#
# Mechanical properties :
#
#
# Convention : Reuss Voigt Hill
#
# Bulk Modulus (GPa) = 29.52956 57.75936 43.64446
# Shear Modulus (GPa) = 24.59640 38.27088 31.43364
#
# Velocity S-wave (km/s) = 3.28805 4.10145 3.71706
# Velocity P-wave (km/s) = 5.23399 6.91499 6.13236
#
# Compressibility (1/GPa) = 0.03386437
#
# Stress axis : x y z
#
# Youngs Moduli (GPa) = 138.98464 86.03082 31.72922
#
# Poissons Ratio (x) = 0.17252 0.03505
# Poissons Ratio (y) = 0.27871 0.16263
# Poissons Ratio (z) = 0.15352 0.44097
#
# Static dielectric constant tensor:
#      x y z
#    x 4.500890 -0.050650 0.081110 
#    y -0.050650 4.467620 0.518480 
#    z 0.081110 0.518480 4.059510 
# 
# 
# High freq. dielectric constant tensor:
#      x y z
#    x 1.919930 -0.003090 0.005680 
#    y -0.003090 1.908300 0.027750 
#    z 0.005680 0.027750 1.881280 
# 
# From -- ./inp_files/333579.got.cif
#   From: 2010.06.25/outbox.cif.g09.slc.cpg/sg2_167_cif.got.tgz:333579.got - 2010.06.27 13:26:56.
