data_PCOD8032062
_publ_section_title
;
Structure prediction by ZEFSAII (Michael W. Deem and Ramdas Pophale) SiO2 
 PCOD8032062
Probable space group: P -1
;
_chemical_formula_sum "Si O2"
_cell_formula_units_Z 14
_cell_length_a 10.792688
_cell_length_b 12.497421
_cell_length_c 6.242412
_cell_angle_alpha 48.166239
_cell_angle_beta 111.899779
_cell_angle_gamma 108.281868
_cell_volume 579.502906
_symmetry_space_group_name_H-M "P -1"
_symmetry_group_IT_number 2
_symmetry_cell_setting 'triclinic'
loop_
_space_group_symop_operation_xyz
x,y,z
-x,-y,-z
loop_
_atom_site_type_symbol
_atom_site_label
_atom_site_fract_x
_atom_site_fract_y
_atom_site_fract_z
Si Si1 0.361635 0.673591 0.724233
Si Si2 0.125004 0.329207 0.799065
Si Si3 0.163819 0.642475 0.311160
Si Si4 0.432613 0.411301 0.374005
Si Si5 0.722210 0.137930 0.251565
Si Si6 0.993085 0.879355 0.334280
Si Si7 0.246788 0.158865 0.473946
O O1 0.215107 0.702209 0.496833
O O2 0.465127 0.667540 0.604905
O O3 0.390389 0.807376 0.731238
O O4 0.351841 0.521560 0.042566
O O5 0.204583 0.477433 0.568594
O O6 0.068087 0.264504 0.627490
O O7 0.995251 0.354269 0.830929
O O8 0.221599 0.236578 0.125094
O O9 0.252257 0.732255 0.073592
O O10 0.500000 0.500000 0.500000
O O11 0.325825 0.272297 0.540581
O O12 0.861072 0.121896 0.477351
O O13 0.670163 0.981205 0.329316
O O14 0.892368 0.908946 0.423040
O O15 0.000000 0.000000 0.000000
#
# Coordination Sequence:
#
# PCOD8032062 Si02
#       7
#     2   2   2   2   2   2   2
#     4  11  25  46  74 100 145 186 239 308 354 410
#     4  11  23  40  69 108 147 189 236 285 366 433
#     4  11  23  41  68 109 146 184 238 298 353 432
#     4  11  27  52  74 101 138 195 253 301 347 426
#     4  12  25  42  71 111 150 185 231 299 366 430
#     4  12  24  40  69 109 156 186 227 290 361 441
#     4  12  26  45  75 107 147 196 237 286 368 432
#
# _framework density 24.158633999999999
#
# number of rings (size 3 to 8) (size 9 to 14) (size 15 to 20)
#    0.000    0.571    5.714    2.143    4.000    1.143 
#    0.000    2.857    0.000    0.000    0.000    0.000 
#    0.000    0.000    0.000    0.000    0.000    0.000 
#
# Total GULP energy -173454.463856 kJ/mol
# GULP energy per Si atom -12389.604561 kJ/mol
# Density = 2.410365 g / cm^3
# Si number density = 24.158634 Si / 1000 Ang^3
#
#
#
# Elastic Constant Matrix: (Units=GPa)
#
#
# Indices 1 2 3 4 5 6 
#
# 1 69.5247 37.1736 26.3305 -8.0878 -2.2627 -14.9990
# 2 37.1736 131.6973 31.2244 -10.7377 -5.0408 -13.8510
# 3 26.3305 31.2244 132.7792 -11.1897 -5.4968 1.0341
# 4 -8.0878 -10.7377 -11.1897 36.4560 4.7785 5.5721
# 5 -2.2627 -5.0408 -5.4968 4.7785 21.7290 0.8903
# 6 -14.9990 -13.8510 1.0341 5.5721 0.8903 41.3669
#
#
#
# Elastic Compliance Matrix: (Units=1/GPa)
#
#
# Indices 1 2 3 4 5 6 
#
# 1 0.018879 -0.004009 -0.002735 0.001367 -0.000178 0.005391
# 2 -0.004009 0.009318 -0.001270 0.001085 0.001122 0.001528
# 3 -0.002735 -0.001270 0.008590 0.001778 0.001280 -0.001899
# 4 0.001367 0.001085 0.001778 0.029802 -0.005584 -0.003080
# 5 -0.000178 0.001122 0.001280 -0.005584 0.047815 0.000002
# 6 0.005391 0.001528 -0.001899 -0.003080 0.000002 0.027102
#
#
# Mechanical properties :
#
#
# Convention : Reuss Voigt Hill
#
# Bulk Modulus (GPa) = 48.17294 58.16201 53.16748
# Shear Modulus (GPa) = 30.40368 35.86188 33.13278
#
# Velocity S-wave (km/s) = 3.55139 3.85701 3.70735
# Velocity P-wave (km/s) = 6.06630 6.63044 6.35463
#
# Compressibility (1/GPa) = 0.02075854
#
# Stress axis : x y z
#
# Youngs Moduli (GPa) = 52.96908 107.31973 116.41364
#
# Poissons Ratio (x) = 0.43021 0.31841
# Poissons Ratio (y) = 0.21234 0.14788
# Poissons Ratio (z) = 0.14488 0.13633
#
# Static dielectric constant tensor:
#      x y z
#    x 4.211090 0.071690 0.088380 
#    y 0.071690 5.754470 0.265790 
#    z 0.088380 0.265790 4.003920 
# 
# 
# High freq. dielectric constant tensor:
#      x y z
#    x 1.940470 -0.009540 0.004900 
#    y -0.009540 1.971770 -0.002660 
#    z 0.004900 -0.002660 1.961250 
# 
# From -- ./inp_files/28102.got.cif
#   From: 2010.06.25/outbox.cif.g09.slc.cpg/sg2_15_cif.got.tgz:28102.got - 2010.06.27 13:26:56.
