data_PCOD8032613
_publ_section_title
;
Structure prediction by ZEFSAII (Michael W. Deem and Ramdas Pophale) SiO2 
 PCOD8032613
Probable space group: P -1
;
_chemical_formula_sum "Si O2"
_cell_formula_units_Z 16
_cell_length_a 8.455229
_cell_length_b 11.996610
_cell_length_c 11.059386
_cell_angle_alpha 51.800703
_cell_angle_beta 61.681789
_cell_angle_gamma 59.523944
_cell_volume 738.078956
_symmetry_space_group_name_H-M "P -1"
_symmetry_group_IT_number 2
_symmetry_cell_setting 'triclinic'
loop_
_space_group_symop_operation_xyz
x,y,z
-x,-y,-z
loop_
_atom_site_type_symbol
_atom_site_label
_atom_site_fract_x
_atom_site_fract_y
_atom_site_fract_z
Si Si1 0.044477 0.594180 0.110739
Si Si2 0.788871 0.460452 0.157206
Si Si3 0.573941 0.133855 0.349192
Si Si4 0.068850 0.920317 0.901712
Si Si5 0.413849 0.513838 0.387581
Si Si6 0.214619 0.360169 0.401787
Si Si7 0.143243 0.838480 0.576793
Si Si8 0.107120 0.790231 0.360323
O O1 0.095027 0.510472 0.275868
O O2 0.848922 0.578306 0.139699
O O3 0.201225 0.514015 0.006781
O O4 0.019133 0.767623 0.022198
O O5 0.574556 0.476552 0.253555
O O6 0.928029 0.288853 0.245320
O O7 0.709675 0.110549 0.196216
O O8 0.388696 0.276731 0.305893
O O9 0.679674 0.151580 0.420601
O O10 0.500000 0.000000 0.500000
O O11 0.942992 0.035941 0.772226
O O12 0.000000 0.000000 0.000000
O O13 0.500000 0.500000 0.500000
O O14 0.289456 0.402988 0.475709
O O15 0.274426 0.679818 0.295428
O O16 0.084645 0.255471 0.545539
O O17 0.203982 0.767761 0.471449
O O18 0.000000 0.000000 0.500000
#
# Coordination Sequence:
#
# PCOD8032613 Si02
#       8
#     2   2   2   2   2   2   2   2
#     4  11  24  45  70  97 137 180 230 286 348 407
#     4  11  23  43  68 100 134 180 230 286 342 415
#     4  12  24  44  71 104 133 179 235 282 334 416
#     4  12  26  45  66 101 145 176 224 286 352 405
#     4  12  23  40  64 101 140 170 227 288 342 404
#     4  12  23  42  73 100 129 184 235 277 339 420
#     4  12  20  43  72  96 133 177 234 282 333 408
#     4  12  24  43  70 100 131 184 227 282 348 407
#
# _framework density 21.677897999999999
#
# number of rings (size 3 to 8) (size 9 to 14) (size 15 to 20)
#    0.000    0.250    7.500    1.125    0.000    4.000 
#    2.250    0.625    0.000    0.000    0.000    0.000 
#    0.000    0.000    0.000    0.000    0.000    0.000 
#
# Total GULP energy -198220.704111 kJ/mol
# GULP energy per Si atom -12388.794007 kJ/mol
# Density = 2.162856 g / cm^3
# Si number density = 21.677898 Si / 1000 Ang^3
#
#
#
# Elastic Constant Matrix: (Units=GPa)
#
#
# Indices 1 2 3 4 5 6 
#
# 1 100.6257 47.8533 40.9846 2.7042 -6.2149 23.3659
# 2 47.8533 111.6190 22.5655 -17.9907 -12.4676 -0.9805
# 3 40.9846 22.5655 71.4359 -21.0551 -5.4962 11.4786
# 4 2.7042 -17.9907 -21.0551 44.3654 7.3475 0.9360
# 5 -6.2149 -12.4676 -5.4962 7.3475 30.5338 -0.9910
# 6 23.3659 -0.9805 11.4786 0.9360 -0.9910 53.1001
#
#
#
# Elastic Compliance Matrix: (Units=1/GPa)
#
#
# Indices 1 2 3 4 5 6 
#
# 1 0.019712 -0.007781 -0.010517 -0.009378 0.000992 -0.006360
# 2 -0.007781 0.013267 0.001789 0.006176 0.002774 0.003225
# 3 -0.010517 0.001789 0.023206 0.012432 -0.000243 -0.000579
# 4 -0.009378 0.006176 0.012432 0.032308 -0.004895 0.000893
# 5 0.000992 0.002774 -0.000243 -0.004895 0.035233 0.000411
# 6 -0.006360 0.003225 -0.000579 0.000893 0.000411 0.021808
#
#
# Mechanical properties :
#
#
# Convention : Reuss Voigt Hill
#
# Bulk Modulus (GPa) = 43.16674 56.27640 49.72157
# Shear Modulus (GPa) = 26.84201 37.08500 31.96351
#
# Velocity S-wave (km/s) = 3.52265 4.14058 3.84405
# Velocity P-wave (km/s) = 6.04164 6.99113 6.53366
#
# Compressibility (1/GPa) = 0.02316598
#
# Stress axis : x y z
#
# Youngs Moduli (GPa) = 50.72988 75.37474 43.09226
#
# Poissons Ratio (x) = 0.58653 0.45321
# Poissons Ratio (y) = 0.39475 -0.07709
# Poissons Ratio (z) = 0.53354 -0.13485
#
# Static dielectric constant tensor:
#      x y z
#    x 4.466350 0.136790 0.137020 
#    y 0.136790 4.310150 0.059880 
#    z 0.137020 0.059880 3.980520 
# 
# 
# High freq. dielectric constant tensor:
#      x y z
#    x 1.848010 0.011550 0.000110 
#    y 0.011550 1.874830 -0.006490 
#    z 0.000110 -0.006490 1.840400 
# 
# From -- ./inp_files/333036.got.cif
#   From: 2010.06.25/outbox.cif.g09.slc.cpg/sg2_167_cif.got.tgz:333036.got - 2010.06.27 13:26:56.
