data_PCOD8032341
_publ_section_title
;
Structure prediction by ZEFSAII (Michael W. Deem and Ramdas Pophale) SiO2 
 PCOD8032341
Probable space group: P -1
;
_chemical_formula_sum "Si O2"
_cell_formula_units_Z 14
_cell_length_a 10.194705
_cell_length_b 21.603169
_cell_length_c 22.597162
_cell_angle_alpha 18.942387
_cell_angle_beta 153.456091
_cell_angle_gamma 154.496130
_cell_volume 665.137924
_symmetry_space_group_name_H-M "P -1"
_symmetry_group_IT_number 2
_symmetry_cell_setting 'triclinic'
loop_
_space_group_symop_operation_xyz
x,y,z
-x,-y,-z
loop_
_atom_site_type_symbol
_atom_site_label
_atom_site_fract_x
_atom_site_fract_y
_atom_site_fract_z
Si Si1 0.757496 0.270602 0.681779
Si Si2 0.417529 0.487317 0.699308
Si Si3 0.766702 0.861227 0.581231
Si Si4 0.836251 0.144957 0.032088
Si Si5 0.735043 0.175696 0.099659
Si Si6 0.668385 0.058165 0.579010
Si Si7 0.164664 0.520284 0.353261
O O1 0.577724 0.408859 0.456630
O O2 0.823356 0.329010 0.723884
O O3 0.074257 0.313003 0.733392
O O4 0.552481 0.028648 0.808888
O O5 0.499958 0.661419 0.625219
O O6 0.666798 0.380737 0.893414
O O7 0.595630 0.988077 0.433879
O O8 0.953947 0.779439 0.776977
O O9 0.000000 0.000000 0.500000
O O10 0.810518 0.141709 0.094373
O O11 0.922429 0.375365 0.833642
O O12 0.119436 0.068651 0.201348
O O13 0.500000 0.000000 0.000000
O O14 0.886744 0.299581 0.448789
O O15 0.500000 0.000000 0.500000
O O16 0.500000 0.500000 0.500000
#
# Coordination Sequence:
#
# PCOD8032341 Si02
#       7
#     2   2   2   2   2   2   2
#     4  11  23  42  67 104 134 180 233 291 356 412
#     4  11  25  43  69  98 138 184 234 292 354 421
#     4  12  26  48  70 101 144 193 234 291 358 419
#     4  12  25  43  75 108 135 189 237 291 361 422
#     4  12  24  44  69 101 141 180 239 289 355 424
#     4  12  27  50  72 102 152 187 237 298 352 429
#     4  12  24  43  74 105 142 181 237 297 353 423
#
# _framework density 21.048264
#
# number of rings (size 3 to 8) (size 9 to 14) (size 15 to 20)
#    0.000    0.286    7.143    1.714    0.000    2.857 
#    2.571    0.000    0.000    0.000    0.000    0.000 
#    0.000    0.000    0.000    0.000    0.000    0.000 
#
# Total GULP energy -173670.938372 kJ/mol
# GULP energy per Si atom -12405.067027 kJ/mol
# Density = 2.100036 g / cm^3
# Si number density = 21.048264 Si / 1000 Ang^3
#
#
#
# Elastic Constant Matrix: (Units=GPa)
#
#
# Indices 1 2 3 4 5 6 
#
# 1 110.2234 24.9261 39.1070 7.9135 1.7133 11.4825
# 2 24.9261 73.9930 20.0458 10.2838 -1.8491 3.1143
# 3 39.1070 20.0458 138.7329 20.9861 4.7582 20.0560
# 4 7.9135 10.2838 20.9861 38.6957 1.9190 -3.7993
# 5 1.7133 -1.8491 4.7582 1.9190 41.9659 1.1551
# 6 11.4825 3.1143 20.0560 -3.7993 1.1551 28.3545
#
#
#
# Elastic Compliance Matrix: (Units=1/GPa)
#
#
# Indices 1 2 3 4 5 6 
#
# 1 0.010803 -0.002877 -0.002171 -0.000509 -0.000227 -0.002582
# 2 -0.002877 0.015193 -0.000917 -0.003033 0.001038 -0.000304
# 3 -0.002171 -0.000917 0.009707 -0.005189 -0.000635 -0.006556
# 4 -0.000509 -0.003033 -0.005189 0.030442 -0.001146 0.008335
# 5 -0.000227 0.001038 -0.000635 -0.001146 0.024028 -0.000705
# 6 -0.002582 -0.000304 -0.006556 0.008335 -0.000705 0.042129
#
#
# Mechanical properties :
#
#
# Convention : Reuss Voigt Hill
#
# Bulk Modulus (GPa) = 42.06748 54.56745 48.31746
# Shear Modulus (GPa) = 32.86096 37.72790 35.29443
#
# Velocity S-wave (km/s) = 3.95551 4.23832 4.09936
# Velocity P-wave (km/s) = 6.39461 7.06628 6.73882
#
# Compressibility (1/GPa) = 0.02377133
#
# Stress axis : x y z
#
# Youngs Moduli (GPa) = 92.57088 65.82101 103.01764
#
# Poissons Ratio (x) = 0.18937 0.22369
# Poissons Ratio (y) = 0.26633 0.09448
# Poissons Ratio (z) = 0.20100 0.06037
#
# Static dielectric constant tensor:
#      x y z
#    x 3.859340 0.065740 -0.098870 
#    y 0.065740 3.842810 0.053530 
#    z -0.098870 0.053530 3.950110 
# 
# 
# High freq. dielectric constant tensor:
#      x y z
#    x 1.834720 -0.001570 -0.005980 
#    y -0.001570 1.831420 0.006140 
#    z -0.005980 0.006140 1.833760 
# 
# From -- ./inp_files/202754.got.cif
#   From: 2010.06.25/outbox.cif.g09.slc.cpg/sg2_102_cif.got.tgz:202754.got - 2010.06.27 13:26:56.
