data_PCOD8032225
_publ_section_title
;
Structure prediction by ZEFSAII (Michael W. Deem and Ramdas Pophale) SiO2 
 PCOD8032225
Probable space group: P -1
;
_chemical_formula_sum "Si O2"
_cell_formula_units_Z 16
_cell_length_a 11.148507
_cell_length_b 8.641293
_cell_length_c 18.812974
_cell_angle_alpha 149.457907
_cell_angle_beta 125.958425
_cell_angle_gamma 61.198794
_cell_volume 744.237644
_symmetry_space_group_name_H-M "P -1"
_symmetry_group_IT_number 2
_symmetry_cell_setting 'triclinic'
loop_
_space_group_symop_operation_xyz
x,y,z
-x,-y,-z
loop_
_atom_site_type_symbol
_atom_site_label
_atom_site_fract_x
_atom_site_fract_y
_atom_site_fract_z
Si Si1 0.612012 0.182886 0.940953
Si Si2 0.934209 0.091417 0.192813
Si Si3 0.911192 0.106102 0.698278
Si Si4 0.410263 0.848221 0.344233
Si Si5 0.626034 0.833321 0.940378
Si Si6 0.431772 0.204748 0.759870
Si Si7 0.067114 0.766140 0.986380
Si Si8 0.118515 0.212840 0.584990
O O1 0.484383 0.044785 0.787751
O O2 0.657511 0.914888 0.901569
O O3 0.540791 0.436648 0.067466
O O4 0.762020 0.299376 0.997134
O O5 0.917615 0.431568 0.290353
O O6 0.979516 0.077341 0.285871
O O7 0.779691 0.891282 0.058153
O O8 0.055229 0.923576 0.121621
O O9 0.764153 0.126007 0.701420
O O10 0.976414 0.437037 0.825806
O O11 0.865185 0.898336 0.533214
O O12 0.446284 0.500923 0.219031
O O13 0.470453 0.950534 0.328164
O O14 0.500000 0.000000 0.500000
O O15 0.500000 0.000000 0.000000
O O16 0.261730 0.158150 0.660562
O O17 0.000000 0.000000 0.000000
O O18 0.000000 0.000000 0.500000
#
# Coordination Sequence:
#
# PCOD8032225 Si02
#       8
#     2   2   2   2   2   2   2   2
#     4  11  23  41  70 101 130 171 231 285 331 404
#     4  12  25  44  68 102 135 176 241 283 335 414
#     4  12  26  42  70 100 137 185 228 282 347 409
#     4  12  24  46  69  97 143 181 218 281 349 411
#     4  12  24  43  71  98 136 180 231 283 336 402
#     4  11  23  43  67  99 133 174 227 279 341 406
#     4  12  22  43  72 101 135 175 229 287 346 402
#     4  12  25  47  67  96 141 186 223 290 354 405
#
# _framework density 21.498508000000001
#
# number of rings (size 3 to 8) (size 9 to 14) (size 15 to 20)
#    0.000    0.250    6.250    3.000    1.750    1.000 
#    2.250    0.625    0.000    0.000    0.000    0.000 
#    0.000    0.000    0.000    0.000    0.000    0.000 
#
# Total GULP energy -198283.078284 kJ/mol
# GULP energy per Si atom -12392.692393 kJ/mol
# Density = 2.144958 g / cm^3
# Si number density = 21.498508 Si / 1000 Ang^3
#
#
#
# Elastic Constant Matrix: (Units=GPa)
#
#
# Indices 1 2 3 4 5 6 
#
# 1 108.4997 26.8709 36.3837 -13.8272 -6.9857 -9.3777
# 2 26.8709 83.1794 41.5189 -29.6158 17.0210 -9.4948
# 3 36.3837 41.5189 129.4628 -21.5866 -5.4119 -3.4998
# 4 -13.8272 -29.6158 -21.5866 51.7619 0.0750 -1.0064
# 5 -6.9857 17.0210 -5.4119 0.0750 39.0458 1.9267
# 6 -9.3777 -9.4948 -3.4998 -1.0064 1.9267 26.9047
#
#
#
# Elastic Compliance Matrix: (Units=1/GPa)
#
#
# Indices 1 2 3 4 5 6 
#
# 1 0.010994 -0.002601 -0.001963 0.000675 0.002705 0.002490
# 2 -0.002601 0.021998 -0.004922 0.009999 -0.011121 0.007387
# 3 -0.001963 -0.004922 0.010095 0.000839 0.003257 -0.001310
# 4 0.000675 0.009999 0.000839 0.025677 -0.004425 0.005150
# 5 0.002705 -0.011121 0.003257 -0.004425 0.031649 -0.004990
# 6 0.002490 0.007387 -0.001310 0.005150 -0.004990 0.041023
#
#
# Mechanical properties :
#
#
# Convention : Reuss Voigt Hill
#
# Bulk Modulus (GPa) = 41.46594 58.96543 50.21568
# Shear Modulus (GPa) = 29.68329 37.96706 33.82518
#
# Velocity S-wave (km/s) = 3.71983 4.20698 3.97088
# Velocity P-wave (km/s) = 6.14648 7.14741 6.66576
#
# Compressibility (1/GPa) = 0.02411618
#
# Stress axis : x y z
#
# Youngs Moduli (GPa) = 90.95615 45.45899 99.05914
#
# Poissons Ratio (x) = 0.11823 0.19443
# Poissons Ratio (y) = 0.23656 0.48755
# Poissons Ratio (z) = 0.17853 0.22374
#
# Static dielectric constant tensor:
#      x y z
#    x 3.752690 0.003390 -0.093020 
#    y 0.003390 4.004070 -0.245580 
#    z -0.093020 -0.245580 4.138340 
# 
# 
# High freq. dielectric constant tensor:
#      x y z
#    x 1.858800 -0.003060 -0.011290 
#    y -0.003060 1.845170 -0.017780 
#    z -0.011290 -0.017780 1.844130 
# 
# From -- ./inp_files/282918.got.cif
#   From: 2010.06.25/outbox.cif.g09.slc.cpg/sg2_142_cif.got.tgz:282918.got - 2010.06.27 13:26:56.
