data_PCOD8032263
_publ_section_title
;
Structure prediction by ZEFSAII (Michael W. Deem and Ramdas Pophale) SiO2 
 PCOD8032263
Probable space group: P -1
;
_chemical_formula_sum "Si O2"
_cell_formula_units_Z 16
_cell_length_a 14.236543
_cell_length_b 11.420958
_cell_length_c 9.424167
_cell_angle_alpha 96.055643
_cell_angle_beta 76.258368
_cell_angle_gamma 150.609055
_cell_volume 713.745395
_symmetry_space_group_name_H-M "P -1"
_symmetry_group_IT_number 2
_symmetry_cell_setting 'triclinic'
loop_
_space_group_symop_operation_xyz
x,y,z
-x,-y,-z
loop_
_atom_site_type_symbol
_atom_site_label
_atom_site_fract_x
_atom_site_fract_y
_atom_site_fract_z
Si Si1 0.025986 0.707956 0.381641
Si Si2 0.373032 0.363482 0.729692
Si Si3 0.804480 0.869454 0.530605
Si Si4 0.345390 0.578274 0.892098
Si Si5 0.409726 0.010197 0.351333
Si Si6 0.594921 0.252343 0.599802
Si Si7 0.410953 0.205602 0.896652
Si Si8 0.014990 0.653097 0.051297
O O1 0.831848 0.504938 0.522717
O O2 0.963941 0.620786 0.230330
O O3 0.168806 0.754565 0.389486
O O4 0.158716 0.966460 0.386967
O O5 0.610072 0.606147 0.641832
O O6 0.240139 0.166672 0.625727
O O7 0.301683 0.422779 0.782095
O O8 0.328799 0.243709 0.875412
O O9 0.000000 0.000000 0.500000
O O10 0.145274 0.437353 0.987722
O O11 0.495651 0.833516 0.803211
O O12 0.444187 0.624879 0.000244
O O13 0.481396 0.952510 0.334374
O O14 0.479147 0.157225 0.483346
O O15 0.543241 0.298630 0.732440
O O16 0.234090 0.928677 0.965019
O O17 0.000000 0.500000 0.000000
#
# Coordination Sequence:
#
# PCOD8032263 Si02
#       8
#     2   2   2   2   2   2   2   2
#     4  12  23  45  70 102 137 184 232 282 356 419
#     4  11  25  45  69 105 140 186 240 293 347 420
#     4  11  23  41  73 103 141 183 234 294 354 413
#     4  12  25  47  73  96 148 192 229 291 363 419
#     4  11  23  44  70  99 138 184 229 290 348 414
#     4  11  26  42  71 106 138 178 238 295 344 419
#     4  12  27  45  70 106 143 183 240 290 350 422
#     4  12  28  45  71 104 142 186 238 288 358 428
#
# _framework density 22.416957
#
# number of rings (size 3 to 8) (size 9 to 14) (size 15 to 20)
#    0.000    0.500    3.750    3.750    5.250    4.500 
#    0.000    0.000    0.000    0.000    0.000    0.000 
#    0.000    0.000    0.000    0.000    0.000    0.000 
#
# Total GULP energy -198485.106962 kJ/mol
# GULP energy per Si atom -12405.319185 kJ/mol
# Density = 2.236594 g / cm^3
# Si number density = 22.416957 Si / 1000 Ang^3
#
#
#
# Elastic Constant Matrix: (Units=GPa)
#
#
# Indices 1 2 3 4 5 6 
#
# 1 110.0777 30.1993 27.6457 8.0026 -0.0161 4.8017
# 2 30.1993 89.4166 26.9411 13.8521 -3.6578 0.2254
# 3 27.6457 26.9411 84.3348 7.8925 0.5614 -2.4800
# 4 8.0026 13.8521 7.8925 29.3354 7.8128 -1.7068
# 5 -0.0161 -3.6578 0.5614 7.8128 39.7779 1.1807
# 6 4.8017 0.2254 -2.4800 -1.7068 1.1807 41.7400
#
#
#
# Elastic Compliance Matrix: (Units=1/GPa)
#
#
# Indices 1 2 3 4 5 6 
#
# 1 0.010591 -0.002634 -0.002574 -0.001047 0.000046 -0.001401
# 2 -0.002634 0.013994 -0.003095 -0.005728 0.002462 -0.000260
# 3 -0.002574 -0.003095 0.013858 -0.001440 -0.000231 0.001084
# 4 -0.001047 -0.005728 -0.001440 0.039811 -0.008384 0.001931
# 5 0.000046 0.002462 -0.000231 -0.008384 0.027050 -0.001140
# 6 -0.001401 -0.000260 0.001084 0.001931 -0.001140 0.024296
#
#
# Mechanical properties :
#
#
# Convention : Reuss Voigt Hill
#
# Bulk Modulus (GPa) = 45.79276 50.37791 48.08534
# Shear Modulus (GPa) = 32.57636 35.44019 34.00827
#
# Velocity S-wave (km/s) = 3.81622 3.98044 3.89919
# Velocity P-wave (km/s) = 6.31587 6.60659 6.46286
#
# Compressibility (1/GPa) = 0.02183751
#
# Stress axis : x y z
#
# Youngs Moduli (GPa) = 94.42235 71.45689 72.15937
#
# Poissons Ratio (x) = 0.18821 0.18573
# Poissons Ratio (y) = 0.24869 0.22335
# Poissons Ratio (z) = 0.24303 0.22117
#
# Static dielectric constant tensor:
#      x y z
#    x 4.310190 0.046450 0.106770 
#    y 0.046450 4.029020 0.064130 
#    z 0.106770 0.064130 3.978500 
# 
# 
# High freq. dielectric constant tensor:
#      x y z
#    x 1.898030 0.003900 0.002600 
#    y 0.003900 1.888100 0.002610 
#    z 0.002600 0.002610 1.877720 
# 
# From -- ./inp_files/187341.got.cif
#   From: 2010.06.25/outbox.cif.g09.slc.cpg/sg2_94_cif.got.tgz:187341.got - 2010.06.27 13:26:56.
