data_PCOD8032104
_publ_section_title
;
Structure prediction by ZEFSAII (Michael W. Deem and Ramdas Pophale) SiO2 
 PCOD8032104
Probable space group: P -1
;
_chemical_formula_sum "Si O2"
_cell_formula_units_Z 12
_cell_length_a 4.949162
_cell_length_b 8.380262
_cell_length_c 16.117678
_cell_angle_alpha 72.073536
_cell_angle_beta 61.979176
_cell_angle_gamma 86.641626
_cell_volume 558.521841
_symmetry_space_group_name_H-M "P -1"
_symmetry_group_IT_number 2
_symmetry_cell_setting 'triclinic'
loop_
_space_group_symop_operation_xyz
x,y,z
-x,-y,-z
loop_
_atom_site_type_symbol
_atom_site_label
_atom_site_fract_x
_atom_site_fract_y
_atom_site_fract_z
Si Si1 0.748622 0.454669 0.112604
Si Si2 0.605087 0.683730 0.489963
Si Si3 0.057501 0.288179 0.392073
Si Si4 0.411325 0.099080 0.244390
Si Si5 0.880595 0.432960 0.799002
Si Si6 0.911494 0.880173 0.264804
O O1 0.619250 0.259738 0.152748
O O2 0.888191 0.482298 0.179335
O O3 0.527514 0.428299 0.880783
O O4 0.000000 0.500000 0.000000
O O5 0.500000 0.500000 0.500000
O O6 0.785742 0.661849 0.551797
O O7 0.833226 0.787476 0.377530
O O8 0.300682 0.780033 0.533339
O O9 0.230418 0.143994 0.346266
O O10 0.077243 0.456823 0.307563
O O11 0.610287 0.946518 0.258932
O O12 0.166260 0.037097 0.218849
O O13 0.958774 0.244526 0.800452
#
# Coordination Sequence:
#
# PCOD8032104 Si02
#       6
#     2   2   2   2   2   2
#     4  11  24  47  73  94 120 167 215 259 320 410
#     4  12  24  37  64  93 130 172 232 250 292 373
#     4  11  23  41  63  90 129 181 218 254 300 376
#     4  11  25  42  63  94 134 163 209 271 330 361
#     4  11  23  42  70  94 128 170 214 254 325 383
#     4  12  25  40  63  98 134 169 206 272 316 356
#
# _framework density 21.485282999999999
#
# number of rings (size 3 to 8) (size 9 to 14) (size 15 to 20)
#    0.000    0.667    1.667    8.000    2.333    4.000 
#    0.000    5.000    0.000    0.000    0.000    0.000 
#    0.000    0.000    0.000    0.000    0.000    0.000 
#
# Total GULP energy -148885.154526 kJ/mol
# GULP energy per Si atom -12407.096211 kJ/mol
# Density = 2.143638 g / cm^3
# Si number density = 21.485283 Si / 1000 Ang^3
#
#
#
# Elastic Constant Matrix: (Units=GPa)
#
#
# Indices 1 2 3 4 5 6 
#
# 1 121.1745 38.1145 22.5486 2.4661 -13.0225 -1.5969
# 2 38.1145 104.5960 40.5500 2.4739 -15.4649 -9.6340
# 3 22.5486 40.5500 77.2209 -3.6005 -19.5656 5.6594
# 4 2.4661 2.4739 -3.6005 17.3853 -0.2785 -7.2414
# 5 -13.0225 -15.4649 -19.5656 -0.2785 38.0572 5.1464
# 6 -1.5969 -9.6340 5.6594 -7.2414 5.1464 50.9059
#
#
#
# Elastic Compliance Matrix: (Units=1/GPa)
#
#
# Indices 1 2 3 4 5 6 
#
# 1 0.009528 -0.002909 -0.000846 -0.001300 0.001703 -0.000515
# 2 -0.002909 0.013490 -0.006303 -0.001613 0.000849 0.002847
# 3 -0.000846 -0.006303 0.018784 0.003549 0.007311 -0.003542
# 4 -0.001300 -0.001613 0.003549 0.062034 0.000086 0.008075
# 5 0.001703 0.000849 0.007311 0.000086 0.031473 -0.003768
# 6 -0.000515 0.002847 -0.003542 0.008075 -0.003768 0.022090
#
#
# Mechanical properties :
#
#
# Convention : Reuss Voigt Hill
#
# Bulk Modulus (GPa) = 46.11217 56.15750 51.13484
# Shear Modulus (GPa) = 27.06450 34.72156 30.89303
#
# Velocity S-wave (km/s) = 3.55304 4.02439 3.79604
# Velocity P-wave (km/s) = 6.19201 6.91294 6.56238
#
# Compressibility (1/GPa) = 0.02168625
#
# Stress axis : x y z
#
# Youngs Moduli (GPa) = 104.95801 74.12831 53.23568
#
# Poissons Ratio (x) = 0.21562 0.04504
# Poissons Ratio (y) = 0.30529 0.33556
# Poissons Ratio (z) = 0.08879 0.46725
#
# Static dielectric constant tensor:
#      x y z
#    x 4.281770 -0.093050 -0.224500 
#    y -0.093050 3.912210 0.177420 
#    z -0.224500 0.177420 3.712910 
# 
# 
# High freq. dielectric constant tensor:
#      x y z
#    x 1.871990 -0.001050 -0.007310 
#    y -0.001050 1.845880 0.010520 
#    z -0.007310 0.010520 1.824030 
# 
# From -- ./inp_files/479785.got.cif
#   From: 2010.06.25/outbox.cif.g09.slc.cpg/sg2_240_cif.got.tgz:479785.got - 2010.06.27 13:26:56.
