data_PCOD8032200
_publ_section_title
;
Structure prediction by ZEFSAII (Michael W. Deem and Ramdas Pophale) SiO2 
 PCOD8032200
Probable space group: P -1
;
_chemical_formula_sum "Si O2"
_cell_formula_units_Z 12
_cell_length_a 9.647327
_cell_length_b 15.212454
_cell_length_c 16.806633
_cell_angle_alpha 18.980387
_cell_angle_beta 44.502902
_cell_angle_gamma 46.519341
_cell_volume 561.304733
_symmetry_space_group_name_H-M "P -1"
_symmetry_group_IT_number 2
_symmetry_cell_setting 'triclinic'
loop_
_space_group_symop_operation_xyz
x,y,z
-x,-y,-z
loop_
_atom_site_type_symbol
_atom_site_label
_atom_site_fract_x
_atom_site_fract_y
_atom_site_fract_z
Si Si1 0.497916 0.728777 0.020284
Si Si2 0.517101 0.381457 0.468872
Si Si3 0.418826 0.619970 0.849621
Si Si4 0.895704 0.129460 0.007004
Si Si5 0.825377 0.459984 0.408637
Si Si6 0.201331 0.090855 0.607403
O O1 0.543513 0.554150 0.230249
O O2 0.643391 0.609708 0.991965
O O3 0.277012 0.667030 0.132376
O O4 0.507598 0.055129 0.744385
O O5 0.709871 0.430330 0.399789
O O6 0.322230 0.517592 0.474671
O O7 0.596235 0.771458 0.608373
O O8 0.224035 0.807732 0.791517
O O9 0.500000 0.500000 0.000000
O O10 0.055906 0.270696 0.874170
O O11 0.800736 0.924097 0.282502
O O12 0.000000 0.000000 0.000000
O O13 0.990628 0.217241 0.556750
#
# Coordination Sequence:
#
# PCOD8032200 Si02
#       6
#     2   2   2   2   2   2
#     4  12  24  45  68 104 135 181 240 287 341 413
#     4  11  28  44  69 101 149 187 223 288 359 424
#     4  11  23  41  70 101 138 182 234 299 346 397
#     4  12  23  39  72 104 138 174 238 293 345 412
#     4  11  25  43  68 100 144 187 225 285 360 419
#     4  11  23  41  69 103 138 180 236 286 355 408
#
# _framework density 21.378761000000001
#
# number of rings (size 3 to 8) (size 9 to 14) (size 15 to 20)
#    0.000    0.667    5.000    2.000    4.667    2.667 
#    0.000    1.667    0.000    0.000    0.000    0.000 
#    0.000    0.000    0.000    0.000    0.000    0.000 
#
# Total GULP energy -148673.418241 kJ/mol
# GULP energy per Si atom -12389.451520 kJ/mol
# Density = 2.133010 g / cm^3
# Si number density = 21.378761 Si / 1000 Ang^3
#
#
#
# Elastic Constant Matrix: (Units=GPa)
#
#
# Indices 1 2 3 4 5 6 
#
# 1 98.1310 14.7193 28.6316 25.0392 11.9041 -14.8581
# 2 14.7193 110.8213 27.5015 29.8638 23.2025 -28.9674
# 3 28.6316 27.5015 103.8949 30.8315 27.7618 -11.0542
# 4 25.0392 29.8638 30.8315 14.0636 3.8572 33.9006
# 5 11.9041 23.2025 27.7618 3.8572 37.0824 3.9677
# 6 -14.8581 -28.9674 -11.0542 33.9006 3.9677 12.4568
#
#
#
# Elastic Compliance Matrix: (Units=1/GPa)
#
#
# Indices 1 2 3 4 5 6 
#
# 1 0.010290 -0.002266 -0.003616 0.002567 0.000928 -0.003485
# 2 -0.002266 0.007632 -0.003275 0.006318 -0.001773 -0.004490
# 3 -0.003616 -0.003275 0.011714 0.002006 -0.005197 -0.005339
# 4 0.002567 0.006318 0.002006 0.000467 -0.008574 0.020994
# 5 0.000928 -0.001773 -0.005197 -0.008574 0.031970 0.005523
# 6 -0.003485 -0.004490 -0.005339 0.020994 0.005523 0.002048
#
#
# Mechanical properties :
#
#
# Convention : Reuss Voigt Hill
#
# Bulk Modulus (GPa) = 88.32560 50.50576 69.41568
# Shear Modulus (GPa) = 57.99790 28.85354 43.42572
#
# Velocity S-wave (km/s) = 5.21418 3.67772 4.51183
# Velocity P-wave (km/s) = 8.81218 6.45831 7.72542
#
# Compressibility (1/GPa) = 0.01132175
#
# Stress axis : x y z
#
# Youngs Moduli (GPa) = 97.17823 131.02586 85.36927
#
# Poissons Ratio (x) = 0.29694 0.30873
# Poissons Ratio (y) = 0.22023 0.27955
# Poissons Ratio (z) = 0.35143 0.42906
#
# Static dielectric constant tensor:
#      x y z
#    x 3.849600 0.217910 -0.061530 
#    y 0.217910 5.037490 -0.435020 
#    z -0.061530 -0.435020 3.887830 
# 
# 
# High freq. dielectric constant tensor:
#      x y z
#    x 1.826250 0.010670 0.011110 
#    y 0.010670 1.865040 -0.008220 
#    z 0.011110 -0.008220 1.840390 
# 
# From -- ./inp_files/19923.got.cif
#   From: 2010.06.25/outbox.cif.g09.slc.cpg/sg2_10_cif.got.tgz:19923.got - 2010.06.27 13:26:56.
