data_PCOD8032583
_publ_section_title
;
Structure prediction by ZEFSAII (Michael W. Deem and Ramdas Pophale) SiO2 
 PCOD8032583
Probable space group: P -1
;
_chemical_formula_sum "Si O2"
_cell_formula_units_Z 14
_cell_length_a 19.029218
_cell_length_b 7.804705
_cell_length_c 7.299042
_cell_angle_alpha 36.946767
_cell_angle_beta 80.743639
_cell_angle_gamma 96.308114
_cell_volume 588.874675
_symmetry_space_group_name_H-M "P -1"
_symmetry_group_IT_number 2
_symmetry_cell_setting 'triclinic'
loop_
_space_group_symop_operation_xyz
x,y,z
-x,-y,-z
loop_
_atom_site_type_symbol
_atom_site_label
_atom_site_fract_x
_atom_site_fract_y
_atom_site_fract_z
Si Si1 0.173780 0.503889 0.814695
Si Si2 0.679597 0.976868 0.351956
Si Si3 0.410554 0.432623 0.590595
Si Si4 0.939094 0.730526 0.379250
Si Si5 0.215328 0.367276 0.312616
Si Si6 0.345865 0.898821 0.346033
Si Si7 0.916116 0.186512 0.596928
O O1 0.256326 0.677336 0.532741
O O2 0.123226 0.716835 0.643301
O O3 0.185528 0.427014 0.080403
O O4 0.128674 0.174017 0.015186
O O5 0.621559 0.713112 0.470237
O O6 0.744895 0.876352 0.499029
O O7 0.636194 0.039876 0.495273
O O8 0.720729 0.291769 0.944621
O O9 0.500000 0.500000 0.500000
O O10 0.401262 0.754302 0.351337
O O11 0.363844 0.221146 0.959828
O O12 0.861744 0.785769 0.402715
O O13 0.908650 0.388237 0.598382
O O14 0.991428 0.736778 0.534459
O O15 0.000000 0.000000 0.000000
#
# Coordination Sequence:
#
# PCOD8032583 Si02
#       7
#     2   2   2   2   2   2   2
#     4  11  23  43  66  95 124 184 229 283 347 397
#     4  11  26  47  70 107 140 184 233 295 344 405
#     4  12  27  45  76 112 139 188 230 268 358 434
#     4  11  26  42  60  97 135 179 227 286 358 401
#     4  11  26  43  68  95 135 175 239 287 343 414
#     4  11  25  46  72 104 148 178 233 293 339 415
#     4  11  24  40  63  91 132 174 229 277 350 398
#
# _framework density 23.774159999999998
#
# number of rings (size 3 to 8) (size 9 to 14) (size 15 to 20)
#    0.000    0.857    1.429    5.571   10.000    2.286 
#    0.000    0.000    0.000    0.000    0.000    0.000 
#    0.000    0.000    0.000    0.000    0.000    0.000 
#
# Total GULP energy -173559.083049 kJ/mol
# GULP energy per Si atom -12397.077361 kJ/mol
# Density = 2.372005 g / cm^3
# Si number density = 23.774160 Si / 1000 Ang^3
#
#
#
# Elastic Constant Matrix: (Units=GPa)
#
#
# Indices 1 2 3 4 5 6 
#
# 1 94.2797 37.0313 0.7490 0.6578 -4.3091 7.1068
# 2 37.0313 96.2548 7.6162 -3.0509 -13.0808 4.0931
# 3 0.7490 7.6162 87.0241 -1.4312 -1.9203 -1.8052
# 4 0.6578 -3.0509 -1.4312 27.1870 -5.2825 10.1807
# 5 -4.3091 -13.0808 -1.9203 -5.2825 32.9703 -5.4603
# 6 7.1068 4.0931 -1.8052 10.1807 -5.4603 27.9180
#
#
#
# Elastic Compliance Matrix: (Units=1/GPa)
#
#
# Indices 1 2 3 4 5 6 
#
# 1 0.012690 -0.004884 0.000248 0.000010 -0.000700 -0.002639
# 2 -0.004884 0.013123 -0.000971 0.002782 0.004822 -0.000815
# 3 0.000248 -0.000971 0.011607 0.000286 0.000505 0.000824
# 4 0.000010 0.002782 0.000286 0.043937 0.005625 -0.015314
# 5 -0.000700 0.004822 0.000505 0.005625 0.033754 0.004055
# 6 -0.002639 -0.000815 0.000824 -0.015314 0.004055 0.043041
#
#
# Mechanical properties :
#
#
# Convention : Reuss Voigt Hill
#
# Bulk Modulus (GPa) = 38.16011 40.92798 39.54404
# Shear Modulus (GPa) = 28.07374 33.09254 30.58314
#
# Velocity S-wave (km/s) = 3.44008 3.73494 3.59054
# Velocity P-wave (km/s) = 5.64489 5.98768 5.81881
#
# Compressibility (1/GPa) = 0.02620538
#
# Stress axis : x y z
#
# Youngs Moduli (GPa) = 78.80149 76.20062 86.15581
#
# Poissons Ratio (x) = 0.37220 -0.02139
# Poissons Ratio (y) = 0.38490 0.08368
# Poissons Ratio (z) = -0.01956 0.07401
#
# Static dielectric constant tensor:
#      x y z
#    x 4.606170 0.215960 0.050460 
#    y 0.215960 4.178310 -0.380640 
#    z 0.050460 -0.380640 4.567370 
# 
# 
# High freq. dielectric constant tensor:
#      x y z
#    x 1.946140 0.013080 0.013480 
#    y 0.013080 1.934010 -0.017420 
#    z 0.013480 -0.017420 1.952280 
# 
# From -- ./inp_files/325473.got.cif
#   From: 2010.06.25/outbox.cif.g09.slc.cpg/sg2_163_cif.got.tgz:325473.got - 2010.06.27 13:26:56.
