data_PCOD8032147
_publ_section_title
;
Structure prediction by ZEFSAII (Michael W. Deem and Ramdas Pophale) SiO2 
 PCOD8032147
Probable space group: P -1
;
_chemical_formula_sum "Si O2"
_cell_formula_units_Z 14
_cell_length_a 9.091271
_cell_length_b 9.413868
_cell_length_c 12.008363
_cell_angle_alpha 110.419415
_cell_angle_beta 114.023637
_cell_angle_gamma 114.698166
_cell_volume 665.445225
_symmetry_space_group_name_H-M "P -1"
_symmetry_group_IT_number 2
_symmetry_cell_setting 'triclinic'
loop_
_space_group_symop_operation_xyz
x,y,z
-x,-y,-z
loop_
_atom_site_type_symbol
_atom_site_label
_atom_site_fract_x
_atom_site_fract_y
_atom_site_fract_z
Si Si1 0.348287 0.863715 0.115237
Si Si2 0.032438 0.985447 0.377762
Si Si3 0.705469 0.591283 0.519404
Si Si4 0.003741 0.590549 0.763849
Si Si5 0.424744 0.283134 0.937723
Si Si6 0.615461 0.296942 0.221963
Si Si7 0.735138 0.164677 0.662451
O O1 0.433544 0.743663 0.101166
O O2 0.271384 0.854612 0.212257
O O3 0.534790 0.089767 0.192920
O O4 0.143418 0.761493 0.946398
O O5 0.222367 0.208217 0.457365
O O6 0.104650 0.858090 0.346989
O O7 0.000000 0.000000 0.500000
O O8 0.819577 0.886601 0.216410
O O9 0.500000 0.500000 0.500000
O O10 0.640386 0.432484 0.362909
O O11 0.893198 0.648105 0.670732
O O12 0.154189 0.581717 0.729412
O O13 0.823290 0.381012 0.711459
O O14 0.500000 0.500000 0.000000
O O15 0.449155 0.255446 0.067518
O O16 0.500000 0.000000 0.500000
#
# Coordination Sequence:
#
# PCOD8032147 Si02
#       7
#     2   2   2   2   2   2   2
#     4  11  23  43  66  93 125 163 208 257 309 372
#     4  12  24  42  65  93 126 166 208 257 310 366
#     4  12  25  41  62  94 128 162 206 260 309 360
#     4  11  23  42  65  90 122 166 208 251 308 375
#     4  11  23  41  66  96 124 160 208 261 310 366
#     4  11  23  43  66  91 123 166 209 252 307 375
#     4  12  25  42  63  93 128 167 207 254 310 370
#
# _framework density 21.038544999999999
#
# number of rings (size 3 to 8) (size 9 to 14) (size 15 to 20)
#    0.000    0.571    0.000   11.143    0.000    2.286 
#    0.000    2.857    0.000    0.000    0.000    0.000 
#    0.000    0.000    0.000    0.000    0.000    0.000 
#
# Total GULP energy -173697.289645 kJ/mol
# GULP energy per Si atom -12406.949260 kJ/mol
# Density = 2.099066 g / cm^3
# Si number density = 21.038545 Si / 1000 Ang^3
#
#
#
# Elastic Constant Matrix: (Units=GPa)
#
#
# Indices 1 2 3 4 5 6 
#
# 1 97.4210 10.3635 52.4666 -15.2908 -10.2688 11.9451
# 2 10.3635 107.2061 2.5953 11.0244 -9.2378 16.5588
# 3 52.4666 2.5953 119.3998 -5.6392 -2.5326 10.4668
# 4 -15.2908 11.0244 -5.6392 42.2591 1.7372 2.0755
# 5 -10.2688 -9.2378 -2.5326 1.7372 41.8630 -0.6412
# 6 11.9451 16.5588 10.4668 2.0755 -0.6412 41.2961
#
#
#
# Elastic Compliance Matrix: (Units=1/GPa)
#
#
# Indices 1 2 3 4 5 6 
#
# 1 0.015045 -0.001181 -0.006069 0.004951 0.002818 -0.002545
# 2 -0.001181 0.010511 0.000529 -0.002998 0.002128 -0.003824
# 3 -0.006069 0.000529 0.011088 -0.000765 -0.000688 -0.001239
# 4 0.004951 -0.002998 -0.000765 0.026227 -0.000603 -0.001363
# 5 0.002818 0.002128 -0.000688 -0.000603 0.025015 -0.001075
# 6 -0.002545 -0.003824 -0.001239 -0.001363 -0.001075 0.026851
#
#
# Mechanical properties :
#
#
# Convention : Reuss Voigt Hill
#
# Bulk Modulus (GPa) = 43.09559 50.54200 46.81880
# Shear Modulus (GPa) = 36.78834 42.32373 39.55604
#
# Velocity S-wave (km/s) = 4.18618 4.49009 4.34080
# Velocity P-wave (km/s) = 6.62526 7.13841 6.88662
#
# Compressibility (1/GPa) = 0.02320423
#
# Stress axis : x y z
#
# Youngs Moduli (GPa) = 66.46791 95.13449 90.18514
#
# Poissons Ratio (x) = 0.11231 0.54730
# Poissons Ratio (y) = 0.07847 -0.04771
# Poissons Ratio (z) = 0.40337 -0.05033
#
# Static dielectric constant tensor:
#      x y z
#    x 3.884800 0.027280 0.010790 
#    y 0.027280 3.997740 0.053890 
#    z 0.010790 0.053890 3.987880 
# 
# 
# High freq. dielectric constant tensor:
#      x y z
#    x 1.826350 0.003210 0.000270 
#    y 0.003210 1.840560 0.001710 
#    z 0.000270 0.001710 1.845470 
# 
# From -- ./inp_files/156690.got.cif
#   From: 2010.06.25/outbox.cif.g09.slc.cpg/sg2_79_cif.got.tgz:156690.got - 2010.06.27 13:26:56.
