data_PCOD8032410
_publ_section_title
;
Structure prediction by ZEFSAII (Michael W. Deem and Ramdas Pophale) SiO2 
 PCOD8032410
Probable space group: P -1
;
_chemical_formula_sum "Si O2"
_cell_formula_units_Z 16
_cell_length_a 6.805594
_cell_length_b 9.845565
_cell_length_c 16.991633
_cell_angle_alpha 70.439380
_cell_angle_beta 58.230687
_cell_angle_gamma 50.873200
_cell_volume 750.877825
_symmetry_space_group_name_H-M "P -1"
_symmetry_group_IT_number 2
_symmetry_cell_setting 'triclinic'
loop_
_space_group_symop_operation_xyz
x,y,z
-x,-y,-z
loop_
_atom_site_type_symbol
_atom_site_label
_atom_site_fract_x
_atom_site_fract_y
_atom_site_fract_z
Si Si1 0.561407 0.151967 0.606295
Si Si2 0.918770 0.656040 0.043563
Si Si3 0.703088 0.538986 0.853553
Si Si4 0.146326 0.037528 0.725999
Si Si5 0.154802 0.870871 0.602642
Si Si6 0.551565 0.356701 0.797826
Si Si7 0.216863 0.522595 0.685372
Si Si8 0.124421 0.876874 0.922933
O O1 0.375743 0.079590 0.679254
O O2 0.627548 0.133600 0.503070
O O3 0.404377 0.354394 0.623477
O O4 0.843565 0.038259 0.619107
O O5 0.604021 0.737119 0.125655
O O6 0.137594 0.589050 0.082354
O O7 0.000000 0.500000 0.000000
O O8 0.937873 0.798894 0.964908
O O9 0.565686 0.460076 0.847616
O O10 0.451555 0.729435 0.899331
O O11 0.911866 0.559334 0.752492
O O12 0.855525 0.213506 0.726863
O O13 0.241622 0.888761 0.668822
O O14 0.094745 0.982266 0.831141
O O15 0.172652 0.692923 0.621650
O O16 0.365541 0.497033 0.742500
O O17 0.000000 0.000000 0.000000
#
# Coordination Sequence:
#
# PCOD8032410 Si02
#       8
#     2   2   2   2   2   2   2   2
#     4  11  24  47  70 103 138 182 221 283 347 398
#     4  11  25  42  66  92 128 180 228 275 333 397
#     4  11  23  44  67  93 138 179 222 280 337 402
#     4  12  25  45  68  97 142 177 224 284 344 399
#     4  11  25  44  72 104 139 173 231 283 335 415
#     4  11  23  42  69  94 133 184 220 275 343 399
#     4  11  23  43  74 100 134 182 227 272 346 405
#     4  12  27  42  67 102 134 178 229 281 341 399
#
# _framework density 21.308391
#
# number of rings (size 3 to 8) (size 9 to 14) (size 15 to 20)
#    0.000    0.750    3.750    3.375    5.250    1.500 
#    0.000    0.625    0.000    0.000    0.000    0.000 
#    0.000    0.000    0.000    0.000    0.000    0.000 
#
# Total GULP energy -198479.602265 kJ/mol
# GULP energy per Si atom -12404.975142 kJ/mol
# Density = 2.125989 g / cm^3
# Si number density = 21.308391 Si / 1000 Ang^3
#
#
#
# Elastic Constant Matrix: (Units=GPa)
#
#
# Indices 1 2 3 4 5 6 
#
# 1 96.2267 30.5805 47.0427 11.7241 3.9947 9.7242
# 2 30.5805 115.1197 49.5329 12.2304 -3.5406 18.8021
# 3 47.0427 49.5329 129.9452 1.5863 4.6575 5.7990
# 4 11.7241 12.2304 1.5863 43.0091 2.6382 -1.5910
# 5 3.9947 -3.5406 4.6575 2.6382 36.6946 9.9109
# 6 9.7242 18.8021 5.7990 -1.5910 9.9109 29.3740
#
#
#
# Elastic Compliance Matrix: (Units=1/GPa)
#
#
# Indices 1 2 3 4 5 6 
#
# 1 0.013555 -0.000777 -0.004425 -0.003445 0.000166 -0.003359
# 2 -0.000777 0.012717 -0.004289 -0.003846 0.004499 -0.008762
# 3 -0.004425 -0.004289 0.010854 0.002274 -0.002272 0.002957
# 4 -0.003445 -0.003846 0.002274 0.025640 -0.003691 0.005788
# 5 0.000166 0.004499 -0.002272 -0.003691 0.031850 -0.013432
# 6 -0.003359 -0.008762 0.002957 0.005788 -0.013432 0.045026
#
#
# Mechanical properties :
#
#
# Convention : Reuss Voigt Hill
#
# Bulk Modulus (GPa) = 55.11774 66.17820 60.64797
# Shear Modulus (GPa) = 30.36336 36.09121 33.22729
#
# Velocity S-wave (km/s) = 3.77894 4.11999 3.95315
# Velocity P-wave (km/s) = 6.70548 7.33193 7.02569
#
# Compressibility (1/GPa) = 0.01814298
#
# Stress axis : x y z
#
# Youngs Moduli (GPa) = 73.77593 78.63632 92.13055
#
# Poissons Ratio (x) = 0.06110 0.40766
# Poissons Ratio (y) = 0.05733 0.39518
# Poissons Ratio (z) = 0.32644 0.33730
#
# Static dielectric constant tensor:
#      x y z
#    x 3.853310 -0.028540 -0.124980 
#    y -0.028540 3.777320 0.163020 
#    z -0.124980 0.163020 3.893280 
# 
# 
# High freq. dielectric constant tensor:
#      x y z
#    x 1.840060 0.004530 -0.008070 
#    y 0.004530 1.836170 0.007950 
#    z -0.008070 0.007950 1.850180 
# 
# From -- ./inp_files/48140.got.cif
#   From: 2010.06.25/outbox.cif.g09.slc.cpg/sg2_25_cif.got.tgz:48140.got - 2010.06.27 13:26:56.
