data_PCOD8032834
_publ_section_title
;
Structure prediction by ZEFSAII (Michael W. Deem and Ramdas Pophale) SiO2 
 PCOD8032834
Probable space group: P -1
;
_chemical_formula_sum "Si O2"
_cell_formula_units_Z 16
_cell_length_a 20.152982
_cell_length_b 9.363710
_cell_length_c 12.395085
_cell_angle_alpha 141.564491
_cell_angle_beta 141.504359
_cell_angle_gamma 67.771411
_cell_volume 719.459326
_symmetry_space_group_name_H-M "P -1"
_symmetry_group_IT_number 2
_symmetry_cell_setting 'triclinic'
loop_
_space_group_symop_operation_xyz
x,y,z
-x,-y,-z
loop_
_atom_site_type_symbol
_atom_site_label
_atom_site_fract_x
_atom_site_fract_y
_atom_site_fract_z
Si Si1 0.560954 0.529898 0.481118
Si Si2 0.151436 0.538419 0.884976
Si Si3 0.677314 0.884253 0.211381
Si Si4 0.366315 0.443858 0.836926
Si Si5 0.624555 0.087179 0.780026
Si Si6 0.914028 0.078434 0.878464
Si Si7 0.048924 0.930901 0.332429
Si Si8 0.234457 0.556065 0.230208
O O1 0.500000 0.500000 0.500000
O O2 0.694625 0.558643 0.685850
O O3 0.605580 0.811554 0.640594
O O4 0.445822 0.238161 0.098545
O O5 0.050213 0.206489 0.519727
O O6 0.241738 0.736845 0.017626
O O7 0.062540 0.638278 0.873100
O O8 0.243197 0.559661 0.113120
O O9 0.649198 0.624691 0.095770
O O10 0.819933 0.015917 0.412928
O O11 0.689653 0.115865 0.443135
O O12 0.242758 0.183985 0.457177
O O13 0.500000 0.500000 0.000000
O O14 0.366100 0.721209 0.993963
O O15 0.500000 0.000000 0.500000
O O16 0.950811 0.125578 0.827463
O O17 0.000000 0.000000 0.000000
O O18 0.920880 0.645454 0.053610
#
# Coordination Sequence:
#
# PCOD8032834 Si02
#       8
#     2   2   2   2   2   2   2   2
#     4  12  28  45  68 110 144 183 241 292 355 426
#     4  12  24  46  76 101 144 193 236 292 363 423
#     4  11  23  46  71 100 142 187 237 292 345 434
#     4  11  23  43  75 101 136 188 240 289 359 419
#     4  12  23  44  73 102 143 186 235 296 350 428
#     4  11  26  44  69 105 145 181 241 298 347 424
#     4  11  24  48  71 105 142 189 243 286 361 425
#     4  12  26  45  74 103 145 191 234 297 358 422
#
# _framework density 22.238923
#
# number of rings (size 3 to 8) (size 9 to 14) (size 15 to 20)
#    0.000    0.500    6.250    3.375    3.500    1.500 
#    2.250    0.000    0.000    0.000    0.000    0.000 
#    0.000    0.000    0.000    0.000    0.000    0.000 
#
# Total GULP energy -198416.789480 kJ/mol
# GULP energy per Si atom -12401.049343 kJ/mol
# Density = 2.218831 g / cm^3
# Si number density = 22.238923 Si / 1000 Ang^3
#
#
#
# Elastic Constant Matrix: (Units=GPa)
#
#
# Indices 1 2 3 4 5 6 
#
# 1 106.5005 30.7674 45.2339 3.2421 -5.5670 -7.0319
# 2 30.7674 121.2257 28.1021 -5.3453 4.7470 -11.6579
# 3 45.2339 28.1021 84.1127 5.1620 0.6196 4.0648
# 4 3.2421 -5.3453 5.1620 37.1248 -13.7827 0.9482
# 5 -5.5670 4.7470 0.6196 -13.7827 42.1353 6.2761
# 6 -7.0319 -11.6579 4.0648 0.9482 6.2761 36.6767
#
#
#
# Elastic Compliance Matrix: (Units=1/GPa)
#
#
# Indices 1 2 3 4 5 6 
#
# 1 0.012857 -0.001581 -0.006521 0.000108 0.001650 0.002400
# 2 -0.001581 0.009678 -0.002612 0.001325 -0.001312 0.003253
# 3 -0.006521 -0.002612 0.016602 -0.002412 -0.001052 -0.003678
# 4 0.000108 0.001325 -0.002412 0.031379 0.010446 -0.001890
# 5 0.001650 -0.001312 -0.001052 0.010446 0.028290 -0.005095
# 6 0.002400 0.003253 -0.003678 -0.001890 -0.005095 0.030088
#
#
# Mechanical properties :
#
#
# Convention : Reuss Voigt Hill
#
# Bulk Modulus (GPa) = 56.46625 57.78285 57.12455
# Shear Modulus (GPa) = 32.00473 37.03640 34.52057
#
# Velocity S-wave (km/s) = 3.79770 4.08534 3.94415
# Velocity P-wave (km/s) = 6.68401 6.94928 6.81793
#
# Compressibility (1/GPa) = 0.01770970
#
# Stress axis : x y z
#
# Youngs Moduli (GPa) = 77.77602 103.32218 60.23362
#
# Poissons Ratio (x) = 0.16331 0.39279
# Poissons Ratio (y) = 0.12293 0.15735
# Poissons Ratio (z) = 0.50719 0.26992
#
# Static dielectric constant tensor:
#      x y z
#    x 3.959110 0.557390 -0.393150 
#    y 0.557390 1.444890 1.412490 
#    z -0.393150 1.412490 3.485170 
# 
# 
# High freq. dielectric constant tensor:
#      x y z
#    x 1.881310 -0.010750 -0.006040 
#    y -0.010750 1.869150 0.013950 
#    z -0.006040 0.013950 1.884520 
# 
# From -- ./inp_files/470223.got.cif
#   From: 2010.06.25/outbox.cif.g09.slc.cpg/sg2_236_cif.got.tgz:470223.got - 2010.06.27 13:26:56.
