data_PCOD8032428
_publ_section_title
;
Structure prediction by ZEFSAII (Michael W. Deem and Ramdas Pophale) SiO2 
 PCOD8032428
Probable space group: P -1
;
_chemical_formula_sum "Si O2"
_cell_formula_units_Z 16
_cell_length_a 14.092197
_cell_length_b 8.985316
_cell_length_c 9.205899
_cell_angle_alpha 64.205453
_cell_angle_beta 81.338310
_cell_angle_gamma 127.005739
_cell_volume 686.466822
_symmetry_space_group_name_H-M "P -1"
_symmetry_group_IT_number 2
_symmetry_cell_setting 'triclinic'
loop_
_space_group_symop_operation_xyz
x,y,z
-x,-y,-z
loop_
_atom_site_type_symbol
_atom_site_label
_atom_site_fract_x
_atom_site_fract_y
_atom_site_fract_z
Si Si1 0.213031 0.807783 0.922913
Si Si2 0.213463 0.328110 0.975108
Si Si3 0.236081 0.591564 0.595196
Si Si4 0.181589 0.891347 0.474799
Si Si5 0.098066 0.832103 0.201103
Si Si6 0.386700 0.448181 0.145521
Si Si7 0.473396 0.823438 0.197732
Si Si8 0.992012 0.253917 0.171064
O O1 0.161818 0.901170 0.802902
O O2 0.386015 0.013738 0.800172
O O3 0.144339 0.741659 0.125991
O O4 0.132314 0.549894 0.972544
O O5 0.279920 0.527642 0.746661
O O6 0.305015 0.466863 0.045011
O O7 0.046113 0.150834 0.137125
O O8 0.203672 0.123907 0.017434
O O9 0.248770 0.801863 0.550870
O O10 0.337858 0.685655 0.392827
O O11 0.069711 0.336734 0.704091
O O12 0.131379 0.799342 0.362729
O O13 0.036522 0.766826 0.643124
O O14 0.291659 0.181935 0.351118
O O15 0.450929 0.629194 0.190788
O O16 0.500000 0.500000 0.000000
O O17 0.500000 0.000000 0.000000
#
# Coordination Sequence:
#
# PCOD8032428 Si02
#       8
#     2   2   2   2   2   2   2   2
#     4  11  23  45  66  98 141 181 222 292 348 409
#     4  11  25  43  72 102 142 180 235 295 340 413
#     4  12  24  44  70 107 137 187 233 286 353 414
#     4  11  25  41  72 101 139 185 236 287 347 413
#     4  11  23  42  71 102 142 180 233 288 348 408
#     4  11  26  49  68 100 147 187 226 287 355 415
#     4  12  27  44  72 103 143 185 235 283 347 425
#     4  11  23  42  70 102 134 178 235 289 345 404
#
# _framework density 23.307753999999999
#
# number of rings (size 3 to 8) (size 9 to 14) (size 15 to 20)
#    0.000    0.750    2.500    5.250    5.250    2.000 
#    0.000    5.625    0.000    0.000    0.000    0.000 
#    0.000    0.000    0.000    0.000    0.000    0.000 
#
# Total GULP energy -198308.303943 kJ/mol
# GULP energy per Si atom -12394.268996 kJ/mol
# Density = 2.325470 g / cm^3
# Si number density = 23.307754 Si / 1000 Ang^3
#
#
#
# Elastic Constant Matrix: (Units=GPa)
#
#
# Indices 1 2 3 4 5 6 
#
# 1 85.3396 11.5878 29.6465 -5.6174 1.0486 6.5935
# 2 11.5878 88.2471 10.3300 -9.9957 6.4760 2.3427
# 3 29.6465 10.3300 117.0847 7.5226 2.1780 -11.4132
# 4 -5.6174 -9.9957 7.5226 26.8240 -5.6417 -9.7793
# 5 1.0486 6.4760 2.1780 -5.6417 52.4285 5.9229
# 6 6.5935 2.3427 -11.4132 -9.7793 5.9229 38.5263
#
#
#
# Elastic Compliance Matrix: (Units=1/GPa)
#
#
# Indices 1 2 3 4 5 6 
#
# 1 0.013557 -0.001008 -0.003798 0.002633 0.000612 -0.002810
# 2 -0.001008 0.012166 -0.001051 0.004566 -0.000997 0.000434
# 3 -0.003798 -0.001051 0.010109 -0.003094 -0.000893 0.003061
# 4 0.002633 0.004566 -0.003094 0.044414 0.003260 0.009128
# 5 0.000612 -0.000997 -0.000893 0.003260 0.019859 -0.002534
# 6 -0.002810 0.000434 0.003061 0.009128 -0.002534 0.030024
#
#
# Mechanical properties :
#
#
# Convention : Reuss Voigt Hill
#
# Bulk Modulus (GPa) = 41.46169 43.75556 42.60862
# Shear Modulus (GPa) = 33.35969 39.49624 36.42796
#
# Velocity S-wave (km/s) = 3.78732 4.12096 3.95766
# Velocity P-wave (km/s) = 6.07885 6.43870 6.26136
#
# Compressibility (1/GPa) = 0.02411865
#
# Stress axis : x y z
#
# Youngs Moduli (GPa) = 73.76199 82.19693 98.92162
#
# Poissons Ratio (x) = 0.08282 0.37573
# Poissons Ratio (y) = 0.07433 0.10394
# Poissons Ratio (z) = 0.28017 0.08637
#
# Static dielectric constant tensor:
#      x y z
#    x 4.449900 0.160710 -0.079260 
#    y 0.160710 4.263470 0.137830 
#    z -0.079260 0.137830 4.097470 
# 
# 
# High freq. dielectric constant tensor:
#      x y z
#    x 1.923760 -0.008030 -0.000060 
#    y -0.008030 1.927600 0.011650 
#    z -0.000060 0.011650 1.923460 
# 
# From -- ./inp_files/297882.got.cif
#   From: 2010.06.25/outbox.cif.g09.slc.cpg/sg2_149_cif.got.tgz:297882.got - 2010.06.27 13:26:56.
