data_PCOD8032397
_publ_section_title
;
Structure prediction by ZEFSAII (Michael W. Deem and Ramdas Pophale) SiO2 
 PCOD8032397
Probable space group: P -1
;
_chemical_formula_sum "Si O2"
_cell_formula_units_Z 16
_cell_length_a 14.999676
_cell_length_b 8.939106
_cell_length_c 8.900499
_cell_angle_alpha 108.916560
_cell_angle_beta 41.258947
_cell_angle_gamma 101.257242
_cell_volume 742.253457
_symmetry_space_group_name_H-M "P -1"
_symmetry_group_IT_number 2
_symmetry_cell_setting 'triclinic'
loop_
_space_group_symop_operation_xyz
x,y,z
-x,-y,-z
loop_
_atom_site_type_symbol
_atom_site_label
_atom_site_fract_x
_atom_site_fract_y
_atom_site_fract_z
Si Si1 0.730637 0.813411 0.812217
Si Si2 0.235441 0.796381 0.350837
Si Si3 0.417324 0.867445 0.861494
Si Si4 0.033034 0.328526 0.336379
Si Si5 0.636215 0.488258 0.733844
Si Si6 0.731661 0.879496 0.514859
Si Si7 0.632084 0.407782 0.367612
Si Si8 0.888583 0.591512 0.065389
O O1 0.826679 0.755952 0.807186
O O2 0.679749 0.665236 0.737292
O O3 0.791072 0.897047 0.616962
O O4 0.615682 0.943424 0.064988
O O5 0.257493 0.628840 0.352390
O O6 0.076474 0.792360 0.511167
O O7 0.258767 0.937359 0.487745
O O8 0.335722 0.801077 0.083401
O O9 0.576688 0.833372 0.683089
O O10 0.372218 0.774525 0.740047
O O11 0.000000 0.500000 0.500000
O O12 0.041862 0.355558 0.156645
O O13 0.623641 0.421507 0.561160
O O14 0.500000 0.500000 0.000000
O O15 0.831694 0.756953 0.261772
O O16 0.500000 0.500000 0.500000
O O17 0.767288 0.478516 0.154034
O O18 0.000000 0.500000 0.000000
#
# Coordination Sequence:
#
# PCOD8032397 Si02
#       8
#     2   2   2   2   2   2   2   2
#     4  11  23  42  69 100 139 180 226 285 343 409
#     4  11  24  43  70  99 138 184 228 282 350 416
#     4  11  24  45  71 104 141 178 232 290 351 407
#     4  12  25  43  67  99 139 182 237 282 336 416
#     4  12  23  40  69  99 133 179 226 278 347 408
#     4  11  23  46  68 101 141 181 228 289 356 409
#     4  12  24  43  69 102 137 182 233 286 346 411
#     4  12  26  45  71  98 145 188 228 285 354 419
#
# _framework density 21.555979000000001
#
# number of rings (size 3 to 8) (size 9 to 14) (size 15 to 20)
#    0.000    0.500    3.750    6.000    1.750    4.500 
#    0.000    1.875    0.000    0.000    0.000    0.000 
#    0.000    0.000    0.000    0.000    0.000    0.000 
#
# Total GULP energy -198292.159417 kJ/mol
# GULP energy per Si atom -12393.259964 kJ/mol
# Density = 2.150692 g / cm^3
# Si number density = 21.555979 Si / 1000 Ang^3
#
#
#
# Elastic Constant Matrix: (Units=GPa)
#
#
# Indices 1 2 3 4 5 6 
#
# 1 117.7024 43.9212 49.8095 8.2239 -0.2295 0.3147
# 2 43.9212 109.3246 52.3344 26.4274 4.8614 17.3284
# 3 49.8095 52.3344 133.1680 14.2837 4.1752 7.6278
# 4 8.2239 26.4274 14.2837 49.4846 7.9521 -0.2980
# 5 -0.2295 4.8614 4.1752 7.9521 39.4542 5.7717
# 6 0.3147 17.3284 7.6278 -0.2980 5.7717 44.4292
#
#
#
# Elastic Compliance Matrix: (Units=1/GPa)
#
#
# Indices 1 2 3 4 5 6 
#
# 1 0.010983 -0.003507 -0.002932 0.000843 0.000380 0.001750
# 2 -0.003507 0.014519 -0.003441 -0.006303 0.000581 -0.005165
# 3 -0.002932 -0.003441 0.010044 -0.000494 -0.000513 -0.000298
# 4 0.000843 -0.006303 -0.000494 0.024328 -0.004551 0.003291
# 5 0.000380 0.000581 -0.000513 -0.004551 0.026782 -0.003651
# 6 0.001750 -0.005165 -0.000298 0.003291 -0.003651 0.025057
#
#
# Mechanical properties :
#
#
# Convention : Reuss Voigt Hill
#
# Bulk Modulus (GPa) = 63.34373 72.48057 67.91215
# Shear Modulus (GPa) = 36.56695 40.94894 38.75794
#
# Velocity S-wave (km/s) = 4.12317 4.36323 4.24490
# Velocity P-wave (km/s) = 7.21920 7.68642 7.45647
#
# Compressibility (1/GPa) = 0.01578688
#
# Stress axis : x y z
#
# Youngs Moduli (GPa) = 91.05335 68.87354 99.55707
#
# Poissons Ratio (x) = 0.24151 0.29194
# Poissons Ratio (y) = 0.31929 0.34256
# Poissons Ratio (z) = 0.26700 0.23698
#
# Static dielectric constant tensor:
#      x y z
#    x 3.495960 1.237250 0.917850 
#    y 1.237250 2.403650 -1.278680 
#    z 0.917850 -1.278680 2.727510 
# 
# 
# High freq. dielectric constant tensor:
#      x y z
#    x 1.846560 0.003150 -0.004800 
#    y 0.003150 1.863570 0.016430 
#    z -0.004800 0.016430 1.848820 
# 
# From -- ./inp_files/299045.got.cif
#   From: 2010.06.25/outbox.cif.g09.slc.cpg/sg2_150_cif.got.tgz:299045.got - 2010.06.27 13:26:56.
