data_PCOD8032311
_publ_section_title
;
Structure prediction by ZEFSAII (Michael W. Deem and Ramdas Pophale) SiO2 
 PCOD8032311
Probable space group: P -1
;
_chemical_formula_sum "Si O2"
_cell_formula_units_Z 12
_cell_length_a 11.730948
_cell_length_b 22.942342
_cell_length_c 11.454328
_cell_angle_alpha 30.951981
_cell_angle_beta 141.865480
_cell_angle_gamma 160.044697
_cell_volume 537.754681
_symmetry_space_group_name_H-M "P -1"
_symmetry_group_IT_number 2
_symmetry_cell_setting 'triclinic'
loop_
_space_group_symop_operation_xyz
x,y,z
-x,-y,-z
loop_
_atom_site_type_symbol
_atom_site_label
_atom_site_fract_x
_atom_site_fract_y
_atom_site_fract_z
Si Si1 0.734858 0.764734 0.680840
Si Si2 0.159556 0.427281 0.962100
Si Si3 0.709711 0.484407 0.821634
Si Si4 0.962492 0.720998 0.395502
Si Si5 0.699412 0.387371 0.623136
Si Si6 0.339524 0.126591 0.002136
O O1 0.537963 0.649310 0.842785
O O2 0.460960 0.648599 0.561389
O O3 0.930407 0.749167 0.834625
O O4 0.000000 0.000000 0.500000
O O5 0.889174 0.367467 0.781761
O O6 0.116160 0.432428 0.055298
O O7 0.945291 0.674478 0.596324
O O8 0.358329 0.370130 0.745484
O O9 0.642967 0.321569 0.998466
O O10 0.974151 0.618854 0.494427
O O11 0.301788 0.971036 0.225984
O O12 0.404422 0.217531 0.772509
O O13 0.000000 0.000000 0.000000
#
# Coordination Sequence:
#
# PCOD8032311 Si02
#       6
#     2   2   2   2   2   2
#     4  11  27  44  66  90 120 168 214 262 315 364
#     4  11  25  43  65  92 126 163 211 262 307 372
#     4   9  18  36  59  89 126 165 198 245 312 365
#     4   9  18  35  62  90 127 163 196 250 305 371
#     4  11  23  42  65  94 127 162 207 260 312 365
#     4   9  20  33  65  97 125 166 201 246 308 377
#
# _framework density 22.315007000000001
#
# number of rings (size 3 to 8) (size 9 to 14) (size 15 to 20)
#    0.000    2.000    1.667    1.500    4.667    4.667 
#    0.000    1.667    0.000    0.000    0.000    0.000 
#    0.000    0.000    0.000    0.000    0.000    0.000 
#
# Total GULP energy -148806.731630 kJ/mol
# GULP energy per Si atom -12400.560969 kJ/mol
# Density = 2.226422 g / cm^3
# Si number density = 22.315007 Si / 1000 Ang^3
#
#
#
# Elastic Constant Matrix: (Units=GPa)
#
#
# Indices 1 2 3 4 5 6 
#
# 1 93.2982 21.5654 47.6203 -1.3940 17.5670 -16.3777
# 2 21.5654 30.4768 33.8234 -9.7854 15.1436 -12.3038
# 3 47.6203 33.8234 132.3308 -21.1737 29.1509 -19.5547
# 4 -1.3940 -9.7854 -21.1737 45.2672 -2.7602 9.0539
# 5 17.5670 15.1436 29.1509 -2.7602 43.8341 4.7000
# 6 -16.3777 -12.3038 -19.5547 9.0539 4.7000 25.0647
#
#
#
# Elastic Compliance Matrix: (Units=1/GPa)
#
#
# Indices 1 2 3 4 5 6 
#
# 1 0.015140 -0.003214 -0.003168 -0.003519 -0.003914 0.007849
# 2 -0.003214 0.063454 -0.006348 0.004272 -0.018942 0.026104
# 3 -0.003168 -0.006348 0.012654 0.003230 -0.005231 0.004500
# 4 -0.003519 0.004272 0.003230 0.025837 0.000169 -0.007047
# 5 -0.003914 -0.018942 -0.005231 0.000169 0.036872 -0.022912
# 6 0.007849 0.026104 0.004500 -0.007047 -0.022912 0.068191
#
#
# Mechanical properties :
#
#
# Convention : Reuss Voigt Hill
#
# Bulk Modulus (GPa) = 15.20058 51.34712 33.27385
# Shear Modulus (GPa) = 18.55031 33.03965 25.79498
#
# Velocity S-wave (km/s) = 2.88634 3.85203 3.40361
# Velocity P-wave (km/s) = 4.23492 6.54556 5.51266
#
# Compressibility (1/GPa) = 0.06578697
#
# Stress axis : x y z
#
# Youngs Moduli (GPa) = 66.04913 15.75950 79.02896
#
# Poissons Ratio (x) = 0.05065 0.25036
# Poissons Ratio (y) = 0.21228 0.50170
# Poissons Ratio (z) = 0.20924 0.10005
#
# Static dielectric constant tensor:
#      x y z
#    x 4.133260 -0.179470 0.222280 
#    y -0.179470 3.755490 -0.266050 
#    z 0.222280 -0.266050 4.525770 
# 
# 
# High freq. dielectric constant tensor:
#      x y z
#    x 1.882190 -0.003050 0.006850 
#    y -0.003050 1.848790 -0.003130 
#    z 0.006850 -0.003130 1.894070 
# 
# From -- ./inp_files/185605.got.cif
#   From: 2010.06.25/outbox.cif.g09.slc.cpg/sg2_93_cif.got.tgz:185605.got - 2010.06.27 13:26:56.
