data_PCOD8032715
_publ_section_title
;
Structure prediction by ZEFSAII (Michael W. Deem and Ramdas Pophale) SiO2 
 PCOD8032715
Probable space group: P -1
;
_chemical_formula_sum "Si O2"
_cell_formula_units_Z 12
_cell_length_a 9.019558
_cell_length_b 14.042982
_cell_length_c 10.746660
_cell_angle_alpha 32.000692
_cell_angle_beta 41.856549
_cell_angle_gamma 52.732925
_cell_volume 480.009332
_symmetry_space_group_name_H-M "P -1"
_symmetry_group_IT_number 2
_symmetry_cell_setting 'triclinic'
loop_
_space_group_symop_operation_xyz
x,y,z
-x,-y,-z
loop_
_atom_site_type_symbol
_atom_site_label
_atom_site_fract_x
_atom_site_fract_y
_atom_site_fract_z
Si Si1 0.419375 0.144927 0.295564
Si Si2 0.059973 0.591875 0.992361
Si Si3 0.925414 0.708857 0.499930
Si Si4 0.439742 0.443348 0.292265
Si Si5 0.679520 0.747302 0.186194
Si Si6 0.365628 0.900411 0.029241
O O1 0.166072 0.169857 0.465032
O O2 0.500000 0.000000 0.500000
O O3 0.544410 0.348863 0.993556
O O4 0.441317 0.062411 0.235867
O O5 0.324280 0.649115 0.766672
O O6 0.002448 0.469024 0.283537
O O7 0.000000 0.500000 0.000000
O O8 0.891130 0.745460 0.960777
O O9 0.741674 0.671644 0.549585
O O10 0.149049 0.809534 0.193161
O O11 0.365778 0.427138 0.501581
O O12 0.455041 0.768458 0.223971
O O13 0.714313 0.918429 0.064167
#
# Coordination Sequence:
#
# PCOD8032715 Si02
#       6
#     2   2   2   2   2   2
#     4  11  24  43  67  99 138 175 221 278 336 400
#     4  11  23  43  70  97 131 178 228 278 334 400
#     4  11  25  43  68 101 136 177 226 279 336 399
#     4  11  25  44  70 102 133 178 228 276 338 400
#     4  11  25  46  70  98 137 179 227 278 333 404
#     4  11  26  44  67 102 137 178 225 278 338 396
#
# _framework density 24.999514000000001
#
# number of rings (size 3 to 8) (size 9 to 14) (size 15 to 20)
#    0.000    1.000    0.000    7.000    0.000   12.667 
#    0.000    4.167    0.000    0.000    0.000    0.000 
#    0.000    0.000    0.000    0.000    0.000    0.000 
#
# Total GULP energy -148679.420793 kJ/mol
# GULP energy per Si atom -12389.951733 kJ/mol
# Density = 2.494261 g / cm^3
# Si number density = 24.999514 Si / 1000 Ang^3
#
#
#
# Elastic Constant Matrix: (Units=GPa)
#
#
# Indices 1 2 3 4 5 6 
#
# 1 109.3739 24.2904 50.9153 -6.5231 1.6795 -3.1227
# 2 24.2904 156.7606 24.5610 16.9171 -4.7977 8.9858
# 3 50.9153 24.5610 82.0708 7.8540 11.3535 -9.9747
# 4 -6.5231 16.9171 7.8540 30.5694 0.8074 5.2804
# 5 1.6795 -4.7977 11.3535 0.8074 46.4595 8.4988
# 6 -3.1227 8.9858 -9.9747 5.2804 8.4988 34.2094
#
#
#
# Elastic Compliance Matrix: (Units=1/GPa)
#
#
# Indices 1 2 3 4 5 6 
#
# 1 0.014216 -0.001165 -0.009738 0.006605 0.002141 -0.002787
# 2 -0.001165 0.007397 -0.001686 -0.003536 0.001723 -0.002423
# 3 -0.009738 -0.001686 0.021446 -0.007978 -0.006508 0.008655
# 4 0.006605 -0.003536 -0.007978 0.039348 0.002010 -0.007367
# 5 0.002141 0.001723 -0.006508 0.002010 0.024756 -0.008615
# 6 -0.002787 -0.002423 0.008655 -0.007367 -0.008615 0.035415
#
#
# Mechanical properties :
#
#
# Convention : Reuss Voigt Hill
#
# Bulk Modulus (GPa) = 55.91907 60.85986 58.38946
# Shear Modulus (GPa) = 28.78278 38.81021 33.79650
#
# Velocity S-wave (km/s) = 3.39681 3.94437 3.68079
# Velocity P-wave (km/s) = 6.14826 6.71873 6.43982
#
# Compressibility (1/GPa) = 0.01788299
#
# Stress axis : x y z
#
# Youngs Moduli (GPa) = 70.34208 135.19218 46.62881
#
# Poissons Ratio (x) = 0.15745 0.45407
# Poissons Ratio (y) = 0.08192 0.07859
# Poissons Ratio (z) = 0.68499 0.22787
#
# Static dielectric constant tensor:
#      x y z
#    x 4.442880 -0.098710 0.199110 
#    y -0.098710 5.051170 0.131920 
#    z 0.199110 0.131920 4.438350 
# 
# 
# High freq. dielectric constant tensor:
#      x y z
#    x 1.990770 -0.006430 0.017110 
#    y -0.006430 2.020760 0.014280 
#    z 0.017110 0.014280 1.982120 
# 
# From -- ./inp_files/395025.got.cif
#   From: 2010.06.25/outbox.cif.g09.slc.cpg/sg2_198_cif.got.tgz:395025.got - 2010.06.27 13:26:56.
