data_PCOD8032286
_publ_section_title
;
Structure prediction by ZEFSAII (Michael W. Deem and Ramdas Pophale) SiO2 
 PCOD8032286
Probable space group: P -1
;
_chemical_formula_sum "Si O2"
_cell_formula_units_Z 16
_cell_length_a 21.457984
_cell_length_b 13.150571
_cell_length_c 18.086356
_cell_angle_alpha 33.001713
_cell_angle_beta 162.142579
_cell_angle_gamma 154.246908
_cell_volume 673.323168
_symmetry_space_group_name_H-M "P -1"
_symmetry_group_IT_number 2
_symmetry_cell_setting 'triclinic'
loop_
_space_group_symop_operation_xyz
x,y,z
-x,-y,-z
loop_
_atom_site_type_symbol
_atom_site_label
_atom_site_fract_x
_atom_site_fract_y
_atom_site_fract_z
Si Si1 0.031399 0.560602 0.270597
Si Si2 0.626635 0.936549 0.862647
Si Si3 0.870541 0.928768 0.620590
Si Si4 0.528978 0.799562 0.171781
Si Si5 0.362952 0.178761 0.427403
Si Si6 0.812940 0.970175 0.889365
Si Si7 0.877913 0.539024 0.405517
Si Si8 0.382807 0.504657 0.610103
O O1 0.198643 0.844496 0.284708
O O2 0.011580 0.476474 0.382710
O O3 0.138140 0.457721 0.400808
O O4 0.754899 0.449997 0.989325
O O5 0.462615 0.025535 0.643139
O O6 0.713267 0.980340 0.849358
O O7 0.432627 0.654356 0.830854
O O8 0.894087 0.083449 0.122875
O O9 0.693467 0.868872 0.388286
O O10 0.687087 0.763471 0.582596
O O11 0.037097 0.201219 0.667940
O O12 0.655221 0.743305 0.282937
O O13 0.500000 0.000000 0.000000
O O14 0.582070 0.416470 0.485105
O O15 0.094768 0.035545 0.166578
O O16 0.632920 0.708099 0.813786
O O17 0.000000 0.500000 0.500000
#
# Coordination Sequence:
#
# PCOD8032286 Si02
#       8
#     2   2   2   2   2   2   2   2
#     4  12  25  47  77 109 146 184 246 303 357 433
#     4  11  23  44  73 106 147 176 235 303 369 423
#     4  11  27  47  66 103 148 191 244 289 348 442
#     4  12  29  52  69 101 148 203 245 287 348 439
#     4  11  23  42  73 106 141 186 229 303 369 411
#     4  11  23  41  76 116 142 172 243 313 363 419
#     4  12  24  45  74 105 143 191 233 301 370 417
#     4  12  25  43  77 110 142 191 241 301 365 421
#
# _framework density 23.762733999999998
#
# number of rings (size 3 to 8) (size 9 to 14) (size 15 to 20)
#    0.000    0.500    6.250    1.875    1.750    2.000 
#    4.500    1.250    0.000    0.000    0.000    0.000 
#    0.000    0.000    0.000    0.000    0.000    0.000 
#
# Total GULP energy -198343.597948 kJ/mol
# GULP energy per Si atom -12396.474872 kJ/mol
# Density = 2.370865 g / cm^3
# Si number density = 23.762734 Si / 1000 Ang^3
#
#
#
# Elastic Constant Matrix: (Units=GPa)
#
#
# Indices 1 2 3 4 5 6 
#
# 1 102.6117 11.8757 53.6733 -1.9964 12.9059 0.4976
# 2 11.8757 68.1603 9.3152 -14.3954 -0.4612 -15.9838
# 3 53.6733 9.3152 132.2659 -3.7120 -0.0499 -13.2152
# 4 -1.9964 -14.3954 -3.7120 37.3310 -4.9752 5.9540
# 5 12.9059 -0.4612 -0.0499 -4.9752 38.9299 -4.5721
# 6 0.4976 -15.9838 -13.2152 5.9540 -4.5721 35.8389
#
#
#
# Elastic Compliance Matrix: (Units=1/GPa)
#
#
# Indices 1 2 3 4 5 6 
#
# 1 0.013777 -0.002803 -0.005832 -0.000965 -0.005212 -0.004096
# 2 -0.002803 0.018180 0.000808 0.006076 0.002838 0.007798
# 3 -0.005832 0.000808 0.010336 0.000656 0.002565 0.004471
# 4 -0.000965 0.006076 0.000656 0.029920 0.004042 -0.001490
# 5 -0.005212 0.002838 0.002565 0.004042 0.028586 0.005259
# 6 -0.004096 0.007798 0.004471 -0.001490 0.005259 0.034004
#
#
# Mechanical properties :
#
#
# Convention : Reuss Voigt Hill
#
# Bulk Modulus (GPa) = 37.53834 50.30737 43.92286
# Shear Modulus (GPa) = 31.37988 37.63152 34.50570
#
# Velocity S-wave (km/s) = 3.63788 3.98381 3.81477
# Velocity P-wave (km/s) = 5.78593 6.50981 6.15852
#
# Compressibility (1/GPa) = 0.02663943
#
# Stress axis : x y z
#
# Youngs Moduli (GPa) = 72.58522 55.00476 96.74774
#
# Poissons Ratio (x) = 0.15419 0.56419
# Poissons Ratio (y) = 0.20347 -0.07815
# Poissons Ratio (z) = 0.42329 -0.04443
#
# Static dielectric constant tensor:
#      x y z
#    x 4.419570 0.100830 0.193530 
#    y 0.100830 4.439880 -0.061970 
#    z 0.193530 -0.061970 4.773520 
# 
# 
# High freq. dielectric constant tensor:
#      x y z
#    x 1.944190 -0.000930 0.015420 
#    y -0.000930 1.935150 -0.010060 
#    z 0.015420 -0.010060 1.952050 
# 
# From -- ./inp_files/577964.got.cif
#   From: 2010.06.25/outbox.cif.g09.slc.cpg/sg2_289_cif.got.tgz:577964.got - 2010.06.27 13:26:56.
