data_PCOD8032100
_publ_section_title
;
Structure prediction by ZEFSAII (Michael W. Deem and Ramdas Pophale) SiO2 
 PCOD8032100
Probable space group: P -1
;
_chemical_formula_sum "Si O2"
_cell_formula_units_Z 16
_cell_length_a 7.025568
_cell_length_b 8.124198
_cell_length_c 15.909255
_cell_angle_alpha 124.113707
_cell_angle_beta 96.319887
_cell_angle_gamma 70.563849
_cell_volume 705.543569
_symmetry_space_group_name_H-M "P -1"
_symmetry_group_IT_number 2
_symmetry_cell_setting 'triclinic'
loop_
_space_group_symop_operation_xyz
x,y,z
-x,-y,-z
loop_
_atom_site_type_symbol
_atom_site_label
_atom_site_fract_x
_atom_site_fract_y
_atom_site_fract_z
Si Si1 0.994255 0.988306 0.175833
Si Si2 0.731583 0.782396 0.675164
Si Si3 0.563902 0.053763 0.151767
Si Si4 0.280088 0.605952 0.973517
Si Si5 0.098948 0.668909 0.377338
Si Si6 0.717350 0.970465 0.542275
Si Si7 0.005483 0.627369 0.177674
Si Si8 0.407061 0.304379 0.065792
O O1 0.956705 0.873732 0.226979
O O2 0.090564 0.165651 0.252432
O O3 0.129039 0.816594 0.068178
O O4 0.769321 0.110520 0.166335
O O5 0.518723 0.906076 0.745719
O O6 0.779028 0.529012 0.613363
O O7 0.715797 0.872314 0.606273
O O8 0.386140 0.192101 0.119792
O O9 0.612820 0.815168 0.055480
O O10 0.165156 0.447517 0.895130
O O11 0.369052 0.673371 0.911789
O O12 0.500000 0.500000 0.000000
O O13 0.897671 0.805774 0.453546
O O14 0.026884 0.581677 0.264472
O O15 0.244208 0.803967 0.395301
O O16 0.500000 0.000000 0.500000
O O17 0.219315 0.518632 0.108733
#
# Coordination Sequence:
#
# PCOD8032100 Si02
#       8
#     2   2   2   2   2   2   2   2
#     4  12  25  40  66 103 143 194 241 286 349 417
#     4  12  26  47  74 107 149 185 232 298 363 430
#     4  11  25  39  64 101 147 189 239 289 344 415
#     4  12  24  38  66  98 144 203 248 287 341 412
#     4  11  27  50  74 111 138 182 238 299 367 435
#     4  11  28  52  82 105 137 180 239 304 371 437
#     4  12  24  43  70 100 147 192 244 295 345 421
#     4  11  23  41  61  99 145 193 246 288 335 414
#
# _framework density 22.67755
#
# number of rings (size 3 to 8) (size 9 to 14) (size 15 to 20)
#    0.000    0.500    6.250    1.500    3.500    3.000 
#    0.000    0.000    0.000    0.000    0.000    0.000 
#    0.000    0.000    0.000    0.000    0.000    0.000 
#
# Total GULP energy -198250.134099 kJ/mol
# GULP energy per Si atom -12390.633381 kJ/mol
# Density = 2.262594 g / cm^3
# Si number density = 22.677550 Si / 1000 Ang^3
#
#
#
# Elastic Constant Matrix: (Units=GPa)
#
#
# Indices 1 2 3 4 5 6 
#
# 1 164.1351 46.2808 60.6248 -6.8492 -1.5510 0.0466
# 2 46.2808 135.8931 53.4966 -4.2063 5.6274 7.7800
# 3 60.6248 53.4966 94.2525 -1.8156 -9.9129 -1.3252
# 4 -6.8492 -4.2063 -1.8156 27.3025 5.4169 -0.0188
# 5 -1.5510 5.6274 -9.9129 5.4169 34.6377 1.4881
# 6 0.0466 7.7800 -1.3252 -0.0188 1.4881 31.2145
#
#
#
# Elastic Compliance Matrix: (Units=1/GPa)
#
#
# Indices 1 2 3 4 5 6 
#
# 1 0.008192 -0.000737 -0.004943 0.001855 -0.001219 0.000021
# 2 -0.000737 0.010191 -0.005679 0.001693 -0.003466 -0.002614
# 3 -0.004943 -0.005679 0.017629 -0.002131 0.005999 0.001884
# 4 0.001855 0.001693 -0.002131 0.038565 -0.006826 -0.000167
# 5 -0.001219 -0.003466 0.005999 -0.006826 0.032181 -0.000418
# 6 0.000021 -0.002614 0.001884 -0.000167 -0.000418 0.032788
#
#
# Mechanical properties :
#
#
# Convention : Reuss Voigt Hill
#
# Bulk Modulus (GPa) = 75.22354 79.45391 77.33873
# Shear Modulus (GPa) = 29.99495 34.22284 32.10889
#
# Velocity S-wave (km/s) = 3.64080 3.88894 3.76691
# Velocity P-wave (km/s) = 7.13560 7.43489 7.28678
#
# Compressibility (1/GPa) = 0.01329371
#
# Stress axis : x y z
#
# Youngs Moduli (GPa) = 122.06972 98.12624 56.72597
#
# Poissons Ratio (x) = 0.07236 0.28039
# Poissons Ratio (y) = 0.09002 0.32213
# Poissons Ratio (z) = 0.60338 0.55722
#
# Static dielectric constant tensor:
#      x y z
#    x 4.911640 -0.081320 0.087000 
#    y -0.081320 5.010300 -0.292520 
#    z 0.087000 -0.292520 4.070040 
# 
# 
# High freq. dielectric constant tensor:
#      x y z
#    x 1.909650 0.007430 -0.010840 
#    y 0.007430 1.915700 -0.005550 
#    z -0.010840 -0.005550 1.875880 
# 
# From -- ./inp_files/548417.got.cif
#   From: 2010.06.25/outbox.cif.g09.slc.cpg/sg2_275_cif.got.tgz:548417.got - 2010.06.27 13:26:56.
