data_PCOD8032085
_publ_section_title
;
Structure prediction by ZEFSAII (Michael W. Deem and Ramdas Pophale) SiO2 
 PCOD8032085
Probable space group: P -1
;
_chemical_formula_sum "Si O2"
_cell_formula_units_Z 14
_cell_length_a 10.740066
_cell_length_b 12.271713
_cell_length_c 5.727145
_cell_angle_alpha 102.738227
_cell_angle_beta 115.298154
_cell_angle_gamma 111.026029
_cell_volume 571.096825
_symmetry_space_group_name_H-M "P -1"
_symmetry_group_IT_number 2
_symmetry_cell_setting 'triclinic'
loop_
_space_group_symop_operation_xyz
x,y,z
-x,-y,-z
loop_
_atom_site_type_symbol
_atom_site_label
_atom_site_fract_x
_atom_site_fract_y
_atom_site_fract_z
Si Si1 0.124718 0.014868 0.910463
Si Si2 0.929650 0.575190 0.192444
Si Si3 0.847744 0.788035 0.320836
Si Si4 0.404481 0.959124 0.157698
Si Si5 0.574126 0.610155 0.304018
Si Si6 0.682781 0.453922 0.594019
Si Si7 0.230544 0.673976 0.738421
O O1 0.191771 0.155941 0.913267
O O2 0.025317 0.895711 0.596686
O O3 0.279622 0.009010 0.109575
O O4 0.000000 0.000000 0.000000
O O5 0.833649 0.649813 0.202772
O O6 0.871578 0.448921 0.241213
O O7 0.115978 0.677347 0.442269
O O8 0.873538 0.521694 0.855630
O O9 0.706099 0.752830 0.379225
O O10 0.500000 0.000000 0.500000
O O11 0.309716 0.803259 0.013877
O O12 0.500000 0.000000 0.000000
O O13 0.658691 0.570889 0.551764
O O14 0.430683 0.622208 0.311648
O O15 0.500000 0.500000 0.000000
O O16 0.639103 0.347535 0.305176
#
# Coordination Sequence:
#
# PCOD8032085 Si02
#       7
#     2   2   2   2   2   2   2
#     4  11  29  52  83 108 150 226 279 336 394 501
#     4  11  23  45  76 111 149 197 255 341 390 485
#     4  11  24  48  75 109 156 195 280 321 406 470
#     4  12  32  58  83 120 171 220 275 343 416 499
#     4  11  23  42  67 109 160 192 251 326 404 479
#     4  11  23  40  71 117 149 205 245 325 413 487
#     4  11  25  48  74 111 154 204 268 321 419 478
#
# _framework density 24.514233000000001
#
# number of rings (size 3 to 8) (size 9 to 14) (size 15 to 20)
#    0.000    0.857    4.286    0.429    8.000    3.429 
#    0.000    0.000    0.000    0.000    0.000    0.000 
#    0.000    0.000    0.000    0.000    0.000    0.000 
#
# Total GULP energy -173487.522346 kJ/mol
# GULP energy per Si atom -12391.965882 kJ/mol
# Density = 2.445844 g / cm^3
# Si number density = 24.514233 Si / 1000 Ang^3
#
#
#
# Elastic Constant Matrix: (Units=GPa)
#
#
# Indices 1 2 3 4 5 6 
#
# 1 118.1847 43.6781 32.8114 -7.4118 -4.8488 8.8502
# 2 43.6781 136.0644 39.0836 2.4577 4.6819 7.0065
# 3 32.8114 39.0836 131.6702 -2.0273 9.3482 -6.5768
# 4 -7.4118 2.4577 -2.0273 35.5133 -2.6041 -6.2572
# 5 -4.8488 4.6819 9.3482 -2.6041 42.6762 -5.1295
# 6 8.8502 7.0065 -6.5768 -6.2572 -5.1295 40.3784
#
#
#
# Elastic Compliance Matrix: (Units=1/GPa)
#
#
# Indices 1 2 3 4 5 6 
#
# 1 0.010351 -0.002792 -0.001926 0.002108 0.001848 -0.001536
# 2 -0.002792 0.008977 -0.001996 -0.001700 -0.001171 -0.001683
# 3 -0.001926 -0.001996 0.008897 0.000488 -0.001669 0.002081
# 4 0.002108 -0.001700 0.000488 0.029803 0.002724 0.004877
# 5 0.001848 -0.001171 -0.001669 0.002724 0.024673 0.003083
# 6 -0.001536 -0.001683 0.002081 0.004877 0.003083 0.026881
#
#
# Mechanical properties :
#
#
# Convention : Reuss Voigt Hill
#
# Bulk Modulus (GPa) = 67.58292 68.56284 68.07288
# Shear Modulus (GPa) = 39.08007 41.73666 40.40837
#
# Velocity S-wave (km/s) = 3.99705 4.13067 4.06441
# Velocity P-wave (km/s) = 6.99504 7.12595 7.06080
#
# Compressibility (1/GPa) = 0.01479664
#
# Stress axis : x y z
#
# Youngs Moduli (GPa) = 96.60820 111.39921 112.39589
#
# Poissons Ratio (x) = 0.31104 0.21649
# Poissons Ratio (y) = 0.26974 0.22433
# Poissons Ratio (z) = 0.18608 0.22234
#
# Static dielectric constant tensor:
#      x y z
#    x 4.649920 -0.095530 0.286830 
#    y -0.095530 4.402130 -0.193640 
#    z 0.286830 -0.193640 5.122050 
# 
# 
# High freq. dielectric constant tensor:
#      x y z
#    x 1.980360 -0.008100 0.005230 
#    y -0.008100 1.966250 -0.005760 
#    z 0.005230 -0.005760 1.990450 
# 
# From -- ./inp_files/69634.got.cif
#   From: 2010.06.25/outbox.cif.g09.slc.cpg/sg2_35_cif.got.tgz:69634.got - 2010.06.27 13:26:56.
