data_PCOD8032076
_publ_section_title
;
Structure prediction by ZEFSAII (Michael W. Deem and Ramdas Pophale) SiO2 
 PCOD8032076
Probable space group: P -1
;
_chemical_formula_sum "Si O2"
_cell_formula_units_Z 16
_cell_length_a 15.918989
_cell_length_b 11.556099
_cell_length_c 8.954336
_cell_angle_alpha 83.914589
_cell_angle_beta 124.470428
_cell_angle_gamma 139.379370
_cell_volume 705.391379
_symmetry_space_group_name_H-M "P -1"
_symmetry_group_IT_number 2
_symmetry_cell_setting 'triclinic'
loop_
_space_group_symop_operation_xyz
x,y,z
-x,-y,-z
loop_
_atom_site_type_symbol
_atom_site_label
_atom_site_fract_x
_atom_site_fract_y
_atom_site_fract_z
Si Si1 0.955190 0.830347 0.410119
Si Si2 0.318576 0.144053 0.534240
Si Si3 0.758206 0.947336 0.866464
Si Si4 0.168279 0.700017 0.755468
Si Si5 0.398773 0.421317 0.066234
Si Si6 0.462754 0.862683 0.597912
Si Si7 0.515006 0.921058 0.186842
Si Si8 0.073083 0.357729 0.311194
O O1 0.888366 0.678317 0.494525
O O2 0.785547 0.674939 0.136824
O O3 0.000000 0.000000 0.500000
O O4 0.141012 0.957609 0.496089
O O5 0.240412 0.096434 0.296589
O O6 0.457344 0.382258 0.695655
O O7 0.445091 0.147971 0.653114
O O8 0.661991 0.760999 0.904486
O O9 0.648170 0.961023 0.773335
O O10 0.979143 0.184160 0.112787
O O11 0.333771 0.944713 0.816191
O O12 0.000000 0.500000 0.500000
O O13 0.070086 0.673560 0.795923
O O14 0.285899 0.700717 0.936835
O O15 0.500000 0.500000 0.000000
O O16 0.434411 0.902555 0.719368
O O17 0.273012 0.600095 0.409930
O O18 0.500000 0.000000 0.500000
#
# Coordination Sequence:
#
# PCOD8032076 Si02
#       8
#     2   2   2   2   2   2   2   2
#     4  12  25  47  74 107 141 186 255 304 365 433
#     4  12  27  46  72 107 152 189 241 306 371 439
#     4  12  27  48  72 109 149 194 245 296 381 442
#     4  11  23  40  70 105 138 187 247 298 353 421
#     4  12  26  47  78 105 143 194 250 309 359 433
#     4  12  26  47  70 103 147 192 236 296 369 444
#     4  11  24  43  67 105 148 184 244 299 354 437
#     4  12  25  45  75 104 144 197 242 304 367 436
#
# _framework density 22.682442999999999
#
# number of rings (size 3 to 8) (size 9 to 14) (size 15 to 20)
#    0.000    0.250    7.500    1.125    1.750    2.000 
#    2.250    0.000    0.000    0.000    0.000    0.000 
#    0.000    0.000    0.000    0.000    0.000    0.000 
#
# Total GULP energy -198422.803728 kJ/mol
# GULP energy per Si atom -12401.425233 kJ/mol
# Density = 2.263082 g / cm^3
# Si number density = 22.682443 Si / 1000 Ang^3
#
#
#
# Elastic Constant Matrix: (Units=GPa)
#
#
# Indices 1 2 3 4 5 6 
#
# 1 68.2886 22.4587 29.5772 -3.5931 -3.4323 -6.5063
# 2 22.4587 145.2799 58.9411 -8.2030 -0.3491 -2.5717
# 3 29.5772 58.9411 156.4653 1.0135 -10.6795 -2.5174
# 4 -3.5931 -8.2030 1.0135 42.9493 -7.4485 0.9093
# 5 -3.4323 -0.3491 -10.6795 -7.4485 45.7541 -2.1481
# 6 -6.5063 -2.5717 -2.5174 0.9093 -2.1481 29.1993
#
#
#
# Elastic Compliance Matrix: (Units=1/GPa)
#
#
# Indices 1 2 3 4 5 6 
#
# 1 0.016635 -0.001426 -0.002491 0.001284 0.001024 0.003402
# 2 -0.001426 0.008374 -0.002926 0.001463 -0.000484 0.000086
# 3 -0.002491 -0.002926 0.008076 -0.000687 0.001565 0.000020
# 4 0.001284 0.001463 -0.000687 0.024367 0.003908 -0.000116
# 5 0.001024 -0.000484 0.001565 0.003908 0.023020 0.001892
# 6 0.003402 0.000086 0.000020 -0.000116 0.001892 0.035157
#
#
# Mechanical properties :
#
#
# Convention : Reuss Voigt Hill
#
# Bulk Modulus (GPa) = 51.54997 65.77643 58.66320
# Shear Modulus (GPa) = 36.82429 40.85100 38.83765
#
# Velocity S-wave (km/s) = 4.03360 4.24842 4.14240
# Velocity P-wave (km/s) = 6.66854 7.28884 6.98558
#
# Compressibility (1/GPa) = 0.01939865
#
# Stress axis : x y z
#
# Youngs Moduli (GPa) = 60.11535 119.42053 123.82474
#
# Poissons Ratio (x) = 0.17026 0.30846
# Poissons Ratio (y) = 0.08571 0.36231
# Poissons Ratio (z) = 0.14975 0.34943
#
# Static dielectric constant tensor:
#      x y z
#    x 4.290220 -0.071850 0.073890 
#    y -0.071850 3.941660 0.035520 
#    z 0.073890 0.035520 4.530330 
# 
# 
# High freq. dielectric constant tensor:
#      x y z
#    x 1.894880 -0.003950 0.005360 
#    y -0.003950 1.887500 -0.000720 
#    z 0.005360 -0.000720 1.912670 
# 
# From -- ./inp_files/333293.got.cif
#   From: 2010.06.25/outbox.cif.g09.slc.cpg/sg2_167_cif.got.tgz:333293.got - 2010.06.27 13:26:56.
