data_PCOD8032952
_publ_section_title
;
Structure prediction by ZEFSAII (Michael W. Deem and Ramdas Pophale) SiO2 
 PCOD8032952
Probable space group: P -1
;
_chemical_formula_sum "Si O2"
_cell_formula_units_Z 14
_cell_length_a 11.548481
_cell_length_b 6.654362
_cell_length_c 11.274015
_cell_angle_alpha 63.994988
_cell_angle_beta 53.325624
_cell_angle_gamma 71.206094
_cell_volume 622.335481
_symmetry_space_group_name_H-M "P -1"
_symmetry_group_IT_number 2
_symmetry_cell_setting 'triclinic'
loop_
_space_group_symop_operation_xyz
x,y,z
-x,-y,-z
loop_
_atom_site_type_symbol
_atom_site_label
_atom_site_fract_x
_atom_site_fract_y
_atom_site_fract_z
Si Si1 0.033387 0.005734 0.115759
Si Si2 0.510371 0.736348 0.058916
Si Si3 0.672230 0.625300 0.759844
Si Si4 0.981082 0.488299 0.654381
Si Si5 0.565728 0.041142 0.576458
Si Si6 0.825048 0.339636 0.312311
Si Si7 0.694003 0.764722 0.150047
O O1 0.007449 0.768888 0.249085
O O2 0.927225 0.192499 0.197905
O O3 0.201053 0.055852 0.012444
O O4 0.000000 0.000000 0.000000
O O5 0.362538 0.617614 0.210704
O O6 0.627661 0.642558 0.109412
O O7 0.548081 0.684370 0.914558
O O8 0.500000 0.000000 0.000000
O O9 0.822806 0.611246 0.741973
O O10 0.661072 0.814711 0.615997
O O11 0.000000 0.500000 0.500000
O O12 0.094734 0.626914 0.620157
O O13 0.673790 0.236571 0.455723
O O14 0.434462 0.108522 0.728078
O O15 0.500000 0.000000 0.500000
O O16 0.790726 0.583831 0.213762
#
# Coordination Sequence:
#
# PCOD8032952 Si02
#       7
#     2   2   2   2   2   2   2
#     4  12  26  48  76 108 148 191 257 308 368 445
#     4  11  23  44  69 105 139 183 238 303 366 429
#     4  11  26  44  71 104 146 184 240 303 365 431
#     4  12  29  47  75 107 152 199 247 305 379 449
#     4  12  27  47  75 109 152 194 244 305 377 450
#     4  12  28  49  74 108 152 198 249 308 376 447
#     4  12  25  45  79 105 144 192 250 308 370 435
#
# _framework density 22.495906000000002
#
# number of rings (size 3 to 8) (size 9 to 14) (size 15 to 20)
#    0.000    0.286    2.857    5.143    8.000    3.429 
#    0.000    0.000    0.000    0.000    0.000    0.000 
#    0.000    0.000    0.000    0.000    0.000    0.000 
#
# Total GULP energy -173595.637542 kJ/mol
# GULP energy per Si atom -12399.688396 kJ/mol
# Density = 2.244470 g / cm^3
# Si number density = 22.495906 Si / 1000 Ang^3
#
#
#
# Elastic Constant Matrix: (Units=GPa)
#
#
# Indices 1 2 3 4 5 6 
#
# 1 161.8104 41.7725 39.4073 -10.7033 6.5616 15.9468
# 2 41.7725 115.3375 43.1096 -13.5743 -0.6823 -1.5047
# 3 39.4073 43.1096 110.6222 -2.9926 -3.7276 9.1860
# 4 -10.7033 -13.5743 -2.9926 37.4438 -2.6204 -0.9048
# 5 6.5616 -0.6823 -3.7276 -2.6204 53.2937 -3.3451
# 6 15.9468 -1.5047 9.1860 -0.9048 -3.3451 41.9422
#
#
#
# Elastic Compliance Matrix: (Units=1/GPa)
#
#
# Indices 1 2 3 4 5 6 
#
# 1 0.007484 -0.001989 -0.001682 0.001139 -0.001173 -0.002617
# 2 -0.001989 0.011198 -0.003725 0.003273 0.000419 0.002078
# 3 -0.001682 -0.003725 0.011251 -0.000924 0.000781 -0.001916
# 4 0.001139 0.003273 -0.000924 0.028248 0.001264 0.000597
# 5 -0.001173 0.000419 0.000781 0.001264 0.019146 0.001844
# 6 -0.002617 0.002078 -0.001916 0.000597 0.001844 0.025492
#
#
# Mechanical properties :
#
#
# Convention : Reuss Voigt Hill
#
# Bulk Modulus (GPa) = 66.04943 70.70547 68.37745
# Shear Modulus (GPa) = 40.76388 44.10133 42.43260
#
# Velocity S-wave (km/s) = 4.26145 4.43246 4.34779
# Velocity P-wave (km/s) = 7.32377 7.59567 7.46096
#
# Compressibility (1/GPa) = 0.01514018
#
# Stress axis : x y z
#
# Youngs Moduli (GPa) = 133.61756 89.30490 88.87944
#
# Poissons Ratio (x) = 0.17761 0.14953
# Poissons Ratio (y) = 0.26574 0.33109
# Poissons Ratio (z) = 0.22480 0.33267
#
# Static dielectric constant tensor:
#      x y z
#    x 19.141460 19.738250 -22.637580 
#    y 19.738250 29.877710 -29.317540 
#    z -22.637580 -29.317540 35.720570 
# 
# 
# High freq. dielectric constant tensor:
#      x y z
#    x 1.909060 0.005090 0.000870 
#    y 0.005090 1.891250 -0.010500 
#    z 0.000870 -0.010500 1.898210 
# 
# From -- ./inp_files/69733.got.cif
#   From: 2010.06.25/outbox.cif.g09.slc.cpg/sg2_35_cif.got.tgz:69733.got - 2010.06.27 13:26:56.
