data_PCOD8032687
_publ_section_title
;
Structure prediction by ZEFSAII (Michael W. Deem and Ramdas Pophale) SiO2 
 PCOD8032687
Probable space group: P -1
;
_chemical_formula_sum "Si O2"
_cell_formula_units_Z 14
_cell_length_a 6.745582
_cell_length_b 9.462716
_cell_length_c 20.999833
_cell_angle_alpha 38.722628
_cell_angle_beta 66.116877
_cell_angle_gamma 90.937563
_cell_volume 624.119893
_symmetry_space_group_name_H-M "P -1"
_symmetry_group_IT_number 2
_symmetry_cell_setting 'triclinic'
loop_
_space_group_symop_operation_xyz
x,y,z
-x,-y,-z
loop_
_atom_site_type_symbol
_atom_site_label
_atom_site_fract_x
_atom_site_fract_y
_atom_site_fract_z
Si Si1 0.877914 0.669139 0.444531
Si Si2 0.777255 0.890284 0.121186
Si Si3 0.292228 0.415512 0.639772
Si Si4 0.715146 0.727066 0.811450
Si Si5 0.777501 0.370347 0.020782
Si Si6 0.317973 0.400022 0.274792
Si Si7 0.719036 0.108082 0.486409
O O1 0.584059 0.481331 0.577874
O O2 0.876515 0.751861 0.341842
O O3 0.000000 0.500000 0.500000
O O4 0.051957 0.965959 0.352883
O O5 0.844544 0.756264 0.217110
O O6 0.494274 0.663209 0.205206
O O7 0.768085 0.134826 0.064789
O O8 0.000000 0.000000 0.000000
O O9 0.314397 0.698608 0.531243
O O10 0.506591 0.757427 0.865041
O O11 0.584428 0.525820 0.837478
O O12 0.843648 0.614236 0.878926
O O13 0.000000 0.500000 0.000000
O O14 0.014825 0.297253 0.353204
O O15 0.346596 0.157227 0.374607
O O16 0.500000 0.000000 0.500000
#
# Coordination Sequence:
#
# PCOD8032687 Si02
#       7
#     2   2   2   2   2   2   2
#     4  11  24  43  72 104 138 179 238 300 356 418
#     4  12  27  46  71 105 147 189 241 293 354 429
#     4  11  25  42  69 105 138 185 234 293 355 421
#     4  11  25  44  71  98 135 189 233 285 355 412
#     4  11  26  48  69  96 141 188 242 287 339 424
#     4  11  26  43  70 107 140 186 231 295 362 421
#     4  11  23  43  70 100 144 178 229 291 360 425
#
# _framework density 22.431588000000001
#
# number of rings (size 3 to 8) (size 9 to 14) (size 15 to 20)
#    0.000    0.857    1.429    4.286    8.000    7.429 
#    0.000    0.000    0.000    0.000    0.000    0.000 
#    0.000    0.000    0.000    0.000    0.000    0.000 
#
# Total GULP energy -173639.053768 kJ/mol
# GULP energy per Si atom -12402.789555 kJ/mol
# Density = 2.238053 g / cm^3
# Si number density = 22.431588 Si / 1000 Ang^3
#
#
#
# Elastic Constant Matrix: (Units=GPa)
#
#
# Indices 1 2 3 4 5 6 
#
# 1 146.7055 61.9799 57.2023 -3.5689 8.5931 -5.6503
# 2 61.9799 154.2646 48.6085 -8.5326 9.3726 -0.5494
# 3 57.2023 48.6085 100.6581 -0.5844 9.2389 5.1436
# 4 -3.5689 -8.5326 -0.5844 46.3281 3.9531 7.3277
# 5 8.5931 9.3726 9.2389 3.9531 26.0846 -2.9647
# 6 -5.6503 -0.5494 5.1436 7.3277 -2.9647 41.0440
#
#
#
# Elastic Compliance Matrix: (Units=1/GPa)
#
#
# Indices 1 2 3 4 5 6 
#
# 1 0.009652 -0.002473 -0.004332 -0.000004 -0.000551 0.001799
# 2 -0.002473 0.008444 -0.002502 0.001517 -0.001597 -0.000300
# 3 -0.004332 -0.002502 0.014008 0.000045 -0.002938 -0.002606
# 4 -0.000004 0.001517 0.000045 0.022950 -0.004539 -0.004411
# 5 -0.000551 -0.001597 -0.002938 -0.004539 0.041283 0.004063
# 6 0.001799 -0.000300 -0.002606 -0.004411 0.004063 0.026015
#
#
# Mechanical properties :
#
#
# Convention : Reuss Voigt Hill
#
# Bulk Modulus (GPa) = 74.12849 81.91219 78.02034
# Shear Modulus (GPa) = 34.37333 38.28052 36.32692
#
# Velocity S-wave (km/s) = 3.91879 4.13552 4.02861
# Velocity P-wave (km/s) = 7.32080 7.70708 7.51642
#
# Compressibility (1/GPa) = 0.01349009
#
# Stress axis : x y z
#
# Youngs Moduli (GPa) = 103.60696 118.42527 71.39015
#
# Poissons Ratio (x) = 0.29289 0.30926
# Poissons Ratio (y) = 0.25624 0.17858
# Poissons Ratio (z) = 0.44883 0.29624
#
# Static dielectric constant tensor:
#      x y z
#    x 4.257890 0.189020 -0.017370 
#    y 0.189020 4.192140 0.068510 
#    z -0.017370 0.068510 3.834370 
# 
# 
# High freq. dielectric constant tensor:
#      x y z
#    x 1.899560 0.005200 0.006350 
#    y 0.005200 1.903710 -0.002830 
#    z 0.006350 -0.002830 1.876590 
# 
# From -- ./inp_files/72126.got.cif
#   From: 2010.06.25/outbox.cif.g09.slc.cpg/sg2_37_cif.got.tgz:72126.got - 2010.06.27 13:26:56.
