data_PCOD8032406
_publ_section_title
;
Structure prediction by ZEFSAII (Michael W. Deem and Ramdas Pophale) SiO2 
 PCOD8032406
Probable space group: P -1
;
_chemical_formula_sum "Si O2"
_cell_formula_units_Z 16
_cell_length_a 11.400328
_cell_length_b 12.591611
_cell_length_c 15.725947
_cell_angle_alpha 26.120948
_cell_angle_beta 123.854857
_cell_angle_gamma 130.064371
_cell_volume 759.181388
_symmetry_space_group_name_H-M "P -1"
_symmetry_group_IT_number 2
_symmetry_cell_setting 'triclinic'
loop_
_space_group_symop_operation_xyz
x,y,z
-x,-y,-z
loop_
_atom_site_type_symbol
_atom_site_label
_atom_site_fract_x
_atom_site_fract_y
_atom_site_fract_z
Si Si1 0.331738 0.484495 0.460555
Si Si2 0.330115 0.015109 0.105614
Si Si3 0.346342 0.486040 0.664580
Si Si4 0.857508 0.228886 0.630076
Si Si5 0.337554 0.731956 0.864099
Si Si6 0.595716 0.957938 0.492321
Si Si7 0.149593 0.142223 0.246729
Si Si8 0.898595 0.009729 0.370665
O O1 0.500000 0.500000 0.500000
O O2 0.302964 0.424859 0.592253
O O3 0.316611 0.755908 0.235109
O O4 0.205822 0.279306 0.496894
O O5 0.508631 0.154624 0.100618
O O6 0.209848 0.929994 0.195939
O O7 0.286370 0.209791 0.887744
O O8 0.269853 0.682795 0.527509
O O9 0.524124 0.670421 0.623108
O O10 0.000000 0.500000 0.500000
O O11 0.908909 0.039622 0.728958
O O12 0.211560 0.840852 0.763614
O O13 0.387079 0.808740 0.732494
O O14 0.268459 0.421658 0.063718
O O15 0.765185 0.993170 0.562143
O O16 0.500000 0.000000 0.500000
O O17 0.009453 0.162053 0.228457
O O18 0.000000 0.000000 0.500000
#
# Coordination Sequence:
#
# PCOD8032406 Si02
#       8
#     2   2   2   2   2   2   2   2
#     4  11  23  46  71  96 142 183 228 288 343 407
#     4  11  23  43  73 105 133 181 233 283 343 424
#     4  11  23  42  69 105 136 177 231 280 346 414
#     4  11  25  46  66  97 145 181 227 292 345 412
#     4  12  24  44  69 103 138 178 237 285 343 423
#     4  12  22  40  69 101 138 181 222 285 348 406
#     4  12  25  41  71 100 139 183 228 285 354 410
#     4  12  26  49  70  98 144 186 230 294 353 405
#
# _framework density 21.075332
#
# number of rings (size 3 to 8) (size 9 to 14) (size 15 to 20)
#    0.000    0.500    7.500    1.875    1.750    2.000 
#    6.750    0.000    0.000    0.000    0.000    0.000 
#    0.000    0.000    0.000    0.000    0.000    0.000 
#
# Total GULP energy -198352.400245 kJ/mol
# GULP energy per Si atom -12397.025015 kJ/mol
# Density = 2.102736 g / cm^3
# Si number density = 21.075332 Si / 1000 Ang^3
#
#
#
# Elastic Constant Matrix: (Units=GPa)
#
#
# Indices 1 2 3 4 5 6 
#
# 1 108.7675 28.3391 22.4035 2.8854 -12.8848 -10.3446
# 2 28.3391 128.0379 33.7374 -19.0139 -12.1424 -3.5498
# 3 22.4035 33.7374 131.2127 1.2630 -15.7816 -8.0242
# 4 2.8854 -19.0139 1.2630 29.6833 2.1016 -3.4323
# 5 -12.8848 -12.1424 -15.7816 2.1016 24.1892 -9.4345
# 6 -10.3446 -3.5498 -8.0242 -3.4323 -9.4345 28.8122
#
#
#
# Elastic Compliance Matrix: (Units=1/GPa)
#
#
# Indices 1 2 3 4 5 6 
#
# 1 0.011218 -0.001891 -0.000153 -0.002136 0.007424 0.005929
# 2 -0.001891 0.010042 -0.001860 0.006695 0.002941 0.001801
# 3 -0.000153 -0.001860 0.009227 -0.001551 0.006832 0.004338
# 4 -0.002136 0.006695 -0.001551 0.038761 -0.000574 0.004056
# 5 0.007424 0.002941 0.006832 -0.000574 0.060961 0.024824
# 6 0.005929 0.001801 0.004338 0.004056 0.024824 0.046878
#
#
# Mechanical properties :
#
#
# Convention : Reuss Voigt Hill
#
# Bulk Modulus (GPa) = 44.09269 59.66425 51.87847
# Shear Modulus (GPa) = 25.98003 35.43947 30.70975
#
# Velocity S-wave (km/s) = 3.51482 4.10513 3.82139
# Velocity P-wave (km/s) = 6.11873 7.13028 6.64379
#
# Compressibility (1/GPa) = 0.02267950
#
# Stress axis : x y z
#
# Youngs Moduli (GPa) = 89.14053 99.58260 108.37238
#
# Poissons Ratio (x) = 0.18834 0.01659
# Poissons Ratio (y) = 0.16859 0.20154
# Poissons Ratio (z) = 0.01364 0.18519
#
# Static dielectric constant tensor:
#      x y z
#    x 4.795170 0.435490 0.462110 
#    y 0.435490 4.157760 0.128980 
#    z 0.462110 0.128980 4.186890 
# 
# 
# High freq. dielectric constant tensor:
#      x y z
#    x 1.837330 0.003340 -0.003220 
#    y 0.003340 1.831880 -0.009060 
#    z -0.003220 -0.009060 1.825100 
# 
# From -- ./inp_files/518589.got.cif
#   From: 2010.06.25/outbox.cif.g09.slc.cpg/sg2_260_cif.got.tgz:518589.got - 2010.06.27 13:26:56.
