data_PCOD8032385
_publ_section_title
;
Structure prediction by ZEFSAII (Michael W. Deem and Ramdas Pophale) SiO2 
 PCOD8032385
Probable space group: P -1
;
_chemical_formula_sum "Si O2"
_cell_formula_units_Z 16
_cell_length_a 12.929662
_cell_length_b 13.007805
_cell_length_c 15.373204
_cell_angle_alpha 30.377184
_cell_angle_beta 122.574065
_cell_angle_gamma 99.260763
_cell_volume 773.323044
_symmetry_space_group_name_H-M "P -1"
_symmetry_group_IT_number 2
_symmetry_cell_setting 'triclinic'
loop_
_space_group_symop_operation_xyz
x,y,z
-x,-y,-z
loop_
_atom_site_type_symbol
_atom_site_label
_atom_site_fract_x
_atom_site_fract_y
_atom_site_fract_z
Si Si1 0.797692 0.216801 0.770997
Si Si2 0.314532 0.111624 0.047809
Si Si3 0.315472 0.718376 0.802568
Si Si4 0.696442 0.537172 0.672415
Si Si5 0.910845 0.374236 0.297484
Si Si6 0.083969 0.368496 0.225902
Si Si7 0.293287 0.796547 0.929666
Si Si8 0.417213 0.258090 0.838571
O O1 0.748663 0.040323 0.890453
O O2 0.747567 0.388028 0.711549
O O3 0.690986 0.440799 0.479749
O O4 0.000000 0.000000 0.000000
O O5 0.517788 0.873677 0.339324
O O6 0.200511 0.336573 0.909097
O O7 0.288763 0.286783 0.824276
O O8 0.187459 0.722499 0.688415
O O9 0.323316 0.645916 0.960997
O O10 0.248336 0.026689 0.540684
O O11 0.500000 0.500000 0.000000
O O12 0.853997 0.493143 0.806594
O O13 0.667461 0.396031 0.832272
O O14 0.935548 0.446089 0.162353
O O15 0.097061 0.114786 0.616660
O O16 0.000000 0.500000 0.000000
O O17 0.427415 0.825125 0.974549
O O18 0.500000 0.000000 0.000000
#
# Coordination Sequence:
#
# PCOD8032385 Si02
#       8
#     2   2   2   2   2   2   2   2
#     4  12  28  46  67 103 137 175 232 276 330 408
#     4  12  25  45  70 100 137 178 226 274 339 397
#     4  11  23  43  66  98 133 174 225 274 335 402
#     4  12  23  45  67  98 137 175 222 281 333 400
#     4  11  24  43  67 100 134 175 228 275 335 401
#     4  11  23  42  68  96 132 174 221 276 339 395
#     4  11  24  43  69  98 136 176 223 280 336 396
#     4  12  25  45  71  96 137 181 222 280 339 391
#
# _framework density 20.689931000000001
#
# number of rings (size 3 to 8) (size 9 to 14) (size 15 to 20)
#    0.000    0.500    2.500    7.875    3.500    1.500 
#    4.500    2.500    0.000    0.000    0.000    0.000 
#    0.000    0.000    0.000    0.000    0.000    0.000 
#
# Total GULP energy -198494.879594 kJ/mol
# GULP energy per Si atom -12405.929975 kJ/mol
# Density = 2.064284 g / cm^3
# Si number density = 20.689931 Si / 1000 Ang^3
#
#
#
# Elastic Constant Matrix: (Units=GPa)
#
#
# Indices 1 2 3 4 5 6 
#
# 1 132.9536 49.3614 64.6222 -0.0737 -2.8529 -0.9752
# 2 49.3614 124.4391 65.0830 -2.9531 7.1391 4.3527
# 3 64.6222 65.0830 98.8419 -1.8757 7.8573 -18.2868
# 4 -0.0737 -2.9531 -1.8757 38.1364 -6.4354 4.3538
# 5 -2.8529 7.1391 7.8573 -6.4354 45.2715 -2.1149
# 6 -0.9752 4.3527 -18.2868 4.3538 -2.1149 54.7074
#
#
#
# Elastic Compliance Matrix: (Units=1/GPa)
#
#
# Indices 1 2 3 4 5 6 
#
# 1 0.011523 -0.000550 -0.007755 0.000210 0.002082 -0.002279
# 2 -0.000550 0.013176 -0.009022 0.000950 -0.000607 -0.004173
# 3 -0.007755 -0.009022 0.022846 -0.000996 -0.002790 0.008188
# 4 0.000210 0.000950 -0.000996 0.027162 0.003784 -0.002420
# 5 0.002082 -0.000607 -0.002790 0.003784 0.023326 -0.000247
# 6 -0.002279 -0.004173 0.008188 -0.002420 -0.000247 0.021490
#
#
# Mechanical properties :
#
#
# Convention : Reuss Voigt Hill
#
# Bulk Modulus (GPa) = 77.57360 79.37421 78.47390
# Shear Modulus (GPa) = 31.55096 39.43424 35.49260
#
# Velocity S-wave (km/s) = 3.90929 4.37047 4.14630
# Velocity P-wave (km/s) = 7.61259 7.99468 7.80597
#
# Compressibility (1/GPa) = 0.01289098
#
# Stress axis : x y z
#
# Youngs Moduli (GPa) = 86.78431 75.89450 43.77183
#
# Poissons Ratio (x) = 0.04172 0.33944
# Poissons Ratio (y) = 0.04770 0.39493
# Poissons Ratio (z) = 0.67300 0.68475
#
# Static dielectric constant tensor:
#      x y z
#    x 4.107280 0.199790 -0.042320 
#    y 0.199790 3.760300 -0.102900 
#    z -0.042320 -0.102900 3.740130 
# 
# 
# High freq. dielectric constant tensor:
#      x y z
#    x 1.829450 0.003040 -0.002810 
#    y 0.003040 1.824280 0.001140 
#    z -0.002810 0.001140 1.811290 
# 
# From -- ./inp_files/519508.got.cif
#   From: 2010.06.25/outbox.cif.g09.slc.cpg/sg2_260_cif.got.tgz:519508.got - 2010.06.27 13:26:56.
