data_PCOD8032872
_publ_section_title
;
Structure prediction by ZEFSAII (Michael W. Deem and Ramdas Pophale) SiO2 
 PCOD8032872
Probable space group: P -1
;
_chemical_formula_sum "Si O2"
_cell_formula_units_Z 14
_cell_length_a 12.221293
_cell_length_b 9.366891
_cell_length_c 14.407888
_cell_angle_alpha 150.730409
_cell_angle_beta 122.171643
_cell_angle_gamma 47.597057
_cell_volume 588.309731
_symmetry_space_group_name_H-M "P -1"
_symmetry_group_IT_number 2
_symmetry_cell_setting 'triclinic'
loop_
_space_group_symop_operation_xyz
x,y,z
-x,-y,-z
loop_
_atom_site_type_symbol
_atom_site_label
_atom_site_fract_x
_atom_site_fract_y
_atom_site_fract_z
Si Si1 0.136231 0.151818 0.526405
Si Si2 0.193274 0.389892 0.326461
Si Si3 0.686506 0.533526 0.027073
Si Si4 0.627972 0.344298 0.087065
Si Si5 0.218561 0.487416 0.596625
Si Si6 0.337300 0.809930 0.584495
Si Si7 0.959614 0.215657 0.843963
O O1 0.150702 0.312627 0.529323
O O2 0.985491 0.459251 0.680946
O O3 0.288635 0.987614 0.561819
O O4 0.109697 0.842516 0.313918
O O5 0.260423 0.279983 0.400052
O O6 0.215774 0.705557 0.493272
O O7 0.283576 0.067437 0.116557
O O8 0.550153 0.498881 0.905539
O O9 0.664529 0.894214 0.188076
O O10 0.689712 0.480087 0.109347
O O11 0.847076 0.273796 0.910645
O O12 0.649647 0.491390 0.277286
O O13 0.107250 0.875599 0.744525
O O14 0.500000 0.500000 0.500000
O O15 0.000000 0.500000 0.000000
#
# Coordination Sequence:
#
# PCOD8032872 Si02
#       7
#     2   2   2   2   2   2   2
#     4  11  24  45  68  98 136 182 226 283 346 404
#     4  11  24  44  69 101 139 173 231 285 343 410
#     4  11  23  44  64 101 141 176 231 283 339 414
#     4  11  24  42  71 102 136 183 229 280 343 409
#     4  11  24  45  71 103 136 182 231 280 341 410
#     4  12  25  44  64  98 138 179 225 284 348 404
#     4  11  25  43  71 105 137 176 233 289 341 409
#
# _framework density 23.796987000000001
#
# number of rings (size 3 to 8) (size 9 to 14) (size 15 to 20)
#    0.000    0.857    2.857    5.571    4.000    2.286 
#    0.000    5.000    0.000    0.000    0.000    0.000 
#    0.000    0.000    0.000    0.000    0.000    0.000 
#
# Total GULP energy -173461.918512 kJ/mol
# GULP energy per Si atom -12390.137037 kJ/mol
# Density = 2.374282 g / cm^3
# Si number density = 23.796987 Si / 1000 Ang^3
#
#
#
# Elastic Constant Matrix: (Units=GPa)
#
#
# Indices 1 2 3 4 5 6 
#
# 1 73.4175 7.9190 8.1525 1.3403 17.4634 9.6272
# 2 7.9190 116.5473 10.3618 -9.8264 5.0686 -11.1019
# 3 8.1525 10.3618 62.5002 -0.3860 19.3542 -8.7333
# 4 1.3403 -9.8264 -0.3860 38.4091 9.5047 9.2555
# 5 17.4634 5.0686 19.3542 9.5047 32.2545 2.8040
# 6 9.6272 -11.1019 -8.7333 9.2555 2.8040 21.3290
#
#
#
# Elastic Compliance Matrix: (Units=1/GPa)
#
#
# Indices 1 2 3 4 5 6 
#
# 1 0.017048 -0.001281 -0.000436 0.003434 -0.009010 -0.008846
# 2 -0.001281 0.009355 -0.000214 0.001653 -0.001556 0.004847
# 3 -0.000436 -0.000214 0.021935 0.001170 -0.014143 0.010418
# 4 0.003434 0.001653 0.001170 0.032183 -0.011201 -0.012704
# 5 -0.009010 -0.001556 -0.014143 -0.011201 0.048263 -0.004018
# 6 -0.008846 0.004847 0.010418 -0.012704 -0.004018 0.063707
#
#
# Mechanical properties :
#
#
# Convention : Reuss Voigt Hill
#
# Bulk Modulus (GPa) = 22.48443 33.92574 28.20509
# Shear Modulus (GPa) = 23.67675 33.46729 28.57202
#
# Velocity S-wave (km/s) = 3.15770 3.75422 3.46881
# Velocity P-wave (km/s) = 4.77113 5.75148 5.28409
#
# Compressibility (1/GPa) = 0.04447522
#
# Stress axis : x y z
#
# Youngs Moduli (GPa) = 58.65871 106.89390 45.58961
#
# Poissons Ratio (x) = 0.13691 0.01988
# Poissons Ratio (y) = 0.07513 0.00978
# Poissons Ratio (z) = 0.02558 0.02292
#
# Static dielectric constant tensor:
#      x y z
#    x 4.265700 0.063420 0.224620 
#    y 0.063420 4.364420 -0.194800 
#    z 0.224620 -0.194800 4.714580 
# 
# 
# High freq. dielectric constant tensor:
#      x y z
#    x 1.937120 -0.004600 0.025770 
#    y -0.004600 1.942150 0.005210 
#    z 0.025770 0.005210 1.956660 
# 
# From -- ./inp_files/156964.got.cif
#   From: 2010.06.25/outbox.cif.g09.slc.cpg/sg2_79_cif.got.tgz:156964.got - 2010.06.27 13:26:56.
