data_PCOD8032195
_publ_section_title
;
Structure prediction by ZEFSAII (Michael W. Deem and Ramdas Pophale) SiO2 
 PCOD8032195
Probable space group: P -1
;
_chemical_formula_sum "Si O2"
_cell_formula_units_Z 14
_cell_length_a 13.049207
_cell_length_b 11.234265
_cell_length_c 11.237654
_cell_angle_alpha 94.155313
_cell_angle_beta 88.771012
_cell_angle_gamma 158.297840
_cell_volume 602.865871
_symmetry_space_group_name_H-M "P -1"
_symmetry_group_IT_number 2
_symmetry_cell_setting 'triclinic'
loop_
_space_group_symop_operation_xyz
x,y,z
-x,-y,-z
loop_
_atom_site_type_symbol
_atom_site_label
_atom_site_fract_x
_atom_site_fract_y
_atom_site_fract_z
Si Si1 0.154833 0.594349 0.106470
Si Si2 0.642788 0.409935 0.015237
Si Si3 0.022518 0.275269 0.280972
Si Si4 0.455594 0.562431 0.207310
Si Si5 0.254021 0.648282 0.529029
Si Si6 0.237531 0.870569 0.323290
Si Si7 0.784547 0.954296 0.829987
O O1 0.382598 0.752775 0.049256
O O2 0.959281 0.293920 0.170021
O O3 0.292146 0.832617 0.214699
O O4 0.000000 0.500000 0.000000
O O5 0.554738 0.422324 0.931662
O O6 0.447401 0.209491 0.119418
O O7 0.961431 0.782900 0.067223
O O8 0.298993 0.498705 0.272720
O O9 0.069714 0.395905 0.409987
O O10 0.770428 0.908939 0.272661
O O11 0.334557 0.302471 0.221741
O O12 0.012670 0.446419 0.604929
O O13 0.500000 0.000000 0.500000
O O14 0.454179 0.771427 0.602391
O O15 0.126096 0.877107 0.278300
#
# Coordination Sequence:
#
# PCOD8032195 Si02
#       7
#     2   2   2   2   2   2   2
#     4  11  24  43  68 106 146 173 225 287 359 402
#     4  11  23  41  69 100 146 191 226 272 344 425
#     4  11  25  46  72 100 134 184 237 286 340 409
#     4  11  24  43  70 101 138 186 236 279 338 412
#     4  12  26  49  72  99 136 184 237 282 343 417
#     4  12  27  43  72 104 140 181 229 288 350 408
#     4  12  24  45  66 104 145 185 230 282 341 416
#
# _framework density 23.222411999999998
#
# number of rings (size 3 to 8) (size 9 to 14) (size 15 to 20)
#    0.000    0.571    2.857    5.571    2.000    1.714 
#    0.000    4.286    0.000    0.000    0.000    0.000 
#    0.000    0.000    0.000    0.000    0.000    0.000 
#
# Total GULP energy -173530.076579 kJ/mol
# GULP energy per Si atom -12395.005470 kJ/mol
# Density = 2.316956 g / cm^3
# Si number density = 23.222412 Si / 1000 Ang^3
#
#
#
# Elastic Constant Matrix: (Units=GPa)
#
#
# Indices 1 2 3 4 5 6 
#
# 1 66.0403 33.6560 38.8438 -3.0775 -10.8208 1.9616
# 2 33.6560 97.3761 31.5748 17.4388 0.9977 -10.2212
# 3 38.8438 31.5748 107.0818 15.7200 -8.0078 -9.9728
# 4 -3.0775 17.4388 15.7200 28.0555 5.2951 4.5547
# 5 -10.8208 0.9977 -8.0078 5.2951 18.6035 -1.4156
# 6 1.9616 -10.2212 -9.9728 4.5547 -1.4156 39.3113
#
#
#
# Elastic Compliance Matrix: (Units=1/GPa)
#
#
# Indices 1 2 3 4 5 6 
#
# 1 0.028088 -0.010130 -0.009435 0.014397 0.008128 -0.007804
# 2 -0.010130 0.016344 0.001123 -0.012518 -0.002234 0.006410
# 3 -0.009435 0.001123 0.015159 -0.012159 0.004909 0.006194
# 4 0.014397 -0.012518 -0.012159 0.056631 -0.013380 -0.014101
# 5 0.008128 -0.002234 0.004909 -0.013380 0.064838 0.004144
# 6 -0.007804 0.006410 0.006194 -0.014101 0.004144 0.030848
#
#
# Mechanical properties :
#
#
# Convention : Reuss Voigt Hill
#
# Bulk Modulus (GPa) = 44.03641 53.18302 48.60971
# Shear Modulus (GPa) = 19.50371 28.28897 23.89634
#
# Velocity S-wave (km/s) = 2.90119 3.49402 3.21132
# Velocity P-wave (km/s) = 5.49787 6.26330 5.89303
#
# Compressibility (1/GPa) = 0.02270848
#
# Stress axis : x y z
#
# Youngs Moduli (GPa) = 35.60176 61.18422 65.96804
#
# Poissons Ratio (x) = 0.61978 0.62238
# Poissons Ratio (y) = 0.36064 -0.07407
# Poissons Ratio (z) = 0.33589 -0.06870
#
# Static dielectric constant tensor:
#      x y z
#    x 4.357760 0.561610 0.415230 
#    y 0.561610 5.493400 0.574540 
#    z 0.415230 0.574540 4.844020 
# 
# 
# High freq. dielectric constant tensor:
#      x y z
#    x 1.918370 0.009680 0.005130 
#    y 0.009680 1.917560 -0.001900 
#    z 0.005130 -0.001900 1.920640 
# 
# From -- ./inp_files/451408.got.cif
#   From: 2010.06.25/outbox.cif.g09.slc.cpg/sg2_226_cif.got.tgz:451408.got - 2010.06.27 13:26:56.
