data_PCOD8032744
_publ_section_title
;
Structure prediction by ZEFSAII (Michael W. Deem and Ramdas Pophale) SiO2 
 PCOD8032744
Probable space group: P -1
;
_chemical_formula_sum "Si O2"
_cell_formula_units_Z 16
_cell_length_a 17.359269
_cell_length_b 11.818600
_cell_length_c 9.372969
_cell_angle_alpha 79.882850
_cell_angle_beta 40.717518
_cell_angle_gamma 47.882116
_cell_volume 675.724337
_symmetry_space_group_name_H-M "P -1"
_symmetry_group_IT_number 2
_symmetry_cell_setting 'triclinic'
loop_
_space_group_symop_operation_xyz
x,y,z
-x,-y,-z
loop_
_atom_site_type_symbol
_atom_site_label
_atom_site_fract_x
_atom_site_fract_y
_atom_site_fract_z
Si Si1 0.264425 0.311156 0.321838
Si Si2 0.400688 0.667228 0.716925
Si Si3 0.043888 0.237911 0.323071
Si Si4 0.632577 0.046469 0.324508
Si Si5 0.668030 0.399195 0.669723
Si Si6 0.757676 0.722469 0.329626
Si Si7 0.740473 0.949154 0.652552
Si Si8 0.053539 0.014033 0.769794
O O1 0.057660 0.558862 0.524119
O O2 0.316429 0.280603 0.422870
O O3 0.197427 0.234851 0.402911
O O4 0.479461 0.175802 0.965130
O O5 0.500000 0.500000 0.500000
O O6 0.357293 0.828441 0.672475
O O7 0.548930 0.563525 0.671127
O O8 0.166055 0.807815 0.055459
O O9 0.852000 0.323198 0.501788
O O10 0.155700 0.087469 0.336660
O O11 0.228681 0.101367 0.976528
O O12 0.384325 0.214487 0.612062
O O13 0.721008 0.890948 0.360421
O O14 0.761775 0.207169 0.517087
O O15 0.500000 0.500000 0.000000
O O16 0.000000 0.500000 0.000000
O O17 0.850644 0.934003 0.373382
O O18 0.000000 0.000000 0.000000
#
# Coordination Sequence:
#
# PCOD8032744 Si02
#       8
#     2   2   2   2   2   2   2   2
#     4  11  24  45  72 105 147 190 241 302 382 434
#     4  12  27  48  72 107 151 191 248 309 375 446
#     4  12  23  45  71 104 149 189 247 303 369 444
#     4  11  25  41  70 107 142 187 247 300 367 446
#     4  12  27  44  77 108 145 196 252 310 374 445
#     4  11  23  43  71 105 141 187 238 306 365 439
#     4  11  27  45  72 105 149 190 246 306 369 456
#     4  12  27  50  74 107 149 198 250 311 380 448
#
# _framework density 23.678291999999999
#
# number of rings (size 3 to 8) (size 9 to 14) (size 15 to 20)
#    0.000    0.500    5.000    2.625    3.500    2.000 
#    0.000    0.000    0.000    0.000    0.000    0.000 
#    0.000    0.000    0.000    0.000    0.000    0.000 
#
# Total GULP energy -198365.380248 kJ/mol
# GULP energy per Si atom -12397.836265 kJ/mol
# Density = 2.362440 g / cm^3
# Si number density = 23.678292 Si / 1000 Ang^3
#
#
#
# Elastic Constant Matrix: (Units=GPa)
#
#
# Indices 1 2 3 4 5 6 
#
# 1 84.8037 28.1979 34.7204 -0.0535 -21.1360 9.3721
# 2 28.1979 113.0017 51.4612 4.4138 -12.3702 17.4664
# 3 34.7204 51.4612 134.7346 1.7717 -18.8544 14.7488
# 4 -0.0535 4.4138 1.7717 47.4587 4.0480 1.8226
# 5 -21.1360 -12.3702 -18.8544 4.0480 41.3427 0.2303
# 6 9.3721 17.4664 14.7488 1.8226 0.2303 45.0695
#
#
#
# Elastic Compliance Matrix: (Units=1/GPa)
#
#
# Indices 1 2 3 4 5 6 
#
# 1 0.014997 -0.001828 -0.002107 -0.000195 0.006188 -0.001744
# 2 -0.001828 0.011468 -0.003434 -0.000917 0.001037 -0.002909
# 3 -0.002107 -0.003434 0.009768 -0.000195 0.002377 -0.001432
# 4 -0.000195 -0.000917 -0.000195 0.021396 -0.002556 -0.000392
# 5 0.006188 0.001037 0.002377 -0.002556 0.029010 -0.002512
# 6 -0.001744 -0.002909 -0.001432 -0.000392 -0.002512 0.024175
#
#
# Mechanical properties :
#
#
# Convention : Reuss Voigt Hill
#
# Bulk Modulus (GPa) = 46.51891 62.36654 54.44272
# Shear Modulus (GPa) = 37.67349 41.31822 39.49585
#
# Velocity S-wave (km/s) = 3.99313 4.18183 4.08857
# Velocity P-wave (km/s) = 6.39914 7.05076 6.73284
#
# Compressibility (1/GPa) = 0.02149664
#
# Stress axis : x y z
#
# Youngs Moduli (GPa) = 66.67799 87.19756 102.37066
#
# Poissons Ratio (x) = 0.15941 0.21570
# Poissons Ratio (y) = 0.12190 0.35149
# Poissons Ratio (z) = 0.14049 0.29939
#
# Static dielectric constant tensor:
#      x y z
#    x 4.192740 -0.089460 0.068710 
#    y -0.089460 4.512070 0.096190 
#    z 0.068710 0.096190 4.303380 
# 
# 
# High freq. dielectric constant tensor:
#      x y z
#    x 1.940200 -0.001960 -0.012800 
#    y -0.001960 1.947370 0.008640 
#    z -0.012800 0.008640 1.942400 
# 
# From -- ./inp_files/333197.got.cif
#   From: 2010.06.25/outbox.cif.g09.slc.cpg/sg2_167_cif.got.tgz:333197.got - 2010.06.27 13:26:56.
