data_PCOD8032471
_publ_section_title
;
Structure prediction by ZEFSAII (Michael W. Deem and Ramdas Pophale) SiO2 
 PCOD8032471
Probable space group: P -1
;
_chemical_formula_sum "Si O2"
_cell_formula_units_Z 16
_cell_length_a 20.203550
_cell_length_b 9.149655
_cell_length_c 11.793812
_cell_angle_alpha 40.395917
_cell_angle_beta 29.683581
_cell_angle_gamma 48.483539
_cell_volume 699.667617
_symmetry_space_group_name_H-M "P -1"
_symmetry_group_IT_number 2
_symmetry_cell_setting 'triclinic'
loop_
_space_group_symop_operation_xyz
x,y,z
-x,-y,-z
loop_
_atom_site_type_symbol
_atom_site_label
_atom_site_fract_x
_atom_site_fract_y
_atom_site_fract_z
Si Si1 0.332537 0.047436 0.909462
Si Si2 0.699647 0.565136 0.087547
Si Si3 0.917718 0.097286 0.352648
Si Si4 0.194132 0.163913 0.817545
Si Si5 0.017305 0.409353 0.401929
Si Si6 0.376459 0.924767 0.521202
Si Si7 0.357035 0.077245 0.214168
Si Si8 0.183541 0.625603 0.466963
O O1 0.332032 0.244699 0.886085
O O2 0.232915 0.109367 0.920722
O O3 0.484145 0.017251 0.657851
O O4 0.293088 0.813383 0.165679
O O5 0.614946 0.340181 0.368365
O O6 0.853067 0.480389 0.914048
O O7 0.672112 0.673294 0.939688
O O8 0.923276 0.272491 0.345100
O O9 0.960166 0.856720 0.479085
O O10 0.766328 0.092105 0.531917
O O11 0.031406 0.167756 0.049817
O O12 0.253014 0.406045 0.549633
O O13 0.254254 0.970790 0.761172
O O14 0.000000 0.500000 0.500000
O O15 0.887798 0.464864 0.487182
O O16 0.363394 0.083396 0.336763
O O17 0.500000 0.000000 0.000000
#
# Coordination Sequence:
#
# PCOD8032471 Si02
#       8
#     2   2   2   2   2   2   2   2
#     4  12  25  49  71 102 144 194 240 287 356 425
#     4  11  25  44  75 101 140 188 236 296 348 425
#     4  11  23  46  71 102 143 183 238 292 345 432
#     4  12  29  43  71 108 141 186 242 294 357 419
#     4  11  23  42  71 105 144 183 228 298 362 411
#     4  12  28  46  71 106 146 188 237 298 358 417
#     4  11  24  44  73 108 138 182 242 285 354 423
#     4  12  25  46  73 101 144 190 239 291 351 426
#
# _framework density 22.868001
#
# number of rings (size 3 to 8) (size 9 to 14) (size 15 to 20)
#    0.000    0.500    5.000    3.000    7.000    2.000 
#    0.000    0.000    0.000    0.000    0.000    0.000 
#    0.000    0.000    0.000    0.000    0.000    0.000 
#
# Total GULP energy -198416.552766 kJ/mol
# GULP energy per Si atom -12401.034548 kJ/mol
# Density = 2.281595 g / cm^3
# Si number density = 22.868001 Si / 1000 Ang^3
#
#
#
# Elastic Constant Matrix: (Units=GPa)
#
#
# Indices 1 2 3 4 5 6 
#
# 1 90.6966 31.2986 42.9623 6.0943 -2.6830 -0.3352
# 2 31.2986 82.1835 45.6620 -3.8139 -0.7684 1.2812
# 3 42.9623 45.6620 137.5290 11.9333 -12.6008 -4.3965
# 4 6.0943 -3.8139 11.9333 39.0656 -10.3413 6.8916
# 5 -2.6830 -0.7684 -12.6008 -10.3413 34.4227 1.1741
# 6 -0.3352 1.2812 -4.3965 6.8916 1.1741 23.7665
#
#
#
# Elastic Compliance Matrix: (Units=1/GPa)
#
#
# Indices 1 2 3 4 5 6 
#
# 1 0.013821 -0.003712 -0.002971 -0.001861 -0.000667 0.000418
# 2 -0.003712 0.016478 -0.004794 0.004089 -0.000346 -0.002996
# 3 -0.002971 -0.004794 0.010371 -0.003035 0.002447 0.002894
# 4 -0.001861 0.004089 -0.003035 0.031308 0.008593 -0.010311
# 5 -0.000667 -0.000346 0.002447 0.008593 0.032592 -0.003640
# 6 0.000418 -0.002996 0.002894 -0.010311 -0.003640 0.045949
#
#
# Mechanical properties :
#
#
# Convention : Reuss Voigt Hill
#
# Bulk Modulus (GPa) = 56.44448 61.13942 58.79195
# Shear Modulus (GPa) = 27.87393 32.15003 30.01198
#
# Velocity S-wave (km/s) = 3.49507 3.75360 3.62664
# Velocity P-wave (km/s) = 6.40497 6.75128 6.58041
#
# Compressibility (1/GPa) = 0.01771652
#
# Stress axis : x y z
#
# Youngs Moduli (GPa) = 72.35330 60.68621 96.42119
#
# Poissons Ratio (x) = 0.22525 0.28651
# Poissons Ratio (y) = 0.26856 0.46222
# Poissons Ratio (z) = 0.21499 0.29092
#
# Static dielectric constant tensor:
#      x y z
#    x 4.251000 -0.152150 -0.159160 
#    y -0.152150 4.006450 0.096420 
#    z -0.159160 0.096420 4.477420 
# 
# 
# High freq. dielectric constant tensor:
#      x y z
#    x 1.896590 -0.004190 -0.000420 
#    y -0.004190 1.895030 0.004990 
#    z -0.000420 0.004990 1.917270 
# 
# From -- ./inp_files/307073.got.cif
#   From: 2010.06.25/outbox.cif.g09.slc.cpg/sg2_154_cif.got.tgz:307073.got - 2010.06.27 13:26:56.
