data_PCOD8032898
_publ_section_title
;
Structure prediction by ZEFSAII (Michael W. Deem and Ramdas Pophale) SiO2 
 PCOD8032898
Probable space group: P -1
;
_chemical_formula_sum "Si O2"
_cell_formula_units_Z 16
_cell_length_a 10.987386
_cell_length_b 9.401435
_cell_length_c 9.263759
_cell_angle_alpha 113.421704
_cell_angle_beta 80.218294
_cell_angle_gamma 115.324150
_cell_volume 793.693159
_symmetry_space_group_name_H-M "P -1"
_symmetry_group_IT_number 2
_symmetry_cell_setting 'triclinic'
loop_
_space_group_symop_operation_xyz
x,y,z
-x,-y,-z
loop_
_atom_site_type_symbol
_atom_site_label
_atom_site_fract_x
_atom_site_fract_y
_atom_site_fract_z
Si Si1 0.500158 0.410083 0.315912
Si Si2 0.263621 0.972113 0.685107
Si Si3 0.263895 0.791611 0.314845
Si Si4 0.977865 0.314301 0.886254
Si Si5 0.271061 0.337063 0.820206
Si Si6 0.500177 0.046071 0.183952
Si Si7 0.271300 0.434061 0.179633
Si Si8 0.021943 0.836363 0.886063
O O1 0.500000 0.500000 0.500000
O O2 0.635213 0.520771 0.248517
O O3 0.500173 0.229416 0.277089
O O4 0.365275 0.385705 0.248086
O O5 0.274038 0.886942 0.499998
O O6 0.369544 0.960871 0.772111
O O7 0.117730 0.871648 0.743325
O O8 0.293097 0.165954 0.724631
O O9 0.293245 0.627157 0.275313
O O10 0.118161 0.746412 0.256338
O O11 0.370140 0.908935 0.228256
O O12 0.116318 0.301783 0.806679
O O13 0.000000 0.500000 0.000000
O O14 0.914409 0.207304 0.000224
O O15 0.313558 0.406856 0.999907
O O16 0.500000 0.000000 0.000000
O O17 0.116640 0.314483 0.193311
O O18 0.000000 0.000000 0.000000
#
# Coordination Sequence:
#
# PCOD8032898 Si02
#       8
#     2   2   2   2   2   2   2   2
#     4  12  26  42  64  98 132 164 214 272 320 378
#     4  12  25  43  67  98 134 169 212 273 327 377
#     4  12  25  43  67  98 134 169 212 273 327 377
#     4  11  23  44  69  96 127 171 222 261 315 393
#     4  11  23  44  67  90 130 175 211 259 323 386
#     4  12  26  42  70  98 126 174 222 266 314 396
#     4  11  23  44  67  90 130 175 211 259 323 386
#     4  11  23  44  69  96 127 171 222 261 315 393
#
# _framework density 20.158925
#
# number of rings (size 3 to 8) (size 9 to 14) (size 15 to 20)
#    0.000    0.500    5.000    5.250    3.500    2.000 
#    0.000    0.000    0.000    0.000    0.000    0.000 
#    0.000    0.000    0.000    0.000    0.000    0.000 
#
# Total GULP energy -198479.431539 kJ/mol
# GULP energy per Si atom -12404.964471 kJ/mol
# Density = 2.011304 g / cm^3
# Si number density = 20.158925 Si / 1000 Ang^3
#
#
#
# Elastic Constant Matrix: (Units=GPa)
#
#
# Indices 1 2 3 4 5 6 
#
# 1 110.2049 53.8745 42.9808 -3.1642 -8.0010 0.8942
# 2 53.8745 124.7891 36.4149 24.0964 0.1586 -12.2308
# 3 42.9808 36.4149 143.6848 9.9789 -9.0430 5.9264
# 4 -3.1642 24.0964 9.9789 38.1003 -12.6839 -9.4259
# 5 -8.0010 0.1586 -9.0430 -12.6839 18.4045 13.8766
# 6 0.8942 -12.2308 5.9264 -9.4259 13.8766 35.2523
#
#
#
# Elastic Compliance Matrix: (Units=1/GPa)
#
#
# Indices 1 2 3 4 5 6 
#
# 1 0.016974 -0.010506 -0.001533 0.013919 0.023295 -0.009266
# 2 -0.010506 0.018052 -0.002528 -0.017729 -0.028232 0.013327
# 3 -0.001533 -0.002528 0.008748 0.000539 0.008045 -0.005331
# 4 0.013919 -0.017729 0.000539 0.052787 0.052870 -0.013292
# 5 0.023295 -0.028232 0.008045 0.052870 0.146880 -0.055419
# 6 -0.009266 0.013327 -0.005331 -0.013292 -0.055419 0.052383
#
#
# Mechanical properties :
#
#
# Convention : Reuss Voigt Hill
#
# Bulk Modulus (GPa) = 68.30509 71.69102 69.99806
# Shear Modulus (GPa) = 15.15897 34.71197 24.93547
#
# Velocity S-wave (km/s) = 2.74519 4.15410 3.52084
# Velocity P-wave (km/s) = 6.63362 7.65825 7.16428
#
# Compressibility (1/GPa) = 0.01464020
#
# Stress axis : x y z
#
# Youngs Moduli (GPa) = 58.91339 55.39400 114.31663
#
# Poissons Ratio (x) = 0.58198 0.17527
# Poissons Ratio (y) = 0.61895 0.28895
# Poissons Ratio (z) = 0.09033 0.14002
#
# Static dielectric constant tensor:
#      x y z
#    x 4.238670 -0.042170 0.075450 
#    y -0.042170 4.307580 -0.101880 
#    z 0.075450 -0.101880 3.728560 
# 
# 
# High freq. dielectric constant tensor:
#      x y z
#    x 1.802110 -0.005020 -0.001200 
#    y -0.005020 1.809840 0.003110 
#    z -0.001200 0.003110 1.793150 
# 
# From -- ./inp_files/245481.got.cif
#   From: 2010.06.25/outbox.cif.g09.slc.cpg/sg2_123_cif.got.tgz:245481.got - 2010.06.27 13:26:56.
