data_PCOD8032057
_publ_section_title
;
Structure prediction by ZEFSAII (Michael W. Deem and Ramdas Pophale) SiO2 
 PCOD8032057
Probable space group: P -1
;
_chemical_formula_sum "Si O2"
_cell_formula_units_Z 16
_cell_length_a 9.196501
_cell_length_b 9.246341
_cell_length_c 14.776905
_cell_angle_alpha 72.084565
_cell_angle_beta 96.506162
_cell_angle_gamma 44.009102
_cell_volume 716.453982
_symmetry_space_group_name_H-M "P -1"
_symmetry_group_IT_number 2
_symmetry_cell_setting 'triclinic'
loop_
_space_group_symop_operation_xyz
x,y,z
-x,-y,-z
loop_
_atom_site_type_symbol
_atom_site_label
_atom_site_fract_x
_atom_site_fract_y
_atom_site_fract_z
Si Si1 0.123171 0.239812 0.581934
Si Si2 0.743276 0.389910 0.046785
Si Si3 0.099026 0.654138 0.127794
Si Si4 0.441070 0.916378 0.947200
Si Si5 0.603480 0.883990 0.779549
Si Si6 0.347591 0.970500 0.480296
Si Si7 0.819276 0.998925 0.724878
Si Si8 0.745446 0.399666 0.655480
O O1 0.000000 0.500000 0.500000
O O2 0.988504 0.258464 0.648469
O O3 0.407658 0.041354 0.655820
O O4 0.139011 0.127523 0.512558
O O5 0.500000 0.500000 0.000000
O O6 0.853038 0.297661 0.971397
O O7 0.919178 0.178045 0.178072
O O8 0.665280 0.617820 0.033867
O O9 0.168816 0.418004 0.165368
O O10 0.247129 0.592738 0.236489
O O11 0.823496 0.925196 0.078370
O O12 0.437596 0.971857 0.833719
O O13 0.500000 0.000000 0.000000
O O14 0.695767 0.979409 0.788334
O O15 0.192733 0.087190 0.353393
O O16 0.522864 0.680732 0.548655
O O17 0.500000 0.000000 0.500000
O O18 0.689402 0.269389 0.653571
#
# Coordination Sequence:
#
# PCOD8032057 Si02
#       8
#     2   2   2   2   2   2   2   2
#     4  12  24  42  73 102 133 188 241 281 355 431
#     4  11  27  46  68 105 149 189 235 294 360 420
#     4  11  23  45  74  98 140 195 240 289 355 426
#     4  11  23  40  69 100 134 184 248 290 346 420
#     4  11  23  43  68 101 140 185 240 293 346 423
#     4  12  24  47  73 101 141 188 234 296 352 423
#     4  12  26  44  71 107 149 184 238 299 359 422
#     4  12  25  44  73 105 143 187 236 292 364 423
#
# _framework density 22.332207
#
# number of rings (size 3 to 8) (size 9 to 14) (size 15 to 20)
#    0.000    0.500    5.000    2.625    1.750    6.500 
#    0.000    3.750    0.000    0.000    0.000    0.000 
#    0.000    0.000    0.000    0.000    0.000    0.000 
#
# Total GULP energy -198276.443357 kJ/mol
# GULP energy per Si atom -12392.277710 kJ/mol
# Density = 2.228138 g / cm^3
# Si number density = 22.332207 Si / 1000 Ang^3
#
#
#
# Elastic Constant Matrix: (Units=GPa)
#
#
# Indices 1 2 3 4 5 6 
#
# 1 83.3885 46.0311 27.8296 6.9796 -4.5518 10.8173
# 2 46.0311 122.2208 44.1267 13.4154 -12.5281 -5.2838
# 3 27.8296 44.1267 125.7626 10.3475 7.6209 0.1362
# 4 6.9796 13.4154 10.3475 33.9526 6.8240 3.2330
# 5 -4.5518 -12.5281 7.6209 6.8240 31.5757 -3.8207
# 6 10.8173 -5.2838 0.1362 3.2330 -3.8207 40.1205
#
#
#
# Elastic Compliance Matrix: (Units=1/GPa)
#
#
# Indices 1 2 3 4 5 6 
#
# 1 0.016415 -0.005862 -0.001554 -0.000048 -0.000205 -0.005208
# 2 -0.005862 0.012942 -0.003266 -0.004650 0.006603 0.004300
# 3 -0.001554 -0.003266 0.009717 -0.000556 -0.003788 -0.000360
# 4 -0.000048 -0.004650 -0.000556 0.033787 -0.009531 -0.004228
# 5 -0.000205 0.006603 -0.003788 -0.009531 0.037877 0.005313
# 6 -0.005208 0.004300 -0.000360 -0.004228 0.005313 0.027743
#
#
# Mechanical properties :
#
#
# Convention : Reuss Voigt Hill
#
# Bulk Modulus (GPa) = 56.46426 63.03852 59.75139
# Shear Modulus (GPa) = 30.16611 35.35542 32.76077
#
# Velocity S-wave (km/s) = 3.67930 3.98321 3.83426
# Velocity P-wave (km/s) = 6.58698 7.03161 6.81292
#
# Compressibility (1/GPa) = 0.01771032
#
# Stress axis : x y z
#
# Youngs Moduli (GPa) = 60.92000 77.26760 102.91338
#
# Poissons Ratio (x) = 0.45296 0.15988
# Poissons Ratio (y) = 0.35713 0.33611
# Poissons Ratio (z) = 0.09464 0.25236
#
# Static dielectric constant tensor:
#      x y z
#    x 3.372120 -0.349140 -0.581600 
#    y -0.349140 3.725910 -0.041460 
#    z -0.581600 -0.041460 3.563680 
# 
# 
# High freq. dielectric constant tensor:
#      x y z
#    x 1.865430 0.002990 -0.006150 
#    y 0.002990 1.890250 0.005960 
#    z -0.006150 0.005960 1.896940 
# 
# From -- ./inp_files/188927.got.cif
#   From: 2010.06.25/outbox.cif.g09.slc.cpg/sg2_95_cif.got.tgz:188927.got - 2010.06.27 13:26:56.
