data_PCOD8032699
_publ_section_title
;
Structure prediction by ZEFSAII (Michael W. Deem and Ramdas Pophale) SiO2 
 PCOD8032699
Probable space group: P -1
;
_chemical_formula_sum "Si O2"
_cell_formula_units_Z 16
_cell_length_a 8.071329
_cell_length_b 14.912523
_cell_length_c 6.698858
_cell_angle_alpha 107.184885
_cell_angle_beta 96.482270
_cell_angle_gamma 110.515602
_cell_volume 700.023284
_symmetry_space_group_name_H-M "P -1"
_symmetry_group_IT_number 2
_symmetry_cell_setting 'triclinic'
loop_
_space_group_symop_operation_xyz
x,y,z
-x,-y,-z
loop_
_atom_site_type_symbol
_atom_site_label
_atom_site_fract_x
_atom_site_fract_y
_atom_site_fract_z
Si Si1 0.403270 0.879008 0.363694
Si Si2 0.135456 0.795658 0.916226
Si Si3 0.248635 0.704551 0.535507
Si Si4 0.101124 0.454428 0.824132
Si Si5 0.238120 0.131091 0.648752
Si Si6 0.422489 0.575868 0.647218
Si Si7 0.225996 0.316086 0.993957
Si Si8 0.976898 0.054762 0.228449
O O1 0.324535 0.813673 0.507635
O O2 0.547431 0.835377 0.277241
O O3 0.500000 0.000000 0.500000
O O4 0.245667 0.857177 0.164129
O O5 0.232378 0.729161 0.782602
O O6 0.121909 0.872358 0.797382
O O7 0.934029 0.714465 0.887192
O O8 0.378189 0.641611 0.509039
O O9 0.054319 0.637439 0.370817
O O10 0.236860 0.527457 0.722715
O O11 0.230290 0.412439 0.932889
O O12 0.000000 0.500000 0.000000
O O13 0.180451 0.216859 0.786312
O O14 0.173801 0.116456 0.398866
O O15 0.148991 0.023971 0.680352
O O16 0.500000 0.500000 0.500000
O O17 0.580207 0.653809 0.856995
O O18 0.000000 0.000000 0.000000
#
# Coordination Sequence:
#
# PCOD8032699 Si02
#       8
#     2   2   2   2   2   2   2   2
#     4  12  28  46  72 108 148 192 242 295 362 436
#     4  12  25  46  72 105 146 193 241 291 366 430
#     4  12  27  48  76 105 149 192 238 303 361 435
#     4  12  26  49  77 105 148 192 244 304 369 437
#     4  11  26  42  70 105 143 187 243 294 358 426
#     4  12  28  47  74 111 145 189 249 304 370 436
#     4  12  25  44  74 105 142 185 240 303 360 432
#     4  11  23  43  70 103 145 189 240 296 354 431
#
# _framework density 22.856382
#
# number of rings (size 3 to 8) (size 9 to 14) (size 15 to 20)
#    0.000    0.250    2.500    6.000    7.000    4.000 
#    0.000    0.000    0.000    0.000    0.000    0.000 
#    0.000    0.000    0.000    0.000    0.000    0.000 
#
# Total GULP energy -198392.755641 kJ/mol
# GULP energy per Si atom -12399.547228 kJ/mol
# Density = 2.280436 g / cm^3
# Si number density = 22.856382 Si / 1000 Ang^3
#
#
#
# Elastic Constant Matrix: (Units=GPa)
#
#
# Indices 1 2 3 4 5 6 
#
# 1 109.0109 42.6264 34.7410 -11.0961 8.8320 4.6968
# 2 42.6264 131.6786 49.7686 -7.9070 7.9526 -2.6787
# 3 34.7410 49.7686 106.3092 -6.2975 3.0006 4.8352
# 4 -11.0961 -7.9070 -6.2975 30.4486 -2.6636 8.4567
# 5 8.8320 7.9526 3.0006 -2.6636 41.7920 0.9526
# 6 4.6968 -2.6787 4.8352 8.4567 0.9526 42.7511
#
#
#
# Elastic Compliance Matrix: (Units=1/GPa)
#
#
# Indices 1 2 3 4 5 6 
#
# 1 0.011441 -0.002619 -0.002186 0.003410 -0.001504 -0.001815
# 2 -0.002619 0.010006 -0.003833 0.000398 -0.001080 0.001294
# 3 -0.002186 -0.003833 0.012046 0.001184 0.000439 -0.001606
# 4 0.003410 0.000398 0.001184 0.036739 0.001638 -0.007788
# 5 -0.001504 -0.001080 0.000439 0.001638 0.024543 -0.000823
# 6 -0.001815 0.001294 -0.001606 -0.007788 -0.000823 0.025412
#
#
# Mechanical properties :
#
#
# Convention : Reuss Voigt Hill
#
# Bulk Modulus (GPa) = 61.66225 66.80786 64.23505
# Shear Modulus (GPa) = 34.99681 37.65585 36.32633
#
# Velocity S-wave (km/s) = 3.91725 4.06334 3.99096
# Velocity P-wave (km/s) = 6.89177 7.16290 7.02864
#
# Compressibility (1/GPa) = 0.01621738
#
# Stress axis : x y z
#
# Youngs Moduli (GPa) = 87.40350 99.93742 83.01300
#
# Poissons Ratio (x) = 0.26172 0.18146
# Poissons Ratio (y) = 0.22890 0.31822
# Poissons Ratio (z) = 0.19106 0.38310
#
# Static dielectric constant tensor:
#      x y z
#    x 4.340390 -0.171460 0.073080 
#    y -0.171460 4.177770 0.125760 
#    z 0.073080 0.125760 4.006310 
# 
# 
# High freq. dielectric constant tensor:
#      x y z
#    x 1.915760 -0.008520 0.003490 
#    y -0.008520 1.913940 -0.000890 
#    z 0.003490 -0.000890 1.910710 
# 
# From -- ./inp_files/39460.got.cif
#   From: 2010.06.25/outbox.cif.g09.slc.cpg/sg2_20_cif.got.tgz:39460.got - 2010.06.27 13:26:56.
