data_PCOD8032870
_publ_section_title
;
Structure prediction by ZEFSAII (Michael W. Deem and Ramdas Pophale) SiO2 
 PCOD8032870
Probable space group: P -1
;
_chemical_formula_sum "Si O2"
_cell_formula_units_Z 12
_cell_length_a 5.068014
_cell_length_b 11.728158
_cell_length_c 17.477594
_cell_angle_alpha 150.388861
_cell_angle_beta 108.985578
_cell_angle_gamma 76.062069
_cell_volume 483.417148
_symmetry_space_group_name_H-M "P -1"
_symmetry_group_IT_number 2
_symmetry_cell_setting 'triclinic'
loop_
_space_group_symop_operation_xyz
x,y,z
-x,-y,-z
loop_
_atom_site_type_symbol
_atom_site_label
_atom_site_fract_x
_atom_site_fract_y
_atom_site_fract_z
Si Si1 0.195697 0.983901 0.362011
Si Si2 0.770627 0.293786 0.355946
Si Si3 0.335357 0.322267 0.822980
Si Si4 0.548859 0.327709 0.509137
Si Si5 0.090534 0.389735 0.684242
Si Si6 0.796028 0.133584 0.109631
O O1 0.440531 0.814326 0.281170
O O2 0.890527 0.841957 0.245576
O O3 0.255431 0.170416 0.406551
O O4 0.220158 0.146921 0.534884
O O5 0.700146 0.194100 0.376002
O O6 0.491599 0.408992 0.365478
O O7 0.868092 0.117295 0.197900
O O8 0.000000 0.500000 0.500000
O O9 0.161407 0.447978 0.813901
O O10 0.500000 0.500000 0.000000
O O11 0.755107 0.343394 0.611444
O O12 0.212904 0.600393 0.764048
O O13 0.500000 0.000000 0.000000
O O14 0.000000 0.000000 0.000000
#
# Coordination Sequence:
#
# PCOD8032870 Si02
#       6
#     2   2   2   2   2   2
#     4  12  25  50  82 108 145 207 256 311 377 459
#     4  11  23  45  74 110 153 200 259 308 361 463
#     4  12  30  50  75 116 153 192 253 326 393 444
#     4  11  23  43  81 111 145 197 270 307 361 441
#     4  12  26  51  76 108 151 205 262 307 371 468
#     4  12  28  47  71 112 157 199 241 313 391 441
#
# _framework density 24.82328
#
# number of rings (size 3 to 8) (size 9 to 14) (size 15 to 20)
#    0.000    0.333    5.000    2.500    4.667    1.333 
#    3.000    0.000    0.000    0.000    0.000    0.000 
#    0.000    0.000    0.000    0.000    0.000    0.000 
#
# Total GULP energy -148680.487667 kJ/mol
# GULP energy per Si atom -12390.040639 kJ/mol
# Density = 2.476678 g / cm^3
# Si number density = 24.823280 Si / 1000 Ang^3
#
#
#
# Elastic Constant Matrix: (Units=GPa)
#
#
# Indices 1 2 3 4 5 6 
#
# 1 153.8324 24.1354 66.0889 -5.8848 14.9053 19.8794
# 2 24.1354 96.5589 42.1477 -18.2199 17.5184 10.7705
# 3 66.0889 42.1477 148.9528 -17.9276 19.9394 12.6700
# 4 -5.8848 -18.2199 -17.9276 48.5709 5.6318 -3.4920
# 5 14.9053 17.5184 19.9394 5.6318 47.4227 11.5098
# 6 19.8794 10.7705 12.6700 -3.4920 11.5098 43.8093
#
#
#
# Elastic Compliance Matrix: (Units=1/GPa)
#
#
# Indices 1 2 3 4 5 6 
#
# 1 0.008380 -0.000341 -0.003408 -0.000521 -0.000363 -0.002679
# 2 -0.000341 0.013169 -0.002424 0.004401 -0.004025 -0.000974
# 3 -0.003408 -0.002424 0.009510 0.002479 -0.002379 0.000214
# 4 -0.000521 0.004401 0.002479 0.023897 -0.005795 0.001865
# 5 -0.000363 -0.004025 -0.002379 -0.005795 0.025678 -0.005366
# 6 -0.002679 -0.000974 0.000214 0.001865 -0.005366 0.025778
#
#
# Mechanical properties :
#
#
# Convention : Reuss Voigt Hill
#
# Bulk Modulus (GPa) = 53.43671 73.78756 63.61213
# Shear Modulus (GPa) = 40.00197 45.75873 42.88035
#
# Velocity S-wave (km/s) = 4.01867 4.29812 4.16074
# Velocity P-wave (km/s) = 6.56555 7.37709 6.98312
#
# Compressibility (1/GPa) = 0.01871373
#
# Stress axis : x y z
#
# Youngs Moduli (GPa) = 119.33866 75.93781 105.15338
#
# Poissons Ratio (x) = 0.02587 0.35833
# Poissons Ratio (y) = 0.04065 0.25488
# Poissons Ratio (z) = 0.40667 0.18406
#
# Static dielectric constant tensor:
#      x y z
#    x 4.975660 -0.271260 -0.171890 
#    y -0.271260 5.356280 0.004980 
#    z -0.171890 0.004980 4.612080 
# 
# 
# High freq. dielectric constant tensor:
#      x y z
#    x 2.013500 0.005960 0.004620 
#    y 0.005960 1.983120 -0.006110 
#    z 0.004620 -0.006110 1.973240 
# 
# From -- ./inp_files/548781.got.cif
#   From: 2010.06.25/outbox.cif.g09.slc.cpg/sg2_275_cif.got.tgz:548781.got - 2010.06.27 13:26:56.
