data_PCOD8032312
_publ_section_title
;
Structure prediction by ZEFSAII (Michael W. Deem and Ramdas Pophale) SiO2 
 PCOD8032312
Probable space group: P -1
;
_chemical_formula_sum "Si O2"
_cell_formula_units_Z 14
_cell_length_a 8.063610
_cell_length_b 12.335374
_cell_length_c 8.683454
_cell_angle_alpha 87.295489
_cell_angle_beta 124.318663
_cell_angle_gamma 113.274614
_cell_volume 637.517312
_symmetry_space_group_name_H-M "P -1"
_symmetry_group_IT_number 2
_symmetry_cell_setting 'triclinic'
loop_
_space_group_symop_operation_xyz
x,y,z
-x,-y,-z
loop_
_atom_site_type_symbol
_atom_site_label
_atom_site_fract_x
_atom_site_fract_y
_atom_site_fract_z
Si Si1 0.625625 0.247993 0.898949
Si Si2 0.529547 0.469104 0.847099
Si Si3 0.755058 0.963370 0.439198
Si Si4 0.055540 0.395969 0.466933
Si Si5 0.100707 0.320387 0.161910
Si Si6 0.627907 0.163847 0.246889
Si Si7 0.810110 0.903194 0.799643
O O1 0.641641 0.379748 0.921208
O O2 0.417294 0.174511 0.683038
O O3 0.597809 0.176715 0.049253
O O4 0.865502 0.272093 0.947718
O O5 0.287739 0.405119 0.647673
O O6 0.689411 0.591249 0.833864
O O7 0.500000 0.500000 0.000000
O O8 0.772858 0.975637 0.632201
O O9 0.642305 0.040692 0.298892
O O10 0.000000 0.000000 0.500000
O O11 0.072812 0.392643 0.290704
O O12 0.000000 0.500000 0.500000
O O13 0.852573 0.271490 0.425957
O O14 0.127119 0.200074 0.228133
O O15 0.415598 0.165576 0.217749
O O16 0.000000 0.000000 0.000000
#
# Coordination Sequence:
#
# PCOD8032312 Si02
#       7
#     2   2   2   2   2   2   2
#     4  11  23  42  65  94 128 171 221 271 323 388
#     4  12  24  40  65  98 132 173 218 269 328 393
#     4  12  24  42  67  95 127 173 221 270 330 390
#     4  11  24  44  67  94 130 174 221 274 330 391
#     4  11  24  44  66  94 132 175 217 271 331 391
#     4  11  24  43  64  94 131 170 217 275 327 387
#     4  12  25  43  66  97 132 172 218 272 328 394
#
# _framework density 21.960190000000001
#
# number of rings (size 3 to 8) (size 9 to 14) (size 15 to 20)
#    0.000    0.571    0.000   10.286    0.000    3.429 
#    0.000    0.000    0.000    0.000    0.000    0.000 
#    0.000    0.000    0.000    0.000    0.000    0.000 
#
# Total GULP energy -173634.084193 kJ/mol
# GULP energy per Si atom -12402.434585 kJ/mol
# Density = 2.191021 g / cm^3
# Si number density = 21.960190 Si / 1000 Ang^3
#
#
#
# Elastic Constant Matrix: (Units=GPa)
#
#
# Indices 1 2 3 4 5 6 
#
# 1 118.6647 33.3711 42.9923 14.8701 15.5619 11.9863
# 2 33.3711 101.8820 36.6268 0.2522 -2.7856 -1.3697
# 3 42.9923 36.6268 131.7432 9.6601 10.3545 19.2856
# 4 14.8701 0.2522 9.6601 42.0851 3.9104 12.3421
# 5 15.5619 -2.7856 10.3545 3.9104 45.4076 4.6915
# 6 11.9863 -1.3697 19.2856 12.3421 4.6915 51.5671
#
#
#
# Elastic Compliance Matrix: (Units=1/GPa)
#
#
# Indices 1 2 3 4 5 6 
#
# 1 0.010858 -0.002862 -0.002179 -0.002788 -0.003073 -0.000838
# 2 -0.002862 0.011848 -0.002831 0.000917 0.002106 0.001628
# 3 -0.002179 -0.002831 0.009655 -0.000443 -0.001285 -0.002957
# 4 -0.002788 0.000917 -0.000443 0.026497 -0.000606 -0.005449
# 5 -0.003073 0.002106 -0.001285 -0.000606 0.023628 -0.000754
# 6 -0.000838 0.001628 -0.002957 -0.005449 -0.000754 0.022109
#
#
# Mechanical properties :
#
#
# Convention : Reuss Voigt Hill
#
# Bulk Modulus (GPa) = 60.17816 64.25228 62.21522
# Shear Modulus (GPa) = 39.72116 43.76527 41.74322
#
# Velocity S-wave (km/s) = 4.25759 4.46908 4.36461
# Velocity P-wave (km/s) = 7.18556 7.48012 7.33432
#
# Compressibility (1/GPa) = 0.01661732
#
# Stress axis : x y z
#
# Youngs Moduli (GPa) = 92.09421 84.40582 103.57309
#
# Poissons Ratio (x) = 0.24154 0.22571
# Poissons Ratio (y) = 0.26354 0.29321
# Poissons Ratio (z) = 0.20070 0.23895
#
# Static dielectric constant tensor:
#      x y z
#    x 4.103980 0.046730 0.159660 
#    y 0.046730 3.871240 -0.066020 
#    z 0.159660 -0.066020 3.816840 
# 
# 
# High freq. dielectric constant tensor:
#      x y z
#    x 1.878590 0.000340 0.017600 
#    y 0.000340 1.871130 0.006450 
#    z 0.017600 0.006450 1.873190 
# 
# From -- ./inp_files/187129.got.cif
#   From: 2010.06.25/outbox.cif.g09.slc.cpg/sg2_94_cif.got.tgz:187129.got - 2010.06.27 13:26:56.
