data_PCOD8032384
_publ_section_title
;
Structure prediction by ZEFSAII (Michael W. Deem and Ramdas Pophale) SiO2 
 PCOD8032384
Probable space group: P -1
;
_chemical_formula_sum "Si O2"
_cell_formula_units_Z 10
_cell_length_a 11.071544
_cell_length_b 7.281289
_cell_length_c 9.929148
_cell_angle_alpha 135.176646
_cell_angle_beta 64.751340
_cell_angle_gamma 119.061653
_cell_volume 488.819850
_symmetry_space_group_name_H-M "P -1"
_symmetry_group_IT_number 2
_symmetry_cell_setting 'triclinic'
loop_
_space_group_symop_operation_xyz
x,y,z
-x,-y,-z
loop_
_atom_site_type_symbol
_atom_site_label
_atom_site_fract_x
_atom_site_fract_y
_atom_site_fract_z
Si Si1 0.860315 0.326516 0.542123
Si Si2 0.444855 0.106207 0.212875
Si Si3 0.830151 0.359436 0.860847
Si Si4 0.875619 0.728153 0.278655
Si Si5 0.326020 0.583715 0.553043
O O1 0.844527 0.488904 0.771138
O O2 0.736399 0.297278 0.481241
O O3 0.000000 0.500000 0.500000
O O4 0.865435 0.031124 0.433029
O O5 0.410983 0.389633 0.349606
O O6 0.565790 0.156493 0.294015
O O7 0.305896 0.892322 0.216757
O O8 0.500000 0.000000 0.000000
O O9 0.962305 0.253528 0.778897
O O10 0.811381 0.574268 0.091803
O O11 0.791814 0.571595 0.365123
#
# Coordination Sequence:
#
# PCOD8032384 Si02
#       5
#     2   2   2   2   2
#     4  12  24  41  68  99 127 165 216 272 316 369
#     4  11  23  43  68  92 132 173 208 262 324 377
#     4  11  23  42  68  96 130 170 211 264 321 376
#     4  11  23  44  68  95 128 168 219 262 316 382
#     4  11  24  43  68  95 127 171 217 259 320 384
#
# _framework density 20.457433000000002
#
# number of rings (size 3 to 8) (size 9 to 14) (size 15 to 20)
#    0.000    0.800    6.000    1.800    0.000    3.200 
#    0.000    2.000    0.000    0.000    0.000    0.000 
#    0.000    0.000    0.000    0.000    0.000    0.000 
#
# Total GULP energy -124003.722640 kJ/mol
# GULP energy per Si atom -12400.372264 kJ/mol
# Density = 2.041087 g / cm^3
# Si number density = 20.457433 Si / 1000 Ang^3
#
#
#
# Elastic Constant Matrix: (Units=GPa)
#
#
# Indices 1 2 3 4 5 6 
#
# 1 103.8986 29.7180 30.3164 -6.4699 24.5925 3.4135
# 2 29.7180 81.0288 33.1642 -10.4449 15.7172 2.7043
# 3 30.3164 33.1642 131.2247 -23.8880 15.5337 -6.0344
# 4 -6.4699 -10.4449 -23.8880 30.9486 2.4404 9.0542
# 5 24.5925 15.7172 15.5337 2.4404 38.7551 -2.7355
# 6 3.4135 2.7043 -6.0344 9.0542 -2.7355 34.4544
#
#
#
# Elastic Compliance Matrix: (Units=1/GPa)
#
#
# Indices 1 2 3 4 5 6 
#
# 1 0.012472 -0.002430 -0.001198 0.002078 -0.006744 -0.002336
# 2 -0.002430 0.015632 -0.002235 0.004215 -0.004367 -0.002832
# 3 -0.001198 -0.002235 0.010066 0.006987 -0.002808 -0.000002
# 4 0.002078 0.004215 0.006987 0.043677 -0.009393 -0.011537
# 5 -0.006744 -0.004367 -0.002808 -0.009393 0.033972 0.005685
# 6 -0.002336 -0.002832 -0.000002 -0.011537 0.005685 0.032960
#
#
# Mechanical properties :
#
#
# Convention : Reuss Voigt Hill
#
# Bulk Modulus (GPa) = 37.81533 55.83883 46.82708
# Shear Modulus (GPa) = 29.52957 35.69517 32.61237
#
# Velocity S-wave (km/s) = 3.80342 4.18167 3.99702
# Velocity P-wave (km/s) = 6.14923 7.11826 6.65141
#
# Compressibility (1/GPa) = 0.02644430
#
# Stress axis : x y z
#
# Youngs Moduli (GPa) = 80.18063 63.96994 99.33972
#
# Poissons Ratio (x) = 0.15543 0.11902
# Poissons Ratio (y) = 0.19482 0.22205
# Poissons Ratio (z) = 0.09606 0.14299
#
# Static dielectric constant tensor:
#      x y z
#    x 4.037520 -0.007500 0.234820 
#    y -0.007500 3.266940 -0.244640 
#    z 0.234820 -0.244640 4.198780 
# 
# 
# High freq. dielectric constant tensor:
#      x y z
#    x 1.811560 0.018690 0.014520 
#    y 0.018690 1.786880 -0.014450 
#    z 0.014520 -0.014450 1.819930 
# 
# From -- ./inp_files/16743.got.cif
#   From: 2010.06.25/outbox.cif.g09.slc.cpg/sg2_9_cif.got.tgz:16743.got - 2010.06.27 13:26:56.
