data_PCOD8032298
_publ_section_title
;
Structure prediction by ZEFSAII (Michael W. Deem and Ramdas Pophale) SiO2 
 PCOD8032298
Probable space group: P -1
;
_chemical_formula_sum "Si O2"
_cell_formula_units_Z 16
_cell_length_a 10.309804
_cell_length_b 11.304934
_cell_length_c 8.973222
_cell_angle_alpha 107.609692
_cell_angle_beta 133.586490
_cell_angle_gamma 67.769844
_cell_volume 699.876896
_symmetry_space_group_name_H-M "P -1"
_symmetry_group_IT_number 2
_symmetry_cell_setting 'triclinic'
loop_
_space_group_symop_operation_xyz
x,y,z
-x,-y,-z
loop_
_atom_site_type_symbol
_atom_site_label
_atom_site_fract_x
_atom_site_fract_y
_atom_site_fract_z
Si Si1 0.394240 0.989430 0.559341
Si Si2 0.497037 0.160459 0.148015
Si Si3 0.125068 0.985538 0.739119
Si Si4 0.876902 0.193795 0.775663
Si Si5 0.694718 0.487358 0.230202
Si Si6 0.796582 0.234341 0.067995
Si Si7 0.367066 0.238606 0.775843
Si Si8 0.364468 0.603154 0.533069
O O1 0.294578 0.134309 0.583968
O O2 0.500000 0.000000 0.500000
O O3 0.549997 0.917701 0.776592
O O4 0.247238 0.905733 0.395584
O O5 0.542604 0.291077 0.285561
O O6 0.663953 0.056665 0.160901
O O7 0.340580 0.204345 0.915561
O O8 0.079305 0.121018 0.845770
O O9 0.084516 0.879100 0.779987
O O10 0.000000 0.000000 0.500000
O O11 0.806483 0.326273 0.679976
O O12 0.878401 0.221883 0.961998
O O13 0.830958 0.365296 0.214536
O O14 0.758085 0.618835 0.302089
O O15 0.695148 0.470183 0.402365
O O16 0.500000 0.500000 0.000000
O O17 0.580355 0.232638 0.898663
O O18 0.500000 0.500000 0.500000
#
# Coordination Sequence:
#
# PCOD8032298 Si02
#       8
#     2   2   2   2   2   2   2   2
#     4  11  21  33  50  76 113 141 176 214 259 324
#     4  10  21  35  53  79 107 145 174 219 267 310
#     4  11  18  36  55  78 106 137 183 223 264 309
#     4  11  22  34  54  83 110 141 176 219 271 309
#     4  10  17  31  51  75 108 139 173 219 268 315
#     4  10  19  33  52  81 106 135 177 221 268 307
#     4  10  19  33  52  76 111 143 172 208 271 325
#     4  11  19  29  50  79 108 136 172 223 269 312
#
# _framework density 22.861163000000001
#
# number of rings (size 3 to 8) (size 9 to 14) (size 15 to 20)
#    0.000    1.500    7.500    2.250    1.750    0.000 
#    0.000    0.000    0.000    0.750    0.000    0.875 
#    0.000    0.125    0.000    0.000    0.000    0.000 
#
# Total GULP energy -198273.895216 kJ/mol
# GULP energy per Si atom -12392.118451 kJ/mol
# Density = 2.280913 g / cm^3
# Si number density = 22.861163 Si / 1000 Ang^3
#
#
#
# Elastic Constant Matrix: (Units=GPa)
#
#
# Indices 1 2 3 4 5 6 
#
# 1 65.7497 40.0142 44.7552 -4.4655 -39.2042 -6.8917
# 2 40.0142 176.8911 58.1948 -18.4188 -35.1859 -10.3163
# 3 44.7552 58.1948 115.1167 -19.4500 -57.3140 0.8066
# 4 -4.4655 -18.4188 -19.4500 41.3717 6.1569 -11.7579
# 5 -39.2042 -35.1859 -57.3140 6.1569 49.5441 1.0775
# 6 -6.8917 -10.3163 0.8066 -11.7579 1.0775 41.1633
#
#
#
# Elastic Compliance Matrix: (Units=1/GPa)
#
#
# Indices 1 2 3 4 5 6 
#
# 1 0.030298 -0.002267 0.001122 0.000420 0.023523 0.003987
# 2 -0.002267 0.007389 -0.002115 0.002592 0.000636 0.002237
# 3 0.001122 -0.002115 0.022831 0.006292 0.025008 0.000353
# 4 0.000420 0.002592 0.006292 0.030077 0.005518 0.009044
# 5 0.023523 0.000636 0.025008 0.005518 0.067420 0.003419
# 6 0.003987 0.002237 0.000353 0.009044 0.003419 0.028008
#
#
# Mechanical properties :
#
#
# Convention : Reuss Voigt Hill
#
# Bulk Modulus (GPa) = 18.51951 71.52065 45.02008
# Shear Modulus (GPa) = 23.74807 40.73536 32.24171
#
# Velocity S-wave (km/s) = 3.22653 4.22579 3.75951
# Velocity P-wave (km/s) = 4.69032 7.42714 6.21134
#
# Compressibility (1/GPa) = 0.05399710
#
# Stress axis : x y z
#
# Youngs Moduli (GPa) = 33.00545 135.34219 43.79942
#
# Poissons Ratio (x) = 0.30686 -0.04913
# Poissons Ratio (y) = 0.07483 0.09263
# Poissons Ratio (z) = -0.03702 0.28622
#
# Static dielectric constant tensor:
#      x y z
#    x 3.654590 -0.016260 -0.547910 
#    y -0.016260 4.862240 -0.240050 
#    z -0.547910 -0.240050 4.335800 
# 
# 
# High freq. dielectric constant tensor:
#      x y z
#    x 1.863060 0.000800 -0.041240 
#    y 0.000800 1.926230 -0.008290 
#    z -0.041240 -0.008290 1.902930 
# 
# From -- ./inp_files/259144.got.cif
#   From: 2010.06.25/outbox.cif.g09.slc.cpg/sg2_130_cif.got.tgz:259144.got - 2010.06.27 13:26:56.
