data_PCOD8032149
_publ_section_title
;
Structure prediction by ZEFSAII (Michael W. Deem and Ramdas Pophale) SiO2 
 PCOD8032149
Probable space group: P -1
;
_chemical_formula_sum "Si O2"
_cell_formula_units_Z 16
_cell_length_a 11.391701
_cell_length_b 21.842842
_cell_length_c 18.221557
_cell_angle_alpha 158.277827
_cell_angle_beta 150.309480
_cell_angle_gamma 39.323270
_cell_volume 817.224520
_symmetry_space_group_name_H-M "P -1"
_symmetry_group_IT_number 2
_symmetry_cell_setting 'triclinic'
loop_
_space_group_symop_operation_xyz
x,y,z
-x,-y,-z
loop_
_atom_site_type_symbol
_atom_site_label
_atom_site_fract_x
_atom_site_fract_y
_atom_site_fract_z
Si Si1 0.188349 0.800071 0.728229
Si Si2 0.408750 0.620431 0.526960
Si Si3 0.438503 0.799682 0.476579
Si Si4 0.501643 0.802647 0.039840
Si Si5 0.076473 0.387176 0.979331
Si Si6 0.261141 0.196784 0.215154
Si Si7 0.676243 0.601735 0.268049
Si Si8 0.838343 0.368351 0.214760
O O1 0.305802 0.762076 0.673224
O O2 0.327194 0.738301 0.804707
O O3 0.912543 0.707105 0.475662
O O4 0.216404 0.998345 0.964824
O O5 0.500000 0.500000 0.500000
O O6 0.621637 0.711848 0.692227
O O7 0.195281 0.512074 0.245221
O O8 0.567687 0.738273 0.550206
O O9 0.556246 0.736657 0.397942
O O10 0.157558 0.726450 0.240412
O O11 0.461758 0.998628 0.711374
O O12 0.387271 0.727355 0.969247
O O13 0.751932 0.738292 0.094859
O O14 0.000000 0.500000 0.000000
O O15 0.996714 0.237283 0.125761
O O16 0.739650 0.457234 0.192599
O O17 0.500000 0.500000 0.000000
O O18 0.000000 0.500000 0.500000
#
# Coordination Sequence:
#
# PCOD8032149 Si02
#       8
#     2   2   2   2   2   2   2   2
#     4  11  23  42  65  94 131 166 209 264 317 374
#     4  12  23  41  63  93 129 165 213 258 311 374
#     4  11  23  42  65  94 131 166 209 264 317 374
#     4  11  23  41  66  97 124 168 217 257 314 377
#     4  12  23  41  63  93 129 165 213 258 311 374
#     4  11  23  41  66  97 124 168 217 257 314 377
#     4  12  25  43  65  97 130 163 207 264 325 371
#     4  12  21  41  69  93 122 162 219 260 304 381
#
# _framework density 19.578461999999998
#
# number of rings (size 3 to 8) (size 9 to 14) (size 15 to 20)
#    0.000    0.500    5.000    4.500    0.000    2.000 
#    0.000    5.000    0.000    0.000    0.000    0.000 
#    0.000    0.000    0.000    0.000    0.000    0.000 
#
# Total GULP energy -198470.160154 kJ/mol
# GULP energy per Si atom -12404.385010 kJ/mol
# Density = 1.953390 g / cm^3
# Si number density = 19.578462 Si / 1000 Ang^3
#
#
#
# Elastic Constant Matrix: (Units=GPa)
#
#
# Indices 1 2 3 4 5 6 
#
# 1 85.7763 27.1869 11.3614 6.3010 -18.7498 -9.0109
# 2 27.1869 115.2795 33.3536 -2.2913 -16.8004 -1.4291
# 3 11.3614 33.3536 79.1124 -8.4010 -13.4606 7.1182
# 4 6.3010 -2.2913 -8.4010 29.7206 0.6704 -2.6241
# 5 -18.7498 -16.8004 -13.4606 0.6704 39.8986 4.0415
# 6 -9.0109 -1.4291 7.1182 -2.6241 4.0415 44.7344
#
#
#
# Elastic Compliance Matrix: (Units=1/GPa)
#
#
# Indices 1 2 3 4 5 6 
#
# 1 0.014129 -0.002414 -0.000670 -0.003294 0.005229 0.002210
# 2 -0.002414 0.010647 -0.003796 0.000239 0.002035 0.000288
# 3 -0.000670 -0.003796 0.015618 0.003933 0.003577 -0.002834
# 4 -0.003294 0.000239 0.003933 0.035571 -0.000807 0.000878
# 5 0.005229 0.002035 0.003577 -0.000807 0.029820 -0.002192
# 6 0.002210 0.000288 -0.002834 0.000878 -0.002192 0.023509
#
#
# Mechanical properties :
#
#
# Convention : Reuss Voigt Hill
#
# Bulk Modulus (GPa) = 37.54782 47.10801 42.32791
# Shear Modulus (GPa) = 32.90899 36.75512 34.83206
#
# Velocity S-wave (km/s) = 4.10430 4.33751 4.22251
# Velocity P-wave (km/s) = 6.45601 7.01418 6.74088
#
# Compressibility (1/GPa) = 0.02663271
#
# Stress axis : x y z
#
# Youngs Moduli (GPa) = 70.77492 93.92116 64.02760
#
# Poissons Ratio (x) = 0.22676 0.04291
# Poissons Ratio (y) = 0.17087 0.24308
# Poissons Ratio (z) = 0.04744 0.35657
#
# Static dielectric constant tensor:
#      x y z
#    x 3.526140 0.111190 -0.062490 
#    y 0.111190 3.564620 0.110210 
#    z -0.062490 0.110210 3.807420 
# 
# 
# High freq. dielectric constant tensor:
#      x y z
#    x 1.779170 -0.007820 0.002070 
#    y -0.007820 1.771810 0.008140 
#    z 0.002070 0.008140 1.772020 
# 
# From -- ./inp_files/207708.got.cif
#   From: 2010.06.25/outbox.cif.g09.slc.cpg/sg2_104_cif.got.tgz:207708.got - 2010.06.27 13:26:56.
