data_PCOD8032936
_publ_section_title
;
Structure prediction by ZEFSAII (Michael W. Deem and Ramdas Pophale) SiO2 
 PCOD8032936
Probable space group: P -1
;
_chemical_formula_sum "Si O2"
_cell_formula_units_Z 14
_cell_length_a 8.861342
_cell_length_b 17.009085
_cell_length_c 13.300439
_cell_angle_alpha 152.912197
_cell_angle_beta 44.047384
_cell_angle_gamma 128.718256
_cell_volume 633.998250
_symmetry_space_group_name_H-M "P -1"
_symmetry_group_IT_number 2
_symmetry_cell_setting 'triclinic'
loop_
_space_group_symop_operation_xyz
x,y,z
-x,-y,-z
loop_
_atom_site_type_symbol
_atom_site_label
_atom_site_fract_x
_atom_site_fract_y
_atom_site_fract_z
Si Si1 0.452465 0.949696 0.078583
Si Si2 0.245127 0.781167 0.405972
Si Si3 0.041335 0.102785 0.762408
Si Si4 0.517775 0.453145 0.127408
Si Si5 0.414522 0.179982 0.541840
Si Si6 0.604607 0.590154 0.646772
Si Si7 0.076814 0.475885 0.260814
O O1 0.208184 0.890036 0.141391
O O2 0.498652 0.105283 0.309505
O O3 0.619042 0.792825 0.849201
O O4 0.500000 0.000000 0.000000
O O5 0.400828 0.850281 0.496684
O O6 0.105709 0.621522 0.327183
O O7 0.085610 0.941351 0.632498
O O8 0.390152 0.717204 0.168259
O O9 0.197795 0.083965 0.568620
O O10 0.100540 0.282845 0.988132
O O11 0.645248 0.616827 0.212999
O O12 0.547778 0.433161 0.209591
O O13 0.262711 0.491221 0.272146
O O14 0.500000 0.500000 0.500000
O O15 0.843732 0.508742 0.461274
#
# Coordination Sequence:
#
# PCOD8032936 Si02
#       7
#     2   2   2   2   2   2   2
#     4  12  27  46  64  97 137 177 226 271 327 399
#     4  11  23  44  71 102 132 170 222 280 331 389
#     4  12  23  43  72  97 135 174 221 276 331 392
#     4  11  23  44  70  99 135 171 219 281 328 396
#     4  11  23  44  69 100 135 170 221 279 331 391
#     4  12  25  44  65  93 136 182 218 265 334 393
#     4  11  23  45  67 102 133 171 225 273 331 394
#
# _framework density 22.082080000000001
#
# number of rings (size 3 to 8) (size 9 to 14) (size 15 to 20)
#    0.000    0.571    4.286    4.714    2.000    0.000 
#    0.000    4.286    0.000    0.000    0.000    0.000 
#    0.000    0.000    0.000    0.000    0.000    0.000 
#
# Total GULP energy -173654.604629 kJ/mol
# GULP energy per Si atom -12403.900331 kJ/mol
# Density = 2.203182 g / cm^3
# Si number density = 22.082080 Si / 1000 Ang^3
#
#
#
# Elastic Constant Matrix: (Units=GPa)
#
#
# Indices 1 2 3 4 5 6 
#
# 1 71.8771 27.5617 37.6371 -7.3670 14.2480 -5.5122
# 2 27.5617 88.8737 37.5697 4.9448 8.5641 -13.8507
# 3 37.6371 37.5697 116.8478 7.4945 9.9503 -11.3025
# 4 -7.3670 4.9448 7.4945 44.4684 -8.9787 1.5963
# 5 14.2480 8.5641 9.9503 -8.9787 40.4380 -2.8171
# 6 -5.5122 -13.8507 -11.3025 1.5963 -2.8171 37.3353
#
#
#
# Elastic Compliance Matrix: (Units=1/GPa)
#
#
# Indices 1 2 3 4 5 6 
#
# 1 0.019005 -0.003737 -0.004864 0.003606 -0.003942 -0.000505
# 2 -0.003737 0.014459 -0.002818 -0.002147 -0.001253 0.003956
# 3 -0.004864 -0.002818 0.011456 -0.002684 -0.000982 0.001745
# 4 0.003606 -0.002147 -0.002684 0.024899 0.005252 -0.001745
# 5 -0.003942 -0.001253 -0.000982 0.005252 0.027828 0.000531
# 6 -0.000505 0.003956 0.001745 -0.001745 0.000531 0.028820
#
#
# Mechanical properties :
#
#
# Convention : Reuss Voigt Hill
#
# Bulk Modulus (GPa) = 45.28843 53.68174 49.48508
# Shear Modulus (GPa) = 31.91470 36.10368 34.00919
#
# Velocity S-wave (km/s) = 3.80580 4.04787 3.92870
# Velocity P-wave (km/s) = 6.31394 6.79778 6.56032
#
# Compressibility (1/GPa) = 0.02208070
#
# Stress axis : x y z
#
# Youngs Moduli (GPa) = 52.61729 69.16135 87.29249
#
# Poissons Ratio (x) = 0.25845 0.42463
# Poissons Ratio (y) = 0.19663 0.24600
# Poissons Ratio (z) = 0.25596 0.19491
#
# Static dielectric constant tensor:
#      x y z
#    x 3.827900 -0.028830 -0.018180 
#    y -0.028830 3.982460 0.024850 
#    z -0.018180 0.024850 4.131780 
# 
# 
# High freq. dielectric constant tensor:
#      x y z
#    x 1.859110 -0.004030 0.002060 
#    y -0.004030 1.874870 0.004060 
#    z 0.002060 0.004060 1.881020 
# 
# From -- ./inp_files/155439.got.cif
#   From: 2010.06.25/outbox.cif.g09.slc.cpg/sg2_78_cif.got.tgz:155439.got - 2010.06.27 13:26:56.
