data_PCOD8032595
_publ_section_title
;
Structure prediction by ZEFSAII (Michael W. Deem and Ramdas Pophale) SiO2 
 PCOD8032595
Probable space group: P -1
;
_chemical_formula_sum "Si O2"
_cell_formula_units_Z 16
_cell_length_a 19.246128
_cell_length_b 9.870373
_cell_length_c 12.579426
_cell_angle_alpha 123.415672
_cell_angle_beta 134.746806
_cell_angle_gamma 27.397942
_cell_volume 760.546209
_symmetry_space_group_name_H-M "P -1"
_symmetry_group_IT_number 2
_symmetry_cell_setting 'triclinic'
loop_
_space_group_symop_operation_xyz
x,y,z
-x,-y,-z
loop_
_atom_site_type_symbol
_atom_site_label
_atom_site_fract_x
_atom_site_fract_y
_atom_site_fract_z
Si Si1 0.519978 0.431481 0.672164
Si Si2 0.073218 0.532895 0.669086
Si Si3 0.944665 0.606947 0.194196
Si Si4 0.539702 0.904099 0.120899
Si Si5 0.215713 0.428566 0.134948
Si Si6 0.230567 0.772900 0.326044
Si Si7 0.668025 0.880195 0.656395
Si Si8 0.583367 0.277459 0.087156
O O1 0.355415 0.615160 0.496310
O O2 0.663544 0.336927 0.717613
O O3 0.448663 0.622885 0.782559
O O4 0.612261 0.142022 0.691814
O O5 0.126445 0.371003 0.764780
O O6 0.256788 0.339384 0.728951
O O7 0.000000 0.500000 0.500000
O O8 0.935586 0.871796 0.687603
O O9 0.145874 0.404136 0.334913
O O10 0.800583 0.950844 0.159159
O O11 0.938916 0.462925 0.042872
O O12 0.398493 0.205254 0.168250
O O13 0.518181 0.746820 0.052245
O O14 0.500000 0.000000 0.000000
O O15 0.146585 0.707615 0.206902
O O16 0.271830 0.239738 0.212294
O O17 0.500000 0.000000 0.500000
O O18 0.500000 0.500000 0.000000
#
# Coordination Sequence:
#
# PCOD8032595 Si02
#       8
#     2   2   2   2   2   2   2   2
#     4  11  23  43  67 101 139 176 227 285 338 404
#     4  12  26  43  69 101 139 178 227 284 341 406
#     4  11  25  46  68 102 134 185 227 280 344 410
#     4  11  23  44  70  99 134 181 222 279 345 402
#     4  11  24  44  72  98 139 175 229 280 343 409
#     4  11  25  40  68 106 133 177 229 283 338 399
#     4  12  25  46  68  97 140 181 223 278 351 408
#     4  11  24  46  71 100 139 182 230 282 342 408
#
# _framework density 21.037512
#
# number of rings (size 3 to 8) (size 9 to 14) (size 15 to 20)
#    0.000    0.750    5.000    3.375    5.250    2.500 
#    0.000    0.625    0.000    0.000    0.000    0.000 
#    0.000    0.000    0.000    0.000    0.000    0.000 
#
# Total GULP energy -198330.093055 kJ/mol
# GULP energy per Si atom -12395.630816 kJ/mol
# Density = 2.098963 g / cm^3
# Si number density = 21.037512 Si / 1000 Ang^3
#
#
#
# Elastic Constant Matrix: (Units=GPa)
#
#
# Indices 1 2 3 4 5 6 
#
# 1 81.6370 37.2699 22.9877 -5.5755 12.1441 4.3854
# 2 37.2699 134.1989 34.8536 -1.8285 15.8885 4.8282
# 3 22.9877 34.8536 90.7174 7.7565 15.0298 0.4271
# 4 -5.5755 -1.8285 7.7565 27.7005 -10.6181 -0.3177
# 5 12.1441 15.8885 15.0298 -10.6181 37.9434 -13.1686
# 6 4.3854 4.8282 0.4271 -0.3177 -13.1686 47.2209
#
#
#
# Elastic Compliance Matrix: (Units=1/GPa)
#
#
# Indices 1 2 3 4 5 6 
#
# 1 0.014989 -0.003160 -0.002394 0.002537 -0.002406 -0.001701
# 2 -0.003160 0.009270 -0.002306 -0.000361 -0.002523 -0.001339
# 3 -0.002394 -0.002306 0.014185 -0.007071 -0.006386 -0.001499
# 4 0.002537 -0.000361 -0.007071 0.044885 0.016341 0.004724
# 5 -0.002406 -0.002523 -0.006386 0.016341 0.039314 0.011613
# 6 -0.001701 -0.001339 -0.001499 0.004724 0.011613 0.024756
#
#
# Mechanical properties :
#
#
# Convention : Reuss Voigt Hill
#
# Bulk Modulus (GPa) = 44.00594 55.19728 49.60161
# Shear Modulus (GPa) = 29.29207 36.66910 32.98059
#
# Velocity S-wave (km/s) = 3.73550 4.17950 3.96372
# Velocity P-wave (km/s) = 6.29035 7.04169 6.67660
#
# Compressibility (1/GPa) = 0.02272420
#
# Stress axis : x y z
#
# Youngs Moduli (GPa) = 66.71617 107.87410 70.49459
#
# Poissons Ratio (x) = 0.34091 0.16878
# Poissons Ratio (y) = 0.21084 0.16253
# Poissons Ratio (z) = 0.15974 0.24871
#
# Static dielectric constant tensor:
#      x y z
#    x 5.051500 -0.611080 -0.066920 
#    y -0.611080 4.416240 0.312580 
#    z -0.066920 0.312580 4.771640 
# 
# 
# High freq. dielectric constant tensor:
#      x y z
#    x 1.836260 0.005870 -0.004870 
#    y 0.005870 1.832730 -0.006440 
#    z -0.004870 -0.006440 1.828660 
# 
# From -- ./inp_files/205225.got.cif
#   From: 2010.06.25/outbox.cif.g09.slc.cpg/sg2_103_cif.got.tgz:205225.got - 2010.06.27 13:26:56.
