data_PCOD8032636
_publ_section_title
;
Structure prediction by ZEFSAII (Michael W. Deem and Ramdas Pophale) SiO2 
 PCOD8032636
Probable space group: P -1
;
_chemical_formula_sum "Si O2"
_cell_formula_units_Z 16
_cell_length_a 12.376854
_cell_length_b 20.705034
_cell_length_c 8.997397
_cell_angle_alpha 40.126336
_cell_angle_beta 127.079135
_cell_angle_gamma 149.022409
_cell_volume 755.136752
_symmetry_space_group_name_H-M "P -1"
_symmetry_group_IT_number 2
_symmetry_cell_setting 'triclinic'
loop_
_space_group_symop_operation_xyz
x,y,z
-x,-y,-z
loop_
_atom_site_type_symbol
_atom_site_label
_atom_site_fract_x
_atom_site_fract_y
_atom_site_fract_z
Si Si1 0.838635 0.118461 0.658129
Si Si2 0.298458 0.934720 0.028161
Si Si3 0.673178 0.649128 0.277657
Si Si4 0.123611 0.641007 0.742607
Si Si5 0.583209 0.812843 0.795246
Si Si6 0.453340 0.552150 0.745570
Si Si7 0.957359 0.580605 0.390061
Si Si8 0.757992 0.885585 0.484407
O O1 0.835969 0.226030 0.386465
O O2 0.080764 0.217204 0.703986
O O3 0.723568 0.978312 0.696908
O O4 0.702368 0.052004 0.816026
O O5 0.268700 0.026633 0.776325
O O6 0.107229 0.752567 0.146356
O O7 0.500000 0.000000 0.000000
O O8 0.500000 0.500000 0.500000
O O9 0.651201 0.571480 0.251261
O O10 0.606798 0.726531 0.065055
O O11 0.341378 0.710259 0.760987
O O12 0.977162 0.581392 0.582935
O O13 0.000000 0.500000 0.000000
O O14 0.655233 0.830360 0.658168
O O15 0.661071 0.739471 0.560780
O O16 0.274117 0.530447 0.672739
O O17 0.500000 0.500000 0.000000
O O18 0.000000 0.500000 0.500000
O O19 0.000000 0.000000 0.500000
#
# Coordination Sequence:
#
# PCOD8032636 Si02
#       8
#     2   2   2   2   2   2   2   2
#     4  11  25  48  67 101 145 178 226 290 338 413
#     4  11  23  43  68  98 136 176 225 273 346 403
#     4  12  26  45  71 102 136 185 234 279 349 405
#     4  11  24  45  69 101 137 178 229 280 341 411
#     4  12  26  44  69 103 142 180 231 282 344 411
#     4  12  24  47  71  97 140 179 230 294 335 405
#     4  11  24  44  69 100 137 174 228 286 338 403
#     4  12  26  43  67 102 135 178 228 280 344 406
#
# _framework density 21.188216000000001
#
# number of rings (size 3 to 8) (size 9 to 14) (size 15 to 20)
#    0.000    0.500    3.750    6.000    3.500    2.000 
#    0.000    0.000    0.000    0.000    0.000    0.000 
#    0.000    0.000    0.000    0.000    0.000    0.000 
#
# Total GULP energy -198303.609560 kJ/mol
# GULP energy per Si atom -12393.975597 kJ/mol
# Density = 2.113999 g / cm^3
# Si number density = 21.188216 Si / 1000 Ang^3
#
#
#
# Elastic Constant Matrix: (Units=GPa)
#
#
# Indices 1 2 3 4 5 6 
#
# 1 74.6326 32.9575 33.6937 1.0894 16.7232 15.2145
# 2 32.9575 118.3160 39.2305 -7.2748 8.3307 15.5665
# 3 33.6937 39.2305 171.7420 -12.1415 24.4086 11.5466
# 4 1.0894 -7.2748 -12.1415 36.2439 -0.1301 13.4612
# 5 16.7232 8.3307 24.4086 -0.1301 48.3315 -3.7900
# 6 15.2145 15.5665 11.5466 13.4612 -3.7900 47.0749
#
#
#
# Elastic Compliance Matrix: (Units=1/GPa)
#
#
# Indices 1 2 3 4 5 6 
#
# 1 0.017738 -0.003435 -0.001678 -0.000109 -0.005056 -0.004561
# 2 -0.003435 0.010392 -0.001288 0.002807 -0.000166 -0.002826
# 3 -0.001678 -0.001288 0.007197 0.002883 -0.002970 -0.001861
# 4 -0.000109 0.002807 0.002883 0.033328 -0.002703 -0.011348
# 5 -0.005056 -0.000166 -0.002970 -0.002703 0.024365 0.005152
# 6 -0.004561 -0.002826 -0.001861 -0.011348 0.005152 0.027768
#
#
# Mechanical properties :
#
#
# Convention : Reuss Voigt Hill
#
# Bulk Modulus (GPa) = 44.39418 64.05045 54.22231
# Shear Modulus (GPa) = 35.43627 43.58398 39.51013
#
# Velocity S-wave (km/s) = 4.09400 4.54033 4.32293
# Velocity P-wave (km/s) = 6.58373 7.60138 7.11079
#
# Compressibility (1/GPa) = 0.02252548
#
# Stress axis : x y z
#
# Youngs Moduli (GPa) = 56.37701 96.22828 138.94460
#
# Poissons Ratio (x) = 0.33057 0.23310
# Poissons Ratio (y) = 0.19367 0.17893
# Poissons Ratio (z) = 0.09458 0.12392
#
# Static dielectric constant tensor:
#      x y z
#    x 3.792750 0.621210 0.222360 
#    y 0.621210 4.023130 -0.054850 
#    z 0.222360 -0.054850 4.126900 
# 
# 
# High freq. dielectric constant tensor:
#      x y z
#    x 1.841770 0.003210 0.022240 
#    y 0.003210 1.846050 -0.006610 
#    z 0.022240 -0.006610 1.847270 
# 
# From -- ./inp_files/187808.got.cif
#   From: 2010.06.25/outbox.cif.g09.slc.cpg/sg2_94_cif.got.tgz:187808.got - 2010.06.27 13:26:56.
