data_PCOD8032860
_publ_section_title
;
Structure prediction by ZEFSAII (Michael W. Deem and Ramdas Pophale) SiO2 
 PCOD8032860
Probable space group: P -1
;
_chemical_formula_sum "Si O2"
_cell_formula_units_Z 16
_cell_length_a 12.770349
_cell_length_b 8.117762
_cell_length_c 9.629415
_cell_angle_alpha 97.313005
_cell_angle_beta 131.757572
_cell_angle_gamma 79.079841
_cell_volume 731.178210
_symmetry_space_group_name_H-M "P -1"
_symmetry_group_IT_number 2
_symmetry_cell_setting 'triclinic'
loop_
_space_group_symop_operation_xyz
x,y,z
-x,-y,-z
loop_
_atom_site_type_symbol
_atom_site_label
_atom_site_fract_x
_atom_site_fract_y
_atom_site_fract_z
Si Si1 0.107556 0.398450 0.688833
Si Si2 0.411837 0.892462 0.087946
Si Si3 0.988662 0.344516 0.872041
Si Si4 0.249851 0.869491 0.404259
Si Si5 0.280110 0.053967 0.716083
Si Si6 0.539755 0.649658 0.640549
Si Si7 0.247905 0.126382 0.190224
Si Si8 0.388833 0.525887 0.028625
O O1 0.021723 0.401128 0.754860
O O2 0.162188 0.209892 0.666638
O O3 0.000000 0.500000 0.500000
O O4 0.238488 0.499321 0.833040
O O5 0.580392 0.880652 0.215707
O O6 0.378550 0.714538 0.096017
O O7 0.357507 0.024677 0.170762
O O8 0.325450 0.938057 0.875642
O O9 0.834900 0.282524 0.730301
O O10 0.096264 0.181280 0.993087
O O11 0.000000 0.500000 0.000000
O O12 0.415213 0.803522 0.541099
O O13 0.208735 0.941467 0.529344
O O14 0.220488 0.026184 0.292064
O O15 0.500000 0.500000 0.500000
O O16 0.679150 0.706866 0.697796
O O17 0.567815 0.602769 0.821678
O O18 0.500000 0.500000 0.000000
#
# Coordination Sequence:
#
# PCOD8032860 Si02
#       8
#     2   2   2   2   2   2   2   2
#     4  12  29  49  73 106 148 195 242 298 364 437
#     4  11  23  43  77 103 145 183 236 302 364 422
#     4  12  29  52  70 100 153 194 241 297 364 439
#     4  12  28  43  76 107 140 195 244 296 361 430
#     4  11  24  47  71 108 144 181 242 305 352 428
#     4  12  25  44  71 108 146 185 244 303 355 427
#     4  12  25  49  71 105 142 194 244 291 367 428
#     4  12  25  44  75 106 143 190 237 296 373 423
#
# _framework density 21.882487999999999
#
# number of rings (size 3 to 8) (size 9 to 14) (size 15 to 20)
#    0.000    0.250    5.000    3.000    8.750    1.500 
#    0.000    0.000    0.000    0.000    0.000    0.000 
#    0.000    0.000    0.000    0.000    0.000    0.000 
#
# Total GULP energy -198490.341975 kJ/mol
# GULP energy per Si atom -12405.646373 kJ/mol
# Density = 2.183268 g / cm^3
# Si number density = 21.882488 Si / 1000 Ang^3
#
#
#
# Elastic Constant Matrix: (Units=GPa)
#
#
# Indices 1 2 3 4 5 6 
#
# 1 88.6283 23.2178 43.5955 -2.5168 -5.8783 9.8953
# 2 23.2178 97.9381 44.0106 0.5059 -3.4288 9.1935
# 3 43.5955 44.0106 136.9617 -4.3917 -1.3404 10.4810
# 4 -2.5168 0.5059 -4.3917 50.8920 -2.2824 3.4808
# 5 -5.8783 -3.4288 -1.3404 -2.2824 38.1564 6.0198
# 6 9.8953 9.1935 10.4810 3.4808 6.0198 40.8731
#
#
#
# Elastic Compliance Matrix: (Units=1/GPa)
#
#
# Indices 1 2 3 4 5 6 
#
# 1 0.013937 -0.001288 -0.003786 0.000652 0.002334 -0.002513
# 2 -0.001288 0.012237 -0.003392 -0.000316 0.001031 -0.001696
# 3 -0.003786 -0.003392 0.009678 0.000720 -0.000378 -0.000808
# 4 0.000652 -0.000316 0.000720 0.019972 0.001641 -0.002214
# 5 0.002334 0.001031 -0.000378 0.001641 0.027517 -0.004892
# 6 -0.002513 -0.001696 -0.000808 -0.002214 -0.004892 0.026572
#
#
# Mechanical properties :
#
#
# Convention : Reuss Voigt Hill
#
# Bulk Modulus (GPa) = 52.85990 60.57511 56.71750
# Shear Modulus (GPa) = 37.55097 40.16460 38.85779
#
# Velocity S-wave (km/s) = 4.14699 4.28888 4.21853
# Velocity P-wave (km/s) = 6.86577 7.22967 7.05007
#
# Compressibility (1/GPa) = 0.01891793
#
# Stress axis : x y z
#
# Youngs Moduli (GPa) = 71.75265 81.71727 103.32970
#
# Poissons Ratio (x) = 0.10528 0.39122
# Poissons Ratio (y) = 0.09244 0.35054
# Poissons Ratio (z) = 0.27166 0.27722
#
# Static dielectric constant tensor:
#      x y z
#    x 3.813100 -0.144030 -0.155580 
#    y -0.144030 4.147770 -0.062010 
#    z -0.155580 -0.062010 4.058590 
# 
# 
# High freq. dielectric constant tensor:
#      x y z
#    x 1.860430 0.001300 -0.000740 
#    y 0.001300 1.874870 0.000260 
#    z -0.000740 0.000260 1.874140 
# 
# From -- ./inp_files/184084.got.cif
#   From: 2010.06.25/outbox.cif.g09.slc.cpg/sg2_93_cif.got.tgz:184084.got - 2010.06.27 13:26:56.
