data_PCOD8032967
_publ_section_title
;
Structure prediction by ZEFSAII (Michael W. Deem and Ramdas Pophale) SiO2 
 PCOD8032967
Probable space group: P -1
;
_chemical_formula_sum "Si O2"
_cell_formula_units_Z 16
_cell_length_a 8.542357
_cell_length_b 17.539921
_cell_length_c 12.161760
_cell_angle_alpha 37.855055
_cell_angle_beta 84.182139
_cell_angle_gamma 57.681735
_cell_volume 742.582101
_symmetry_space_group_name_H-M "P -1"
_symmetry_group_IT_number 2
_symmetry_cell_setting 'triclinic'
loop_
_space_group_symop_operation_xyz
x,y,z
-x,-y,-z
loop_
_atom_site_type_symbol
_atom_site_label
_atom_site_fract_x
_atom_site_fract_y
_atom_site_fract_z
Si Si1 0.674314 0.511108 0.455622
Si Si2 0.520262 0.625086 0.100914
Si Si3 0.451961 0.208010 0.684886
Si Si4 0.251580 0.467973 0.041896
Si Si5 0.423024 0.670238 0.634897
Si Si6 0.744429 0.817201 0.633465
Si Si7 0.167484 0.132083 0.806132
Si Si8 0.883413 0.952710 0.322278
O O1 0.500000 0.500000 0.500000
O O2 0.643650 0.591029 0.245560
O O3 0.665194 0.626591 0.412071
O O4 0.927887 0.303375 0.688285
O O5 0.481844 0.499346 0.252987
O O6 0.691137 0.556772 0.064104
O O7 0.271067 0.840132 0.862594
O O8 0.513941 0.237631 0.532194
O O9 0.284962 0.190377 0.688722
O O10 0.689109 0.019674 0.936680
O O11 0.450647 0.420235 0.153117
O O12 0.267178 0.317041 0.253353
O O13 0.989949 0.679267 0.844832
O O14 0.143382 0.822730 0.499247
O O15 0.770595 0.892800 0.443253
O O16 0.500000 0.000000 0.500000
O O17 0.119499 0.061501 0.792595
#
# Coordination Sequence:
#
# PCOD8032967 Si02
#       8
#     2   2   2   2   2   2   2   2
#     4  12  23  43  70  99 133 171 223 274 337 397
#     4  12  24  41  68  98 130 178 221 273 333 392
#     4  11  25  43  68  99 131 177 221 279 336 393
#     4  11  25  45  69  97 139 177 223 272 334 398
#     4  12  26  44  67  98 138 176 223 280 331 397
#     4  11  23  44  69  99 130 179 221 273 333 395
#     4  11  24  44  68  98 135 173 224 277 334 399
#     4  12  24  42  69  98 134 176 225 277 335 397
#
# _framework density 21.546437000000001
#
# number of rings (size 3 to 8) (size 9 to 14) (size 15 to 20)
#    0.000    0.500    6.250    1.500    1.750    3.500 
#    0.000    0.000    0.000    0.000    0.000    0.000 
#    0.000    0.000    0.000    0.000    0.000    0.000 
#
# Total GULP energy -198386.242624 kJ/mol
# GULP energy per Si atom -12399.140164 kJ/mol
# Density = 2.149740 g / cm^3
# Si number density = 21.546437 Si / 1000 Ang^3
#
#
#
# Elastic Constant Matrix: (Units=GPa)
#
#
# Indices 1 2 3 4 5 6 
#
# 1 61.5000 22.4801 47.6990 -6.8376 16.3108 -12.6202
# 2 22.4801 93.5584 55.4724 -12.4291 17.7431 -12.5660
# 3 47.6990 55.4724 122.7841 -35.4163 5.3546 -17.3821
# 4 -6.8376 -12.4291 -35.4163 49.8725 -6.8486 -1.3485
# 5 16.3108 17.7431 5.3546 -6.8486 47.6583 2.5958
# 6 -12.6202 -12.5660 -17.3821 -1.3485 2.5958 27.2893
#
#
#
# Elastic Compliance Matrix: (Units=1/GPa)
#
#
# Indices 1 2 3 4 5 6 
#
# 1 0.028610 0.002775 -0.012453 -0.005489 -0.010613 0.007315
# 2 0.002775 0.016456 -0.008272 -0.002200 -0.006687 0.004119
# 3 -0.012453 -0.008272 0.020241 0.011594 0.006555 0.003274
# 4 -0.005489 -0.002200 0.011594 0.027816 0.005135 0.004719
# 5 -0.010613 -0.006687 0.006555 0.005135 0.027442 -0.006168
# 6 0.007315 0.004119 0.003274 0.004719 -0.006168 0.044829
#
#
# Mechanical properties :
#
#
# Convention : Reuss Voigt Hill
#
# Bulk Modulus (GPa) = 34.00613 58.79396 46.40005
# Shear Modulus (GPa) = 23.68583 35.11009 29.39796
#
# Velocity S-wave (km/s) = 3.31915 4.04110 3.69779
# Velocity P-wave (km/s) = 5.52323 7.00859 6.30977
#
# Compressibility (1/GPa) = 0.02940646
#
# Stress axis : x y z
#
# Youngs Moduli (GPa) = 34.95321 60.76899 49.40412
#
# Poissons Ratio (x) = -0.16865 0.61522
# Poissons Ratio (y) = -0.09700 0.40869
# Poissons Ratio (z) = 0.43527 0.50271
#
# Static dielectric constant tensor:
#      x y z
#    x 4.052560 -0.026370 -0.086090 
#    y -0.026370 3.727360 -0.102910 
#    z -0.086090 -0.102910 4.190920 
# 
# 
# High freq. dielectric constant tensor:
#      x y z
#    x 1.847520 -0.006890 -0.006200 
#    y -0.006890 1.836200 -0.003630 
#    z -0.006200 -0.003630 1.868940 
# 
# From -- ./inp_files/333228.got.cif
#   From: 2010.06.25/outbox.cif.g09.slc.cpg/sg2_167_cif.got.tgz:333228.got - 2010.06.27 13:26:56.
