data_PCOD8032739
_publ_section_title
;
Structure prediction by ZEFSAII (Michael W. Deem and Ramdas Pophale) SiO2 
 PCOD8032739
Probable space group: P -1
;
_chemical_formula_sum "Si O2"
_cell_formula_units_Z 12
_cell_length_a 13.888731
_cell_length_b 6.534956
_cell_length_c 11.975900
_cell_angle_alpha 115.078336
_cell_angle_beta 31.463182
_cell_angle_gamma 111.088380
_cell_volume 513.852150
_symmetry_space_group_name_H-M "P -1"
_symmetry_group_IT_number 2
_symmetry_cell_setting 'triclinic'
loop_
_space_group_symop_operation_xyz
x,y,z
-x,-y,-z
loop_
_atom_site_type_symbol
_atom_site_label
_atom_site_fract_x
_atom_site_fract_y
_atom_site_fract_z
Si Si1 0.044567 0.426283 0.156358
Si Si2 0.296467 0.851315 0.552464
Si Si3 0.389326 0.339105 0.655641
Si Si4 0.868011 0.809018 0.543552
Si Si5 0.380713 0.833126 0.217632
Si Si6 0.750388 0.623087 0.836249
O O1 0.128493 0.325548 0.164160
O O2 0.887505 0.249508 0.229801
O O3 0.951667 0.672314 0.324307
O O4 0.204533 0.458642 0.913448
O O5 0.476778 0.720039 0.387973
O O6 0.272309 0.803127 0.434187
O O7 0.320054 0.116248 0.609946
O O8 0.500000 0.500000 0.500000
O O9 0.858662 0.633885 0.614530
O O10 0.673118 0.925124 0.728152
O O11 0.000000 0.000000 0.500000
O O12 0.332899 0.629389 0.132304
O O13 0.597503 0.823036 0.027629
#
# Coordination Sequence:
#
# PCOD8032739 Si02
#       6
#     2   2   2   2   2   2
#     4  12  24  48  75 104 147 185 236 298 352 420
#     4  11  25  49  74 101 140 187 242 296 354 414
#     4  11  28  51  72 101 137 188 247 299 354 415
#     4  12  24  39  66 111 143 181 230 277 352 431
#     4  11  23  43  71 103 145 188 226 287 352 426
#     4  11  23  44  69 103 149 186 226 282 357 425
#
# _framework density 23.353020999999998
#
# number of rings (size 3 to 8) (size 9 to 14) (size 15 to 20)
#    0.000    0.667    5.000    2.500    2.333    2.000 
#    6.000    0.000    0.000    0.000    0.000    0.000 
#    0.000    0.000    0.000    0.000    0.000    0.000 
#
# Total GULP energy -148813.114677 kJ/mol
# GULP energy per Si atom -12401.092890 kJ/mol
# Density = 2.329987 g / cm^3
# Si number density = 23.353021 Si / 1000 Ang^3
#
#
#
# Elastic Constant Matrix: (Units=GPa)
#
#
# Indices 1 2 3 4 5 6 
#
# 1 77.1869 34.0695 13.2671 6.5130 -11.5199 7.2808
# 2 34.0695 131.2675 51.1775 7.9185 -8.7688 10.0725
# 3 13.2671 51.1775 126.4977 3.2029 -4.3027 10.6909
# 4 6.5130 7.9185 3.2029 41.1556 -6.0461 -8.6948
# 5 -11.5199 -8.7688 -4.3027 -6.0461 35.1120 -6.2055
# 6 7.2808 10.0725 10.6909 -8.6948 -6.2055 37.3688
#
#
#
# Elastic Compliance Matrix: (Units=1/GPa)
#
#
# Indices 1 2 3 4 5 6 
#
# 1 0.015346 -0.003564 0.000152 -0.001626 0.003555 -0.001861
# 2 -0.003564 0.010143 -0.003576 -0.001300 0.000483 -0.001239
# 3 0.000152 -0.003576 0.009507 -0.000496 -0.000103 -0.001918
# 4 -0.001626 -0.001300 -0.000496 0.027304 0.005201 0.008026
# 5 0.003555 0.000483 -0.000103 0.005201 0.031653 0.005673
# 6 -0.001861 -0.001239 -0.001918 0.008026 0.005673 0.030815
#
#
# Mechanical properties :
#
#
# Convention : Reuss Voigt Hill
#
# Bulk Modulus (GPa) = 47.57345 59.10895 53.34120
# Shear Modulus (GPa) = 34.30548 38.48982 36.39765
#
# Velocity S-wave (km/s) = 3.83691 4.06417 3.95217
# Velocity P-wave (km/s) = 6.32809 6.88399 6.61189
#
# Compressibility (1/GPa) = 0.02102013
#
# Stress axis : x y z
#
# Youngs Moduli (GPa) = 65.16499 98.59253 105.18355
#
# Poissons Ratio (x) = 0.35135 -0.01595
# Poissons Ratio (y) = 0.23223 0.37610
# Poissons Ratio (z) = -0.00988 0.35253
#
# Static dielectric constant tensor:
#      x y z
#    x 4.264260 -0.264970 -0.205610 
#    y -0.264970 3.880550 0.264350 
#    z -0.205610 0.264350 4.269150 
# 
# 
# High freq. dielectric constant tensor:
#      x y z
#    x 1.924520 -0.000810 -0.014340 
#    y -0.000810 1.915090 0.007620 
#    z -0.014340 0.007620 1.930860 
# 
# From -- ./inp_files/61247.got.cif
#   From: 2010.06.25/outbox.cif.g09.slc.cpg/sg2_31_cif.got.tgz:61247.got - 2010.06.27 13:26:56.
