data_PCOD8032716
_publ_section_title
;
Structure prediction by ZEFSAII (Michael W. Deem and Ramdas Pophale) SiO2 
 PCOD8032716
Probable space group: P -1
;
_chemical_formula_sum "Si O2"
_cell_formula_units_Z 16
_cell_length_a 9.107746
_cell_length_b 19.711887
_cell_length_c 14.642099
_cell_angle_alpha 22.085747
_cell_angle_beta 79.533984
_cell_angle_gamma 66.140409
_cell_volume 747.812924
_symmetry_space_group_name_H-M "P -1"
_symmetry_group_IT_number 2
_symmetry_cell_setting 'triclinic'
loop_
_space_group_symop_operation_xyz
x,y,z
-x,-y,-z
loop_
_atom_site_type_symbol
_atom_site_label
_atom_site_fract_x
_atom_site_fract_y
_atom_site_fract_z
Si Si1 0.820681 0.144273 0.044690
Si Si2 0.365159 0.133009 0.034267
Si Si3 0.759493 0.155195 0.564297
Si Si4 0.808236 0.582359 0.468020
Si Si5 0.821826 0.635998 0.051671
Si Si6 0.518589 0.335181 0.997967
Si Si7 0.208963 0.183971 0.633885
Si Si8 0.801550 0.061771 0.473185
O O1 0.799208 0.032239 0.096100
O O2 0.801894 0.372356 0.745904
O O3 0.654344 0.205602 0.056432
O O4 0.028057 0.933119 0.327253
O O5 0.243987 0.043745 0.148651
O O6 0.585595 0.920102 0.304907
O O7 0.367021 0.237431 0.806981
O O8 0.254392 0.331211 0.877076
O O9 0.584145 0.391609 0.339689
O O10 0.723100 0.201344 0.402846
O O11 0.795193 0.713587 0.396209
O O12 0.000000 0.500000 0.500000
O O13 0.660242 0.666090 0.969903
O O14 0.036461 0.384625 0.337161
O O15 0.844028 0.819361 0.784457
O O16 0.640900 0.222850 0.215533
O O17 0.000000 0.000000 0.500000
#
# Coordination Sequence:
#
# PCOD8032716 Si02
#       8
#     2   2   2   2   2   2   2   2
#     4  12  25  45  71 101 138 179 230 279 332 408
#     4  11  24  45  68  97 136 180 224 279 342 397
#     4  11  23  43  70  97 134 182 223 278 343 398
#     4  12  24  45  69 101 142 176 224 287 337 398
#     4  11  24  45  67  95 138 175 220 283 334 400
#     4  12  24  45  66  99 136 175 227 279 337 401
#     4  12  25  45  71 100 135 183 230 274 342 401
#     4  11  24  42  70 100 134 175 225 279 339 405
#
# _framework density 21.395724000000001
#
# number of rings (size 3 to 8) (size 9 to 14) (size 15 to 20)
#    0.000    0.500    6.250    2.625    1.750    1.000 
#    2.250    1.250    0.000    0.000    0.000    0.000 
#    0.000    0.000    0.000    0.000    0.000    0.000 
#
# Total GULP energy -198318.730026 kJ/mol
# GULP energy per Si atom -12394.920627 kJ/mol
# Density = 2.134703 g / cm^3
# Si number density = 21.395724 Si / 1000 Ang^3
#
#
#
# Elastic Constant Matrix: (Units=GPa)
#
#
# Indices 1 2 3 4 5 6 
#
# 1 121.1851 19.8786 38.3022 -8.8276 10.8018 -4.7860
# 2 19.8786 46.8799 36.9014 -12.7740 -5.4609 1.5224
# 3 38.3022 36.9014 86.4324 -7.7724 13.3946 0.5959
# 4 -8.8276 -12.7740 -7.7724 34.1582 -0.4727 -2.3378
# 5 10.8018 -5.4609 13.3946 -0.4727 43.7946 -12.5621
# 6 -4.7860 1.5224 0.5959 -2.3378 -12.5621 37.9005
#
#
#
# Elastic Compliance Matrix: (Units=1/GPa)
#
#
# Indices 1 2 3 4 5 6 
#
# 1 0.009809 -0.001163 -0.003556 0.001346 -0.001164 0.001038
# 2 -0.001163 0.039583 -0.017196 0.010954 0.011463 0.003009
# 3 -0.003556 -0.017196 0.021629 -0.002769 -0.008829 -0.003196
# 4 0.001346 0.010954 -0.002769 0.033326 0.003056 0.002842
# 5 -0.001164 0.011463 -0.008829 0.003056 0.030061 0.009684
# 6 0.001038 0.003009 -0.003196 0.002842 0.009684 0.029830
#
#
# Mechanical properties :
#
#
# Convention : Reuss Voigt Hill
#
# Bulk Modulus (GPa) = 36.77828 49.40687 43.09258
# Shear Modulus (GPa) = 23.02740 33.79834 28.41287
#
# Velocity S-wave (km/s) = 3.28420 3.97883 3.64808
# Velocity P-wave (km/s) = 5.62211 6.65208 6.15867
#
# Compressibility (1/GPa) = 0.02718996
#
# Stress axis : x y z
#
# Youngs Moduli (GPa) = 101.94278 25.26366 46.23505
#
# Poissons Ratio (x) = 0.02938 0.16442
# Poissons Ratio (y) = 0.11854 0.79507
# Poissons Ratio (z) = 0.36253 0.43444
#
# Static dielectric constant tensor:
#      x y z
#    x 4.157470 -0.044160 0.086010 
#    y -0.044160 3.891800 -0.149560 
#    z 0.086010 -0.149560 3.906650 
# 
# 
# High freq. dielectric constant tensor:
#      x y z
#    x 1.864890 0.001650 0.007630 
#    y 0.001650 1.831850 -0.019990 
#    z 0.007630 -0.019990 1.838600 
# 
# From -- ./inp_files/187040.got.cif
#   From: 2010.06.25/outbox.cif.g09.slc.cpg/sg2_94_cif.got.tgz:187040.got - 2010.06.27 13:26:56.
