data_PCOD8032601
_publ_section_title
;
Structure prediction by ZEFSAII (Michael W. Deem and Ramdas Pophale) SiO2 
 PCOD8032601
Probable space group: P -1
;
_chemical_formula_sum "Si O2"
_cell_formula_units_Z 10
_cell_length_a 19.324113
_cell_length_b 5.195235
_cell_length_c 16.161832
_cell_angle_alpha 125.448086
_cell_angle_beta 19.421490
_cell_angle_gamma 126.007459
_cell_volume 434.468722
_symmetry_space_group_name_H-M "P -1"
_symmetry_group_IT_number 2
_symmetry_cell_setting 'triclinic'
loop_
_space_group_symop_operation_xyz
x,y,z
-x,-y,-z
loop_
_atom_site_type_symbol
_atom_site_label
_atom_site_fract_x
_atom_site_fract_y
_atom_site_fract_z
Si Si1 0.501913 0.374270 0.566574
Si Si2 0.082640 0.413710 0.139852
Si Si3 0.170434 0.771644 0.271448
Si Si4 0.602964 0.188519 0.824335
Si Si5 0.835511 0.818089 0.373073
O O1 0.500000 0.500000 0.500000
O O2 0.711047 0.537390 0.406809
O O3 0.500000 0.000000 0.500000
O O4 0.302345 0.470969 0.856238
O O5 0.112495 0.492575 0.218504
O O6 0.939178 0.645391 0.299680
O O7 0.992688 0.034587 0.172439
O O8 0.183968 0.695541 0.339555
O O9 0.000000 0.000000 0.500000
O O10 0.418367 0.909238 0.006783
O O11 0.687152 0.068639 0.620469
O O12 0.500000 0.500000 0.000000
#
# Coordination Sequence:
#
# PCOD8032601 Si02
#       5
#     2   2   2   2   2
#     4  12  28  51  77 104 143 189 245 313 368 421
#     4  12  27  46  77 107 148 191 241 298 366 439
#     4  11  23  43  67 106 146 193 237 286 363 432
#     4  11  25  40  70 104 152 195 240 294 351 444
#     4  12  27  47  73 110 145 190 247 297 364 441
#
# _framework density 23.016615000000002
#
# number of rings (size 3 to 8) (size 9 to 14) (size 15 to 20)
#    0.000    0.400    4.000    3.600    5.600    8.000 
#    0.000    0.000    0.000    0.000    0.000    0.000 
#    0.000    0.000    0.000    0.000    0.000    0.000 
#
# Total GULP energy -123908.340717 kJ/mol
# GULP energy per Si atom -12390.834072 kJ/mol
# Density = 2.296423 g / cm^3
# Si number density = 23.016615 Si / 1000 Ang^3
#
#
#
# Elastic Constant Matrix: (Units=GPa)
#
#
# Indices 1 2 3 4 5 6 
#
# 1 142.6756 58.3323 32.0484 3.1848 -10.1994 5.1685
# 2 58.3323 145.3944 19.7145 -0.5184 -8.5927 7.0035
# 3 32.0484 19.7145 69.2772 -1.0705 -5.5170 12.7214
# 4 3.1848 -0.5184 -1.0705 35.5029 1.5697 -4.7117
# 5 -10.1994 -8.5927 -5.5170 1.5697 40.9165 1.3128
# 6 5.1685 7.0035 12.7214 -4.7117 1.3128 45.6051
#
#
#
# Elastic Compliance Matrix: (Units=1/GPa)
#
#
# Indices 1 2 3 4 5 6 
#
# 1 0.009142 -0.003165 -0.003290 -0.000988 0.001201 0.000231
# 2 -0.003165 0.008330 -0.000699 0.000249 0.000880 -0.000725
# 3 -0.003290 -0.000699 0.017066 0.000163 0.001466 -0.004305
# 4 -0.000988 0.000249 0.000163 0.028727 -0.001371 0.003036
# 5 0.001201 0.000880 0.001466 -0.001371 0.025224 -0.001548
# 6 0.000231 -0.000725 -0.004305 0.003036 -0.001548 0.023572
#
#
# Mechanical properties :
#
#
# Convention : Reuss Voigt Hill
#
# Bulk Modulus (GPa) = 49.43622 64.17084 56.80353
# Shear Modulus (GPa) = 37.56201 40.88836 39.22519
#
# Velocity S-wave (km/s) = 4.04413 4.21939 4.13269
# Velocity P-wave (km/s) = 6.58268 7.18877 6.89239
#
# Compressibility (1/GPa) = 0.02022808
#
# Stress axis : x y z
#
# Youngs Moduli (GPa) = 109.39027 120.04320 58.59669
#
# Poissons Ratio (x) = 0.37995 0.19281
# Poissons Ratio (y) = 0.34624 0.04098
# Poissons Ratio (z) = 0.35994 0.08395
#
# Static dielectric constant tensor:
#      x y z
#    x 4.281560 0.292160 0.172520 
#    y 0.292160 4.462650 0.051670 
#    z 0.172520 0.051670 4.672720 
# 
# 
# High freq. dielectric constant tensor:
#      x y z
#    x 1.918390 0.010430 -0.004220 
#    y 0.010430 1.917710 -0.010910 
#    z -0.004220 -0.010910 1.927080 
# 
# From -- ./inp_files/1465.got.cif
#   From: 2010.06.25/outbox.cif.g09.slc.cpg/sg2_1_cif.got.tgz:1465.got - 2010.06.27 13:26:56.
