data_PCOD8032340
_publ_section_title
;
Structure prediction by ZEFSAII (Michael W. Deem and Ramdas Pophale) SiO2 
 PCOD8032340
Probable space group: P -1
;
_chemical_formula_sum "Si O2"
_cell_formula_units_Z 16
_cell_length_a 11.619685
_cell_length_b 11.998286
_cell_length_c 5.553509
_cell_angle_alpha 118.541085
_cell_angle_beta 79.057300
_cell_angle_gamma 93.077507
_cell_volume 667.176725
_symmetry_space_group_name_H-M "P -1"
_symmetry_group_IT_number 2
_symmetry_cell_setting 'triclinic'
loop_
_space_group_symop_operation_xyz
x,y,z
-x,-y,-z
loop_
_atom_site_type_symbol
_atom_site_label
_atom_site_fract_x
_atom_site_fract_y
_atom_site_fract_z
Si Si1 0.070025 0.263451 0.783161
Si Si2 0.794627 0.579487 0.770790
Si Si3 0.448960 0.363416 0.847073
Si Si4 0.072202 0.904204 0.035551
Si Si5 0.859023 0.299291 0.575014
Si Si6 0.643557 0.151031 0.639979
Si Si7 0.703547 0.736176 0.572007
Si Si8 0.679105 0.012257 0.968654
O O1 0.200702 0.215751 0.605609
O O2 0.010507 0.133523 0.751130
O O3 0.978360 0.328170 0.697543
O O4 0.090540 0.365960 0.092091
O O5 0.793318 0.429456 0.650401
O O6 0.789727 0.627450 0.548910
O O7 0.670738 0.645005 0.968424
O O8 0.541359 0.258518 0.797127
O O9 0.410694 0.332038 0.555643
O O10 0.500000 0.500000 0.000000
O O11 0.185974 0.974871 0.140662
O O12 0.109012 0.773450 0.755508
O O13 0.000000 0.000000 0.000000
O O14 0.768380 0.218755 0.686838
O O15 0.616360 0.066211 0.802020
O O16 0.640457 0.078051 0.306286
O O17 0.656235 0.862919 0.861376
#
# Coordination Sequence:
#
# PCOD8032340 Si02
#       8
#     2   2   2   2   2   2   2   2
#     4  11  23  42  67 103 145 187 243 294 373 435
#     4  11  25  45  69 102 144 185 249 300 376 437
#     4  11  26  49  75 103 140 190 249 309 374 433
#     4  11  24  40  70 103 147 198 239 298 363 442
#     4  11  23  42  68 104 144 190 243 302 365 436
#     4  11  26  47  76 111 144 200 247 311 362 447
#     4  11  28  45  71 106 145 195 239 312 366 443
#     4  11  26  47  74 109 155 190 254 296 376 436
#
# _framework density 23.981649000000001
#
# number of rings (size 3 to 8) (size 9 to 14) (size 15 to 20)
#    0.000    1.000    2.500    2.625    8.750    8.500 
#    0.000    0.000    0.000    0.000    0.000    0.000 
#    0.000    0.000    0.000    0.000    0.000    0.000 
#
# Total GULP energy -198257.213683 kJ/mol
# GULP energy per Si atom -12391.075855 kJ/mol
# Density = 2.392707 g / cm^3
# Si number density = 23.981649 Si / 1000 Ang^3
#
#
#
# Elastic Constant Matrix: (Units=GPa)
#
#
# Indices 1 2 3 4 5 6 
#
# 1 123.2394 18.6134 30.7062 14.7893 18.5895 -9.0246
# 2 18.6134 118.6811 39.9148 18.5637 13.1779 -25.1879
# 3 30.7062 39.9148 86.3482 14.0460 21.2133 -9.3233
# 4 14.7893 18.5637 14.0460 37.5663 -0.2641 2.4699
# 5 18.5895 13.1779 21.2133 -0.2641 42.1057 2.5640
# 6 -9.0246 -25.1879 -9.3233 2.4699 2.5640 37.6410
#
#
#
# Elastic Compliance Matrix: (Units=1/GPa)
#
#
# Indices 1 2 3 4 5 6 
#
# 1 0.009700 0.000722 -0.001976 -0.003648 -0.003707 0.002811
# 2 0.000722 0.012447 -0.003455 -0.005705 -0.003011 0.008226
# 3 -0.001976 -0.003455 0.016270 -0.003770 -0.006385 0.001927
# 4 -0.003648 -0.005705 -0.003770 0.032866 0.006001 -0.008192
# 5 -0.003707 -0.003011 -0.006385 0.006001 0.030005 -0.006922
# 6 0.002811 0.008226 0.001927 -0.008192 -0.006922 0.034232
#
#
# Mechanical properties :
#
#
# Convention : Reuss Voigt Hill
#
# Bulk Modulus (GPa) = 34.48101 56.30417 45.39259
# Shear Modulus (GPa) = 32.34092 39.39822 35.86957
#
# Velocity S-wave (km/s) = 3.67627 4.05760 3.87164
# Velocity P-wave (km/s) = 5.69467 6.74397 6.24141
#
# Compressibility (1/GPa) = 0.02900147
#
# Stress axis : x y z
#
# Youngs Moduli (GPa) = 103.08931 80.34027 61.46156
#
# Poissons Ratio (x) = -0.05800 0.12142
# Poissons Ratio (y) = -0.07443 0.21232
# Poissons Ratio (z) = 0.20365 0.27754
#
# Static dielectric constant tensor:
#      x y z
#    x 4.517820 0.047930 0.162100 
#    y 0.047930 4.234730 -0.006810 
#    z 0.162100 -0.006810 4.266780 
# 
# 
# High freq. dielectric constant tensor:
#      x y z
#    x 1.968510 0.000030 0.001970 
#    y 0.000030 1.953350 0.005020 
#    z 0.001970 0.005020 1.944850 
# 
# From -- ./inp_files/70888.got.cif
#   From: 2010.06.25/outbox.cif.g09.slc.cpg/sg2_36_cif.got.tgz:70888.got - 2010.06.27 13:26:56.
