data_PCOD8032038
_publ_section_title
;
Structure prediction by ZEFSAII (Michael W. Deem and Ramdas Pophale) SiO2 
 PCOD8032038
Probable space group: P -1
;
_chemical_formula_sum "Si O2"
_cell_formula_units_Z 16
_cell_length_a 28.126225
_cell_length_b 6.474701
_cell_length_c 12.422581
_cell_angle_alpha 133.936733
_cell_angle_beta 27.192444
_cell_angle_gamma 135.896463
_cell_volume 708.589436
_symmetry_space_group_name_H-M "P -1"
_symmetry_group_IT_number 2
_symmetry_cell_setting 'triclinic'
loop_
_space_group_symop_operation_xyz
x,y,z
-x,-y,-z
loop_
_atom_site_type_symbol
_atom_site_label
_atom_site_fract_x
_atom_site_fract_y
_atom_site_fract_z
Si Si1 0.025344 0.394359 0.022937
Si Si2 0.877553 0.479374 0.710109
Si Si3 0.385900 0.260835 0.509571
Si Si4 0.685497 0.173141 0.133230
Si Si5 0.377666 0.265879 0.288285
Si Si6 0.792476 0.026778 0.069252
Si Si7 0.526248 0.913408 0.179659
Si Si8 0.138846 0.917599 0.601435
O O1 0.914636 0.340780 0.296440
O O2 0.126025 0.635834 0.966782
O O3 0.000000 0.500000 0.000000
O O4 0.047325 0.083668 0.834691
O O5 0.835735 0.238980 0.612963
O O6 0.000000 0.500000 0.500000
O O7 0.804804 0.355394 0.916061
O O8 0.862576 0.798201 0.820556
O O9 0.388723 0.607499 0.618655
O O10 0.402050 0.155310 0.317355
O O11 0.271479 0.065542 0.722811
O O12 0.484207 0.208333 0.364380
O O13 0.703902 0.006013 0.144314
O O14 0.617791 0.936903 0.094989
O O15 0.423185 0.624907 0.309243
O O16 0.247265 0.171185 0.511847
O O17 0.425073 0.103816 0.042214
#
# Coordination Sequence:
#
# PCOD8032038 Si02
#       8
#     2   2   2   2   2   2   2   2
#     4  11  23  40  67  97 132 175 221 269 334 398
#     4  11  24  43  68  97 135 176 220 277 334 401
#     4  11  23  42  70  95 134 178 222 282 330 398
#     4  11  24  44  67  97 138 175 226 275 334 405
#     4  11  24  43  66  97 135 172 227 281 333 397
#     4  11  25  44  68 104 135 178 224 273 341 404
#     4  11  24  44  67  99 131 180 226 277 337 395
#     4  11  23  42  64  96 132 170 221 274 329 395
#
# _framework density 22.580069999999999
#
# number of rings (size 3 to 8) (size 9 to 14) (size 15 to 20)
#    0.000    1.000    1.250    5.250    0.000   11.000 
#    4.500    0.000    0.000    0.000    0.000    0.000 
#    0.000    0.000    0.000    0.000    0.000    0.000 
#
# Total GULP energy -198376.566653 kJ/mol
# GULP energy per Si atom -12398.535416 kJ/mol
# Density = 2.252868 g / cm^3
# Si number density = 22.580070 Si / 1000 Ang^3
#
#
#
# Elastic Constant Matrix: (Units=GPa)
#
#
# Indices 1 2 3 4 5 6 
#
# 1 148.0265 41.7733 49.0842 -2.5321 1.2438 -8.6446
# 2 41.7733 88.3843 38.3775 2.2902 0.9105 -3.7510
# 3 49.0842 38.3775 95.5727 2.8210 3.5686 -13.1909
# 4 -2.5321 2.2902 2.8210 42.0976 -5.4868 -1.2600
# 5 1.2438 0.9105 3.5686 -5.4868 42.5806 0.0624
# 6 -8.6446 -3.7510 -13.1909 -1.2600 0.0624 33.7784
#
#
#
# Elastic Compliance Matrix: (Units=1/GPa)
#
#
# Indices 1 2 3 4 5 6 
#
# 1 0.008659 -0.002645 -0.003329 0.000934 0.000202 0.000657
# 2 -0.002645 0.014533 -0.004581 -0.000660 0.000067 -0.000877
# 3 -0.003329 -0.004581 0.014683 -0.000957 -0.001165 0.004340
# 4 0.000934 -0.000660 -0.000957 0.024349 0.003204 0.000694
# 5 0.000202 0.000067 -0.001165 0.003204 0.023988 -0.000321
# 6 0.000657 -0.000877 0.004340 0.000694 -0.000321 0.031397
#
#
# Mechanical properties :
#
#
# Convention : Reuss Voigt Hill
#
# Bulk Modulus (GPa) = 59.65297 65.60595 62.62946
# Shear Modulus (GPa) = 34.64819 37.20789 35.92804
#
# Velocity S-wave (km/s) = 3.92147 4.06374 3.99324
# Velocity P-wave (km/s) = 6.85417 7.15098 7.00415
#
# Compressibility (1/GPa) = 0.01676362
#
# Stress axis : x y z
#
# Youngs Moduli (GPa) = 115.49272 68.80967 68.10427
#
# Poissons Ratio (x) = 0.18201 0.22673
# Poissons Ratio (y) = 0.30550 0.31200
# Poissons Ratio (z) = 0.38450 0.31523
#
# Static dielectric constant tensor:
#      x y z
#    x 4.089630 -0.113050 0.152880 
#    y -0.113050 3.639310 0.042230 
#    z 0.152880 0.042230 4.130890 
# 
# 
# High freq. dielectric constant tensor:
#      x y z
#    x 1.894010 -0.005060 0.008080 
#    y -0.005060 1.885690 -0.007250 
#    z 0.008080 -0.007250 1.903670 
# 
# From -- ./inp_files/83110.got.cif
#   From: 2010.06.25/outbox.cif.g09.slc.cpg/sg2_42_cif.got.tgz:83110.got - 2010.06.27 13:26:56.
