data_PCOD8032641
_publ_section_title
;
Structure prediction by ZEFSAII (Michael W. Deem and Ramdas Pophale) SiO2 
 PCOD8032641
Probable space group: P -1
;
_chemical_formula_sum "Si O2"
_cell_formula_units_Z 16
_cell_length_a 8.715377
_cell_length_b 10.790762
_cell_length_c 9.373959
_cell_angle_alpha 50.731351
_cell_angle_beta 73.091614
_cell_angle_gamma 88.748549
_cell_volume 637.144538
_symmetry_space_group_name_H-M "P -1"
_symmetry_group_IT_number 2
_symmetry_cell_setting 'triclinic'
loop_
_space_group_symop_operation_xyz
x,y,z
-x,-y,-z
loop_
_atom_site_type_symbol
_atom_site_label
_atom_site_fract_x
_atom_site_fract_y
_atom_site_fract_z
Si Si1 0.219187 0.724567 0.618306
Si Si2 0.339004 0.450718 0.180766
Si Si3 0.549624 0.660399 0.471364
Si Si4 0.866828 0.094619 0.241660
Si Si5 0.905419 0.132258 0.704264
Si Si6 0.176255 0.373980 0.006083
Si Si7 0.626796 0.822412 0.057892
Si Si8 0.724298 0.219474 0.937633
O O1 0.397207 0.733558 0.503456
O O2 0.217929 0.886429 0.597132
O O3 0.100420 0.731694 0.512298
O O4 0.154138 0.558298 0.846837
O O5 0.357730 0.358538 0.391482
O O6 0.265728 0.603019 0.133376
O O7 0.500000 0.500000 0.000000
O O8 0.198759 0.345597 0.190718
O O9 0.500000 0.500000 0.500000
O O10 0.655195 0.800325 0.236383
O O11 0.730230 0.100104 0.155695
O O12 0.923696 0.924191 0.325711
O O13 0.023369 0.246490 0.075040
O O14 0.886560 0.217511 0.799081
O O15 0.753720 0.975520 0.846594
O O16 0.343257 0.344253 0.905629
O O17 0.442005 0.844001 0.061458
#
# Coordination Sequence:
#
# PCOD8032641 Si02
#       8
#     2   2   2   2   2   2   2   2
#     4  12  21  40  69  92 131 174 212 264 332 380
#     4  12  20  37  67 104 131 159 210 277 337 374
#     4  12  20  37  67 104 131 159 210 277 337 374
#     4  11  26  44  65  91 136 180 219 262 321 389
#     4  11  26  44  65  91 136 180 219 262 321 389
#     4  11  23  43  69 100 131 166 218 276 325 386
#     4  11  23  43  69 100 131 166 218 276 325 386
#     4  12  21  40  69  92 131 174 212 264 332 380
#
# _framework density 25.112043
#
# number of rings (size 3 to 8) (size 9 to 14) (size 15 to 20)
#    0.000    0.500    7.500    1.500    0.000    0.000 
#    0.000    7.500    0.000    0.000    0.000    0.000 
#    0.000    0.000    0.000    0.000    0.000    0.000 
#
# Total GULP energy -198299.695476 kJ/mol
# GULP energy per Si atom -12393.730967 kJ/mol
# Density = 2.505489 g / cm^3
# Si number density = 25.112043 Si / 1000 Ang^3
#
#
#
# Elastic Constant Matrix: (Units=GPa)
#
#
# Indices 1 2 3 4 5 6 
#
# 1 45.9327 29.9345 37.6045 -8.7510 17.1997 -14.4500
# 2 29.9345 134.0079 5.9241 23.8501 -4.7007 -35.5466
# 3 37.6045 5.9241 102.5354 20.4873 26.9475 8.5211
# 4 -8.7510 23.8501 20.4873 35.4789 -7.6382 4.6074
# 5 17.1997 -4.7007 26.9475 -7.6382 40.6229 7.1411
# 6 -14.4500 -35.5466 8.5211 4.6074 7.1411 48.9100
#
#
#
# Elastic Compliance Matrix: (Units=1/GPa)
#
#
# Indices 1 2 3 4 5 6 
#
# 1 0.098893 -0.030339 -0.049521 0.072078 -0.000577 0.009089
# 2 -0.030339 0.021126 0.016775 -0.032994 -0.003282 0.007055
# 3 -0.049521 0.016775 0.040285 -0.049056 -0.012510 -0.003010
# 4 0.072078 -0.032994 -0.049056 0.101249 0.018361 -0.006356
# 5 -0.000577 -0.003282 -0.012510 0.018361 0.037566 -0.007590
# 6 0.009089 0.007055 -0.003010 -0.006356 -0.007590 0.030490
#
#
# Mechanical properties :
#
#
# Convention : Reuss Voigt Hill
#
# Bulk Modulus (GPa) = 29.29725 47.71136 38.50430
# Shear Modulus (GPa) = 10.70303 38.93657 24.81980
#
# Velocity S-wave (km/s) = 2.06673 3.94193 3.14723
# Velocity P-wave (km/s) = 4.16978 6.30548 5.34538
#
# Compressibility (1/GPa) = 0.03413290
#
# Stress axis : x y z
#
# Youngs Moduli (GPa) = 10.11199 47.33458 24.82326
#
# Poissons Ratio (x) = 1.43606 1.22928
# Poissons Ratio (y) = 0.30678 -0.41640
# Poissons Ratio (z) = 0.50076 -0.79401
#
# Static dielectric constant tensor:
#      x y z
#    x 20.171590 -1.913500 21.156410 
#    y -1.913500 5.073090 -1.653720 
#    z 21.156410 -1.653720 32.125500 
# 
# 
# High freq. dielectric constant tensor:
#      x y z
#    x 1.987560 -0.028650 0.019080 
#    y -0.028650 2.022880 0.018180 
#    z 0.019080 0.018180 1.998680 
# 
# From -- ./inp_files/184108.got.cif
#   From: 2010.06.25/outbox.cif.g09.slc.cpg/sg2_93_cif.got.tgz:184108.got - 2010.06.27 13:26:56.
