data_PCOD8032278
_publ_section_title
;
Structure prediction by ZEFSAII (Michael W. Deem and Ramdas Pophale) SiO2 
 PCOD8032278
Probable space group: P -1
;
_chemical_formula_sum "Si O2"
_cell_formula_units_Z 16
_cell_length_a 8.988458
_cell_length_b 9.614667
_cell_length_c 15.302000
_cell_angle_alpha 37.269975
_cell_angle_beta 108.730808
_cell_angle_gamma 110.290603
_cell_volume 748.745029
_symmetry_space_group_name_H-M "P -1"
_symmetry_group_IT_number 2
_symmetry_cell_setting 'triclinic'
loop_
_space_group_symop_operation_xyz
x,y,z
-x,-y,-z
loop_
_atom_site_type_symbol
_atom_site_label
_atom_site_fract_x
_atom_site_fract_y
_atom_site_fract_z
Si Si1 0.853777 0.505519 0.035475
Si Si2 0.386511 0.431817 0.170200
Si Si3 0.523100 0.929397 0.942518
Si Si4 0.200732 0.045398 0.434440
Si Si5 0.837798 0.005636 0.346551
Si Si6 0.396901 0.334741 0.631084
Si Si7 0.692968 0.422247 0.331483
Si Si8 0.136689 0.215329 0.933376
O O1 0.785101 0.241593 0.182901
O O2 0.916627 0.656080 0.055925
O O3 0.713546 0.640902 0.901310
O O4 0.000000 0.500000 0.000000
O O5 0.292601 0.298043 0.299853
O O6 0.568979 0.395999 0.238204
O O7 0.384553 0.706344 0.025074
O O8 0.494968 0.127373 0.771288
O O9 0.696931 0.876271 0.979452
O O10 0.500000 0.000000 0.000000
O O11 0.025891 0.026677 0.373214
O O12 0.224875 0.033478 0.547728
O O13 0.271995 0.832328 0.510054
O O14 0.769249 0.783075 0.385231
O O15 0.500000 0.500000 0.500000
O O16 0.371902 0.470773 0.647347
O O17 0.847681 0.597741 0.237694
O O18 0.000000 0.000000 0.000000
#
# Coordination Sequence:
#
# PCOD8032278 Si02
#       8
#     2   2   2   2   2   2   2   2
#     4  12  25  43  71 107 137 179 238 294 349 409
#     4  11  23  41  74  97 136 179 235 286 353 403
#     4  11  24  45  71 102 139 183 233 289 349 419
#     4  11  24  45  66  98 137 185 227 286 351 412
#     4  11  25  42  68  98 139 180 233 284 346 414
#     4  12  26  45  70 103 139 185 230 290 353 412
#     4  11  25  45  69 102 140 185 231 287 350 421
#     4  11  27  43  71 103 142 188 231 285 358 415
#
# _framework density 21.36909
#
# number of rings (size 3 to 8) (size 9 to 14) (size 15 to 20)
#    0.000    0.750    6.250    1.125    3.500    5.500 
#    0.000    0.000    0.000    0.000    0.000    0.000 
#    0.000    0.000    0.000    0.000    0.000    0.000 
#
# Total GULP energy -198254.901935 kJ/mol
# GULP energy per Si atom -12390.931371 kJ/mol
# Density = 2.132045 g / cm^3
# Si number density = 21.369090 Si / 1000 Ang^3
#
#
#
# Elastic Constant Matrix: (Units=GPa)
#
#
# Indices 1 2 3 4 5 6 
#
# 1 94.7006 53.4352 58.9598 -7.3998 -17.6677 -3.6409
# 2 53.4352 107.5762 42.2780 -9.7195 -9.4342 1.3819
# 3 58.9598 42.2780 160.9699 -10.9699 -18.2280 8.1801
# 4 -7.3998 -9.7195 -10.9699 29.5186 5.0797 2.1933
# 5 -17.6677 -9.4342 -18.2280 5.0797 38.5497 -8.6396
# 6 -3.6409 1.3819 8.1801 2.1933 -8.6396 33.3140
#
#
#
# Elastic Compliance Matrix: (Units=1/GPa)
#
#
# Indices 1 2 3 4 5 6 
#
# 1 0.018652 -0.007068 -0.004619 -0.000751 0.005862 0.005035
# 2 -0.007068 0.013268 -0.000756 0.002614 -0.001049 -0.001581
# 3 -0.004619 -0.000756 0.008450 0.001755 0.000919 -0.002425
# 4 -0.000751 0.002614 0.001755 0.036306 -0.004601 -0.004205
# 5 0.005862 -0.001049 0.000919 -0.004601 0.031407 0.008907
# 6 0.005035 -0.001581 -0.002425 -0.004205 0.008907 0.033816
#
#
# Mechanical properties :
#
#
# Convention : Reuss Voigt Hill
#
# Bulk Modulus (GPa) = 64.58314 74.73251 69.65783
# Shear Modulus (GPa) = 29.07896 34.18137 31.63016
#
# Velocity S-wave (km/s) = 3.69290 4.00380 3.85149
# Velocity P-wave (km/s) = 6.96216 7.51146 7.24202
#
# Compressibility (1/GPa) = 0.01548392
#
# Stress axis : x y z
#
# Youngs Moduli (GPa) = 53.61396 75.36770 118.34911
#
# Poissons Ratio (x) = 0.53270 0.54661
# Poissons Ratio (y) = 0.37895 0.08950
# Poissons Ratio (z) = 0.24762 0.05700
#
# Static dielectric constant tensor:
#      x y z
#    x 3.742820 0.238080 -0.128790 
#    y 0.238080 3.929760 -0.026690 
#    z -0.128790 -0.026690 4.204380 
# 
# 
# High freq. dielectric constant tensor:
#      x y z
#    x 1.830100 0.011430 -0.008770 
#    y 0.011430 1.839840 -0.001450 
#    z -0.008770 -0.001450 1.860810 
# 
# From -- ./inp_files/494333.got.cif
#   From: 2010.06.25/outbox.cif.g09.slc.cpg/sg2_248_cif.got.tgz:494333.got - 2010.06.27 13:26:56.
