data_PCOD8032199
_publ_section_title
;
Structure prediction by ZEFSAII (Michael W. Deem and Ramdas Pophale) SiO2 
 PCOD8032199
Probable space group: P -1
;
_chemical_formula_sum "Si O2"
_cell_formula_units_Z 16
_cell_length_a 9.280919
_cell_length_b 9.443534
_cell_length_c 21.518298
_cell_angle_alpha 152.899333
_cell_angle_beta 123.987824
_cell_angle_gamma 57.941236
_cell_volume 709.630403
_symmetry_space_group_name_H-M "P -1"
_symmetry_group_IT_number 2
_symmetry_cell_setting 'triclinic'
loop_
_space_group_symop_operation_xyz
x,y,z
-x,-y,-z
loop_
_atom_site_type_symbol
_atom_site_label
_atom_site_fract_x
_atom_site_fract_y
_atom_site_fract_z
Si Si1 0.459846 0.401028 0.519788
Si Si2 0.214254 0.879052 0.712209
Si Si3 0.547812 0.223124 0.950854
Si Si4 0.590429 0.151482 0.638202
Si Si5 0.941795 0.420707 0.326724
Si Si6 0.942278 0.120244 0.648362
Si Si7 0.398510 0.702754 0.869644
Si Si8 0.792118 0.659053 0.741649
O O1 0.500000 0.500000 0.500000
O O2 0.282863 0.577110 0.571390
O O3 0.623900 0.465825 0.626985
O O4 0.435531 0.037315 0.377835
O O5 0.080748 0.760342 0.684653
O O6 0.376006 0.034050 0.842512
O O7 0.116763 0.108318 0.727446
O O8 0.722283 0.999917 0.885429
O O9 0.500000 0.500000 0.000000
O O10 0.586368 0.386469 0.089080
O O11 0.791840 0.170387 0.682329
O O12 0.497780 0.485936 0.758037
O O13 0.500000 0.000000 0.500000
O O14 0.803482 0.294185 0.195827
O O15 0.128805 0.308836 0.296330
O O16 0.925933 0.798795 0.479548
O O17 0.935714 0.435740 0.728071
O O18 0.500000 0.000000 0.000000
#
# Coordination Sequence:
#
# PCOD8032199 Si02
#       8
#     2   2   2   2   2   2   2   2
#     4  11  23  41  69 102 141 186 238 290 362 423
#     4  11  25  46  71 105 149 184 238 306 356 429
#     4  11  28  52  71  99 145 199 248 291 358 436
#     4  12  23  44  73 106 140 193 239 296 360 431
#     4  12  24  44  74 110 146 184 242 301 369 424
#     4  12  24  43  74 111 146 179 239 308 367 423
#     4  12  25  46  74 102 145 195 241 295 359 437
#     4  11  26  45  71 103 142 186 243 299 359 429
#
# _framework density 22.546949999999999
#
# number of rings (size 3 to 8) (size 9 to 14) (size 15 to 20)
#    0.000    0.500    5.000    2.250    7.000    0.500 
#    2.250    1.250    0.000    0.000    0.000    0.000 
#    0.000    0.000    0.000    0.000    0.000    0.000 
#
# Total GULP energy -198309.710706 kJ/mol
# GULP energy per Si atom -12394.356919 kJ/mol
# Density = 2.249563 g / cm^3
# Si number density = 22.546950 Si / 1000 Ang^3
#
#
#
# Elastic Constant Matrix: (Units=GPa)
#
#
# Indices 1 2 3 4 5 6 
#
# 1 128.5942 27.0673 23.3652 10.4183 -21.1848 10.2744
# 2 27.0673 124.1698 25.9403 5.3154 -11.7932 9.1539
# 3 23.3652 25.9403 88.1843 10.7271 -23.4589 6.2722
# 4 10.4183 5.3154 10.7271 34.1348 3.3420 -0.9188
# 5 -21.1848 -11.7932 -23.4589 3.3420 30.1412 1.6445
# 6 10.2744 9.1539 6.2722 -0.9188 1.6445 42.0905
#
#
#
# Elastic Compliance Matrix: (Units=1/GPa)
#
#
# Indices 1 2 3 4 5 6 
#
# 1 0.009623 -0.001147 0.000286 -0.003608 0.007074 -0.002497
# 2 -0.001147 0.008948 -0.001742 -0.000682 0.001495 -0.001480
# 3 0.000286 -0.001742 0.016176 -0.006241 0.012951 -0.002744
# 4 -0.003608 -0.000682 -0.006241 0.033682 -0.011567 0.003146
# 5 0.007074 0.001495 0.012951 -0.011567 0.050435 -0.006205
# 6 -0.002497 -0.001480 -0.002744 0.003146 -0.006205 0.025410
#
#
# Mechanical properties :
#
#
# Convention : Reuss Voigt Hill
#
# Bulk Modulus (GPa) = 33.85192 54.85489 44.35340
# Shear Modulus (GPa) = 31.38212 38.91166 35.14689
#
# Velocity S-wave (km/s) = 3.73481 4.15879 3.95249
# Velocity P-wave (km/s) = 5.80043 6.88787 6.36740
#
# Compressibility (1/GPa) = 0.02954042
#
# Stress axis : x y z
#
# Youngs Moduli (GPa) = 103.91723 111.75967 61.81909
#
# Poissons Ratio (x) = 0.12819 -0.01768
# Poissons Ratio (y) = 0.11920 0.10770
# Poissons Ratio (z) = -0.02972 0.19471
#
# Static dielectric constant tensor:
#      x y z
#    x 4.321320 -0.059350 -0.115790 
#    y -0.059350 4.335990 -0.120870 
#    z -0.115790 -0.120870 4.218670 
# 
# 
# High freq. dielectric constant tensor:
#      x y z
#    x 1.904850 0.005180 0.000420 
#    y 0.005180 1.897520 -0.002040 
#    z 0.000420 -0.002040 1.872470 
# 
# From -- ./inp_files/185694.got.cif
#   From: 2010.06.25/outbox.cif.g09.slc.cpg/sg2_93_cif.got.tgz:185694.got - 2010.06.27 13:26:56.
