data_PCOD8032621
_publ_section_title
;
Structure prediction by ZEFSAII (Michael W. Deem and Ramdas Pophale) SiO2 
 PCOD8032621
Probable space group: P -1
;
_chemical_formula_sum "Si O2"
_cell_formula_units_Z 16
_cell_length_a 14.535249
_cell_length_b 11.821727
_cell_length_c 9.392738
_cell_angle_alpha 85.986581
_cell_angle_beta 105.457015
_cell_angle_gamma 149.443634
_cell_volume 747.763353
_symmetry_space_group_name_H-M "P -1"
_symmetry_group_IT_number 2
_symmetry_cell_setting 'triclinic'
loop_
_space_group_symop_operation_xyz
x,y,z
-x,-y,-z
loop_
_atom_site_type_symbol
_atom_site_label
_atom_site_fract_x
_atom_site_fract_y
_atom_site_fract_z
Si Si1 0.292130 0.560184 0.493443
Si Si2 0.480199 0.823152 0.277553
Si Si3 0.188135 0.184708 0.158738
Si Si4 0.198002 0.737099 0.144447
Si Si5 0.015438 0.931287 0.641326
Si Si6 0.390536 0.177788 0.175315
Si Si7 0.553694 0.698623 0.127038
Si Si8 0.193153 0.708278 0.470441
O O1 0.358551 0.614567 0.351738
O O2 0.427531 0.639617 0.657489
O O3 0.306149 0.706959 0.523162
O O4 0.071011 0.279028 0.432007
O O5 0.356872 0.803420 0.174194
O O6 0.549906 0.823522 0.171313
O O7 0.670093 0.055007 0.426309
O O8 0.234507 0.098818 0.194408
O O9 0.375230 0.443150 0.144366
O O10 0.132642 0.174859 0.290683
O O11 0.000000 0.000000 0.000000
O O12 0.140341 0.687016 0.290158
O O13 0.286493 0.950030 0.113695
O O14 0.000000 0.500000 0.000000
O O15 0.239074 0.147317 0.766401
O O16 0.000000 0.000000 0.500000
O O17 0.470963 0.319601 0.051384
O O18 0.000000 0.500000 0.500000
#
# Coordination Sequence:
#
# PCOD8032621 Si02
#       8
#     2   2   2   2   2   2   2   2
#     4  11  23  46  70 101 143 184 232 294 351 413
#     4  11  23  47  70 100 146 185 232 292 349 416
#     4  12  28  49  72 104 147 186 233 297 357 412
#     4  11  26  43  69 106 139 187 234 289 352 418
#     4  12  28  47  75 107 137 187 245 292 351 421
#     4  12  26  46  74 101 146 186 238 291 353 426
#     4  12  28  47  74 107 143 188 236 291 357 422
#     4  11  23  43  68 103 143 186 234 285 353 422
#
# _framework density 21.397144999999998
#
# number of rings (size 3 to 8) (size 9 to 14) (size 15 to 20)
#    0.000    0.500    5.000    2.625   10.500    3.500 
#    0.000    0.000    0.000    0.000    0.000    0.000 
#    0.000    0.000    0.000    0.000    0.000    0.000 
#
# Total GULP energy -198435.343600 kJ/mol
# GULP energy per Si atom -12402.208975 kJ/mol
# Density = 2.134844 g / cm^3
# Si number density = 21.397145 Si / 1000 Ang^3
#
#
#
# Elastic Constant Matrix: (Units=GPa)
#
#
# Indices 1 2 3 4 5 6 
#
# 1 112.1032 41.9949 50.1259 -2.6606 -2.0797 5.7568
# 2 41.9949 130.4102 41.6138 3.4824 8.7863 3.1510
# 3 50.1259 41.6138 108.0839 4.7825 17.8465 4.2703
# 4 -2.6606 3.4824 4.7825 42.3678 0.1607 -2.7059
# 5 -2.0797 8.7863 17.8465 0.1607 35.4579 1.5666
# 6 5.7568 3.1510 4.2703 -2.7059 1.5666 35.7819
#
#
#
# Elastic Compliance Matrix: (Units=1/GPa)
#
#
# Indices 1 2 3 4 5 6 
#
# 1 0.012534 -0.002563 -0.005541 0.001531 0.004205 -0.001198
# 2 -0.002563 0.009286 -0.002123 -0.000688 -0.001373 -0.000144
# 3 -0.005541 -0.002123 0.013845 -0.001737 -0.006741 -0.000410
# 4 0.001531 -0.000688 -0.001737 0.024063 0.000946 0.001800
# 5 0.004205 -0.001373 -0.006741 0.000946 0.032226 -0.001090
# 6 -0.001198 -0.000144 -0.000410 0.001800 -0.001090 0.028385
#
#
# Mechanical properties :
#
#
# Convention : Reuss Voigt Hill
#
# Bulk Modulus (GPa) = 65.74626 68.67405 67.21015
# Shear Modulus (GPa) = 34.27850 37.17905 35.72877
#
# Velocity S-wave (km/s) = 4.00686 4.17294 4.09074
# Velocity P-wave (km/s) = 7.22495 7.44194 7.33425
#
# Compressibility (1/GPa) = 0.01520999
#
# Stress axis : x y z
#
# Youngs Moduli (GPa) = 79.78344 107.69451 72.22650
#
# Poissons Ratio (x) = 0.27607 0.40018
# Poissons Ratio (y) = 0.20452 0.15336
# Poissons Ratio (z) = 0.44205 0.22867
#
# Static dielectric constant tensor:
#      x y z
#    x 3.188820 -0.134520 0.018410 
#    y -0.134520 3.844670 -0.064710 
#    z 0.018410 -0.064710 3.874010 
# 
# 
# High freq. dielectric constant tensor:
#      x y z
#    x 1.849080 -0.006550 -0.004420 
#    y -0.006550 1.851880 0.004310 
#    z -0.004420 0.004310 1.848640 
# 
# From -- ./inp_files/188928.got.cif
#   From: 2010.06.25/outbox.cif.g09.slc.cpg/sg2_95_cif.got.tgz:188928.got - 2010.06.27 13:26:56.
