data_PCOD8032670
_publ_section_title
;
Structure prediction by ZEFSAII (Michael W. Deem and Ramdas Pophale) SiO2 
 PCOD8032670
Probable space group: P -1
;
_chemical_formula_sum "Si O2"
_cell_formula_units_Z 12
_cell_length_a 9.793525
_cell_length_b 9.878157
_cell_length_c 9.473596
_cell_angle_alpha 44.409920
_cell_angle_beta 72.939041
_cell_angle_gamma 59.441832
_cell_volume 548.558784
_symmetry_space_group_name_H-M "P -1"
_symmetry_group_IT_number 2
_symmetry_cell_setting 'triclinic'
loop_
_space_group_symop_operation_xyz
x,y,z
-x,-y,-z
loop_
_atom_site_type_symbol
_atom_site_label
_atom_site_fract_x
_atom_site_fract_y
_atom_site_fract_z
Si Si1 0.781507 0.618820 0.624788
Si Si2 0.169024 0.807535 0.221411
Si Si3 0.457285 0.706990 0.763013
Si Si4 0.809173 0.957761 0.210448
Si Si5 0.036673 0.305515 0.241637
Si Si6 0.237330 0.814358 0.501422
O O1 0.805033 0.383631 0.751630
O O2 0.614668 0.742915 0.667643
O O3 0.797503 0.732060 0.390347
O O4 0.921848 0.613131 0.685703
O O5 0.271458 0.735475 0.386817
O O6 0.981622 0.938869 0.219078
O O7 0.229228 0.956114 0.001796
O O8 0.399244 0.689203 0.635269
O O9 0.314808 0.903702 0.735706
O O10 0.500000 0.500000 0.000000
O O11 0.883099 0.264584 0.334366
O O12 0.178692 0.073855 0.324658
O O13 0.000000 0.500000 0.000000
#
# Coordination Sequence:
#
# PCOD8032670 Si02
#       6
#     2   2   2   2   2   2
#     4  12  24  43  72  99 133 180 228 274 336 407
#     4  11  25  42  71 100 137 174 225 284 341 388
#     4  12  24  46  70  97 138 186 224 271 342 407
#     4  11  23  43  69  97 134 181 222 273 338 399
#     4  11  24  40  70 100 132 178 234 272 328 407
#     4  11  24  44  64 101 139 173 223 286 332 392
#
# _framework density 21.875502999999998
#
# number of rings (size 3 to 8) (size 9 to 14) (size 15 to 20)
#    0.000    0.667    5.000    3.000    4.667    0.667 
#    0.000    0.833    0.000    0.000    0.000    0.000 
#    0.000    0.000    0.000    0.000    0.000    0.000 
#
# Total GULP energy -148776.580295 kJ/mol
# GULP energy per Si atom -12398.048358 kJ/mol
# Density = 2.182571 g / cm^3
# Si number density = 21.875503 Si / 1000 Ang^3
#
#
#
# Elastic Constant Matrix: (Units=GPa)
#
#
# Indices 1 2 3 4 5 6 
#
# 1 62.6670 12.9810 44.6247 -3.8200 4.0535 2.5215
# 2 12.9810 73.6694 28.5036 1.1409 5.3130 2.2348
# 3 44.6247 28.5036 190.1283 -1.2889 -10.5123 8.1033
# 4 -3.8200 1.1409 -1.2889 29.8244 1.4804 -1.6659
# 5 4.0535 5.3130 -10.5123 1.4804 38.3082 8.8466
# 6 2.5215 2.2348 8.1033 -1.6659 8.8466 29.5229
#
#
#
# Elastic Compliance Matrix: (Units=1/GPa)
#
#
# Indices 1 2 3 4 5 6 
#
# 1 0.019946 -0.001526 -0.004665 0.002634 -0.003485 0.000885
# 2 -0.001526 0.014804 -0.002014 -0.000711 -0.002478 0.000265
# 3 -0.004665 -0.002014 0.006932 -0.000513 0.003238 -0.002351
# 4 0.002634 -0.000711 -0.000513 0.034126 -0.002232 0.002564
# 5 -0.003485 -0.002478 0.003238 -0.002232 0.029989 -0.009516
# 6 0.000885 0.000265 -0.002351 0.002564 -0.009516 0.037418
#
#
# Mechanical properties :
#
#
# Convention : Reuss Voigt Hill
#
# Bulk Modulus (GPa) = 39.57056 55.40924 47.48990
# Shear Modulus (GPa) = 29.75308 35.55480 32.65394
#
# Velocity S-wave (km/s) = 3.69197 4.03591 3.86776
# Velocity P-wave (km/s) = 6.02515 6.86312 6.45774
#
# Compressibility (1/GPa) = 0.02527131
#
# Stress axis : x y z
#
# Youngs Moduli (GPa) = 50.13555 67.54871 144.25114
#
# Poissons Ratio (x) = 0.10307 0.67298
# Poissons Ratio (y) = 0.07650 0.29058
# Poissons Ratio (z) = 0.23390 0.13607
#
# Static dielectric constant tensor:
#      x y z
#    x 3.959560 -0.043280 -0.076450 
#    y -0.043280 3.914450 -0.145910 
#    z -0.076450 -0.145910 4.413070 
# 
# 
# High freq. dielectric constant tensor:
#      x y z
#    x 1.844880 -0.002170 -0.006820 
#    y -0.002170 1.846300 -0.000730 
#    z -0.006820 -0.000730 1.888050 
# 
# From -- ./inp_files/156433.got.cif
#   From: 2010.06.25/outbox.cif.g09.slc.cpg/sg2_79_cif.got.tgz:156433.got - 2010.06.27 13:26:56.
