data_PCOD8032909
_publ_section_title
;
Structure prediction by ZEFSAII (Michael W. Deem and Ramdas Pophale) SiO2 
 PCOD8032909
Probable space group: P -1
;
_chemical_formula_sum "Si O2"
_cell_formula_units_Z 16
_cell_length_a 12.059218
_cell_length_b 10.560182
_cell_length_c 11.697666
_cell_angle_alpha 113.512002
_cell_angle_beta 32.701540
_cell_angle_gamma 102.383937
_cell_volume 715.551321
_symmetry_space_group_name_H-M "P -1"
_symmetry_group_IT_number 2
_symmetry_cell_setting 'triclinic'
loop_
_space_group_symop_operation_xyz
x,y,z
-x,-y,-z
loop_
_atom_site_type_symbol
_atom_site_label
_atom_site_fract_x
_atom_site_fract_y
_atom_site_fract_z
Si Si1 0.525355 0.621497 0.684734
Si Si2 0.396767 0.560111 0.229153
Si Si3 0.952965 0.754797 0.654165
Si Si4 0.189040 0.000581 0.531716
Si Si5 0.086521 0.124641 0.908052
Si Si6 0.386360 0.194265 0.842954
Si Si7 0.338550 0.130924 0.248878
Si Si8 0.834713 0.424445 0.172630
O O1 0.561503 0.563952 0.760559
O O2 0.531474 0.786416 0.751686
O O3 0.703801 0.537665 0.414884
O O4 0.299202 0.615469 0.830060
O O5 0.147572 0.616707 0.438848
O O6 0.502055 0.679009 0.235168
O O7 0.500000 0.500000 0.000000
O O8 0.797159 0.756777 0.683290
O O9 0.037589 0.895355 0.624303
O O10 0.821872 0.752622 0.881754
O O11 0.123736 0.100975 0.733168
O O12 0.164256 0.084019 0.463351
O O13 0.439344 0.927358 0.290210
O O14 0.311748 0.131896 0.769065
O O15 0.928194 0.280977 0.113277
O O16 0.000000 0.000000 0.000000
O O17 0.500000 0.000000 0.000000
O O18 0.000000 0.500000 0.000000
#
# Coordination Sequence:
#
# PCOD8032909 Si02
#       8
#     2   2   2   2   2   2   2   2
#     4  11  27  47  72 102 144 189 240 294 357 438
#     4  11  26  44  71 103 140 189 240 291 353 431
#     4  11  24  45  70 100 142 187 235 292 357 427
#     4  11  25  43  68 104 142 184 229 291 363 420
#     4  12  25  42  75 106 139 186 237 304 362 425
#     4  11  23  44  68 100 143 179 235 294 359 420
#     4  12  26  45  73 103 146 189 239 299 358 430
#     4  11  26  50  73 102 145 193 242 296 366 433
#
# _framework density 22.360379999999999
#
# number of rings (size 3 to 8) (size 9 to 14) (size 15 to 20)
#    0.000    0.750    2.500    3.750    7.000    6.000 
#    0.000    0.000    0.000    0.000    0.000    0.000 
#    0.000    0.000    0.000    0.000    0.000    0.000 
#
# Total GULP energy -198432.930337 kJ/mol
# GULP energy per Si atom -12402.058146 kJ/mol
# Density = 2.230949 g / cm^3
# Si number density = 22.360380 Si / 1000 Ang^3
#
#
#
# Elastic Constant Matrix: (Units=GPa)
#
#
# Indices 1 2 3 4 5 6 
#
# 1 100.6672 25.4700 24.7389 -2.5367 -3.1431 9.3389
# 2 25.4700 100.9542 27.1593 0.7025 -10.1227 6.9227
# 3 24.7389 27.1593 108.3492 -4.3540 0.6552 4.5843
# 4 -2.5367 0.7025 -4.3540 34.1087 0.1543 3.8264
# 5 -3.1431 -10.1227 0.6552 0.1543 42.3303 -2.9886
# 6 9.3389 6.9227 4.5843 3.8264 -2.9886 44.9192
#
#
#
# Elastic Compliance Matrix: (Units=1/GPa)
#
#
# Indices 1 2 3 4 5 6 
#
# 1 0.011145 -0.002161 -0.001892 0.000838 0.000206 -0.001849
# 2 -0.002161 0.011406 -0.002370 -0.000615 0.002546 -0.000845
# 3 -0.001892 -0.002370 0.010332 0.001283 -0.000905 -0.000465
# 4 0.000838 -0.000615 0.001283 0.029871 -0.000410 -0.002782
# 5 0.000206 0.002546 -0.000905 -0.000410 0.024356 0.001312
# 6 -0.001849 -0.000845 -0.000465 -0.002782 0.001312 0.023149
#
#
# Mechanical properties :
#
#
# Convention : Reuss Voigt Hill
#
# Bulk Modulus (GPa) = 49.90976 51.63411 50.77193
# Shear Modulus (GPa) = 38.52575 39.77847 39.15211
#
# Velocity S-wave (km/s) = 4.15534 4.22236 4.18899
# Velocity P-wave (km/s) = 6.73733 6.84931 6.79355
#
# Compressibility (1/GPa) = 0.02003616
#
# Stress axis : x y z
#
# Youngs Moduli (GPa) = 89.72994 87.67464 96.78417
#
# Poissons Ratio (x) = 0.18946 0.18314
# Poissons Ratio (y) = 0.19391 0.22938
# Poissons Ratio (z) = 0.16979 0.20779
#
# Static dielectric constant tensor:
#      x y z
#    x 4.168080 0.180380 -0.101510 
#    y 0.180380 3.946910 0.035700 
#    z -0.101510 0.035700 3.973000 
# 
# 
# High freq. dielectric constant tensor:
#      x y z
#    x 1.894980 0.006360 0.001650 
#    y 0.006360 1.892000 -0.004220 
#    z 0.001650 -0.004220 1.884340 
# 
# From -- ./inp_files/97524.got.cif
#   From: 2010.06.25/outbox.cif.g09.slc.cpg/sg2_49_cif.got.tgz:97524.got - 2010.06.27 13:26:56.
