data_PCOD8032823
_publ_section_title
;
Structure prediction by ZEFSAII (Michael W. Deem and Ramdas Pophale) SiO2 
 PCOD8032823
Probable space group: P -1
;
_chemical_formula_sum "Si O2"
_cell_formula_units_Z 14
_cell_length_a 8.501646
_cell_length_b 13.035752
_cell_length_c 16.388984
_cell_angle_alpha 25.401150
_cell_angle_beta 132.493244
_cell_angle_gamma 126.146008
_cell_volume 573.294407
_symmetry_space_group_name_H-M "P -1"
_symmetry_group_IT_number 2
_symmetry_cell_setting 'triclinic'
loop_
_space_group_symop_operation_xyz
x,y,z
-x,-y,-z
loop_
_atom_site_type_symbol
_atom_site_label
_atom_site_fract_x
_atom_site_fract_y
_atom_site_fract_z
Si Si1 0.025032 0.870439 0.403116
Si Si2 0.128868 0.337556 0.804103
Si Si3 0.479377 0.627649 0.986144
Si Si4 0.706300 0.870412 0.437911
Si Si5 0.338820 0.623425 0.417488
Si Si6 0.203458 0.321330 0.215231
Si Si7 0.721895 0.850254 0.175132
O O1 0.873147 0.797447 0.477309
O O2 0.885098 0.978253 0.200335
O O3 0.146930 0.624699 0.591048
O O4 0.185402 0.067853 0.344668
O O5 0.208314 0.161226 0.885564
O O6 0.881129 0.275896 0.776478
O O7 0.289647 0.274673 0.980485
O O8 0.296803 0.843481 0.756218
O O9 0.500000 0.500000 0.000000
O O10 0.408433 0.445912 0.162142
O O11 0.462364 0.826967 0.359443
O O12 0.772705 0.724508 0.647157
O O13 0.500000 0.500000 0.500000
O O14 0.280225 0.427512 0.603039
O O15 0.000000 0.500000 0.000000
O O16 0.500000 0.000000 0.000000
#
# Coordination Sequence:
#
# PCOD8032823 Si02
#       7
#     2   2   2   2   2   2   2
#     4  11  23  46  75 106 150 197 246 312 370 439
#     4  11  25  46  74 110 149 191 253 308 374 452
#     4  12  29  49  73 111 152 196 252 312 370 446
#     4  12  25  48  76 110 151 194 254 311 373 448
#     4  11  23  43  74 104 144 190 241 305 377 436
#     4  12  28  46  79 108 145 205 256 305 378 442
#     4  11  24  44  72 106 149 192 248 307 373 449
#
# _framework density 24.420262000000001
#
# number of rings (size 3 to 8) (size 9 to 14) (size 15 to 20)
#    0.000    0.571    4.286    4.714    4.000    5.143 
#    0.000    0.000    0.000    0.000    0.000    0.000 
#    0.000    0.000    0.000    0.000    0.000    0.000 
#
# Total GULP energy -173563.155978 kJ/mol
# GULP energy per Si atom -12397.368284 kJ/mol
# Density = 2.436468 g / cm^3
# Si number density = 24.420262 Si / 1000 Ang^3
#
#
#
# Elastic Constant Matrix: (Units=GPa)
#
#
# Indices 1 2 3 4 5 6 
#
# 1 115.9950 57.9025 36.7616 14.1890 15.5092 -9.6753
# 2 57.9025 145.1526 41.1442 21.1227 0.3542 -11.1640
# 3 36.7616 41.1442 104.3714 13.0129 8.0820 -7.7064
# 4 14.1890 21.1227 13.0129 48.9655 -1.0666 -2.2539
# 5 15.5092 0.3542 8.0820 -1.0666 42.4009 -5.0465
# 6 -9.6753 -11.1640 -7.7064 -2.2539 -5.0465 50.3496
#
#
#
# Elastic Compliance Matrix: (Units=1/GPa)
#
#
# Indices 1 2 3 4 5 6 
#
# 1 0.012000 -0.003928 -0.002171 -0.001261 -0.003896 0.000656
# 2 -0.003928 0.009473 -0.002126 -0.002292 0.001836 0.001102
# 3 -0.002171 -0.002126 0.011526 -0.001515 -0.001343 0.000673
# 4 -0.001261 -0.002292 -0.001515 0.022216 0.001345 0.000147
# 5 -0.003896 0.001836 -0.001343 0.001345 0.025531 0.002072
# 6 0.000656 0.001102 0.000673 0.000147 0.002072 0.020549
#
#
# Mechanical properties :
#
#
# Convention : Reuss Voigt Hill
#
# Bulk Modulus (GPa) = 60.42425 70.79286 65.60855
# Shear Modulus (GPa) = 40.56490 43.65723 42.11107
#
# Velocity S-wave (km/s) = 4.08010 4.23276 4.15713
# Velocity P-wave (km/s) = 6.85518 7.27604 7.06874
#
# Compressibility (1/GPa) = 0.01654965
#
# Stress axis : x y z
#
# Youngs Moduli (GPa) = 83.33546 105.56737 86.75745
#
# Poissons Ratio (x) = 0.41468 0.18833
# Poissons Ratio (y) = 0.32735 0.18442
# Poissons Ratio (z) = 0.18090 0.22440
#
# Static dielectric constant tensor:
#      x y z
#    x 4.205580 0.177010 0.033860 
#    y 0.177010 4.737600 0.012110 
#    z 0.033860 0.012110 4.780690 
# 
# 
# High freq. dielectric constant tensor:
#      x y z
#    x 1.960500 0.001790 0.013870 
#    y 0.001790 1.989280 -0.000730 
#    z 0.013870 -0.000730 1.974500 
# 
# From -- ./inp_files/499806.got.cif
#   From: 2010.06.25/outbox.cif.g09.slc.cpg/sg2_250_cif.got.tgz:499806.got - 2010.06.27 13:26:56.
