data_PCOD8032448
_publ_section_title
;
Structure prediction by ZEFSAII (Michael W. Deem and Ramdas Pophale) SiO2 
 PCOD8032448
Probable space group: P -1
;
_chemical_formula_sum "Si O2"
_cell_formula_units_Z 16
_cell_length_a 14.669157
_cell_length_b 9.120744
_cell_length_c 14.853113
_cell_angle_alpha 81.791741
_cell_angle_beta 150.675005
_cell_angle_gamma 78.044906
_cell_volume 702.615365
_symmetry_space_group_name_H-M "P -1"
_symmetry_group_IT_number 2
_symmetry_cell_setting 'triclinic'
loop_
_space_group_symop_operation_xyz
x,y,z
-x,-y,-z
loop_
_atom_site_type_symbol
_atom_site_label
_atom_site_fract_x
_atom_site_fract_y
_atom_site_fract_z
Si Si1 0.250129 0.531226 0.298973
Si Si2 0.661821 0.119156 0.442915
Si Si3 0.031734 0.350592 0.612454
Si Si4 0.787075 0.059059 0.245104
Si Si5 0.711379 0.789482 0.748124
Si Si6 0.610285 0.658933 0.984955
Si Si7 0.674217 0.440400 0.444123
Si Si8 0.815633 0.266026 0.101472
O O1 0.500000 0.500000 0.500000
O O2 0.265773 0.361499 0.285087
O O3 0.228010 0.520455 0.389083
O O4 0.976428 0.735069 0.002686
O O5 0.402255 0.200009 0.255063
O O6 0.608235 0.177349 0.286940
O O7 0.739189 0.234833 0.542878
O O8 0.894874 0.875161 0.674858
O O9 0.000000 0.500000 0.500000
O O10 0.773228 0.432417 0.429930
O O11 0.190308 0.131470 0.722172
O O12 0.174121 0.333281 0.825449
O O13 0.516372 0.266621 0.031156
O O14 0.812592 0.108409 0.161943
O O15 0.000000 0.000000 0.500000
O O16 0.500000 0.000000 0.500000
O O17 0.744964 0.430000 0.099244
O O18 0.367875 0.626229 0.152733
#
# Coordination Sequence:
#
# PCOD8032448 Si02
#       8
#     2   2   2   2   2   2   2   2
#     4  11  25  49  77 106 152 186 235 305 365 435
#     4  11  23  45  69  99 140 182 238 293 354 432
#     4  12  25  42  65 101 142 181 235 293 357 421
#     4  12  21  43  65  94 135 184 233 293 350 423
#     4  11  27  46  75 111 143 189 242 297 367 437
#     4  11  24  40  66  95 136 178 231 294 355 418
#     4  11  24  45  70 101 138 191 236 288 365 430
#     4  11  23  42  70  96 133 188 238 288 355 424
#
# _framework density 22.772061000000001
#
# number of rings (size 3 to 8) (size 9 to 14) (size 15 to 20)
#    0.000    0.750    3.750    3.750    1.750    3.500 
#    2.250    0.000    0.000    0.000    0.000    0.000 
#    0.000    0.000    0.000    0.000    0.000    0.000 
#
# Total GULP energy -198281.632988 kJ/mol
# GULP energy per Si atom -12392.602062 kJ/mol
# Density = 2.272023 g / cm^3
# Si number density = 22.772061 Si / 1000 Ang^3
#
#
#
# Elastic Constant Matrix: (Units=GPa)
#
#
# Indices 1 2 3 4 5 6 
#
# 1 90.9145 32.1931 33.9253 0.3860 8.0436 -9.7109
# 2 32.1931 125.6228 70.1193 -2.0441 -3.0897 -5.2683
# 3 33.9253 70.1193 151.8591 -2.2019 8.1232 -9.4346
# 4 0.3860 -2.0441 -2.2019 40.8346 -2.3760 2.2962
# 5 8.0436 -3.0897 8.1232 -2.3760 35.1142 2.2624
# 6 -9.7109 -5.2683 -9.4346 2.2962 2.2624 30.9856
#
#
#
# Elastic Compliance Matrix: (Units=1/GPa)
#
#
# Indices 1 2 3 4 5 6 
#
# 1 0.013067 -0.002522 -0.001376 -0.000707 -0.003172 0.003531
# 2 -0.002522 0.011375 -0.004866 0.000525 0.002777 -0.000580
# 3 -0.001376 -0.004866 0.009378 0.000036 -0.002394 0.001769
# 4 -0.000707 0.000525 0.000036 0.024759 0.002011 -0.002103
# 5 -0.003172 0.002777 -0.002394 0.002011 0.030372 -0.003617
# 6 0.003531 -0.000580 0.001769 -0.002103 -0.003617 0.034240
#
#
# Mechanical properties :
#
#
# Convention : Reuss Voigt Hill
#
# Bulk Modulus (GPa) = 61.37948 71.20797 66.29373
# Shear Modulus (GPa) = 34.21163 36.86413 35.53788
#
# Velocity S-wave (km/s) = 3.88022 4.02784 3.95472
# Velocity P-wave (km/s) = 6.86201 7.27798 7.07306
#
# Compressibility (1/GPa) = 0.01629209
#
# Stress axis : x y z
#
# Youngs Moduli (GPa) = 76.53077 87.91028 106.63664
#
# Poissons Ratio (x) = 0.22172 0.14670
# Poissons Ratio (y) = 0.19302 0.51888
# Poissons Ratio (z) = 0.10528 0.42776
#
# Static dielectric constant tensor:
#      x y z
#    x 4.964890 -0.428230 1.124860 
#    y -0.428230 4.253270 -0.286650 
#    z 1.124860 -0.286650 5.299500 
# 
# 
# High freq. dielectric constant tensor:
#      x y z
#    x 1.895510 -0.012930 0.009890 
#    y -0.012930 1.891800 0.000750 
#    z 0.009890 0.000750 1.913120 
# 
# From -- ./inp_files/55522.got.cif
#   From: 2010.06.25/outbox.cif.g09.slc.cpg/sg2_28_cif.got.tgz:55522.got - 2010.06.27 13:26:56.
