data_PCOD8032131
_publ_section_title
;
Structure prediction by ZEFSAII (Michael W. Deem and Ramdas Pophale) SiO2 
 PCOD8032131
Probable space group: P -1
;
_chemical_formula_sum "Si O2"
_cell_formula_units_Z 16
_cell_length_a 14.154498
_cell_length_b 16.160697
_cell_length_c 14.114544
_cell_angle_alpha 138.492374
_cell_angle_beta 148.331827
_cell_angle_gamma 28.450157
_cell_volume 807.504869
_symmetry_space_group_name_H-M "P -1"
_symmetry_group_IT_number 2
_symmetry_cell_setting 'triclinic'
loop_
_space_group_symop_operation_xyz
x,y,z
-x,-y,-z
loop_
_atom_site_type_symbol
_atom_site_label
_atom_site_fract_x
_atom_site_fract_y
_atom_site_fract_z
Si Si1 0.260769 0.796353 0.944050
Si Si2 0.845798 0.205082 0.939751
Si Si3 0.486959 0.697812 0.434276
Si Si4 0.996089 0.995818 0.604911
Si Si5 0.265419 0.300893 0.815188
Si Si6 0.863636 0.311346 0.428682
Si Si7 0.604109 0.998723 0.989642
Si Si8 0.120223 0.306587 0.178785
O O1 0.211199 0.710197 0.754097
O O2 0.268245 0.732231 0.999120
O O3 0.520881 0.741629 0.103295
O O4 0.039504 0.000467 0.918141
O O5 0.621115 0.285288 0.745453
O O6 0.982575 0.268886 0.090805
O O7 0.631515 0.506983 0.435103
O O8 0.682346 0.717650 0.605452
O O9 0.280014 0.838018 0.453317
O O10 0.081040 0.817659 0.555187
O O11 0.182619 0.002318 0.817265
O O12 0.000000 0.000000 0.500000
O O13 0.376439 0.171711 0.887612
O O14 0.109535 0.279410 0.598481
O O15 0.085206 0.497420 0.869428
O O16 0.726855 0.823630 0.889963
O O17 0.500000 0.000000 0.000000
#
# Coordination Sequence:
#
# PCOD8032131 Si02
#       8
#     2   2   2   2   2   2   2   2
#     4  11  23  41  67  96 129 173 214 259 321 378
#     4  11  23  41  67  96 129 173 214 259 321 378
#     4  11  23  41  65  93 128 167 211 262 315 374
#     4  12  24  42  66  92 127 167 210 264 320 373
#     4  11  23  41  65  93 128 167 211 262 315 374
#     4  11  23  41  65  93 128 167 211 262 315 374
#     4  12  24  42  66  92 127 167 210 264 320 373
#     4  11  23  41  65  93 128 167 211 262 315 374
#
# _framework density 19.814121
#
# number of rings (size 3 to 8) (size 9 to 14) (size 15 to 20)
#    0.000    0.750    5.000    3.000    0.000    4.000 
#    0.000    5.000    0.000    0.000    0.000    0.000 
#    0.000    0.000    0.000    0.000    0.000    0.000 
#
# Total GULP energy -198448.434797 kJ/mol
# GULP energy per Si atom -12403.027175 kJ/mol
# Density = 1.976902 g / cm^3
# Si number density = 19.814121 Si / 1000 Ang^3
#
#
#
# Elastic Constant Matrix: (Units=GPa)
#
#
# Indices 1 2 3 4 5 6 
#
# 1 124.3165 53.2494 46.0623 -4.2906 -2.1753 18.4284
# 2 53.2494 115.0490 12.1204 -0.1272 2.2163 6.3716
# 3 46.0623 12.1204 109.6198 -2.2099 16.8203 14.5864
# 4 -4.2906 -0.1272 -2.2099 30.8512 -0.2335 7.3139
# 5 -2.1753 2.2163 16.8203 -0.2335 30.4138 -1.1756
# 6 18.4284 6.3716 14.5864 7.3139 -1.1756 8.3193
#
#
#
# Elastic Compliance Matrix: (Units=1/GPa)
#
#
# Indices 1 2 3 4 5 6 
#
# 1 0.018047 -0.005716 -0.000555 0.013450 0.000324 -0.046403
# 2 -0.005716 0.011060 0.000872 -0.001613 -0.001560 0.003859
# 3 -0.000555 0.000872 0.016103 0.009992 -0.010398 -0.037926
# 4 0.013450 -0.001613 0.009992 0.058263 -0.007803 -0.098402
# 5 0.000324 -0.001560 -0.010398 -0.007803 0.039914 0.031210
# 6 -0.046403 0.003859 -0.037926 -0.098402 0.031210 0.377454
#
#
# Mechanical properties :
#
#
# Convention : Reuss Voigt Hill
#
# Bulk Modulus (GPa) = 29.05933 63.53883 46.29908
# Shear Modulus (GPa) = 9.20628 29.75374 19.48001
#
# Velocity S-wave (km/s) = 2.15787 3.87931 3.13890
# Velocity P-wave (km/s) = 4.57235 7.22513 6.04602
#
# Compressibility (1/GPa) = 0.03441236
#
# Stress axis : x y z
#
# Youngs Moduli (GPa) = 55.41239 90.41541 62.10092
#
# Poissons Ratio (x) = 0.51678 0.03447
# Poissons Ratio (y) = 0.31672 -0.05417
# Poissons Ratio (z) = 0.03076 -0.07887
#
# Static dielectric constant tensor:
#      x y z
#    x 3.451440 -0.082630 0.121820 
#    y -0.082630 4.029770 0.041920 
#    z 0.121820 0.041920 4.047230 
# 
# 
# High freq. dielectric constant tensor:
#      x y z
#    x 1.757240 -0.003840 0.011920 
#    y -0.003840 1.795270 0.001010 
#    z 0.011920 0.001010 1.794930 
# 
# From -- ./inp_files/533660.got.cif
#   From: 2010.06.25/outbox.cif.g09.slc.cpg/sg2_267_cif.got.tgz:533660.got - 2010.06.27 13:26:56.
