data_PCOD8032794
_publ_section_title
;
Structure prediction by ZEFSAII (Michael W. Deem and Ramdas Pophale) SiO2 
 PCOD8032794
Probable space group: P -1
;
_chemical_formula_sum "Si O2"
_cell_formula_units_Z 16
_cell_length_a 17.751180
_cell_length_b 11.168265
_cell_length_c 9.293283
_cell_angle_alpha 58.114425
_cell_angle_beta 31.539946
_cell_angle_gamma 50.089714
_cell_volume 738.445104
_symmetry_space_group_name_H-M "P -1"
_symmetry_group_IT_number 2
_symmetry_cell_setting 'triclinic'
loop_
_space_group_symop_operation_xyz
x,y,z
-x,-y,-z
loop_
_atom_site_type_symbol
_atom_site_label
_atom_site_fract_x
_atom_site_fract_y
_atom_site_fract_z
Si Si1 0.526746 0.842837 0.480764
Si Si2 0.089233 0.631166 0.928410
Si Si3 0.391448 0.621401 0.982581
Si Si4 0.956701 0.878263 0.227396
Si Si5 0.888736 0.690877 0.953610
Si Si6 0.407975 0.928080 0.295271
Si Si7 0.961377 0.152796 0.560372
Si Si8 0.560510 0.407535 0.605418
O O1 0.437650 0.759438 0.768223
O O2 0.475174 0.880717 0.375616
O O3 0.500000 0.000000 0.500000
O O4 0.711318 0.730996 0.262822
O O5 0.274816 0.584650 0.624184
O O6 0.984883 0.730985 0.900063
O O7 0.040563 0.487317 0.101371
O O8 0.038568 0.715504 0.111554
O O9 0.413271 0.506880 0.886207
O O10 0.500000 0.500000 0.000000
O O11 0.212672 0.708571 0.280073
O O12 0.031545 0.872284 0.265387
O O13 0.768636 0.934612 0.500178
O O14 0.000000 0.000000 0.000000
O O15 0.901638 0.791158 0.734720
O O16 0.411454 0.771371 0.320012
O O17 0.500000 0.000000 0.000000
O O18 0.000000 0.000000 0.500000
O O19 0.500000 0.500000 0.500000
#
# Coordination Sequence:
#
# PCOD8032794 Si02
#       8
#     2   2   2   2   2   2   2   2
#     4  12  25  47  69 104 144 184 237 295 357 428
#     4  11  23  43  73 100 135 188 233 286 358 425
#     4  12  27  43  75 107 136 190 241 291 360 423
#     4  12  24  43  72  99 141 188 236 285 361 425
#     4  11  24  44  71  98 142 182 231 290 352 419
#     4  12  27  44  73 107 140 189 238 296 357 424
#     4  12  27  45  69 106 144 185 238 297 355 428
#     4  12  23  47  72  99 147 183 239 298 358 424
#
# _framework density 21.667149999999999
#
# number of rings (size 3 to 8) (size 9 to 14) (size 15 to 20)
#    0.000    0.250    3.750    5.250    5.250    1.500 
#    0.000    0.000    0.000    0.000    0.000    0.000 
#    0.000    0.000    0.000    0.000    0.000    0.000 
#
# Total GULP energy -198349.626365 kJ/mol
# GULP energy per Si atom -12396.851648 kJ/mol
# Density = 2.161783 g / cm^3
# Si number density = 21.667150 Si / 1000 Ang^3
#
#
#
# Elastic Constant Matrix: (Units=GPa)
#
#
# Indices 1 2 3 4 5 6 
#
# 1 131.3195 44.4582 24.8511 5.1118 10.6711 2.6750
# 2 44.4582 110.2171 35.0489 0.6266 13.4278 16.0627
# 3 24.8511 35.0489 98.3319 0.9431 -1.4655 6.0701
# 4 5.1118 0.6266 0.9431 58.8379 -2.6011 3.8233
# 5 10.6711 13.4278 -1.4655 -2.6011 43.4687 7.7076
# 6 2.6750 16.0627 6.0701 3.8233 7.7076 48.5910
#
#
#
# Elastic Compliance Matrix: (Units=1/GPa)
#
#
# Indices 1 2 3 4 5 6 
#
# 1 0.009076 -0.003235 -0.001218 -0.000868 -0.001504 0.001029
# 2 -0.003235 0.012207 -0.003385 0.000292 -0.002531 -0.003056
# 3 -0.001218 -0.003385 0.011747 0.000073 0.001848 -0.000580
# 4 -0.000868 0.000292 0.000073 0.017238 0.001448 -0.001644
# 5 -0.001504 -0.002531 0.001848 0.001448 0.024904 -0.003376
# 6 0.001029 -0.003056 -0.000580 -0.001644 -0.003376 0.022271
#
#
# Mechanical properties :
#
#
# Convention : Reuss Voigt Hill
#
# Bulk Modulus (GPa) = 57.63015 60.95386 59.29201
# Shear Modulus (GPa) = 42.05127 45.88021 43.96574
#
# Velocity S-wave (km/s) = 4.41021 4.60662 4.50949
# Velocity P-wave (km/s) = 7.25183 7.51583 7.38501
#
# Compressibility (1/GPa) = 0.01735203
#
# Stress axis : x y z
#
# Youngs Moduli (GPa) = 110.18181 81.92334 85.13021
#
# Poissons Ratio (x) = 0.26505 0.10370
# Poissons Ratio (y) = 0.35648 0.28817
# Poissons Ratio (z) = 0.13422 0.27732
#
# Static dielectric constant tensor:
#      x y z
#    x 4.113620 -0.096740 -0.020950 
#    y -0.096740 3.815050 0.047290 
#    z -0.020950 0.047290 3.903580 
# 
# 
# High freq. dielectric constant tensor:
#      x y z
#    x 1.860950 -0.000130 0.003050 
#    y -0.000130 1.868980 0.003400 
#    z 0.003050 0.003400 1.860480 
# 
# From -- ./inp_files/333005.got.cif
#   From: 2010.06.25/outbox.cif.g09.slc.cpg/sg2_167_cif.got.tgz:333005.got - 2010.06.27 13:26:56.
