data_PCOD8032280
_publ_section_title
;
Structure prediction by ZEFSAII (Michael W. Deem and Ramdas Pophale) SiO2 
 PCOD8032280
Probable space group: P -1
;
_chemical_formula_sum "Si O2"
_cell_formula_units_Z 14
_cell_length_a 16.770225
_cell_length_b 5.123287
_cell_length_c 11.930859
_cell_angle_alpha 126.668831
_cell_angle_beta 50.141546
_cell_angle_gamma 116.766892
_cell_volume 627.342313
_symmetry_space_group_name_H-M "P -1"
_symmetry_group_IT_number 2
_symmetry_cell_setting 'triclinic'
loop_
_space_group_symop_operation_xyz
x,y,z
-x,-y,-z
loop_
_atom_site_type_symbol
_atom_site_label
_atom_site_fract_x
_atom_site_fract_y
_atom_site_fract_z
Si Si1 0.241545 0.699003 0.397805
Si Si2 0.830535 0.612079 0.383858
Si Si3 0.516403 0.211594 0.826195
Si Si4 0.216713 0.353317 0.108832
Si Si5 0.236643 0.630592 0.848053
Si Si6 0.394590 0.558752 0.856963
Si Si7 0.043961 0.358496 0.090441
O O1 0.209817 0.557032 0.509815
O O2 0.363685 0.815343 0.313958
O O3 0.206685 0.418059 0.266021
O O4 0.179045 0.005088 0.506785
O O5 0.759911 0.427441 0.302353
O O6 0.952361 0.584443 0.247892
O O7 0.461505 0.279439 0.773916
O O8 0.471041 0.880789 0.843694
O O9 0.500000 0.500000 0.000000
O O10 0.104555 0.354873 0.152641
O O11 0.304887 0.627025 0.047304
O O12 0.262198 0.009460 0.956112
O O13 0.327100 0.439382 0.775733
O O14 0.120590 0.502222 0.960465
O O15 0.000000 0.000000 0.000000
#
# Coordination Sequence:
#
# PCOD8032280 Si02
#       7
#     2   2   2   2   2   2   2
#     4  12  29  45  68 110 148 183 228 302 370 402
#     4  12  28  47  69 104 155 182 227 303 363 407
#     4  12  23  43  74 100 143 189 239 283 355 430
#     4  11  25  44  76 106 139 184 248 287 343 435
#     4  11  24  47  77 103 138 192 250 281 343 435
#     4  11  23  41  75 104 129 181 253 292 324 411
#     4  11  24  45  79 105 135 195 248 279 344 435
#
# _framework density 22.316365000000001
#
# number of rings (size 3 to 8) (size 9 to 14) (size 15 to 20)
#    0.000    0.571    4.286    2.571   10.000    1.143 
#    0.000    4.286    0.000    0.000    0.000    0.000 
#    0.000    0.000    0.000    0.000    0.000    0.000 
#
# Total GULP energy -173621.710782 kJ/mol
# GULP energy per Si atom -12401.550770 kJ/mol
# Density = 2.226557 g / cm^3
# Si number density = 22.316365 Si / 1000 Ang^3
#
#
#
# Elastic Constant Matrix: (Units=GPa)
#
#
# Indices 1 2 3 4 5 6 
#
# 1 160.1661 34.0587 56.4894 -6.2606 10.1835 -8.4664
# 2 34.0587 124.5777 33.3756 -14.0410 13.9286 -5.8092
# 3 56.4894 33.3756 88.9313 1.0185 35.4539 -3.3724
# 4 -6.2606 -14.0410 1.0185 37.1273 -5.7679 -3.1558
# 5 10.1835 13.9286 35.4539 -5.7679 57.9614 -7.1011
# 6 -8.4664 -5.8092 -3.3724 -3.1558 -7.1011 40.0375
#
#
#
# Elastic Compliance Matrix: (Units=1/GPa)
#
#
# Indices 1 2 3 4 5 6 
#
# 1 0.008616 -0.000673 -0.006352 0.001992 0.002961 0.001871
# 2 -0.000673 0.009537 -0.003295 0.003755 0.000378 0.001327
# 3 -0.006352 -0.003295 0.021209 -0.004958 -0.011869 -0.002531
# 4 0.001992 0.003755 -0.004958 0.029966 0.005233 0.003838
# 5 0.002961 0.000378 -0.011869 0.005233 0.024976 0.004524
# 6 0.001871 0.001327 -0.002531 0.003838 0.004524 0.026457
#
#
# Mechanical properties :
#
#
# Convention : Reuss Voigt Hill
#
# Bulk Modulus (GPa) = 53.41872 69.05807 61.23839
# Shear Modulus (GPa) = 33.86603 43.67533 38.77068
#
# Velocity S-wave (km/s) = 3.89979 4.42871 4.17264
# Velocity P-wave (km/s) = 6.65333 7.56066 7.12146
#
# Compressibility (1/GPa) = 0.01872003
#
# Stress axis : x y z
#
# Youngs Moduli (GPa) = 116.06890 104.85804 47.15021
#
# Poissons Ratio (x) = 0.07056 0.29952
# Poissons Ratio (y) = 0.07810 0.15537
# Poissons Ratio (z) = 0.73732 0.34553
#
# Static dielectric constant tensor:
#      x y z
#    x 4.620040 -0.041480 -0.019370 
#    y -0.041480 4.196070 -0.270490 
#    z -0.019370 -0.270490 3.928630 
# 
# 
# High freq. dielectric constant tensor:
#      x y z
#    x 1.909640 -0.004560 0.001350 
#    y -0.004560 1.886720 -0.015360 
#    z 0.001350 -0.015360 1.855220 
# 
# From -- ./inp_files/291344.got.cif
#   From: 2010.06.25/outbox.cif.g09.slc.cpg/sg2_146_cif.got.tgz:291344.got - 2010.06.27 13:26:56.
