data_PCOD8032009
_publ_section_title
;
Structure prediction by ZEFSAII (Michael W. Deem and Ramdas Pophale) SiO2 
 PCOD8032009
Probable space group: P -1
;
_chemical_formula_sum "Si O2"
_cell_formula_units_Z 16
_cell_length_a 11.617584
_cell_length_b 12.587980
_cell_length_c 6.453809
_cell_angle_alpha 52.091709
_cell_angle_beta 84.131876
_cell_angle_gamma 79.986056
_cell_volume 733.309875
_symmetry_space_group_name_H-M "P -1"
_symmetry_group_IT_number 2
_symmetry_cell_setting 'triclinic'
loop_
_space_group_symop_operation_xyz
x,y,z
-x,-y,-z
loop_
_atom_site_type_symbol
_atom_site_label
_atom_site_fract_x
_atom_site_fract_y
_atom_site_fract_z
Si Si1 0.674847 0.006364 0.507970
Si Si2 0.557022 0.415281 0.893368
Si Si3 0.005183 0.659693 0.783876
Si Si4 0.987085 0.162305 0.838019
Si Si5 0.385421 0.352782 0.674131
Si Si6 0.813783 0.769891 0.986291
Si Si7 0.460616 0.095171 0.702031
Si Si8 0.199143 0.765145 0.885341
O O1 0.563738 0.102558 0.508533
O O2 0.788329 0.084224 0.380968
O O3 0.706617 0.885204 0.810776
O O4 0.646600 0.955445 0.343270
O O5 0.461704 0.335050 0.893976
O O6 0.606808 0.504071 0.601288
O O7 0.500000 0.500000 0.000000
O O8 0.669036 0.309599 0.057485
O O9 0.120518 0.686909 0.847999
O O10 0.010468 0.732703 0.476145
O O11 0.882974 0.727738 0.816516
O O12 0.000000 0.500000 0.000000
O O13 0.099082 0.178641 0.931467
O O14 0.862907 0.216031 0.902925
O O15 0.000000 0.000000 0.000000
O O16 0.425563 0.244541 0.617984
O O17 0.249371 0.350467 0.760520
O O18 0.500000 0.000000 0.000000
#
# Coordination Sequence:
#
# PCOD8032009 Si02
#       8
#     2   2   2   2   2   2   2   2
#     4  11  24  41  69 102 141 180 223 286 346 413
#     4  11  27  45  68  97 141 182 228 281 346 412
#     4  11  28  45  71 100 135 181 235 287 346 406
#     4  11  26  47  72 101 138 180 231 290 349 409
#     4  11  26  42  67 102 135 181 231 275 343 419
#     4  11  26  42  70 102 134 178 231 279 347 411
#     4  11  23  40  65 105 141 179 227 277 345 415
#     4  11  26  44  70  99 136 176 233 277 349 412
#
# _framework density 21.818878999999999
#
# number of rings (size 3 to 8) (size 9 to 14) (size 15 to 20)
#    0.000    1.000    1.250    3.000   12.250    7.000 
#    0.000    0.000    0.000    0.000    0.000    0.000 
#    0.000    0.000    0.000    0.000    0.000    0.000 
#
# Total GULP energy -198331.610657 kJ/mol
# GULP energy per Si atom -12395.725666 kJ/mol
# Density = 2.176922 g / cm^3
# Si number density = 21.818879 Si / 1000 Ang^3
#
#
#
# Elastic Constant Matrix: (Units=GPa)
#
#
# Indices 1 2 3 4 5 6 
#
# 1 118.6956 54.8806 36.0388 5.1766 -21.9543 1.5958
# 2 54.8806 117.9781 45.7436 12.8759 -4.5320 16.2242
# 3 36.0388 45.7436 124.3805 -0.6061 -12.7016 1.7497
# 4 5.1766 12.8759 -0.6061 38.5942 -0.1174 -7.3126
# 5 -21.9543 -4.5320 -12.7016 -0.1174 33.3812 -10.6238
# 6 1.5958 16.2242 1.7497 -7.3126 -10.6238 29.6236
#
#
#
# Elastic Compliance Matrix: (Units=1/GPa)
#
#
# Indices 1 2 3 4 5 6 
#
# 1 0.013398 -0.006862 -0.000430 0.001861 0.009983 0.007102
# 2 -0.006862 0.015497 -0.004391 -0.006692 -0.008049 -0.012397
# 3 -0.000430 -0.004391 0.010170 0.002445 0.004260 0.003959
# 4 0.001861 -0.006692 0.002445 0.030388 0.005451 0.012877
# 5 0.009983 -0.008049 0.004260 0.005451 0.043630 0.020611
# 6 0.007102 -0.012397 0.003959 0.012877 0.020611 0.050500
#
#
# Mechanical properties :
#
#
# Convention : Reuss Voigt Hill
#
# Bulk Modulus (GPa) = 63.69683 70.48667 67.09175
# Shear Modulus (GPa) = 26.01695 35.27921 30.64808
#
# Velocity S-wave (km/s) = 3.45687 4.02545 3.75194
# Velocity P-wave (km/s) = 6.72236 7.34718 7.04170
#
# Compressibility (1/GPa) = 0.01569937
#
# Stress axis : x y z
#
# Youngs Moduli (GPa) = 74.63776 64.52975 98.32360
#
# Poissons Ratio (x) = 0.44281 0.04225
# Poissons Ratio (y) = 0.51217 0.43175
# Poissons Ratio (z) = 0.03207 0.28336
#
# Static dielectric constant tensor:
#      x y z
#    x 4.158940 -0.261000 -0.456700 
#    y -0.261000 5.664370 1.241550 
#    z -0.456700 1.241550 6.152890 
# 
# 
# High freq. dielectric constant tensor:
#      x y z
#    x 1.870860 0.006670 -0.012730 
#    y 0.006670 1.862410 0.000780 
#    z -0.012730 0.000780 1.872280 
# 
# From -- ./inp_files/68436.got.cif
#   From: 2010.06.25/outbox.cif.g09.slc.cpg/sg2_35_cif.got.tgz:68436.got - 2010.06.27 13:26:56.
