data_PCOD8032325
_publ_section_title
;
Structure prediction by ZEFSAII (Michael W. Deem and Ramdas Pophale) SiO2 
 PCOD8032325
Probable space group: P -1
;
_chemical_formula_sum "Si O2"
_cell_formula_units_Z 14
_cell_length_a 10.209229
_cell_length_b 9.833533
_cell_length_c 19.414009
_cell_angle_alpha 39.354100
_cell_angle_beta 144.294808
_cell_angle_gamma 116.422318
_cell_volume 627.029365
_symmetry_space_group_name_H-M "P -1"
_symmetry_group_IT_number 2
_symmetry_cell_setting 'triclinic'
loop_
_space_group_symop_operation_xyz
x,y,z
-x,-y,-z
loop_
_atom_site_type_symbol
_atom_site_label
_atom_site_fract_x
_atom_site_fract_y
_atom_site_fract_z
Si Si1 0.909023 0.759676 0.035177
Si Si2 0.586402 0.296326 0.676623
Si Si3 0.134351 0.564773 0.470330
Si Si4 0.916973 0.717813 0.778408
Si Si5 0.622794 0.290465 0.950109
Si Si6 0.294593 0.118219 0.946434
Si Si7 0.409491 0.759998 0.602284
O O1 0.814932 0.803732 0.055851
O O2 0.207860 0.687937 0.190751
O O3 0.893619 0.531844 0.084579
O O4 0.727618 0.015678 0.815820
O O5 0.500000 0.500000 0.500000
O O6 0.345713 0.331258 0.607291
O O7 0.277841 0.711222 0.499295
O O8 0.000000 0.500000 0.500000
O O9 0.914302 0.735151 0.257775
O O10 0.703862 0.688977 0.741348
O O11 0.768758 0.948399 0.571519
O O12 0.090876 0.767107 0.886938
O O13 0.527668 0.178367 0.014226
O O14 0.426630 0.585066 0.741783
O O15 0.613992 0.168214 0.920223
#
# Coordination Sequence:
#
# PCOD8032325 Si02
#       7
#     2   2   2   2   2   2   2
#     4  11  25  43  66 101 136 174 226 278 341 408
#     4  11  24  42  68  98 139 177 223 281 345 399
#     4  12  22  42  73 101 132 178 235 285 328 398
#     4  11  25  42  65  96 137 180 219 275 341 408
#     4  11  24  43  66  98 134 177 227 276 337 397
#     4  11  24  42  71 100 133 178 230 283 336 400
#     4  11  23  42  66  97 133 177 226 277 335 402
#
# _framework density 22.327501999999999
#
# number of rings (size 3 to 8) (size 9 to 14) (size 15 to 20)
#    0.000    0.857    5.714    1.286    4.000    1.714 
#    0.000    0.714    0.000    0.000    0.000    0.000 
#    0.000    0.000    0.000    0.000    0.000    0.000 
#
# Total GULP energy -173540.274715 kJ/mol
# GULP energy per Si atom -12395.733908 kJ/mol
# Density = 2.227668 g / cm^3
# Si number density = 22.327502 Si / 1000 Ang^3
#
#
#
# Elastic Constant Matrix: (Units=GPa)
#
#
# Indices 1 2 3 4 5 6 
#
# 1 113.1589 44.0622 45.5844 -12.4726 2.9260 3.5804
# 2 44.0622 109.5352 44.8976 -12.4764 4.9930 21.0771
# 3 45.5844 44.8976 138.3008 -26.6412 -10.0176 9.5022
# 4 -12.4726 -12.4764 -26.6412 44.6435 7.6132 4.8695
# 5 2.9260 4.9930 -10.0176 7.6132 36.1034 0.2825
# 6 3.5804 21.0771 9.5022 4.8695 0.2825 24.9751
#
#
#
# Elastic Compliance Matrix: (Units=1/GPa)
#
#
# Indices 1 2 3 4 5 6 
#
# 1 0.011434 -0.003890 -0.002692 0.000430 -0.001246 0.002598
# 2 -0.003890 0.014249 -0.002133 0.003341 -0.002863 -0.011275
# 3 -0.002692 -0.002133 0.010024 0.004507 0.002364 -0.002533
# 4 0.000430 0.003341 0.004507 0.028104 -0.005094 -0.010018
# 5 -0.001246 -0.002863 0.002364 -0.005094 0.029907 0.002351
# 6 0.002598 -0.011275 -0.002533 -0.010018 0.002351 0.052073
#
#
# Mechanical properties :
#
#
# Convention : Reuss Voigt Hill
#
# Bulk Modulus (GPa) = 54.71304 70.00925 62.36114
# Shear Modulus (GPa) = 29.53117 36.24111 32.88614
#
# Velocity S-wave (km/s) = 3.64075 4.03322 3.84200
# Velocity P-wave (km/s) = 6.49857 7.28785 6.90450
#
# Compressibility (1/GPa) = 0.01827718
#
# Stress axis : x y z
#
# Youngs Moduli (GPa) = 87.46133 70.17928 99.76465
#
# Poissons Ratio (x) = 0.27301 0.26853
# Poissons Ratio (y) = 0.34025 0.21278
# Poissons Ratio (z) = 0.23541 0.14968
#
# Static dielectric constant tensor:
#      x y z
#    x 4.042360 0.373170 -0.079340 
#    y 0.373170 4.079470 -0.252080 
#    z -0.079340 -0.252080 4.662210 
# 
# 
# High freq. dielectric constant tensor:
#      x y z
#    x 1.861210 0.022320 0.001580 
#    y 0.022320 1.862990 -0.006880 
#    z 0.001580 -0.006880 1.909640 
# 
# From -- ./inp_files/593985.got.cif
#   From: 2010.06.25/outbox.cif.g09.slc.cpg/sg2_297_cif.got.tgz:593985.got - 2010.06.27 13:26:56.
