data_PCOD8032775
_publ_section_title
;
Structure prediction by ZEFSAII (Michael W. Deem and Ramdas Pophale) SiO2 
 PCOD8032775
Probable space group: P -1
;
_chemical_formula_sum "Si O2"
_cell_formula_units_Z 16
_cell_length_a 8.844838
_cell_length_b 14.148230
_cell_length_c 11.091151
_cell_angle_alpha 131.753398
_cell_angle_beta 137.758221
_cell_angle_gamma 67.562689
_cell_volume 678.709446
_symmetry_space_group_name_H-M "P -1"
_symmetry_group_IT_number 2
_symmetry_cell_setting 'triclinic'
loop_
_space_group_symop_operation_xyz
x,y,z
-x,-y,-z
loop_
_atom_site_type_symbol
_atom_site_label
_atom_site_fract_x
_atom_site_fract_y
_atom_site_fract_z
Si Si1 0.558746 0.152473 0.782718
Si Si2 0.096005 0.531400 0.343284
Si Si3 0.772789 0.043415 0.207601
Si Si4 0.340281 0.348302 0.457605
Si Si5 0.831231 0.089780 0.678314
Si Si6 0.894460 0.254463 0.267834
Si Si7 0.408397 0.598225 0.111789
Si Si8 0.738443 0.245733 0.548075
O O1 0.758182 0.100489 0.783423
O O2 0.467720 0.255645 0.732332
O O3 0.345753 0.034647 0.590655
O O4 0.660000 0.226260 0.027234
O O5 0.292313 0.451204 0.417835
O O6 0.086217 0.619095 0.530239
O O7 0.139991 0.615517 0.318766
O O8 0.863317 0.425011 0.092945
O O9 0.888679 0.127131 0.234189
O O10 0.817428 0.131057 0.427147
O O11 0.905362 0.925815 0.193393
O O12 0.500000 0.000000 0.000000
O O13 0.526990 0.422193 0.728762
O O14 0.462789 0.242229 0.375622
O O15 0.108291 0.274552 0.321401
O O16 0.811159 0.223102 0.709983
O O17 0.500000 0.500000 0.000000
#
# Coordination Sequence:
#
# PCOD8032775 Si02
#       8
#     2   2   2   2   2   2   2   2
#     4  11  24  43  75 106 138 186 241 304 349 408
#     4  11  25  46  68 107 146 185 239 295 363 428
#     4  11  26  45  67 102 142 190 233 292 365 422
#     4  12  23  44  71 104 141 185 245 292 353 426
#     4  11  25  47  70 105 143 185 247 292 351 433
#     4  11  23  43  72 104 141 185 239 295 354 423
#     4  12  23  42  73 105 141 183 233 298 359 417
#     4  11  26  46  67 100 144 189 234 297 359 426
#
# _framework density 23.574152999999999
#
# number of rings (size 3 to 8) (size 9 to 14) (size 15 to 20)
#    0.000    0.750    3.750    3.375    5.250    1.000 
#    4.500    0.000    0.000    0.000    0.000    0.000 
#    0.000    0.000    0.000    0.000    0.000    0.000 
#
# Total GULP energy -198389.356115 kJ/mol
# GULP energy per Si atom -12399.334757 kJ/mol
# Density = 2.352050 g / cm^3
# Si number density = 23.574153 Si / 1000 Ang^3
#
#
#
# Elastic Constant Matrix: (Units=GPa)
#
#
# Indices 1 2 3 4 5 6 
#
# 1 86.8927 39.2858 8.7614 -1.0500 18.5781 -2.1791
# 2 39.2858 152.6818 27.1121 -11.8259 15.0534 -2.9785
# 3 8.7614 27.1121 106.7960 -14.2662 3.5895 9.0480
# 4 -1.0500 -11.8259 -14.2662 33.3264 0.6871 5.4795
# 5 18.5781 15.0534 3.5895 0.6871 28.8896 -8.3881
# 6 -2.1791 -2.9785 9.0480 5.4795 -8.3881 44.1151
#
#
#
# Elastic Compliance Matrix: (Units=1/GPa)
#
#
# Indices 1 2 3 4 5 6 
#
# 1 0.014563 -0.002972 -0.000133 -0.000331 -0.008067 -0.000947
# 2 -0.002972 0.007940 -0.001414 0.002160 -0.002098 0.000012
# 3 -0.000133 -0.001414 0.010668 0.004611 -0.001528 -0.003153
# 4 -0.000331 0.002160 0.004611 0.033765 -0.003962 -0.005764
# 5 -0.008067 -0.002098 -0.001528 -0.003962 0.043667 0.008568
# 6 -0.000947 0.000012 -0.003153 -0.005764 0.008568 0.025614
#
#
# Mechanical properties :
#
#
# Convention : Reuss Voigt Hill
#
# Bulk Modulus (GPa) = 41.43832 55.18768 48.31300
# Shear Modulus (GPa) = 32.61610 39.34699 35.98154
#
# Velocity S-wave (km/s) = 3.72365 4.08986 3.91104
# Velocity P-wave (km/s) = 6.00861 6.76489 6.39793
#
# Compressibility (1/GPa) = 0.02413226
#
# Stress axis : x y z
#
# Youngs Moduli (GPa) = 68.66922 125.94846 93.73887
#
# Poissons Ratio (x) = 0.37434 0.01247
# Poissons Ratio (y) = 0.20410 0.13253
# Poissons Ratio (z) = 0.00913 0.17807
#
# Static dielectric constant tensor:
#      x y z
#    x 4.369170 0.014460 -0.068710 
#    y 0.014460 4.406370 0.091690 
#    z -0.068710 0.091690 4.393450 
# 
# 
# High freq. dielectric constant tensor:
#      x y z
#    x 1.940270 0.000080 -0.004040 
#    y 0.000080 1.942020 -0.004520 
#    z -0.004040 -0.004520 1.919560 
# 
# From -- ./inp_files/399717.got.cif
#   From: 2010.06.25/outbox.cif.g09.slc.cpg/sg2_200_cif.got.tgz:399717.got - 2010.06.27 13:26:56.
