data_PCOD8032120
_publ_section_title
;
Structure prediction by ZEFSAII (Michael W. Deem and Ramdas Pophale) SiO2 
 PCOD8032120
Probable space group: P -1
;
_chemical_formula_sum "Si O2"
_cell_formula_units_Z 16
_cell_length_a 11.327727
_cell_length_b 16.448454
_cell_length_c 8.715704
_cell_angle_alpha 56.820519
_cell_angle_beta 125.785315
_cell_angle_gamma 80.559241
_cell_volume 773.179356
_symmetry_space_group_name_H-M "P -1"
_symmetry_group_IT_number 2
_symmetry_cell_setting 'triclinic'
loop_
_space_group_symop_operation_xyz
x,y,z
-x,-y,-z
loop_
_atom_site_type_symbol
_atom_site_label
_atom_site_fract_x
_atom_site_fract_y
_atom_site_fract_z
Si Si1 0.845525 0.804519 0.159056
Si Si2 0.463963 0.631235 0.185228
Si Si3 0.570690 0.094185 0.785517
Si Si4 0.510099 0.835058 0.991696
Si Si5 0.291537 0.647760 0.745091
Si Si6 0.204914 0.846247 0.267079
Si Si7 0.206734 0.680286 0.205053
Si Si8 0.757666 0.876074 0.659428
O O1 0.092650 0.681004 0.501018
O O2 0.741258 0.756127 0.196371
O O3 0.771947 0.855033 0.875536
O O4 0.765947 0.931797 0.070764
O O5 0.365328 0.668897 0.238664
O O6 0.687411 0.471884 0.509862
O O7 0.489469 0.730801 0.056769
O O8 0.301426 0.651221 0.932763
O O9 0.627825 0.172205 0.681356
O O10 0.370541 0.150685 0.484900
O O11 0.527546 0.119159 0.907349
O O12 0.345944 0.970950 0.619421
O O13 0.301154 0.756210 0.587545
O O14 0.500000 0.500000 0.000000
O O15 0.143942 0.776911 0.201751
O O16 0.000000 0.000000 0.000000
O O17 0.986193 0.761732 0.874397
#
# Coordination Sequence:
#
# PCOD8032120 Si02
#       8
#     2   2   2   2   2   2   2   2
#     4  11  23  42  64  97 135 168 212 274 323 377
#     4  11  26  43  67  92 138 169 216 266 324 390
#     4  11  23  41  64  99 130 167 215 273 320 381
#     4  11  25  41  66  99 128 170 221 260 324 393
#     4  12  25  43  67  94 129 173 217 268 322 382
#     4  12  23  42  68  94 130 167 223 268 318 384
#     4  11  24  47  63  96 133 172 211 272 327 380
#     4  11  23  41  68  92 133 169 216 266 326 373
#
# _framework density 20.693774000000001
#
# number of rings (size 3 to 8) (size 9 to 14) (size 15 to 20)
#    0.000    0.750    5.000    3.000    8.750    0.500 
#    2.250    1.875    0.000    0.000    0.000    0.000 
#    0.000    0.000    0.000    0.000    0.000    0.000 
#
# Total GULP energy -198331.703468 kJ/mol
# GULP energy per Si atom -12395.731467 kJ/mol
# Density = 2.064667 g / cm^3
# Si number density = 20.693774 Si / 1000 Ang^3
#
#
#
# Elastic Constant Matrix: (Units=GPa)
#
#
# Indices 1 2 3 4 5 6 
#
# 1 123.3539 38.0770 58.2364 -6.7758 5.8086 7.5609
# 2 38.0770 105.0816 54.5231 -5.5046 4.4914 -4.3388
# 3 58.2364 54.5231 147.1582 -9.8590 18.4602 4.0670
# 4 -6.7758 -5.5046 -9.8590 30.9336 -0.9729 -1.5927
# 5 5.8086 4.4914 18.4602 -0.9729 33.8923 -0.3635
# 6 7.5609 -4.3388 4.0670 -1.5927 -0.3635 32.9471
#
#
#
# Elastic Compliance Matrix: (Units=1/GPa)
#
#
# Indices 1 2 3 4 5 6 
#
# 1 0.010485 -0.002169 -0.003266 0.000762 0.000267 -0.002249
# 2 -0.002169 0.012425 -0.003886 0.000662 0.000889 0.002655
# 3 -0.003266 -0.003886 0.010226 0.001661 -0.004458 -0.000993
# 4 0.000762 0.000662 0.001661 0.033204 -0.000156 0.001311
# 5 0.000267 0.000889 -0.004458 -0.000156 0.031775 0.000949
# 6 -0.002249 0.002655 -0.000993 0.001311 0.000949 0.031414
#
#
# Mechanical properties :
#
#
# Convention : Reuss Voigt Hill
#
# Bulk Modulus (GPa) = 68.99381 75.25184 72.12282
# Shear Modulus (GPa) = 32.67924 34.53840 33.60882
#
# Velocity S-wave (km/s) = 3.97820 4.08980 4.03439
# Velocity P-wave (km/s) = 7.38337 7.66455 7.52528
#
# Compressibility (1/GPa) = 0.01449405
#
# Stress axis : x y z
#
# Youngs Moduli (GPa) = 95.37048 80.48377 97.79456
#
# Poissons Ratio (x) = 0.17458 0.31941
# Poissons Ratio (y) = 0.20687 0.37999
# Poissons Ratio (z) = 0.31149 0.31273
#
# Static dielectric constant tensor:
#      x y z
#    x 3.960920 -0.049130 -0.017280 
#    y -0.049130 3.702390 0.044870 
#    z -0.017280 0.044870 3.863550 
# 
# 
# High freq. dielectric constant tensor:
#      x y z
#    x 1.826000 -0.009440 -0.001670 
#    y -0.009440 1.806080 0.005630 
#    z -0.001670 0.005630 1.809290 
# 
# From -- ./inp_files/278205.got.cif
#   From: 2010.06.25/outbox.cif.g09.slc.cpg/sg2_140_cif.got.tgz:278205.got - 2010.06.27 13:26:56.
