data_PCOD8032841
_publ_section_title
;
Structure prediction by ZEFSAII (Michael W. Deem and Ramdas Pophale) SiO2 
 PCOD8032841
Probable space group: P -1
;
_chemical_formula_sum "Si O2"
_cell_formula_units_Z 16
_cell_length_a 11.378022
_cell_length_b 8.955858
_cell_length_c 19.242284
_cell_angle_alpha 29.028673
_cell_angle_beta 41.275362
_cell_angle_gamma 50.750014
_cell_volume 625.831571
_symmetry_space_group_name_H-M "P -1"
_symmetry_group_IT_number 2
_symmetry_cell_setting 'triclinic'
loop_
_space_group_symop_operation_xyz
x,y,z
-x,-y,-z
loop_
_atom_site_type_symbol
_atom_site_label
_atom_site_fract_x
_atom_site_fract_y
_atom_site_fract_z
Si Si1 0.459810 0.736958 0.244288
Si Si2 0.651579 0.191661 0.428428
Si Si3 0.023774 0.775945 0.824585
Si Si4 0.609494 0.515964 0.768069
Si Si5 0.241215 0.882198 0.973101
Si Si6 0.701745 0.690318 0.902766
Si Si7 0.974937 0.306726 0.735100
Si Si8 0.711663 0.573562 0.368153
O O1 0.482868 0.401233 0.404701
O O2 0.407465 0.713772 0.196413
O O3 0.646053 0.944040 0.085623
O O4 0.320245 0.953188 0.256904
O O5 0.773430 0.184124 0.308949
O O6 0.772638 0.337583 0.378329
O O7 0.568661 0.854687 0.622266
O O8 0.892862 0.692267 0.853268
O O9 0.981319 0.087749 0.755180
O O10 0.000000 0.500000 0.000000
O O11 0.812908 0.524897 0.704317
O O12 0.460210 0.409251 0.932938
O O13 0.251637 0.075730 0.818832
O O14 0.305292 0.542956 0.064430
O O15 0.053003 0.847851 0.111972
O O16 0.174446 0.474890 0.591572
O O17 0.500000 0.500000 0.500000
#
# Coordination Sequence:
#
# PCOD8032841 Si02
#       8
#     2   2   2   2   2   2   2   2
#     4  11  23  44  71 104 143 186 237 289 345 420
#     4  11  27  48  70 101 145 191 238 293 357 423
#     4  12  25  44  74 107 141 190 238 294 355 417
#     4  12  25  45  71 107 145 186 234 298 360 409
#     4  11  23  43  75 106 140 187 238 288 351 416
#     4  12  23  44  75 108 141 186 243 288 348 428
#     4  12  25  45  71 104 146 181 240 300 347 423
#     4  11  25  48  70 103 145 189 232 291 363 425
#
# _framework density 25.565985999999999
#
# number of rings (size 3 to 8) (size 9 to 14) (size 15 to 20)
#    0.000    0.500    2.500    6.750    0.000    4.000 
#    4.500    0.000    0.000    0.000    0.000    0.000 
#    0.000    0.000    0.000    0.000    0.000    0.000 
#
# Total GULP energy -198254.668206 kJ/mol
# GULP energy per Si atom -12390.916763 kJ/mol
# Density = 2.550780 g / cm^3
# Si number density = 25.565986 Si / 1000 Ang^3
#
#
#
# Elastic Constant Matrix: (Units=GPa)
#
#
# Indices 1 2 3 4 5 6 
#
# 1 138.9268 37.5212 38.5271 -3.9237 -26.0616 -8.8553
# 2 37.5212 129.4818 40.8742 -19.7009 -1.2335 5.6597
# 3 38.5271 40.8742 81.5973 -14.9078 12.1005 -11.5876
# 4 -3.9237 -19.7009 -14.9078 33.5435 0.2901 -3.7224
# 5 -26.0616 -1.2335 12.1005 0.2901 31.3294 -2.2672
# 6 -8.8553 5.6597 -11.5876 -3.7224 -2.2672 42.5977
#
#
#
# Elastic Compliance Matrix: (Units=1/GPa)
#
#
# Indices 1 2 3 4 5 6 
#
# 1 0.011976 -0.001574 -0.007063 -0.002637 0.012741 0.001225
# 2 -0.001574 0.010137 -0.004075 0.003684 0.000453 -0.002436
# 3 -0.007063 -0.004075 0.021711 0.007090 -0.014137 0.004846
# 4 -0.002637 0.003684 0.007090 0.035273 -0.004845 0.003715
# 5 0.012741 0.000453 -0.014137 -0.004845 0.048104 0.000880
# 6 0.001225 -0.002436 0.004846 0.003715 0.000880 0.025744
#
#
# Mechanical properties :
#
#
# Convention : Reuss Voigt Hill
#
# Bulk Modulus (GPa) = 54.34795 64.87235 59.61015
# Shear Modulus (GPa) = 27.09994 37.03298 32.06646
#
# Velocity S-wave (km/s) = 3.25930 3.81008 3.54540
# Velocity P-wave (km/s) = 5.95551 6.69217 6.33456
#
# Compressibility (1/GPa) = 0.01839996
#
# Stress axis : x y z
#
# Youngs Moduli (GPa) = 83.50231 98.64966 46.05862
#
# Poissons Ratio (x) = 0.15527 0.32533
# Poissons Ratio (y) = 0.13143 0.18768
# Poissons Ratio (z) = 0.58980 0.40197
#
# Static dielectric constant tensor:
#      x y z
#    x 7.378460 2.657370 0.465830 
#    y 2.657370 7.832920 0.224860 
#    z 0.465830 0.224860 4.584960 
# 
# 
# High freq. dielectric constant tensor:
#      x y z
#    x 2.036200 0.003560 -0.009980 
#    y 0.003560 2.030470 -0.005170 
#    z -0.009980 -0.005170 2.008880 
# 
# From -- ./inp_files/593898.got.cif
#   From: 2010.06.25/outbox.cif.g09.slc.cpg/sg2_297_cif.got.tgz:593898.got - 2010.06.27 13:26:56.
