data_PCOD8032696
_publ_section_title
;
Structure prediction by ZEFSAII (Michael W. Deem and Ramdas Pophale) SiO2 
 PCOD8032696
Probable space group: P -1
;
_chemical_formula_sum "Si O2"
_cell_formula_units_Z 16
_cell_length_a 8.582711
_cell_length_b 19.572517
_cell_length_c 16.827386
_cell_angle_alpha 22.343567
_cell_angle_beta 39.463582
_cell_angle_gamma 40.006358
_cell_volume 667.066385
_symmetry_space_group_name_H-M "P -1"
_symmetry_group_IT_number 2
_symmetry_cell_setting 'triclinic'
loop_
_space_group_symop_operation_xyz
x,y,z
-x,-y,-z
loop_
_atom_site_type_symbol
_atom_site_label
_atom_site_fract_x
_atom_site_fract_y
_atom_site_fract_z
Si Si1 0.043584 0.825752 0.947705
Si Si2 0.926907 0.515856 0.601317
Si Si3 0.337925 0.191794 0.007946
Si Si4 0.151217 0.809427 0.284849
Si Si5 0.112153 0.616319 0.663767
Si Si6 0.709218 0.011049 0.597405
Si Si7 0.631519 0.398440 0.259879
Si Si8 0.620555 0.733157 0.805851
O O1 0.326267 0.756055 0.875946
O O2 0.943288 0.656817 0.209314
O O3 0.019953 0.988884 0.846254
O O4 0.851203 0.898782 0.873331
O O5 0.644221 0.494716 0.725660
O O6 0.000000 0.500000 0.500000
O O7 0.978431 0.703266 0.415757
O O8 0.600328 0.178652 0.874049
O O9 0.191651 0.397693 0.862821
O O10 0.395415 0.081876 0.185629
O O11 0.235428 0.701975 0.449524
O O12 0.211383 0.680093 0.639500
O O13 0.807549 0.699883 0.691352
O O14 0.641319 0.918187 0.643914
O O15 0.592670 0.228082 0.404243
O O16 0.000000 0.000000 0.500000
O O17 0.744885 0.550347 0.004724
#
# Coordination Sequence:
#
# PCOD8032696 Si02
#       8
#     2   2   2   2   2   2   2   2
#     4  11  27  47  68 105 139 183 235 281 350 403
#     4  11  26  44  70 100 139 184 223 286 343 412
#     4  12  26  46  73 102 142 183 233 288 339 418
#     4  12  27  48  71 101 143 184 230 285 345 415
#     4  12  23  45  73  99 141 186 225 284 348 409
#     4  12  24  44  72 104 133 182 235 279 345 406
#     4  11  23  43  70 103 137 178 232 283 345 402
#     4  11  25  47  69 104 142 179 232 291 340 410
#
# _framework density 23.985619
#
# number of rings (size 3 to 8) (size 9 to 14) (size 15 to 20)
#    0.000    0.500    3.750    4.125    5.250    1.500 
#    2.250    0.000    0.000    0.000    0.000    0.000 
#    0.000    0.000    0.000    0.000    0.000    0.000 
#
# Total GULP energy -198390.188277 kJ/mol
# GULP energy per Si atom -12399.386767 kJ/mol
# Density = 2.393103 g / cm^3
# Si number density = 23.985619 Si / 1000 Ang^3
#
#
#
# Elastic Constant Matrix: (Units=GPa)
#
#
# Indices 1 2 3 4 5 6 
#
# 1 41.9139 7.9291 -2.0737 8.5810 -13.3720 -8.6972
# 2 7.9291 113.7655 27.4077 -2.6926 -9.4626 7.4055
# 3 -2.0737 27.4077 78.6357 -8.1373 -18.0130 10.6543
# 4 8.5810 -2.6926 -8.1373 49.1811 5.3856 -6.9607
# 5 -13.3720 -9.4626 -18.0130 5.3856 27.3324 -1.1154
# 6 -8.6972 7.4055 10.6543 -6.9607 -1.1154 29.4200
#
#
#
# Elastic Compliance Matrix: (Units=1/GPa)
#
#
# Indices 1 2 3 4 5 6 
#
# 1 0.034138 -0.002492 0.004686 -0.006392 0.020525 0.008288
# 2 -0.002492 0.009873 -0.003226 0.000161 -0.000041 -0.002017
# 3 0.004686 -0.003226 0.017299 -0.000002 0.012430 -0.003597
# 4 -0.006392 0.000161 -0.000002 0.022717 -0.007420 0.003164
# 5 0.020525 -0.000041 0.012430 -0.007420 0.056347 0.001957
# 6 0.008288 -0.002017 -0.003597 0.003164 0.001957 0.039074
#
#
# Mechanical properties :
#
#
# Convention : Reuss Voigt Hill
#
# Bulk Modulus (GPa) = 16.87884 33.42683 25.15284
# Shear Modulus (GPa) = 24.84332 34.59017 29.71674
#
# Velocity S-wave (km/s) = 3.22181 3.80165 3.52368
# Velocity P-wave (km/s) = 4.57083 5.76511 5.20235
#
# Compressibility (1/GPa) = 0.05924576
#
# Stress axis : x y z
#
# Youngs Moduli (GPa) = 29.29267 101.29039 57.80556
#
# Poissons Ratio (x) = 0.25240 -0.27088
# Poissons Ratio (y) = 0.07299 0.18650
# Poissons Ratio (z) = -0.13726 0.32679
#
# Static dielectric constant tensor:
#      x y z
#    x 4.184720 0.141180 0.005020 
#    y 0.141180 4.285170 0.022880 
#    z 0.005020 0.022880 4.084750 
# 
# 
# High freq. dielectric constant tensor:
#      x y z
#    x 1.939140 0.002740 -0.009760 
#    y 0.002740 1.965640 -0.000270 
#    z -0.009760 -0.000270 1.964360 
# 
# From -- ./inp_files/285892.got.cif
#   From: 2010.06.25/outbox.cif.g09.slc.cpg/sg2_143_cif.got.tgz:285892.got - 2010.06.27 13:26:56.
