data_PCOD8032140
_publ_section_title
;
Structure prediction by ZEFSAII (Michael W. Deem and Ramdas Pophale) SiO2 
 PCOD8032140
Probable space group: P -1
;
_chemical_formula_sum "Si O2"
_cell_formula_units_Z 14
_cell_length_a 9.657280
_cell_length_b 13.456637
_cell_length_c 8.715391
_cell_angle_alpha 73.266178
_cell_angle_beta 136.372443
_cell_angle_gamma 124.012261
_cell_volume 634.074747
_symmetry_space_group_name_H-M "P -1"
_symmetry_group_IT_number 2
_symmetry_cell_setting 'triclinic'
loop_
_space_group_symop_operation_xyz
x,y,z
-x,-y,-z
loop_
_atom_site_type_symbol
_atom_site_label
_atom_site_fract_x
_atom_site_fract_y
_atom_site_fract_z
Si Si1 0.406331 0.700069 0.087158
Si Si2 0.643993 0.918831 0.712737
Si Si3 0.027170 0.485420 0.350910
Si Si4 0.877563 0.722392 0.433108
Si Si5 0.757594 0.264073 0.742532
Si Si6 0.934415 0.815989 0.103981
Si Si7 0.596421 0.097631 0.168089
O O1 0.646689 0.710366 0.330528
O O2 0.293212 0.730775 0.123795
O O3 0.467922 0.801049 0.962811
O O4 0.217455 0.569287 0.917516
O O5 0.451408 0.856346 0.453344
O O6 0.531948 0.954459 0.748321
O O7 0.716308 0.821337 0.859370
O O8 0.860307 0.043149 0.759600
O O9 0.126314 0.396332 0.457619
O O10 0.210124 0.616885 0.368327
O O11 0.000000 0.500000 0.500000
O O12 0.856933 0.730071 0.230101
O O13 0.121270 0.844429 0.625185
O O14 0.986565 0.251595 0.922621
O O15 0.500000 0.000000 0.000000
#
# Coordination Sequence:
#
# PCOD8032140 Si02
#       7
#     2   2   2   2   2   2   2
#     4  11  26  42  65  99 133 167 215 270 327 377
#     4  11  24  41  66  99 128 171 222 262 317 395
#     4  11  24  45  69  95 127 171 224 264 318 392
#     4  11  24  43  67  96 133 172 215 264 327 381
#     4  12  24  44  69  95 131 170 215 272 324 376
#     4  11  23  41  69  95 131 172 217 261 326 382
#     4  11  23  41  65  97 135 171 218 261 316 391
#
# _framework density 22.079415000000001
#
# number of rings (size 3 to 8) (size 9 to 14) (size 15 to 20)
#    0.000    0.857    4.286    2.571    2.000    7.429 
#    0.000    0.000    0.000    0.000    0.000    0.000 
#    0.000    0.000    0.000    0.000    0.000    0.000 
#
# Total GULP energy -173603.978813 kJ/mol
# GULP energy per Si atom -12400.284201 kJ/mol
# Density = 2.202916 g / cm^3
# Si number density = 22.079415 Si / 1000 Ang^3
#
#
#
# Elastic Constant Matrix: (Units=GPa)
#
#
# Indices 1 2 3 4 5 6 
#
# 1 106.5586 15.4361 40.8297 5.4019 2.3501 -20.7690
# 2 15.4361 65.6200 7.0186 -12.8698 5.3098 2.1281
# 3 40.8297 7.0186 98.3031 -0.0692 8.4933 -21.1507
# 4 5.4019 -12.8698 -0.0692 37.5339 -14.6382 -5.1803
# 5 2.3501 5.3098 8.4933 -14.6382 42.2067 -5.8155
# 6 -20.7690 2.1281 -21.1507 -5.1803 -5.8155 31.8605
#
#
#
# Elastic Compliance Matrix: (Units=1/GPa)
#
#
# Indices 1 2 3 4 5 6 
#
# 1 0.012470 -0.003123 -0.003800 -0.001867 0.000590 0.005619
# 2 -0.003123 0.017289 -0.000469 0.005944 -0.000200 -0.002572
# 3 -0.003800 -0.000469 0.013236 0.000778 -0.001264 0.006237
# 4 -0.001867 0.005944 0.000778 0.034614 0.012134 0.006746
# 5 0.000590 -0.000200 -0.001264 0.012134 0.029090 0.006842
# 6 0.005619 -0.002572 0.006237 0.006746 0.006842 0.041708
#
#
# Mechanical properties :
#
#
# Convention : Reuss Voigt Hill
#
# Bulk Modulus (GPa) = 35.44673 44.11672 39.78173
# Shear Modulus (GPa) = 28.96965 36.13337 32.55151
#
# Velocity S-wave (km/s) = 3.62617 4.04978 3.84382
# Velocity P-wave (km/s) = 5.79838 6.47240 6.14464
#
# Compressibility (1/GPa) = 0.02821135
#
# Stress axis : x y z
#
# Youngs Moduli (GPa) = 80.19528 57.83885 75.55187
#
# Poissons Ratio (x) = 0.18063 0.28706
# Poissons Ratio (y) = 0.25045 0.03546
# Poissons Ratio (z) = 0.30470 0.02714
#
# Static dielectric constant tensor:
#      x y z
#    x 3.883760 -0.046050 0.228590 
#    y -0.046050 3.940000 0.132110 
#    z 0.228590 0.132110 3.797650 
# 
# 
# High freq. dielectric constant tensor:
#      x y z
#    x 1.862630 0.002590 0.003130 
#    y 0.002590 1.878690 -0.013260 
#    z 0.003130 -0.013260 1.869120 
# 
# From -- ./inp_files/178452.got.cif
#   From: 2010.06.25/outbox.cif.g09.slc.cpg/sg2_90_cif.got.tgz:178452.got - 2010.06.27 13:26:56.
