data_PCOD8032295
_publ_section_title
;
Structure prediction by ZEFSAII (Michael W. Deem and Ramdas Pophale) SiO2 
 PCOD8032295
Probable space group: P -1
;
_chemical_formula_sum "Si O2"
_cell_formula_units_Z 14
_cell_length_a 15.824594
_cell_length_b 9.808160
_cell_length_c 15.324541
_cell_angle_alpha 71.477113
_cell_angle_beta 27.319451
_cell_angle_gamma 51.534428
_cell_volume 646.668793
_symmetry_space_group_name_H-M "P -1"
_symmetry_group_IT_number 2
_symmetry_cell_setting 'triclinic'
loop_
_space_group_symop_operation_xyz
x,y,z
-x,-y,-z
loop_
_atom_site_type_symbol
_atom_site_label
_atom_site_fract_x
_atom_site_fract_y
_atom_site_fract_z
Si Si1 0.255535 0.444819 0.592665
Si Si2 0.846113 0.718316 0.148483
Si Si3 0.836317 0.198668 0.177951
Si Si4 0.847884 0.460302 0.699857
Si Si5 0.096879 0.071087 0.151055
Si Si6 0.820859 0.161292 0.717047
Si Si7 0.373470 0.187804 0.384014
O O1 0.230684 0.298604 0.683463
O O2 0.490875 0.386687 0.447171
O O3 0.334534 0.361407 0.437672
O O4 0.975997 0.719276 0.798900
O O5 0.562957 0.954600 0.310492
O O6 0.000000 0.500000 0.000000
O O7 0.096448 0.682800 0.939328
O O8 0.935703 0.111522 0.203815
O O9 0.000000 0.000000 0.000000
O O10 0.842129 0.321291 0.672609
O O11 0.000000 0.500000 0.500000
O O12 0.064458 0.304954 0.615926
O O13 0.521878 0.683259 0.996023
O O14 0.016978 0.011228 0.314101
O O15 0.448370 0.863980 0.853969
O O16 0.000000 0.000000 0.500000
#
# Coordination Sequence:
#
# PCOD8032295 Si02
#       7
#     2   2   2   2   2   2   2
#     4  12  24  42  69 101 146 186 229 286 356 427
#     4  11  23  42  64 101 143 183 234 281 344 422
#     4  11  23  42  66  99 144 187 226 286 343 426
#     4  11  26  49  77 102 144 185 241 308 363 420
#     4  11  24  44  70 103 143 182 239 294 351 421
#     4  11  28  50  75 109 141 185 247 304 364 429
#     4  11  24  44  70 103 141 189 235 289 354 428
#
# _framework density 21.649414
#
# number of rings (size 3 to 8) (size 9 to 14) (size 15 to 20)
#    0.000    0.857    7.143    0.857    4.000    1.714 
#    2.571    0.000    0.000    0.000    0.000    0.000 
#    0.000    0.000    0.000    0.000    0.000    0.000 
#
# Total GULP energy -173508.628706 kJ/mol
# GULP energy per Si atom -12393.473479 kJ/mol
# Density = 2.160014 g / cm^3
# Si number density = 21.649414 Si / 1000 Ang^3
#
#
#
# Elastic Constant Matrix: (Units=GPa)
#
#
# Indices 1 2 3 4 5 6 
#
# 1 115.1740 53.2954 69.6954 9.4246 12.6235 14.4829
# 2 53.2954 115.8338 50.0542 -19.5162 19.6841 11.5496
# 3 69.6954 50.0542 140.6596 -1.0290 11.5556 8.0540
# 4 9.4246 -19.5162 -1.0290 38.4589 5.1813 7.3520
# 5 12.6235 19.6841 11.5556 5.1813 40.1829 -0.6299
# 6 14.4829 11.5496 8.0540 7.3520 -0.6299 33.6079
#
#
#
# Elastic Compliance Matrix: (Units=1/GPa)
#
#
# Indices 1 2 3 4 5 6 
#
# 1 0.015405 -0.005615 -0.005597 -0.006445 0.000321 -0.001952
# 2 -0.005615 0.015533 -0.001814 0.011094 -0.006833 -0.005038
# 3 -0.005597 -0.001814 0.010553 0.000733 -0.000477 0.000337
# 4 -0.006445 0.011094 0.000733 0.036138 -0.008426 -0.009274
# 5 0.000321 -0.006833 -0.000477 -0.008426 0.029430 0.004719
# 6 -0.001952 -0.005038 0.000337 -0.009274 0.004719 0.034364
#
#
# Mechanical properties :
#
#
# Convention : Reuss Voigt Hill
#
# Bulk Modulus (GPa) = 64.76928 79.75081 72.26004
# Shear Modulus (GPa) = 28.96478 35.69143 32.32810
#
# Velocity S-wave (km/s) = 3.66170 4.06471 3.86846
# Velocity P-wave (km/s) = 6.91807 7.67767 7.30774
#
# Compressibility (1/GPa) = 0.01543942
#
# Stress axis : x y z
#
# Youngs Moduli (GPa) = 64.91274 64.37805 94.75660
#
# Poissons Ratio (x) = 0.36150 0.53032
# Poissons Ratio (y) = 0.36450 0.17191
# Poissons Ratio (z) = 0.36330 0.11680
#
# Static dielectric constant tensor:
#      x y z
#    x 4.016310 -0.179680 0.032630 
#    y -0.179680 4.353720 -0.058240 
#    z 0.032630 -0.058240 4.178530 
# 
# 
# High freq. dielectric constant tensor:
#      x y z
#    x 1.848530 0.005550 0.009040 
#    y 0.005550 1.854490 0.006600 
#    z 0.009040 0.006600 1.861180 
# 
# From -- ./inp_files/337427.got.cif
#   From: 2010.06.25/outbox.cif.g09.slc.cpg/sg2_169_cif.got.tgz:337427.got - 2010.06.27 13:26:56.
