data_PCOD8032960
_publ_section_title
;
Structure prediction by ZEFSAII (Michael W. Deem and Ramdas Pophale) SiO2 
 PCOD8032960
Probable space group: P -1
;
_chemical_formula_sum "Si O2"
_cell_formula_units_Z 16
_cell_length_a 9.798043
_cell_length_b 14.549277
_cell_length_c 8.608711
_cell_angle_alpha 74.304865
_cell_angle_beta 48.927393
_cell_angle_gamma 101.676601
_cell_volume 758.737249
_symmetry_space_group_name_H-M "P -1"
_symmetry_group_IT_number 2
_symmetry_cell_setting 'triclinic'
loop_
_space_group_symop_operation_xyz
x,y,z
-x,-y,-z
loop_
_atom_site_type_symbol
_atom_site_label
_atom_site_fract_x
_atom_site_fract_y
_atom_site_fract_z
Si Si1 0.997216 0.984040 0.325835
Si Si2 0.315500 0.178181 0.790404
Si Si3 0.520205 0.525297 0.794407
Si Si4 0.577587 0.919673 0.526531
Si Si5 0.671825 0.367532 0.640669
Si Si6 0.259162 0.720518 0.059737
Si Si7 0.115299 0.236509 0.656131
Si Si8 0.097507 0.501718 0.088743
O O1 0.812919 0.996575 0.382393
O O2 0.958255 0.862047 0.370590
O O3 0.000000 0.000000 0.500000
O O4 0.213468 0.081441 0.041109
O O5 0.431965 0.148365 0.586715
O O6 0.496481 0.291653 0.680770
O O7 0.137300 0.194921 0.830312
O O8 0.638576 0.470699 0.647152
O O9 0.653417 0.659078 0.609617
O O10 0.500000 0.500000 0.000000
O O11 0.278414 0.471468 0.938201
O O12 0.500000 0.000000 0.500000
O O13 0.435893 0.838980 0.806774
O O14 0.645607 0.297794 0.846279
O O15 0.910728 0.413572 0.381567
O O16 0.212031 0.624495 0.018419
O O17 0.047538 0.722032 0.246217
O O18 0.000000 0.500000 0.000000
#
# Coordination Sequence:
#
# PCOD8032960 Si02
#       8
#     2   2   2   2   2   2   2   2
#     4  11  24  44  68  98 130 173 225 275 339 399
#     4  11  25  44  67  98 135 173 222 278 336 401
#     4  12  25  43  71  98 139 183 220 279 337 394
#     4  11  23  44  69  96 131 174 223 277 338 396
#     4  12  26  45  66 104 139 176 228 275 334 405
#     4  12  23  43  68  98 135 173 222 282 331 399
#     4  11  24  44  69  97 133 178 222 277 338 393
#     4  12  25  43  66 101 138 178 230 271 334 402
#
# _framework density 21.087669999999999
#
# number of rings (size 3 to 8) (size 9 to 14) (size 15 to 20)
#    0.000    0.500    2.500    7.875    3.500    2.000 
#    2.250    2.500    0.000    0.000    0.000    0.000 
#    0.000    0.000    0.000    0.000    0.000    0.000 
#
# Total GULP energy -198467.726030 kJ/mol
# GULP energy per Si atom -12404.232877 kJ/mol
# Density = 2.103967 g / cm^3
# Si number density = 21.087670 Si / 1000 Ang^3
#
#
#
# Elastic Constant Matrix: (Units=GPa)
#
#
# Indices 1 2 3 4 5 6 
#
# 1 101.8924 41.6768 19.1111 12.6594 6.5265 -6.8886
# 2 41.6768 92.5422 29.1747 -3.4976 3.8353 1.9230
# 3 19.1111 29.1747 129.0249 -7.9592 6.5060 -3.5124
# 4 12.6594 -3.4976 -7.9592 33.4894 -2.5748 -0.4174
# 5 6.5265 3.8353 6.5060 -2.5748 43.8774 4.6516
# 6 -6.8886 1.9230 -3.5124 -0.4174 4.6516 39.1253
#
#
#
# Elastic Compliance Matrix: (Units=1/GPa)
#
#
# Indices 1 2 3 4 5 6 
#
# 1 0.013501 -0.006020 -0.000835 -0.006050 -0.002007 0.002772
# 2 -0.006020 0.014368 -0.002229 0.003250 0.000370 -0.001976
# 3 -0.000835 -0.002229 0.008575 0.002061 -0.000923 0.000864
# 4 -0.006050 0.003250 0.002061 0.033146 0.002358 -0.000967
# 5 -0.002007 0.000370 -0.000923 0.002358 0.023676 -0.003244
# 6 0.002772 -0.001976 0.000864 -0.000967 -0.003244 0.026597
#
#
# Mechanical properties :
#
#
# Convention : Reuss Voigt Hill
#
# Bulk Modulus (GPa) = 54.71640 55.93163 55.32401
# Shear Modulus (GPa) = 34.69228 38.86490 36.77859
#
# Velocity S-wave (km/s) = 4.06044 4.29769 4.18075
# Velocity P-wave (km/s) = 6.92722 7.15597 7.04252
#
# Compressibility (1/GPa) = 0.01827606
#
# Stress axis : x y z
#
# Youngs Moduli (GPa) = 74.06877 69.59734 116.61280
#
# Poissons Ratio (x) = 0.41898 0.09738
# Poissons Ratio (y) = 0.44590 0.25995
# Poissons Ratio (z) = 0.06185 0.15515
#
# Static dielectric constant tensor:
#      x y z
#    x 3.678330 0.226920 0.364900 
#    y 0.226920 3.794540 -0.285620 
#    z 0.364900 -0.285620 3.539100 
# 
# 
# High freq. dielectric constant tensor:
#      x y z
#    x 1.837350 -0.002120 -0.000290 
#    y -0.002120 1.825880 -0.001650 
#    z -0.000290 -0.001650 1.844680 
# 
# From -- ./inp_files/206197.got.cif
#   From: 2010.06.25/outbox.cif.g09.slc.cpg/sg2_104_cif.got.tgz:206197.got - 2010.06.27 13:26:56.
