data_PCOD8032904
_publ_section_title
;
Structure prediction by ZEFSAII (Michael W. Deem and Ramdas Pophale) SiO2 
 PCOD8032904
Probable space group: P -1
;
_chemical_formula_sum "Si O2"
_cell_formula_units_Z 16
_cell_length_a 14.614088
_cell_length_b 12.510696
_cell_length_c 15.902641
_cell_angle_alpha 35.896501
_cell_angle_beta 149.770270
_cell_angle_gamma 124.058931
_cell_volume 755.818995
_symmetry_space_group_name_H-M "P -1"
_symmetry_group_IT_number 2
_symmetry_cell_setting 'triclinic'
loop_
_space_group_symop_operation_xyz
x,y,z
-x,-y,-z
loop_
_atom_site_type_symbol
_atom_site_label
_atom_site_fract_x
_atom_site_fract_y
_atom_site_fract_z
Si Si1 0.537504 0.393630 0.009098
Si Si2 0.825423 0.931529 0.916673
Si Si3 0.393761 0.462860 0.517337
Si Si4 0.640095 0.018289 0.029229
Si Si5 0.805279 0.724778 0.198230
Si Si6 0.472521 0.369934 0.319244
Si Si7 0.053817 0.444231 0.871475
Si Si8 0.014170 0.868280 0.515909
O O1 0.768823 0.209279 0.307506
O O2 0.500000 0.500000 0.000000
O O3 0.400424 0.283214 0.979246
O O4 0.485832 0.547080 0.789748
O O5 0.611011 0.123922 0.595059
O O6 0.831068 0.874539 0.055692
O O7 0.852591 0.732114 0.013246
O O8 0.000000 0.000000 0.000000
O O9 0.500000 0.500000 0.500000
O O10 0.468647 0.519965 0.628173
O O11 0.144758 0.570870 0.240136
O O12 0.482201 0.220512 0.727288
O O13 0.764582 0.819055 0.197894
O O14 0.829150 0.041010 0.204724
O O15 0.500000 0.000000 0.000000
O O16 0.000000 0.500000 0.500000
O O17 0.233468 0.411694 0.102880
O O18 0.973011 0.672095 0.623264
O O19 0.000000 0.000000 0.500000
#
# Coordination Sequence:
#
# PCOD8032904 Si02
#       8
#     2   2   2   2   2   2   2   2
#     4  11  24  44  69 104 139 175 238 300 354 429
#     4  12  24  44  72 103 143 191 240 287 364 433
#     4  12  26  46  68 104 144 188 245 288 359 434
#     4  12  23  41  70  97 133 182 230 290 355 416
#     4  12  25  42  69 105 137 183 237 298 355 423
#     4  11  24  47  72 101 143 192 233 297 365 426
#     4  11  24  44  73  98 144 185 235 299 355 420
#     4  11  23  44  68 100 135 182 229 289 362 421
#
# _framework density 21.169090000000001
#
# number of rings (size 3 to 8) (size 9 to 14) (size 15 to 20)
#    0.000    0.500    2.500    7.875    0.000    0.500 
#    2.250    0.000    0.000    0.000    0.000    0.000 
#    0.000    0.000    0.000    0.000    0.000    0.000 
#
# Total GULP energy -198231.003554 kJ/mol
# GULP energy per Si atom -12389.437722 kJ/mol
# Density = 2.112091 g / cm^3
# Si number density = 21.169090 Si / 1000 Ang^3
#
#
#
# Elastic Constant Matrix: (Units=GPa)
#
#
# Indices 1 2 3 4 5 6 
#
# 1 167.2661 52.7107 61.4892 6.4554 10.2186 1.5395
# 2 52.7107 119.5351 30.4425 10.7002 13.4038 -8.4742
# 3 61.4892 30.4425 130.6543 6.6736 19.2098 6.7420
# 4 6.4554 10.7002 6.6736 51.1047 5.9654 7.5386
# 5 10.2186 13.4038 19.2098 5.9654 44.0222 -2.4607
# 6 1.5395 -8.4742 6.7420 7.5386 -2.4607 46.8574
#
#
#
# Elastic Compliance Matrix: (Units=1/GPa)
#
#
# Indices 1 2 3 4 5 6 
#
# 1 0.007995 -0.002782 -0.003150 -0.000014 0.000352 -0.000292
# 2 -0.002782 0.010335 -0.000866 -0.001833 -0.001747 0.002288
# 3 -0.003150 -0.000866 0.009930 -0.000075 -0.003420 -0.001650
# 4 -0.000014 -0.001833 -0.000075 0.020808 -0.002438 -0.003796
# 5 0.000352 -0.001747 -0.003420 -0.002438 0.025094 0.001875
# 6 -0.000292 0.002288 -0.001650 -0.003796 0.001875 0.022711
#
#
# Mechanical properties :
#
#
# Convention : Reuss Voigt Hill
#
# Bulk Modulus (GPa) = 68.20012 78.52671 73.36341
# Shear Modulus (GPa) = 43.34314 46.58439 44.96377
#
# Velocity S-wave (km/s) = 4.52981 4.69613 4.61372
# Velocity P-wave (km/s) = 7.72306 8.15968 7.94437
#
# Compressibility (1/GPa) = 0.01466273
#
# Stress axis : x y z
#
# Youngs Moduli (GPa) = 125.07681 96.75485 100.70376
#
# Poissons Ratio (x) = 0.26918 0.31725
# Poissons Ratio (y) = 0.34797 0.08726
# Poissons Ratio (z) = 0.39404 0.08384
#
# Static dielectric constant tensor:
#      x y z
#    x 3.750190 -0.201410 0.167210 
#    y -0.201410 4.008400 0.132050 
#    z 0.167210 0.132050 4.400920 
# 
# 
# High freq. dielectric constant tensor:
#      x y z
#    x 1.828620 -0.002290 0.016550 
#    y -0.002290 1.846350 0.002350 
#    z 0.016550 0.002350 1.847110 
# 
# From -- ./inp_files/472308.got.cif
#   From: 2010.06.25/outbox.cif.g09.slc.cpg/sg2_237_cif.got.tgz:472308.got - 2010.06.27 13:26:56.
