data_PCOD8032238
_publ_section_title
;
Structure prediction by ZEFSAII (Michael W. Deem and Ramdas Pophale) SiO2 
 PCOD8032238
Probable space group: P -1
;
_chemical_formula_sum "Si O2"
_cell_formula_units_Z 16
_cell_length_a 12.257697
_cell_length_b 15.281974
_cell_length_c 9.231347
_cell_angle_alpha 88.107441
_cell_angle_beta 101.981358
_cell_angle_gamma 152.808405
_cell_volume 727.162101
_symmetry_space_group_name_H-M "P -1"
_symmetry_group_IT_number 2
_symmetry_cell_setting 'triclinic'
loop_
_space_group_symop_operation_xyz
x,y,z
-x,-y,-z
loop_
_atom_site_type_symbol
_atom_site_label
_atom_site_fract_x
_atom_site_fract_y
_atom_site_fract_z
Si Si1 0.568065 0.769161 0.192093
Si Si2 0.293042 0.399152 0.049987
Si Si3 0.442034 0.266116 0.477305
Si Si4 0.164021 0.916237 0.273120
Si Si5 0.568340 0.080580 0.241412
Si Si6 0.975363 0.707258 0.521332
Si Si7 0.278416 0.729253 0.014546
Si Si8 0.869765 0.796173 0.690104
O O1 0.383036 0.560925 0.099716
O O2 0.546680 0.767277 0.358753
O O3 0.486790 0.800802 0.090160
O O4 0.866204 0.962307 0.219509
O O5 0.274910 0.331194 0.195518
O O6 0.500000 0.500000 0.000000
O O7 0.009286 0.201088 0.911878
O O8 0.728560 0.469042 0.477973
O O9 0.326564 0.282827 0.452442
O O10 0.257362 0.078933 0.333418
O O11 0.986471 0.751085 0.359797
O O12 0.418646 0.038632 0.310861
O O13 0.766405 0.163996 0.384127
O O14 0.353162 0.867294 0.119290
O O15 0.726845 0.248844 0.157064
O O16 0.947475 0.765319 0.625194
O O17 0.000000 0.500000 0.000000
#
# Coordination Sequence:
#
# PCOD8032238 Si02
#       8
#     2   2   2   2   2   2   2   2
#     4  12  24  44  73 101 136 184 233 278 347 420
#     4  12  28  45  69 106 144 179 230 293 349 405
#     4  12  26  43  74 103 136 187 236 278 348 419
#     4  12  27  45  69 106 145 177 232 296 345 402
#     4  11  25  44  68 103 142 179 232 293 341 407
#     4  12  25  45  72  99 139 188 231 286 344 411
#     4  11  23  41  71 100 137 185 230 278 351 412
#     4  12  25  45  74 100 140 184 234 283 343 420
#
# _framework density 22.003344999999999
#
# number of rings (size 3 to 8) (size 9 to 14) (size 15 to 20)
#    0.000    0.250    3.750    4.875    3.500    6.500 
#    0.000    0.000    0.000    0.000    0.000    0.000 
#    0.000    0.000    0.000    0.000    0.000    0.000 
#
# Total GULP energy -198551.458008 kJ/mol
# GULP energy per Si atom -12409.466126 kJ/mol
# Density = 2.195326 g / cm^3
# Si number density = 22.003345 Si / 1000 Ang^3
#
#
#
# Elastic Constant Matrix: (Units=GPa)
#
#
# Indices 1 2 3 4 5 6 
#
# 1 93.0254 17.2484 17.8528 2.2245 1.5396 6.5971
# 2 17.2484 116.6183 15.0044 -12.9449 -11.0919 -0.3533
# 3 17.8528 15.0044 71.5274 -3.2192 1.7061 -8.3803
# 4 2.2245 -12.9449 -3.2192 40.2270 1.1261 -1.4522
# 5 1.5396 -11.0919 1.7061 1.1261 35.2447 3.5217
# 6 6.5971 -0.3533 -8.3803 -1.4522 3.5217 40.0114
#
#
#
# Elastic Compliance Matrix: (Units=1/GPa)
#
#
# Indices 1 2 3 4 5 6 
#
# 1 0.011846 -0.001596 -0.002979 -0.001485 -0.000569 -0.002595
# 2 -0.001596 0.009639 -0.001581 0.002971 0.003099 -0.000148
# 3 -0.002979 -0.001581 0.015601 0.001089 -0.001549 0.003921
# 4 -0.001485 0.002971 0.001089 0.026037 -0.000029 0.001447
# 5 -0.000569 0.003099 -0.001549 -0.000029 0.029731 -0.002821
# 6 -0.002595 -0.000148 0.003921 0.001447 -0.002821 0.026542
#
#
# Mechanical properties :
#
#
# Convention : Reuss Voigt Hill
#
# Bulk Modulus (GPa) = 40.36490 42.37580 41.37035
# Shear Modulus (GPa) = 35.72283 38.50100 37.11192
#
# Velocity S-wave (km/s) = 4.03366 4.18757 4.11134
# Velocity P-wave (km/s) = 6.33077 6.53312 6.43274
#
# Compressibility (1/GPa) = 0.02477400
#
# Stress axis : x y z
#
# Youngs Moduli (GPa) = 84.41428 103.74980 64.09709
#
# Poissons Ratio (x) = 0.16554 0.19097
# Poissons Ratio (y) = 0.13469 0.10135
# Poissons Ratio (z) = 0.25150 0.16405
#
# Static dielectric constant tensor:
#      x y z
#    x 4.744520 -0.383000 0.285640 
#    y -0.383000 4.413200 -0.112840 
#    z 0.285640 -0.112840 4.057410 
# 
# 
# High freq. dielectric constant tensor:
#      x y z
#    x 1.867360 0.001130 0.008590 
#    y 0.001130 1.887250 -0.002090 
#    z 0.008590 -0.002090 1.868750 
# 
# From -- ./inp_files/272967.got.cif
#   From: 2010.06.25/outbox.cif.g09.slc.cpg/sg2_137_cif.got.tgz:272967.got - 2010.06.27 13:26:56.
