data_PCOD8032537
_publ_section_title
;
Structure prediction by ZEFSAII (Michael W. Deem and Ramdas Pophale) SiO2 
 PCOD8032537
Probable space group: P -1
;
_chemical_formula_sum "Si O2"
_cell_formula_units_Z 16
_cell_length_a 11.716298
_cell_length_b 18.319777
_cell_length_c 14.803123
_cell_angle_alpha 152.474838
_cell_angle_beta 148.092737
_cell_angle_gamma 47.972410
_cell_volume 729.545264
_symmetry_space_group_name_H-M "P -1"
_symmetry_group_IT_number 2
_symmetry_cell_setting 'triclinic'
loop_
_space_group_symop_operation_xyz
x,y,z
-x,-y,-z
loop_
_atom_site_type_symbol
_atom_site_label
_atom_site_fract_x
_atom_site_fract_y
_atom_site_fract_z
Si Si1 0.284412 0.848437 0.716422
Si Si2 0.290846 0.623428 0.139800
Si Si3 0.690264 0.521054 0.382729
Si Si4 0.129136 0.751558 0.839226
Si Si5 0.600161 0.900100 0.524756
Si Si6 0.067907 0.267260 0.509583
Si Si7 0.506549 0.616360 0.714492
Si Si8 0.983782 0.319587 0.822975
O O1 0.388290 0.737870 0.726689
O O2 0.157346 0.795905 0.478351
O O3 0.099502 0.874486 0.691281
O O4 0.500000 0.000000 0.000000
O O5 0.488404 0.580731 0.277948
O O6 0.395392 0.767813 0.295744
O O7 0.151754 0.708462 0.204390
O O8 0.128740 0.449657 0.797124
O O9 0.689437 0.349631 0.142321
O O10 0.655020 0.489956 0.431482
O O11 0.928686 0.673222 0.691997
O O12 0.036674 0.713383 0.634721
O O13 0.229759 0.953664 0.137708
O O14 0.717047 0.790930 0.426750
O O15 0.500000 0.000000 0.500000
O O16 0.500000 0.500000 0.500000
O O17 0.768843 0.704263 0.023518
O O18 0.000000 0.500000 0.000000
#
# Coordination Sequence:
#
# PCOD8032537 Si02
#       8
#     2   2   2   2   2   2   2   2
#     4  12  28  46  72 106 145 185 231 296 355 412
#     4  12  25  45  73  98 138 184 227 289 344 413
#     4  11  23  42  74  97 137 180 234 277 353 408
#     4  11  26  43  68 104 133 181 229 286 343 418
#     4  12  29  44  67 101 143 178 230 287 351 406
#     4  12  24  47  71  98 137 179 237 279 345 424
#     4  12  23  44  74 105 137 187 238 285 347 421
#     4  12  24  45  72 106 137 182 241 285 342 424
#
# _framework density 21.931470999999998
#
# number of rings (size 3 to 8) (size 9 to 14) (size 15 to 20)
#    0.000    0.250    6.250    1.500    5.250    2.500 
#    0.000    0.000    0.000    0.000    0.000    0.000 
#    0.000    0.000    0.000    0.000    0.000    0.000 
#
# Total GULP energy -198271.488943 kJ/mol
# GULP energy per Si atom -12391.968059 kJ/mol
# Density = 2.188155 g / cm^3
# Si number density = 21.931471 Si / 1000 Ang^3
#
#
#
# Elastic Constant Matrix: (Units=GPa)
#
#
# Indices 1 2 3 4 5 6 
#
# 1 181.5774 28.0017 51.7014 3.0451 25.8390 22.7027
# 2 28.0017 55.5684 18.1291 -9.3464 -6.2614 21.1330
# 3 51.7014 18.1291 92.0826 -5.8183 12.0405 18.8709
# 4 3.0451 -9.3464 -5.8183 37.0709 11.9751 6.9858
# 5 25.8390 -6.2614 12.0405 11.9751 37.3747 4.5680
# 6 22.7027 21.1330 18.8709 6.9858 4.5680 36.3445
#
#
#
# Elastic Compliance Matrix: (Units=1/GPa)
#
#
# Indices 1 2 3 4 5 6 
#
# 1 0.007578 -0.003144 -0.002877 -0.000208 -0.004677 -0.000784
# 2 -0.003144 0.028200 -0.000745 0.008249 0.006505 -0.016450
# 3 -0.002877 -0.000745 0.014561 0.004579 -0.003590 -0.005759
# 4 -0.000208 0.008249 0.004579 0.035307 -0.009721 -0.012609
# 5 -0.004677 0.006505 -0.003590 -0.009721 0.035545 -0.001596
# 6 -0.000784 -0.016450 -0.005759 -0.012609 -0.001596 0.043183
#
#
# Mechanical properties :
#
#
# Convention : Reuss Voigt Hill
#
# Bulk Modulus (GPa) = 27.16890 58.32143 42.74516
# Shear Modulus (GPa) = 26.29161 37.58445 31.93803
#
# Velocity S-wave (km/s) = 3.46614 4.14420 3.82024
# Velocity P-wave (km/s) = 5.33233 7.03914 6.24433
#
# Compressibility (1/GPa) = 0.03680679
#
# Stress axis : x y z
#
# Youngs Moduli (GPa) = 131.95503 35.46159 68.67807
#
# Poissons Ratio (x) = 0.11149 0.19758
# Poissons Ratio (y) = 0.41487 0.05116
# Poissons Ratio (z) = 0.37963 0.02642
#
# Static dielectric constant tensor:
#      x y z
#    x 4.776660 -0.823000 -0.319020 
#    y -0.823000 5.984480 2.001070 
#    z -0.319020 2.001070 6.470740 
# 
# 
# High freq. dielectric constant tensor:
#      x y z
#    x 1.887500 0.005870 0.010120 
#    y 0.005870 1.872180 -0.015460 
#    z 0.010120 -0.015460 1.856300 
# 
# From -- ./inp_files/523493.got.cif
#   From: 2010.06.25/outbox.cif.g09.slc.cpg/sg2_262_cif.got.tgz:523493.got - 2010.06.27 13:26:56.
