data_PCOD8032930
_publ_section_title
;
Structure prediction by ZEFSAII (Michael W. Deem and Ramdas Pophale) SiO2 
 PCOD8032930
Probable space group: P -1
;
_chemical_formula_sum "Si O2"
_cell_formula_units_Z 16
_cell_length_a 17.629490
_cell_length_b 8.983115
_cell_length_c 17.516377
_cell_angle_alpha 149.223131
_cell_angle_beta 146.818088
_cell_angle_gamma 45.443204
_cell_volume 775.358899
_symmetry_space_group_name_H-M "P -1"
_symmetry_group_IT_number 2
_symmetry_cell_setting 'triclinic'
loop_
_space_group_symop_operation_xyz
x,y,z
-x,-y,-z
loop_
_atom_site_type_symbol
_atom_site_label
_atom_site_fract_x
_atom_site_fract_y
_atom_site_fract_z
Si Si1 0.618150 0.237125 0.226544
Si Si2 0.502307 0.973384 0.696008
Si Si3 0.144559 0.417763 0.992251
Si Si4 0.857521 0.832294 0.285614
Si Si5 0.028228 0.966480 0.204215
Si Si6 0.543005 0.546162 0.678500
Si Si7 0.785369 0.314189 0.108370
Si Si8 0.271277 0.391497 0.657150
O O1 0.561722 0.446230 0.335803
O O2 0.654683 0.437309 0.273830
O O3 0.749885 0.080107 0.298033
O O4 0.500000 0.000000 0.000000
O O5 0.498484 0.777779 0.681529
O O6 0.472294 0.779813 0.510388
O O7 0.379051 0.185849 0.696141
O O8 0.648813 0.150259 0.885880
O O9 0.128847 0.351730 0.860906
O O10 0.038910 0.201724 0.854112
O O11 0.108748 0.750150 0.122803
O O12 0.299934 0.368358 0.127601
O O13 0.813335 0.615108 0.220565
O O14 0.000000 0.000000 0.500000
O O15 0.133392 0.217737 0.435568
O O16 0.913200 0.107179 0.116530
O O17 0.768806 0.374882 0.210975
#
# Coordination Sequence:
#
# PCOD8032930 Si02
#       8
#     2   2   2   2   2   2   2   2
#     4  12  24  42  70  95 133 176 213 268 331 382
#     4  11  24  41  67  99 129 169 218 265 325 382
#     4  11  23  45  69  93 136 172 217 266 327 392
#     4  12  26  44  67  99 132 173 218 272 326 384
#     4  11  24  43  70  95 127 178 216 266 330 386
#     4  11  23  44  68  97 135 170 217 268 324 393
#     4  12  24  42  65  98 134 167 219 274 318 385
#     4  12  24  42  68 100 131 169 221 268 323 392
#
# _framework density 20.635605000000002
#
# number of rings (size 3 to 8) (size 9 to 14) (size 15 to 20)
#    0.000    0.500    3.750    5.250    0.000    3.000 
#    0.000    0.000    0.000    0.000    0.000    0.000 
#    0.000    0.000    0.000    0.000    0.000    0.000 
#
# Total GULP energy -198539.627159 kJ/mol
# GULP energy per Si atom -12408.726697 kJ/mol
# Density = 2.058864 g / cm^3
# Si number density = 20.635605 Si / 1000 Ang^3
#
#
#
# Elastic Constant Matrix: (Units=GPa)
#
#
# Indices 1 2 3 4 5 6 
#
# 1 125.9572 24.7438 34.4850 4.7253 -8.4327 1.1899
# 2 24.7438 75.3586 5.4182 1.3994 -7.2233 -16.8514
# 3 34.4850 5.4182 128.0783 -7.2592 9.2492 1.2772
# 4 4.7253 1.3994 -7.2592 33.0384 0.2232 8.0990
# 5 -8.4327 -7.2233 9.2492 0.2232 34.4772 1.4439
# 6 1.1899 -16.8514 1.2772 8.0990 1.4439 33.7814
#
#
#
# Elastic Compliance Matrix: (Units=1/GPa)
#
#
# Indices 1 2 3 4 5 6 
#
# 1 0.009496 -0.002990 -0.002679 -0.001475 0.002486 -0.001477
# 2 -0.002990 0.016540 -0.000304 -0.002530 0.002460 0.008869
# 3 -0.002679 -0.000304 0.008921 0.002594 -0.003092 -0.000884
# 4 -0.001475 -0.002530 0.002594 0.033436 -0.001415 -0.009264
# 5 0.002486 0.002460 -0.003092 -0.001415 0.030955 0.000273
# 6 -0.001477 0.008869 -0.000884 -0.009264 0.000273 0.036321
#
#
# Mechanical properties :
#
#
# Convention : Reuss Voigt Hill
#
# Bulk Modulus (GPa) = 43.45824 50.96536 47.21180
# Shear Modulus (GPa) = 32.19895 37.90923 35.05409
#
# Velocity S-wave (km/s) = 3.95442 4.29077 4.12602
# Velocity P-wave (km/s) = 6.47731 7.02132 6.75479
#
# Compressibility (1/GPa) = 0.02301060
#
# Stress axis : x y z
#
# Youngs Moduli (GPa) = 105.31138 60.46118 112.09622
#
# Poissons Ratio (x) = 0.18078 0.30026
# Poissons Ratio (y) = 0.31488 0.03410
# Poissons Ratio (z) = 0.28209 0.01839
#
# Static dielectric constant tensor:
#      x y z
#    x 3.898910 -0.072210 -0.026830 
#    y -0.072210 3.936270 -0.040310 
#    z -0.026830 -0.040310 3.957660 
# 
# 
# High freq. dielectric constant tensor:
#      x y z
#    x 1.811860 -0.007430 0.002700 
#    y -0.007430 1.823800 -0.000970 
#    z 0.002700 -0.000970 1.823310 
# 
# From -- ./inp_files/186771.got.cif
#   From: 2010.06.25/outbox.cif.g09.slc.cpg/sg2_94_cif.got.tgz:186771.got - 2010.06.27 13:26:56.
