data_PCOD8032525
_publ_section_title
;
Structure prediction by ZEFSAII (Michael W. Deem and Ramdas Pophale) SiO2 
 PCOD8032525
Probable space group: P -1
;
_chemical_formula_sum "Si O2"
_cell_formula_units_Z 10
_cell_length_a 9.950882
_cell_length_b 8.944073
_cell_length_c 10.198146
_cell_angle_alpha 150.626707
_cell_angle_beta 83.460745
_cell_angle_gamma 91.816676
_cell_volume 438.034391
_symmetry_space_group_name_H-M "P -1"
_symmetry_group_IT_number 2
_symmetry_cell_setting 'triclinic'
loop_
_space_group_symop_operation_xyz
x,y,z
-x,-y,-z
loop_
_atom_site_type_symbol
_atom_site_label
_atom_site_fract_x
_atom_site_fract_y
_atom_site_fract_z
Si Si1 0.628837 0.738675 0.755761
Si Si2 0.621779 0.261749 0.857583
Si Si3 0.073864 0.797826 0.224685
Si Si4 0.436543 0.393045 0.623131
Si Si5 0.924934 0.842577 0.776797
O O1 0.595017 0.448261 0.626586
O O2 0.641041 0.603604 0.503933
O O3 0.772119 0.846851 0.854299
O O4 0.500000 0.000000 0.000000
O O5 0.770809 0.294763 0.811483
O O6 0.422963 0.060887 0.429907
O O7 0.500000 0.500000 0.000000
O O8 0.633884 0.325869 0.062084
O O9 0.071313 0.982699 0.229138
O O10 0.000000 0.000000 0.500000
O O11 0.000000 0.500000 0.000000
O O12 0.000000 0.500000 0.500000
O O13 0.000000 0.000000 0.000000
#
# Coordination Sequence:
#
# PCOD8032525 Si02
#       5
#     2   2   2   2   2
#     4  11  24  45  77 101 139 185 232 300 361 419
#     4  12  26  46  73 103 142 187 243 291 354 433
#     4  12  27  50  72 102 150 198 236 294 364 435
#     4  11  23  42  74 104 138 174 239 290 364 406
#     4  12  29  47  74 110 149 188 245 302 362 431
#
# _framework density 22.829256000000001
#
# number of rings (size 3 to 8) (size 9 to 14) (size 15 to 20)
#    0.000    0.400    4.000    3.000    8.400    4.800 
#    0.000    0.000    0.000    0.000    0.000    0.000 
#    0.000    0.000    0.000    0.000    0.000    0.000 
#
# Total GULP energy -123891.103168 kJ/mol
# GULP energy per Si atom -12389.110317 kJ/mol
# Density = 2.277730 g / cm^3
# Si number density = 22.829256 Si / 1000 Ang^3
#
#
#
# Elastic Constant Matrix: (Units=GPa)
#
#
# Indices 1 2 3 4 5 6 
#
# 1 237.2052 83.6989 76.2721 12.1755 4.9598 24.8558
# 2 83.6989 86.6524 29.1864 21.0253 7.0802 22.8531
# 3 76.2721 29.1864 153.7082 -2.7422 5.6918 12.2787
# 4 12.1755 21.0253 -2.7422 44.7129 7.2037 7.2867
# 5 4.9598 7.0802 5.6918 7.2037 42.0011 8.9772
# 6 24.8558 22.8531 12.2787 7.2867 8.9772 41.1190
#
#
#
# Elastic Compliance Matrix: (Units=1/GPa)
#
#
# Indices 1 2 3 4 5 6 
#
# 1 0.007171 -0.006277 -0.002337 0.000846 0.000469 -0.000400
# 2 -0.006277 0.021279 -0.000526 -0.007238 -0.000130 -0.006564
# 3 -0.002337 -0.000526 0.007885 0.001623 -0.000820 -0.000759
# 4 0.000846 -0.007238 0.001623 0.026335 -0.003426 -0.000892
# 5 0.000469 -0.000130 -0.000820 -0.003426 0.025528 -0.004932
# 6 -0.000400 -0.006564 -0.000759 -0.000892 -0.004932 0.029671
#
#
# Mechanical properties :
#
#
# Convention : Reuss Voigt Hill
#
# Bulk Modulus (GPa) = 55.38444 95.09784 75.24114
# Shear Modulus (GPa) = 35.17012 44.79381 39.98196
#
# Velocity S-wave (km/s) = 3.92927 4.43439 4.18945
# Velocity P-wave (km/s) = 6.70064 8.24409 7.51211
#
# Compressibility (1/GPa) = 0.01805561
#
# Stress axis : x y z
#
# Youngs Moduli (GPa) = 139.45500 46.99553 126.82316
#
# Poissons Ratio (x) = 0.29500 0.29633
# Poissons Ratio (y) = 0.87539 0.06665
# Poissons Ratio (z) = 0.32585 0.02470
#
# Static dielectric constant tensor:
#      x y z
#    x 4.340340 0.393820 0.181630 
#    y 0.393820 4.875360 -0.006720 
#    z 0.181630 -0.006720 4.676110 
# 
# 
# High freq. dielectric constant tensor:
#      x y z
#    x 1.904070 0.026400 0.007560 
#    y 0.026400 1.901090 0.006380 
#    z 0.007560 0.006380 1.928340 
# 
# From -- ./inp_files/148499.got.cif
#   From: 2010.06.25/outbox.cif.g09.slc.cpg/sg2_75_cif.got.tgz:148499.got - 2010.06.27 13:26:56.
