data_PCOD8032443
_publ_section_title
;
Structure prediction by ZEFSAII (Michael W. Deem and Ramdas Pophale) SiO2 
 PCOD8032443
Probable space group: P -1
;
_chemical_formula_sum "Si O2"
_cell_formula_units_Z 12
_cell_length_a 11.373672
_cell_length_b 7.368632
_cell_length_c 17.256132
_cell_angle_alpha 50.703581
_cell_angle_beta 150.559044
_cell_angle_gamma 129.964385
_cell_volume 534.221644
_symmetry_space_group_name_H-M "P -1"
_symmetry_group_IT_number 2
_symmetry_cell_setting 'triclinic'
loop_
_space_group_symop_operation_xyz
x,y,z
-x,-y,-z
loop_
_atom_site_type_symbol
_atom_site_label
_atom_site_fract_x
_atom_site_fract_y
_atom_site_fract_z
Si Si1 0.540003 0.417003 0.664901
Si Si2 0.776300 0.156932 0.109064
Si Si3 0.096249 0.862805 0.987791
Si Si4 0.263053 0.126579 0.452243
Si Si5 0.357233 0.404192 0.021143
Si Si6 0.483751 0.303852 0.280181
O O1 0.321039 0.237237 0.541413
O O2 0.633576 0.670405 0.607055
O O3 0.434712 0.474093 0.672692
O O4 0.762009 0.282939 0.835146
O O5 0.849639 0.207128 0.048847
O O6 0.808893 0.414121 0.099753
O O7 0.968615 0.030193 0.297427
O O8 0.500000 0.000000 0.000000
O O9 0.180517 0.146247 0.973603
O O10 0.809770 0.792031 0.859893
O O11 0.382385 0.903910 0.564669
O O12 0.500000 0.500000 0.000000
O O13 0.548429 0.394956 0.204281
#
# Coordination Sequence:
#
# PCOD8032443 Si02
#       6
#     2   2   2   2   2   2
#     4  11  23  42  70 109 142 178 227 298 348 406
#     4  12  26  48  71  97 144 192 235 284 352 426
#     4  12  24  44  74 105 140 188 236 285 349 421
#     4  11  26  42  70 111 143 176 234 297 353 406
#     4  12  26  44  71 103 139 188 238 283 346 424
#     4  12  24  43  75 109 140 182 238 291 349 415
#
# _framework density 22.462586999999999
#
# number of rings (size 3 to 8) (size 9 to 14) (size 15 to 20)
#    0.000    0.333    6.667    2.500    4.667    0.000 
#    0.000    4.167    0.000    0.000    0.000    0.000 
#    0.000    0.000    0.000    0.000    0.000    0.000 
#
# Total GULP energy -148826.806425 kJ/mol
# GULP energy per Si atom -12402.233869 kJ/mol
# Density = 2.241146 g / cm^3
# Si number density = 22.462587 Si / 1000 Ang^3
#
#
#
# Elastic Constant Matrix: (Units=GPa)
#
#
# Indices 1 2 3 4 5 6 
#
# 1 130.5215 45.2709 58.3959 0.0075 -13.2031 -19.1586
# 2 45.2709 79.2501 44.4577 -1.8231 7.1335 -19.7293
# 3 58.3959 44.4577 179.7606 0.9406 11.8989 4.2808
# 4 0.0075 -1.8231 0.9406 44.3080 -7.9459 0.7307
# 5 -13.2031 7.1335 11.8989 -7.9459 36.9599 0.2736
# 6 -19.1586 -19.7293 4.2808 0.7307 0.2736 35.0142
#
#
#
# Elastic Compliance Matrix: (Units=1/GPa)
#
#
# Indices 1 2 3 4 5 6 
#
# 1 0.011978 -0.004435 -0.003326 0.000958 0.006379 0.004392
# 2 -0.004435 0.019699 -0.003358 -0.000054 -0.004385 0.009119
# 3 -0.003326 -0.003358 0.007799 -0.000799 -0.003188 -0.004624
# 4 0.000958 -0.000054 -0.000799 0.023602 0.005683 0.000054
# 5 0.006379 -0.004385 -0.003188 0.005683 0.032422 0.001038
# 6 0.004392 0.009119 -0.004624 0.000054 0.001038 0.036657
#
#
# Mechanical properties :
#
#
# Convention : Reuss Voigt Hill
#
# Bulk Modulus (GPa) = 58.01111 76.19793 67.10452
# Shear Modulus (GPa) = 31.22247 39.35028 35.28637
#
# Velocity S-wave (km/s) = 3.73228 4.19001 3.96775
# Velocity P-wave (km/s) = 6.66746 7.57654 7.13649
#
# Compressibility (1/GPa) = 0.01723808
#
# Stress axis : x y z
#
# Youngs Moduli (GPa) = 83.48760 50.76387 128.21916
#
# Poissons Ratio (x) = 0.22515 0.42645
# Poissons Ratio (y) = 0.37030 0.43052
# Poissons Ratio (z) = 0.27768 0.17045
#
# Static dielectric constant tensor:
#      x y z
#    x 4.485210 -0.342600 -0.304750 
#    y -0.342600 4.187290 -0.028220 
#    z -0.304750 -0.028220 4.413650 
# 
# 
# High freq. dielectric constant tensor:
#      x y z
#    x 1.888760 -0.029640 -0.011910 
#    y -0.029640 1.882600 -0.010390 
#    z -0.011910 -0.010390 1.897520 
# 
# From -- ./inp_files/564678.got.cif
#   From: 2010.06.25/outbox.cif.g09.slc.cpg/sg2_283_cif.got.tgz:564678.got - 2010.06.27 13:26:56.
