data_PCOD8032138
_publ_section_title
;
Structure prediction by ZEFSAII (Michael W. Deem and Ramdas Pophale) SiO2 
 PCOD8032138
Probable space group: P -1
;
_chemical_formula_sum "Si O2"
_cell_formula_units_Z 16
_cell_length_a 20.832101
_cell_length_b 8.467294
_cell_length_c 8.842787
_cell_angle_alpha 65.988758
_cell_angle_beta 62.380025
_cell_angle_gamma 32.929101
_cell_volume 750.766348
_symmetry_space_group_name_H-M "P -1"
_symmetry_group_IT_number 2
_symmetry_cell_setting 'triclinic'
loop_
_space_group_symop_operation_xyz
x,y,z
-x,-y,-z
loop_
_atom_site_type_symbol
_atom_site_label
_atom_site_fract_x
_atom_site_fract_y
_atom_site_fract_z
Si Si1 0.135779 0.803912 0.961690
Si Si2 0.126938 0.167985 0.010603
Si Si3 0.507840 0.712208 0.815726
Si Si4 0.434547 0.026611 0.358311
Si Si5 0.731730 0.102231 0.750378
Si Si6 0.669795 0.065170 0.317308
Si Si7 0.310394 0.643580 0.611194
Si Si8 0.329955 0.152872 0.108264
O O1 0.218877 0.492788 0.059571
O O2 0.130703 0.966958 0.024469
O O3 0.196930 0.757339 0.760428
O O4 0.000000 0.000000 0.000000
O O5 0.151831 0.109560 0.185748
O O6 0.215792 0.129918 0.841204
O O7 0.000000 0.500000 0.000000
O O8 0.615908 0.373876 0.881929
O O9 0.570576 0.766289 0.659442
O O10 0.449864 0.714966 0.741194
O O11 0.415048 0.954212 0.948934
O O12 0.568306 0.700652 0.376947
O O13 0.327519 0.122061 0.520771
O O14 0.412147 0.069543 0.185419
O O15 0.732903 0.233907 0.559562
O O16 0.726818 0.921564 0.754105
O O17 0.658093 0.242587 0.377983
#
# Coordination Sequence:
#
# PCOD8032138 Si02
#       8
#     2   2   2   2   2   2   2   2
#     4  11  26  49  70  96 131 183 226 273 331 396
#     4  11  26  48  71  96 131 178 229 275 329 397
#     4  12  24  37  66 105 138 175 218 276 335 393
#     4  12  23  39  64 103 142 169 220 275 339 395
#     4  12  24  43  69 101 135 175 223 274 334 401
#     4  11  23  41  65  96 135 176 214 272 333 395
#     4  11  24  44  67  98 138 177 218 275 337 401
#     4  12  24  42  68  98 140 179 223 270 335 402
#
# _framework density 21.311556
#
# number of rings (size 3 to 8) (size 9 to 14) (size 15 to 20)
#    0.000    0.500    5.000    3.750    3.500    0.000 
#    2.250    2.500    0.000    0.000    0.000    0.000 
#    0.000    0.000    0.000    0.000    0.000    0.000 
#
# Total GULP energy -198376.546014 kJ/mol
# GULP energy per Si atom -12398.534126 kJ/mol
# Density = 2.126305 g / cm^3
# Si number density = 21.311556 Si / 1000 Ang^3
#
#
#
# Elastic Constant Matrix: (Units=GPa)
#
#
# Indices 1 2 3 4 5 6 
#
# 1 116.8027 56.6550 52.4152 -2.5359 -4.2608 -13.0664
# 2 56.6550 141.6992 50.3333 -24.4944 4.8558 0.6687
# 3 52.4152 50.3333 100.5622 -11.8661 11.6090 -9.1259
# 4 -2.5359 -24.4944 -11.8661 26.3461 -4.3551 1.3023
# 5 -4.2608 4.8558 11.6090 -4.3551 40.7940 -8.5039
# 6 -13.0664 0.6687 -9.1259 1.3023 -8.5039 30.3553
#
#
#
# Elastic Compliance Matrix: (Units=1/GPa)
#
#
# Indices 1 2 3 4 5 6 
#
# 1 0.014022 -0.004702 -0.005515 -0.005090 0.004280 0.005899
# 2 -0.004702 0.011417 -0.002412 0.009098 -0.000955 -0.003658
# 3 -0.005515 -0.002412 0.014955 0.003255 -0.004007 0.000913
# 4 -0.005090 0.009098 0.003255 0.047860 0.001960 -0.002917
# 5 0.004280 -0.000955 -0.004007 0.001960 0.028190 0.008472
# 6 0.005899 -0.003658 0.000913 -0.002917 0.008472 0.038336
#
#
# Mechanical properties :
#
#
# Convention : Reuss Voigt Hill
#
# Bulk Modulus (GPa) = 66.06097 75.31903 70.69000
# Shear Modulus (GPa) = 27.01515 32.80980 29.91248
#
# Velocity S-wave (km/s) = 3.56424 3.92794 3.75050
# Velocity P-wave (km/s) = 6.92845 7.48266 7.21088
#
# Compressibility (1/GPa) = 0.01513753
#
# Stress axis : x y z
#
# Youngs Moduli (GPa) = 71.31483 87.59223 66.86704
#
# Poissons Ratio (x) = 0.41185 0.36875
# Poissons Ratio (y) = 0.33532 0.16126
# Poissons Ratio (z) = 0.39328 0.21124
#
# Static dielectric constant tensor:
#      x y z
#    x 4.151700 0.151120 -0.168820 
#    y 0.151120 3.740960 -0.067960 
#    z -0.168820 -0.067960 4.162490 
# 
# 
# High freq. dielectric constant tensor:
#      x y z
#    x 1.852540 0.015470 0.000330 
#    y 0.015470 1.822140 -0.011710 
#    z 0.000330 -0.011710 1.846390 
# 
# From -- ./inp_files/189805.got.cif
#   From: 2010.06.25/outbox.cif.g09.slc.cpg/sg2_95_cif.got.tgz:189805.got - 2010.06.27 13:26:56.
