data_PCOD8032959
_publ_section_title
;
Structure prediction by ZEFSAII (Michael W. Deem and Ramdas Pophale) SiO2 
 PCOD8032959
Probable space group: P -1
;
_chemical_formula_sum "Si O2"
_cell_formula_units_Z 16
_cell_length_a 8.532819
_cell_length_b 25.478973
_cell_length_c 9.847468
_cell_angle_alpha 47.662231
_cell_angle_beta 131.009601
_cell_angle_gamma 150.979473
_cell_volume 754.104667
_symmetry_space_group_name_H-M "P -1"
_symmetry_group_IT_number 2
_symmetry_cell_setting 'triclinic'
loop_
_space_group_symop_operation_xyz
x,y,z
-x,-y,-z
loop_
_atom_site_type_symbol
_atom_site_label
_atom_site_fract_x
_atom_site_fract_y
_atom_site_fract_z
Si Si1 0.679292 0.509546 0.214413
Si Si2 0.614744 0.708664 0.145388
Si Si3 0.321022 0.158350 0.527363
Si Si4 0.346343 0.903063 0.179556
Si Si5 0.445474 0.039433 0.520876
Si Si6 0.422313 0.667758 0.405245
Si Si7 0.637932 0.501759 0.708376
Si Si8 0.638632 0.248885 0.268108
O O1 0.541323 0.395609 0.378215
O O2 0.619927 0.549621 0.230334
O O3 0.067281 0.597258 0.265869
O O4 0.500000 0.500000 0.000000
O O5 0.644942 0.719664 0.306826
O O6 0.351549 0.580023 0.168656
O O7 0.966236 0.783412 0.149028
O O8 0.506628 0.754960 0.943009
O O9 0.450962 0.114158 0.694671
O O10 0.450770 0.238583 0.585916
O O11 0.440826 0.220076 0.341721
O O12 0.932725 0.050295 0.501711
O O13 0.382212 0.947198 0.272029
O O14 0.500000 0.000000 0.000000
O O15 0.619500 0.160610 0.378877
O O16 0.500000 0.000000 0.500000
O O17 0.500000 0.500000 0.500000
O O18 0.989161 0.627455 0.720888
#
# Coordination Sequence:
#
# PCOD8032959 Si02
#       8
#     2   2   2   2   2   2   2   2
#     4  11  25  43  65  95 140 180 227 270 336 398
#     4  12  24  42  67  99 137 172 223 274 335 399
#     4  11  24  43  67  93 133 172 223 278 336 395
#     4  11  23  44  69  96 129 175 222 276 337 399
#     4  11  24  44  67  95 129 172 222 279 333 394
#     4  11  25  43  65 100 139 175 225 282 330 402
#     4  12  23  42  67  95 135 177 218 270 335 400
#     4  11  25  42  67  98 130 175 224 273 335 405
#
# _framework density 21.217213000000001
#
# number of rings (size 3 to 8) (size 9 to 14) (size 15 to 20)
#    0.000    0.750    1.250    7.875    5.250    1.000 
#    2.250    2.500    0.000    0.000    0.000    0.000 
#    0.000    0.000    0.000    0.000    0.000    0.000 
#
# Total GULP energy -198357.044960 kJ/mol
# GULP energy per Si atom -12397.315310 kJ/mol
# Density = 2.116892 g / cm^3
# Si number density = 21.217213 Si / 1000 Ang^3
#
#
#
# Elastic Constant Matrix: (Units=GPa)
#
#
# Indices 1 2 3 4 5 6 
#
# 1 108.0883 44.5970 38.0743 -9.5179 -8.5164 -12.4933
# 2 44.5970 113.6792 44.3619 -4.8288 -1.7377 -2.3534
# 3 38.0743 44.3619 159.0080 -3.9941 -0.7679 -4.2802
# 4 -9.5179 -4.8288 -3.9941 29.7067 6.7376 -2.4932
# 5 -8.5164 -1.7377 -0.7679 6.7376 24.6126 8.8509
# 6 -12.4933 -2.3534 -4.2802 -2.4932 8.8509 49.5173
#
#
#
# Elastic Compliance Matrix: (Units=1/GPa)
#
#
# Indices 1 2 3 4 5 6 
#
# 1 0.012160 -0.003916 -0.001673 0.002734 0.002241 0.002474
# 2 -0.003916 0.011183 -0.002191 0.000346 -0.000537 -0.000532
# 3 -0.001673 -0.002191 0.007311 0.000261 -0.000662 0.000237
# 4 0.002734 0.000346 0.000261 0.037492 -0.010928 0.004570
# 5 0.002241 -0.000537 -0.000662 -0.010928 0.047410 -0.008542
# 6 0.002474 -0.000532 0.000237 0.004570 -0.008542 0.022571
#
#
# Mechanical properties :
#
#
# Convention : Reuss Voigt Hill
#
# Bulk Modulus (GPa) = 66.24921 70.53802 68.39361
# Shear Modulus (GPa) = 31.50258 37.68349 34.59303
#
# Velocity S-wave (km/s) = 3.85745 4.21893 4.04223
# Velocity P-wave (km/s) = 7.15066 7.55317 7.35467
#
# Compressibility (1/GPa) = 0.01509452
#
# Stress axis : x y z
#
# Youngs Moduli (GPa) = 82.23646 89.41950 136.78937
#
# Poissons Ratio (x) = 0.35016 0.22886
# Poissons Ratio (y) = 0.32203 0.29965
# Poissons Ratio (z) = 0.13759 0.19588
#
# Static dielectric constant tensor:
#      x y z
#    x 3.989240 -0.107450 -0.080410 
#    y -0.107450 2.789050 -0.298160 
#    z -0.080410 -0.298160 3.994730 
# 
# 
# High freq. dielectric constant tensor:
#      x y z
#    x 1.841150 0.004910 -0.002450 
#    y 0.004910 1.842970 0.001310 
#    z -0.002450 0.001310 1.840670 
# 
# From -- ./inp_files/226203.got.cif
#   From: 2010.06.25/outbox.cif.g09.slc.cpg/sg2_114_cif.got.tgz:226203.got - 2010.06.27 13:26:56.
