data_PCOD8032735
_publ_section_title
;
Structure prediction by ZEFSAII (Michael W. Deem and Ramdas Pophale) SiO2 
 PCOD8032735
Probable space group: P -1
;
_chemical_formula_sum "Si O2"
_cell_formula_units_Z 10
_cell_length_a 9.647396
_cell_length_b 9.034626
_cell_length_c 12.446714
_cell_angle_alpha 130.623680
_cell_angle_beta 136.030248
_cell_angle_gamma 84.164973
_cell_volume 410.316189
_symmetry_space_group_name_H-M "P -1"
_symmetry_group_IT_number 2
_symmetry_cell_setting 'triclinic'
loop_
_space_group_symop_operation_xyz
x,y,z
-x,-y,-z
loop_
_atom_site_type_symbol
_atom_site_label
_atom_site_fract_x
_atom_site_fract_y
_atom_site_fract_z
Si Si1 0.145889 0.311323 0.327092
Si Si2 0.957875 0.403269 0.060028
Si Si3 0.618100 0.530670 0.963796
Si Si4 0.388848 0.128921 0.035970
Si Si5 0.456796 0.188691 0.521834
O O1 0.044075 0.313144 0.156771
O O2 0.311477 0.219555 0.362299
O O3 0.356155 0.612913 0.632780
O O4 0.882902 0.092825 0.151453
O O5 0.207039 0.578706 0.196001
O O6 0.885772 0.568736 0.145296
O O7 0.678563 0.120341 0.712423
O O8 0.399094 0.262339 0.638434
O O9 0.500000 0.500000 0.000000
O O10 0.695604 0.786730 0.070258
O O11 0.500000 0.000000 0.000000
#
# Coordination Sequence:
#
# PCOD8032735 Si02
#       5
#     2   2   2   2   2
#     4  11  23  43  71 102 132 179 230 278 335 407
#     4  12  24  45  73 104 136 177 227 284 340 401
#     4  11  26  46  70 102 139 182 229 281 339 401
#     4  11  24  45  67  99 141 181 223 279 342 407
#     4  11  24  45  70 103 139 179 224 280 339 406
#
# _framework density 24.371448000000001
#
# number of rings (size 3 to 8) (size 9 to 14) (size 15 to 20)
#    0.000    0.800    0.000    7.800    0.000    4.800 
#    0.000   13.000    0.000    0.000    0.000    0.000 
#    0.000    0.000    0.000    0.000    0.000    0.000 
#
# Total GULP energy -124000.381564 kJ/mol
# GULP energy per Si atom -12400.038156 kJ/mol
# Density = 2.431598 g / cm^3
# Si number density = 24.371448 Si / 1000 Ang^3
#
#
#
# Elastic Constant Matrix: (Units=GPa)
#
#
# Indices 1 2 3 4 5 6 
#
# 1 164.3551 75.3512 78.1667 11.0341 -0.6334 -11.3495
# 2 75.3512 201.4923 86.9982 6.1723 -11.2737 -3.0442
# 3 78.1667 86.9982 183.5686 18.7680 16.1171 12.5899
# 4 11.0341 6.1723 18.7680 50.1391 -10.3007 2.5475
# 5 -0.6334 -11.2737 16.1171 -10.3007 45.4049 -6.8173
# 6 -11.3495 -3.0442 12.5899 2.5475 -6.8173 59.7693
#
#
#
# Elastic Compliance Matrix: (Units=1/GPa)
#
#
# Indices 1 2 3 4 5 6 
#
# 1 0.008512 -0.001801 -0.002965 -0.000460 0.000962 0.002278
# 2 -0.001801 0.007137 -0.003107 0.001307 0.003296 0.000996
# 3 -0.002965 -0.003107 0.009204 -0.003342 -0.005307 -0.003123
# 4 -0.000460 0.001307 -0.003342 0.022483 0.006678 0.000487
# 5 0.000962 0.003296 -0.005307 0.006678 0.026893 0.004251
# 6 0.002278 0.000996 -0.003123 0.000487 0.004251 0.018336
#
#
# Mechanical properties :
#
#
# Convention : Reuss Voigt Hill
#
# Bulk Modulus (GPa) = 109.78996 114.49425 112.14210
# Shear Modulus (GPa) = 44.90429 51.65596 48.28012
#
# Velocity S-wave (km/s) = 4.29709 4.60883 4.45568
# Velocity P-wave (km/s) = 8.35262 8.68346 8.51965
#
# Compressibility (1/GPa) = 0.00910830
#
# Stress axis : x y z
#
# Youngs Moduli (GPa) = 117.48216 140.10666 108.64305
#
# Poissons Ratio (x) = 0.25230 0.32210
# Poissons Ratio (y) = 0.21155 0.33758
# Poissons Ratio (z) = 0.34831 0.43534
#
# Static dielectric constant tensor:
#      x y z
#    x 4.252620 -0.314100 0.121700 
#    y -0.314100 5.348050 -0.179380 
#    z 0.121700 -0.179380 4.559780 
# 
# 
# High freq. dielectric constant tensor:
#      x y z
#    x 1.956460 -0.015580 0.006590 
#    y -0.015580 2.029740 -0.010920 
#    z 0.006590 -0.010920 1.980400 
# 
# From -- ./inp_files/16306.got.cif
#   From: 2010.06.25/outbox.cif.g09.slc.cpg/sg2_9_cif.got.tgz:16306.got - 2010.06.27 13:26:56.
