data_PCOD8032467
_publ_section_title
;
Structure prediction by ZEFSAII (Michael W. Deem and Ramdas Pophale) SiO2 
 PCOD8032467
Probable space group: P -1
;
_chemical_formula_sum "Si O2"
_cell_formula_units_Z 16
_cell_length_a 9.159594
_cell_length_b 8.198539
_cell_length_c 14.738874
_cell_angle_alpha 139.075233
_cell_angle_beta 82.531222
_cell_angle_gamma 89.204262
_cell_volume 708.102104
_symmetry_space_group_name_H-M "P -1"
_symmetry_group_IT_number 2
_symmetry_cell_setting 'triclinic'
loop_
_space_group_symop_operation_xyz
x,y,z
-x,-y,-z
loop_
_atom_site_type_symbol
_atom_site_label
_atom_site_fract_x
_atom_site_fract_y
_atom_site_fract_z
Si Si1 0.338223 0.444558 0.507192
Si Si2 0.656643 0.892901 0.986662
Si Si3 0.835842 0.379529 0.714701
Si Si4 0.886860 0.635235 0.639990
Si Si5 0.891823 0.108703 0.939878
Si Si6 0.875736 0.676337 0.212271
Si Si7 0.330647 0.078031 0.513858
Si Si8 0.797460 0.026857 0.193555
O O1 0.500000 0.500000 0.500000
O O2 0.279341 0.385713 0.388140
O O3 0.339044 0.205919 0.470270
O O4 0.228398 0.678243 0.658930
O O5 0.697086 0.591068 0.846234
O O6 0.779601 0.032734 0.989676
O O7 0.654105 0.956384 0.121651
O O8 0.500000 0.000000 0.000000
O O9 0.921817 0.488995 0.670725
O O10 0.958021 0.314477 0.757893
O O11 0.764225 0.144889 0.587105
O O12 0.000000 0.500000 0.500000
O O13 0.887242 0.936672 0.776562
O O14 0.068647 0.037203 0.919180
O O15 0.859765 0.410026 0.054696
O O16 0.754732 0.731575 0.325078
O O17 0.834572 0.879726 0.222292
O O18 0.500000 0.000000 0.500000
#
# Coordination Sequence:
#
# PCOD8032467 Si02
#       8
#     2   2   2   2   2   2   2   2
#     4  12  27  46  73 101 145 191 240 290 362 433
#     4  11  27  46  73 107 146 190 240 298 364 433
#     4  11  26  46  72 106 146 188 243 297 362 427
#     4  11  23  42  71 105 139 186 241 292 352 429
#     4  11  25  44  74 104 142 189 239 294 365 417
#     4  12  26  47  72 109 144 188 244 301 359 431
#     4  12  28  47  71 105 149 191 236 305 368 427
#     4  12  25  46  75 101 145 187 244 299 357 434
#
# _framework density 22.595611999999999
#
# number of rings (size 3 to 8) (size 9 to 14) (size 15 to 20)
#    0.000    0.500    2.500    4.875   12.250    0.000 
#    0.000    0.625    0.000    0.000    0.000    0.000 
#    0.000    0.000    0.000    0.000    0.000    0.000 
#
# Total GULP energy -198320.816465 kJ/mol
# GULP energy per Si atom -12395.051029 kJ/mol
# Density = 2.254418 g / cm^3
# Si number density = 22.595612 Si / 1000 Ang^3
#
#
#
# Elastic Constant Matrix: (Units=GPa)
#
#
# Indices 1 2 3 4 5 6 
#
# 1 109.4300 44.7830 37.2718 -5.6269 9.3699 -15.5006
# 2 44.7830 105.7364 30.0976 -3.6987 11.8618 -15.4923
# 3 37.2718 30.0976 130.7787 14.3103 21.7728 -9.1320
# 4 -5.6269 -3.6987 14.3103 39.1940 -1.9203 7.0541
# 5 9.3699 11.8618 21.7728 -1.9203 41.5376 -0.6172
# 6 -15.5006 -15.4923 -9.1320 7.0541 -0.6172 44.0455
#
#
#
# Elastic Compliance Matrix: (Units=1/GPa)
#
#
# Indices 1 2 3 4 5 6 
#
# 1 0.012038 -0.003997 -0.002564 0.001924 -0.000112 0.001989
# 2 -0.003997 0.012085 -0.001210 0.000469 -0.001856 0.002492
# 3 -0.002564 -0.001210 0.010012 -0.004615 -0.004516 0.001424
# 4 0.001924 0.000469 -0.004615 0.028506 0.003100 -0.004637
# 5 -0.000112 -0.001856 -0.004516 0.003100 0.027115 -0.001745
# 6 0.001989 0.002492 0.001424 -0.004637 -0.001745 0.025294
#
#
# Mechanical properties :
#
#
# Convention : Reuss Voigt Hill
#
# Bulk Modulus (GPa) = 53.78753 63.36110 58.57432
# Shear Modulus (GPa) = 36.55279 40.54159 38.54719
#
# Velocity S-wave (km/s) = 4.02642 4.24042 4.13481
# Velocity P-wave (km/s) = 6.74331 7.21645 6.98388
#
# Compressibility (1/GPa) = 0.01859167
#
# Stress axis : x y z
#
# Youngs Moduli (GPa) = 83.07331 82.74917 99.87960
#
# Poissons Ratio (x) = 0.33077 0.25607
# Poissons Ratio (y) = 0.33207 0.12088
# Poissons Ratio (z) = 0.21298 0.10015
#
# Static dielectric constant tensor:
#      x y z
#    x 4.478730 -0.292890 0.215190 
#    y -0.292890 3.905730 -0.008970 
#    z 0.215190 -0.008970 4.500110 
# 
# 
# High freq. dielectric constant tensor:
#      x y z
#    x 1.897960 -0.008940 0.009670 
#    y -0.008940 1.887230 0.000530 
#    z 0.009670 0.000530 1.913440 
# 
# From -- ./inp_files/447802.got.cif
#   From: 2010.06.25/outbox.cif.g09.slc.cpg/sg2_224_cif.got.tgz:447802.got - 2010.06.27 13:26:56.
