data_PCOD8032246
_publ_section_title
;
Structure prediction by ZEFSAII (Michael W. Deem and Ramdas Pophale) SiO2 
 PCOD8032246
Probable space group: P -1
;
_chemical_formula_sum "Si O2"
_cell_formula_units_Z 14
_cell_length_a 21.552265
_cell_length_b 12.222425
_cell_length_c 15.215486
_cell_angle_alpha 27.652575
_cell_angle_beta 160.016803
_cell_angle_gamma 154.534070
_cell_volume 569.667479
_symmetry_space_group_name_H-M "P -1"
_symmetry_group_IT_number 2
_symmetry_cell_setting 'triclinic'
loop_
_space_group_symop_operation_xyz
x,y,z
-x,-y,-z
loop_
_atom_site_type_symbol
_atom_site_label
_atom_site_fract_x
_atom_site_fract_y
_atom_site_fract_z
Si Si1 0.352403 0.080194 0.583356
Si Si2 0.926092 0.138652 0.176710
Si Si3 0.035254 0.689570 0.702392
Si Si4 0.268255 0.887000 0.242780
Si Si5 0.331679 0.668714 0.972357
Si Si6 0.657662 0.529601 0.580194
Si Si7 0.055852 0.167082 0.868005
O O1 0.536347 0.216951 0.661583
O O2 0.294899 0.307882 0.380894
O O3 0.421871 0.961635 0.842886
O O4 0.153543 0.857046 0.433778
O O5 0.864457 0.187658 0.157282
O O6 0.129865 0.401799 0.232879
O O7 0.973187 0.884752 0.424585
O O8 0.753450 0.095003 0.905251
O O9 0.840231 0.411789 0.653878
O O10 0.207341 0.642441 0.914443
O O11 0.500000 0.000000 0.500000
O O12 0.173365 0.066631 0.029353
O O13 0.188266 0.471507 0.848271
O O14 0.520198 0.605856 0.279275
O O15 0.000000 0.000000 0.000000
#
# Coordination Sequence:
#
# PCOD8032246 Si02
#       7
#     2   2   2   2   2   2   2
#     4  11  23  41  71 104 142 179 221 294 346 403
#     4  11  26  49  72 104 142 184 235 289 345 420
#     4  11  25  47  74 103 143 185 229 288 351 418
#     4  12  27  49  71  98 140 192 236 286 350 411
#     4  12  24  43  72 108 139 180 230 281 356 410
#     4  11  23  41  72 104 139 173 235 284 340 415
#     4  12  23  46  68 100 143 179 234 287 337 417
#
# _framework density 24.575741000000001
#
# number of rings (size 3 to 8) (size 9 to 14) (size 15 to 20)
#    0.000    0.571    5.714    1.286    4.000    0.571 
#    2.571    0.000    0.000    0.000    0.000    0.000 
#    0.000    0.000    0.000    0.000    0.000    0.000 
#
# Total GULP energy -173648.923633 kJ/mol
# GULP energy per Si atom -12403.494545 kJ/mol
# Density = 2.451981 g / cm^3
# Si number density = 24.575741 Si / 1000 Ang^3
#
#
#
# Elastic Constant Matrix: (Units=GPa)
#
#
# Indices 1 2 3 4 5 6 
#
# 1 111.7235 42.6072 58.4000 4.9981 -13.5538 -1.3991
# 2 42.6072 107.0692 47.8987 14.8000 -0.8606 5.3936
# 3 58.4000 47.8987 145.6715 28.9217 -22.9450 15.9012
# 4 4.9981 14.8000 28.9217 39.5526 -4.3587 -6.7619
# 5 -13.5538 -0.8606 -22.9450 -4.3587 37.3166 -6.6825
# 6 -1.3991 5.3936 15.9012 -6.7619 -6.6825 40.0694
#
#
#
# Elastic Compliance Matrix: (Units=1/GPa)
#
#
# Indices 1 2 3 4 5 6 
#
# 1 0.013183 -0.003856 -0.004872 0.004374 0.002956 0.004144
# 2 -0.003856 0.012364 -0.002152 -0.003263 -0.003183 -0.002026
# 3 -0.004872 -0.002152 0.012344 -0.008125 0.003835 -0.005511
# 4 0.004374 -0.003263 -0.008125 0.033832 0.002242 0.009899
# 5 0.002956 -0.003183 0.003835 0.002242 0.031242 0.004598
# 6 0.004144 -0.002026 -0.005511 0.009899 0.004598 0.029999
#
#
# Mechanical properties :
#
#
# Convention : Reuss Voigt Hill
#
# Bulk Modulus (GPa) = 61.99109 73.58624 67.78867
# Shear Modulus (GPa) = 31.23029 37.75829 34.49429
#
# Velocity S-wave (km/s) = 3.56866 3.92395 3.75052
# Velocity P-wave (km/s) = 6.50075 7.10897 6.81165
#
# Compressibility (1/GPa) = 0.01613135
#
# Stress axis : x y z
#
# Youngs Moduli (GPa) = 75.85603 80.87705 81.00811
#
# Poissons Ratio (x) = 0.31186 0.39469
# Poissons Ratio (y) = 0.29250 0.17433
# Poissons Ratio (z) = 0.36959 0.17405
#
# Static dielectric constant tensor:
#      x y z
#    x 4.665270 -0.175910 -0.321020 
#    y -0.175910 4.953260 0.111580 
#    z -0.321020 0.111580 4.644290 
# 
# 
# High freq. dielectric constant tensor:
#      x y z
#    x 1.979470 0.002270 -0.011310 
#    y 0.002270 1.986610 -0.003810 
#    z -0.011310 -0.003810 1.990230 
# 
# From -- ./inp_files/183844.got.cif
#   From: 2010.06.25/outbox.cif.g09.slc.cpg/sg2_92_cif.got.tgz:183844.got - 2010.06.27 13:26:56.
