data_PCOD8032363
_publ_section_title
;
Structure prediction by ZEFSAII (Michael W. Deem and Ramdas Pophale) SiO2 
 PCOD8032363
Probable space group: P -1
;
_chemical_formula_sum "Si O2"
_cell_formula_units_Z 16
_cell_length_a 9.579710
_cell_length_b 9.344238
_cell_length_c 13.299738
_cell_angle_alpha 66.237240
_cell_angle_beta 128.897228
_cell_angle_gamma 124.152618
_cell_volume 764.412288
_symmetry_space_group_name_H-M "P -1"
_symmetry_group_IT_number 2
_symmetry_cell_setting 'triclinic'
loop_
_space_group_symop_operation_xyz
x,y,z
-x,-y,-z
loop_
_atom_site_type_symbol
_atom_site_label
_atom_site_fract_x
_atom_site_fract_y
_atom_site_fract_z
Si Si1 0.188143 0.361336 0.923623
Si Si2 0.632752 0.047121 0.950044
Si Si3 0.328112 0.741358 0.784418
Si Si4 0.858988 0.390632 0.877327
Si Si5 0.343009 0.406310 0.369849
Si Si6 0.968051 0.969944 0.184522
Si Si7 0.016849 0.904448 0.631965
Si Si8 0.618486 0.739574 0.774425
O O1 0.275022 0.559250 0.867398
O O2 0.146191 0.226755 0.850997
O O3 0.971832 0.305394 0.887006
O O4 0.329864 0.347555 0.079666
O O5 0.653888 0.233054 0.867463
O O6 0.535289 0.887942 0.876740
O O7 0.500000 0.000000 0.000000
O O8 0.861193 0.083429 0.060416
O O9 0.156562 0.805968 0.702142
O O10 0.404750 0.741065 0.704062
O O11 0.801370 0.504737 0.743208
O O12 0.000000 0.500000 0.000000
O O13 0.500000 0.500000 0.500000
O O14 0.435755 0.386149 0.311392
O O15 0.207008 0.223547 0.407701
O O16 0.918647 0.960689 0.284053
O O17 0.200101 0.072806 0.226199
O O18 0.000000 0.000000 0.500000
#
# Coordination Sequence:
#
# PCOD8032363 Si02
#       8
#     2   2   2   2   2   2   2   2
#     4  12  22  40  69 104 138 171 217 286 346 398
#     4  12  23  35  67 103 133 175 223 270 346 403
#     4  12  25  41  67 105 136 170 224 284 342 404
#     4  12  22  42  70  97 140 179 227 285 339 402
#     4  11  26  46  69  96 135 187 230 273 345 410
#     4  11  23  43  67  99 140 176 216 281 345 401
#     4  11  26  50  66  92 136 183 230 279 334 409
#     4  11  23  42  68 101 140 173 222 282 343 407
#
# _framework density 20.931114000000001
#
# number of rings (size 3 to 8) (size 9 to 14) (size 15 to 20)
#    0.000    0.500    6.250    3.000    1.750    1.000 
#    2.250    2.500    0.000    0.000    0.000    0.000 
#    0.000    0.000    0.000    0.000    0.000    0.000 
#
# Total GULP energy -198236.261846 kJ/mol
# GULP energy per Si atom -12389.766365 kJ/mol
# Density = 2.088347 g / cm^3
# Si number density = 20.931114 Si / 1000 Ang^3
#
#
#
# Elastic Constant Matrix: (Units=GPa)
#
#
# Indices 1 2 3 4 5 6 
#
# 1 137.2138 37.7336 42.1633 4.7190 -21.2794 -11.9057
# 2 37.7336 133.8706 61.8464 3.2702 -20.2176 -2.8844
# 3 42.1633 61.8464 132.6600 10.4238 -17.3590 -13.2106
# 4 4.7190 3.2702 10.4238 38.7311 1.6979 -9.0978
# 5 -21.2794 -20.2176 -17.3590 1.6979 26.4708 2.7877
# 6 -11.9057 -2.8844 -13.2106 -9.0978 2.7877 35.5503
#
#
#
# Elastic Compliance Matrix: (Units=1/GPa)
#
#
# Indices 1 2 3 4 5 6 
#
# 1 0.009024 -0.001000 -0.001484 -0.000412 0.005347 0.001865
# 2 -0.001000 0.010261 -0.003990 -0.000199 0.004576 -0.001395
# 3 -0.001484 -0.003990 0.010596 -0.001875 0.002572 0.002435
# 4 -0.000412 -0.000199 -0.001875 0.028146 -0.004222 0.006683
# 5 0.005347 0.004576 0.002572 -0.004222 0.047708 -0.001704
# 6 0.001865 -0.001395 0.002435 0.006683 -0.001704 0.031389
#
#
# Mechanical properties :
#
#
# Convention : Reuss Voigt Hill
#
# Bulk Modulus (GPa) = 59.05784 76.35900 67.70842
# Shear Modulus (GPa) = 32.10927 37.61719 34.86323
#
# Velocity S-wave (km/s) = 3.92094 4.24393 4.08563
# Velocity P-wave (km/s) = 6.98390 7.78298 7.39425
#
# Compressibility (1/GPa) = 0.01693255
#
# Stress axis : x y z
#
# Youngs Moduli (GPa) = 110.81281 97.45421 94.37092
#
# Poissons Ratio (x) = 0.09747 0.14006
# Poissons Ratio (y) = 0.11083 0.37658
# Poissons Ratio (z) = 0.16446 0.38888
#
# Static dielectric constant tensor:
#      x y z
#    x 4.184480 -0.189560 -0.164060 
#    y -0.189560 3.735010 0.002770 
#    z -0.164060 0.002770 3.618200 
# 
# 
# High freq. dielectric constant tensor:
#      x y z
#    x 1.842580 -0.000770 -0.015770 
#    y -0.000770 1.829220 0.001430 
#    z -0.015770 0.001430 1.791530 
# 
# From -- ./inp_files/296243.got.cif
#   From: 2010.06.25/outbox.cif.g09.slc.cpg/sg2_149_cif.got.tgz:296243.got - 2010.06.27 13:26:56.
