data_PCOD8032004
_publ_section_title
;
Structure prediction by ZEFSAII (Michael W. Deem and Ramdas Pophale) SiO2 
 PCOD8032004
Probable space group: P -1
;
_chemical_formula_sum "Si O2"
_cell_formula_units_Z 16
_cell_length_a 5.110351
_cell_length_b 12.121677
_cell_length_c 24.038493
_cell_angle_alpha 148.301402
_cell_angle_beta 116.014439
_cell_angle_gamma 67.926123
_cell_volume 703.157804
_symmetry_space_group_name_H-M "P -1"
_symmetry_group_IT_number 2
_symmetry_cell_setting 'triclinic'
loop_
_space_group_symop_operation_xyz
x,y,z
-x,-y,-z
loop_
_atom_site_type_symbol
_atom_site_label
_atom_site_fract_x
_atom_site_fract_y
_atom_site_fract_z
Si Si1 0.541170 0.434767 0.353415
Si Si2 0.784559 0.606996 0.093215
Si Si3 0.149269 0.197397 0.298143
Si Si4 0.602708 0.894773 0.597050
Si Si5 0.065404 0.159567 0.688166
Si Si6 0.545803 0.215363 0.065358
Si Si7 0.877710 0.794966 0.070955
Si Si8 0.155651 0.436273 0.209733
O O1 0.382132 0.346167 0.354774
O O2 0.601247 0.679397 0.471014
O O3 0.345022 0.398529 0.265807
O O4 0.845764 0.317888 0.326069
O O5 0.742152 0.708601 0.193112
O O6 0.857881 0.786851 0.132568
O O7 0.500000 0.500000 0.000000
O O8 0.023813 0.425010 0.040564
O O9 0.273977 0.137822 0.344080
O O10 0.098030 0.989693 0.166005
O O11 0.273587 0.984674 0.605705
O O12 0.795904 0.057583 0.650830
O O13 0.950230 0.321142 0.699826
O O14 0.353140 0.390119 0.154338
O O15 0.881274 0.280650 0.120922
O O16 0.433646 0.171808 0.973363
O O17 0.500000 0.000000 0.000000
#
# Coordination Sequence:
#
# PCOD8032004 Si02
#       8
#     2   2   2   2   2   2   2   2
#     4  12  27  47  72  99 138 186 233 288 344 409
#     4  11  23  40  65 100 138 177 223 277 338 412
#     4  12  25  46  71 105 138 177 234 286 344 421
#     4  12  26  47  73 103 135 182 231 294 357 393
#     4  12  25  45  71 102 144 176 231 293 339 413
#     4  12  25  44  66 100 142 187 230 273 336 414
#     4  11  24  39  68  99 135 182 218 275 347 402
#     4  12  26  46  68 101 141 182 236 283 336 412
#
# _framework density 22.754494999999999
#
# number of rings (size 3 to 8) (size 9 to 14) (size 15 to 20)
#    0.000    0.250    2.500    7.125    3.500    1.000 
#    0.000    0.000    0.000    0.000    0.000    0.000 
#    0.000    0.000    0.000    0.000    0.000    0.000 
#
# Total GULP energy -198456.459418 kJ/mol
# GULP energy per Si atom -12403.528714 kJ/mol
# Density = 2.270271 g / cm^3
# Si number density = 22.754495 Si / 1000 Ang^3
#
#
#
# Elastic Constant Matrix: (Units=GPa)
#
#
# Indices 1 2 3 4 5 6 
#
# 1 108.7449 28.2442 4.0661 3.6522 4.9146 -4.6734
# 2 28.2442 93.5792 12.4430 25.4014 -11.8604 -14.7107
# 3 4.0661 12.4430 71.1736 7.9668 2.5894 4.3775
# 4 3.6522 25.4014 7.9668 29.4934 1.4128 6.5482
# 5 4.9146 -11.8604 2.5894 1.4128 31.2735 5.5168
# 6 -4.6734 -14.7107 4.3775 6.5482 5.5168 33.5568
#
#
#
# Elastic Compliance Matrix: (Units=1/GPa)
#
#
# Indices 1 2 3 4 5 6 
#
# 1 0.010369 -0.004368 0.000014 0.002736 -0.003330 -0.000459
# 2 -0.004368 0.020100 -0.002082 -0.018997 0.007406 0.010964
# 3 0.000014 -0.002082 0.014791 -0.001626 -0.001543 -0.002269
# 4 0.002736 -0.018997 -0.001626 0.054527 -0.006922 -0.017237
# 5 -0.003330 0.007406 -0.001543 -0.006922 0.036029 -0.001588
# 6 -0.000459 0.010964 -0.002269 -0.017237 -0.001588 0.038464
#
#
# Mechanical properties :
#
#
# Convention : Reuss Voigt Hill
#
# Bulk Modulus (GPa) = 30.87482 40.33380 35.60431
# Shear Modulus (GPa) = 25.25937 34.11438 29.68687
#
# Velocity S-wave (km/s) = 3.33540 3.87620 3.61593
# Velocity P-wave (km/s) = 5.33211 6.14795 5.75451
#
# Compressibility (1/GPa) = 0.03238885
#
# Stress axis : x y z
#
# Youngs Moduli (GPa) = 96.44382 49.75049 67.60855
#
# Poissons Ratio (x) = 0.21732 -0.00098
# Poissons Ratio (y) = 0.42129 0.14075
# Poissons Ratio (z) = -0.00140 0.10357
#
# Static dielectric constant tensor:
#      x y z
#    x 4.629470 1.039300 0.812950 
#    y 1.039300 5.041310 0.645080 
#    z 0.812950 0.645080 4.551250 
# 
# 
# High freq. dielectric constant tensor:
#      x y z
#    x 1.900600 -0.004740 0.008570 
#    y -0.004740 1.917600 0.009780 
#    z 0.008570 0.009780 1.901080 
# 
# From -- ./inp_files/68569.got.cif
#   From: 2010.06.25/outbox.cif.g09.slc.cpg/sg2_35_cif.got.tgz:68569.got - 2010.06.27 13:26:56.
