data_PCOD8032522
_publ_section_title
;
Structure prediction by ZEFSAII (Michael W. Deem and Ramdas Pophale) SiO2 
 PCOD8032522
Probable space group: P -1
;
_chemical_formula_sum "Si O2"
_cell_formula_units_Z 16
_cell_length_a 10.170328
_cell_length_b 20.272569
_cell_length_c 23.634523
_cell_angle_alpha 15.616281
_cell_angle_beta 146.594764
_cell_angle_gamma 146.976502
_cell_volume 702.400683
_symmetry_space_group_name_H-M "P -1"
_symmetry_group_IT_number 2
_symmetry_cell_setting 'triclinic'
loop_
_space_group_symop_operation_xyz
x,y,z
-x,-y,-z
loop_
_atom_site_type_symbol
_atom_site_label
_atom_site_fract_x
_atom_site_fract_y
_atom_site_fract_z
Si Si1 0.712872 0.544343 0.418858
Si Si2 0.701911 0.513239 0.145292
Si Si3 0.895084 0.754043 0.202504
Si Si4 0.060985 0.283446 0.522617
Si Si5 0.590093 0.876560 0.717539
Si Si6 0.278897 0.105860 0.645670
Si Si7 0.842407 0.922802 0.562435
Si Si8 0.462415 0.611456 0.090099
O O1 0.767837 0.776052 0.200994
O O2 0.435277 0.374868 0.456180
O O3 0.873351 0.356702 0.610516
O O4 0.781462 0.629555 0.436888
O O5 0.977248 0.505431 0.272886
O O6 0.538605 0.245428 0.285754
O O7 0.544385 0.619906 0.047594
O O8 0.732004 0.695974 0.951034
O O9 0.688593 0.567149 0.245756
O O10 0.000000 0.000000 0.000000
O O11 0.233421 0.139398 0.668388
O O12 0.791639 0.122271 0.572174
O O13 0.395147 0.961623 0.618594
O O14 0.008872 0.046166 0.572277
O O15 0.407517 0.876776 0.869807
O O16 0.771084 0.619102 0.792663
O O17 0.000000 0.000000 0.500000
#
# Coordination Sequence:
#
# PCOD8032522 Si02
#       8
#     2   2   2   2   2   2   2   2
#     4  11  25  44  71 103 136 190 238 286 357 418
#     4  11  23  42  74 102 134 180 235 287 351 420
#     4  11  23  44  74  99 139 180 239 299 340 420
#     4  12  24  46  72  98 145 189 234 291 353 412
#     4  11  24  44  71 106 134 185 243 285 347 431
#     4  12  26  44  67 104 152 182 233 297 353 416
#     4  12  24  42  70 104 145 182 230 298 357 416
#     4  12  24  44  71 102 137 187 234 286 361 414
#
# _framework density 22.779022000000001
#
# number of rings (size 3 to 8) (size 9 to 14) (size 15 to 20)
#    0.000    0.500    5.000    3.375    1.750    3.000 
#    2.250    0.625    0.000    0.000    0.000    0.000 
#    0.000    0.000    0.000    0.000    0.000    0.000 
#
# Total GULP energy -198321.125090 kJ/mol
# GULP energy per Si atom -12395.070318 kJ/mol
# Density = 2.272718 g / cm^3
# Si number density = 22.779022 Si / 1000 Ang^3
#
#
#
# Elastic Constant Matrix: (Units=GPa)
#
#
# Indices 1 2 3 4 5 6 
#
# 1 138.0182 48.3075 35.7787 -15.8101 3.6125 -7.9051
# 2 48.3075 121.1657 34.2624 -11.3825 -20.4169 -3.5423
# 3 35.7787 34.2624 78.0706 -4.3112 -2.8356 -3.2350
# 4 -15.8101 -11.3825 -4.3112 25.5612 -3.9626 -1.4940
# 5 3.6125 -20.4169 -2.8356 -3.9626 37.1192 0.5468
# 6 -7.9051 -3.5423 -3.2350 -1.4940 0.5468 40.1726
#
#
#
# Elastic Compliance Matrix: (Units=1/GPa)
#
#
# Indices 1 2 3 4 5 6 
#
# 1 0.009654 -0.003032 -0.002905 0.003845 -0.002442 0.001575
# 2 -0.003032 0.011991 -0.003386 0.004001 0.007056 0.000241
# 3 -0.002905 -0.003386 0.015584 -0.000728 -0.000472 0.000364
# 4 0.003845 0.004001 -0.000728 0.044313 0.006463 0.002611
# 5 -0.002442 0.007056 -0.000472 0.006463 0.031714 -0.000088
# 6 0.001575 0.000241 0.000364 0.002611 -0.000088 0.025351
#
#
# Mechanical properties :
#
#
# Convention : Reuss Voigt Hill
#
# Bulk Modulus (GPa) = 53.80978 63.77242 58.79110
# Shear Modulus (GPa) = 30.59084 35.16434 32.87759
#
# Velocity S-wave (km/s) = 3.66859 3.93328 3.80324
# Velocity P-wave (km/s) = 6.45124 6.97742 6.71949
#
# Compressibility (1/GPa) = 0.01858398
#
# Stress axis : x y z
#
# Youngs Moduli (GPa) = 103.58224 83.39477 64.16894
#
# Poissons Ratio (x) = 0.25284 0.18641
# Poissons Ratio (y) = 0.31404 0.21727
# Poissons Ratio (z) = 0.30090 0.28236
#
# Static dielectric constant tensor:
#      x y z
#    x 4.413530 -0.191970 -0.346680 
#    y -0.191970 4.526210 0.104220 
#    z -0.346680 0.104220 4.285220 
# 
# 
# High freq. dielectric constant tensor:
#      x y z
#    x 1.908320 -0.005150 -0.008300 
#    y -0.005150 1.909690 0.002330 
#    z -0.008300 0.002330 1.884270 
# 
# From -- ./inp_files/591206.got.cif
#   From: 2010.06.25/outbox.cif.g09.slc.cpg/sg2_296_cif.got.tgz:591206.got - 2010.06.27 13:26:56.
