data_PCOD8032883
_publ_section_title
;
Structure prediction by ZEFSAII (Michael W. Deem and Ramdas Pophale) SiO2 
 PCOD8032883
Probable space group: P -1
;
_chemical_formula_sum "Si O2"
_cell_formula_units_Z 16
_cell_length_a 11.698111
_cell_length_b 9.273326
_cell_length_c 17.964460
_cell_angle_alpha 151.037148
_cell_angle_beta 51.852435
_cell_angle_gamma 127.559803
_cell_volume 729.798992
_symmetry_space_group_name_H-M "P -1"
_symmetry_group_IT_number 2
_symmetry_cell_setting 'triclinic'
loop_
_space_group_symop_operation_xyz
x,y,z
-x,-y,-z
loop_
_atom_site_type_symbol
_atom_site_label
_atom_site_fract_x
_atom_site_fract_y
_atom_site_fract_z
Si Si1 0.189835 0.900366 0.442815
Si Si2 0.649272 0.838173 0.288175
Si Si3 0.916368 0.190790 0.719519
Si Si4 0.510792 0.597848 0.954939
Si Si5 0.459905 0.309471 0.579652
Si Si6 0.774980 0.737773 0.815903
Si Si7 0.659183 0.887422 0.773935
Si Si8 0.955230 0.717973 0.053766
O O1 0.155281 0.787631 0.322289
O O2 0.185583 0.599013 0.358283
O O3 0.348362 0.125705 0.481647
O O4 0.075145 0.096427 0.609346
O O5 0.525347 0.698257 0.215288
O O6 0.630765 0.662610 0.294942
O O7 0.812704 0.852536 0.197147
O O8 0.608007 0.166583 0.469100
O O9 0.816418 0.922418 0.685435
O O10 0.927288 0.522298 0.901314
O O11 0.675864 0.763748 0.941295
O O12 0.500000 0.500000 0.000000
O O13 0.386111 0.787039 0.067959
O O14 0.529399 0.648778 0.678175
O O15 0.677118 0.794532 0.809910
O O16 0.919645 0.991791 0.879656
O O17 0.000000 0.500000 0.000000
#
# Coordination Sequence:
#
# PCOD8032883 Si02
#       8
#     2   2   2   2   2   2   2   2
#     4  11  26  48  68  98 149 186 227 288 359 412
#     4  11  23  44  66 101 140 180 230 293 337 418
#     4  11  26  47  67 103 148 182 230 295 345 422
#     4  12  25  47  70 102 145 181 229 298 352 409
#     4  11  24  43  71 100 140 182 235 285 346 414
#     4  12  25  44  73 104 137 190 233 284 357 413
#     4  12  25  42  73 105 135 182 242 286 346 422
#     4  12  25  43  72 102 141 183 237 289 349 412
#
# _framework density 21.923846000000001
#
# number of rings (size 3 to 8) (size 9 to 14) (size 15 to 20)
#    0.000    0.500    5.000    2.625    5.250    1.500 
#    0.000    0.000    0.000    0.000    0.000    0.000 
#    0.000    0.000    0.000    0.000    0.000    0.000 
#
# Total GULP energy -198416.954139 kJ/mol
# GULP energy per Si atom -12401.059634 kJ/mol
# Density = 2.187395 g / cm^3
# Si number density = 21.923846 Si / 1000 Ang^3
#
#
#
# Elastic Constant Matrix: (Units=GPa)
#
#
# Indices 1 2 3 4 5 6 
#
# 1 113.7741 55.3632 52.8257 -2.5716 3.6443 6.2324
# 2 55.3632 128.8660 49.8649 0.8755 -1.8910 21.3331
# 3 52.8257 49.8649 101.2622 -10.2616 3.7073 7.7704
# 4 -2.5716 0.8755 -10.2616 39.7681 9.9466 2.1738
# 5 3.6443 -1.8910 3.7073 9.9466 30.9695 5.6978
# 6 6.2324 21.3331 7.7704 2.1738 5.6978 49.4380
#
#
#
# Elastic Compliance Matrix: (Units=1/GPa)
#
#
# Indices 1 2 3 4 5 6 
#
# 1 0.012909 -0.003835 -0.004876 -0.000059 -0.001325 0.000949
# 2 -0.003835 0.011590 -0.003695 -0.001980 0.003009 -0.004197
# 3 -0.004876 -0.003695 0.014773 0.004277 -0.002798 0.000022
# 4 -0.000059 -0.001980 0.004277 0.028755 -0.009873 0.000063
# 5 -0.001325 0.003009 -0.002798 -0.009873 0.036967 -0.004518
# 6 0.000949 -0.004197 0.000022 0.000063 -0.004518 0.022433
#
#
# Mechanical properties :
#
#
# Convention : Reuss Voigt Hill
#
# Bulk Modulus (GPa) = 69.16330 73.33443 71.24887
# Shear Modulus (GPa) = 31.83533 36.42500 34.13017
#
# Velocity S-wave (km/s) = 3.81476 4.08049 3.94986
# Velocity P-wave (km/s) = 7.14274 7.46477 7.30553
#
# Compressibility (1/GPa) = 0.01445853
#
# Stress axis : x y z
#
# Youngs Moduli (GPa) = 77.46807 86.28160 67.69215
#
# Poissons Ratio (x) = 0.33091 0.33005
# Poissons Ratio (y) = 0.29711 0.25014
# Poissons Ratio (z) = 0.37772 0.31884
#
# Static dielectric constant tensor:
#      x y z
#    x 3.926410 0.131360 0.014210 
#    y 0.131360 3.967640 -0.073660 
#    z 0.014210 -0.073660 4.038970 
# 
# 
# High freq. dielectric constant tensor:
#      x y z
#    x 1.866200 0.014780 -0.002500 
#    y 0.014780 1.858230 -0.005820 
#    z -0.002500 -0.005820 1.872350 
# 
# From -- ./inp_files/243323.got.cif
#   From: 2010.06.25/outbox.cif.g09.slc.cpg/sg2_122_cif.got.tgz:243323.got - 2010.06.27 13:26:56.
