data_PCOD8032488
_publ_section_title
;
Structure prediction by ZEFSAII (Michael W. Deem and Ramdas Pophale) SiO2 
 PCOD8032488
Probable space group: P -1
;
_chemical_formula_sum "Si O2"
_cell_formula_units_Z 16
_cell_length_a 13.418061
_cell_length_b 8.871319
_cell_length_c 16.986187
_cell_angle_alpha 34.188973
_cell_angle_beta 40.949729
_cell_angle_gamma 43.587906
_cell_volume 716.933024
_symmetry_space_group_name_H-M "P -1"
_symmetry_group_IT_number 2
_symmetry_cell_setting 'triclinic'
loop_
_space_group_symop_operation_xyz
x,y,z
-x,-y,-z
loop_
_atom_site_type_symbol
_atom_site_label
_atom_site_fract_x
_atom_site_fract_y
_atom_site_fract_z
Si Si1 0.099003 0.231775 0.101161
Si Si2 0.135266 0.242688 0.347534
Si Si3 0.901904 0.278245 0.345508
Si Si4 0.583644 0.633198 0.120299
Si Si5 0.599284 0.726115 0.337804
Si Si6 0.993042 0.702915 0.342769
Si Si7 0.646179 0.989394 0.361609
Si Si8 0.565866 0.971442 0.839874
O O1 0.048766 0.247295 0.214760
O O2 0.282396 0.218869 0.995720
O O3 0.063984 0.959324 0.204014
O O4 0.000000 0.500000 0.000000
O O5 0.259642 0.176138 0.231344
O O6 0.960485 0.283769 0.397646
O O7 0.118311 0.531442 0.277874
O O8 0.172283 0.987940 0.499143
O O9 0.773856 0.561594 0.277857
O O10 0.449575 0.743751 0.221091
O O11 0.656020 0.305455 0.212941
O O12 0.518246 0.749519 0.022770
O O13 0.500000 0.500000 0.500000
O O14 0.604470 0.879502 0.350443
O O15 0.540311 0.957005 0.205928
O O16 0.811752 0.803174 0.377335
O O17 0.000000 0.500000 0.500000
O O18 0.500000 0.000000 0.500000
#
# Coordination Sequence:
#
# PCOD8032488 Si02
#       8
#     2   2   2   2   2   2   2   2
#     4  12  24  46  76 104 148 195 239 303 372 439
#     4  11  23  45  71 105 145 188 247 301 360 429
#     4  11  23  42  72 103 144 192 240 300 364 435
#     4  11  26  51  73 108 147 196 250 304 382 445
#     4  12  25  44  73 108 146 193 248 303 370 436
#     4  12  27  46  75 115 146 189 254 305 367 439
#     4  12  29  48  74 106 150 194 251 312 365 449
#     4  11  25  47  74 102 148 197 238 305 370 442
#
# _framework density 22.317287
#
# number of rings (size 3 to 8) (size 9 to 14) (size 15 to 20)
#    0.000    0.500    6.250    1.500    3.500    3.500 
#    4.500    1.875    0.000    0.000    0.000    0.000 
#    0.000    0.000    0.000    0.000    0.000    0.000 
#
# Total GULP energy -198290.788754 kJ/mol
# GULP energy per Si atom -12393.174297 kJ/mol
# Density = 2.226649 g / cm^3
# Si number density = 22.317287 Si / 1000 Ang^3
#
#
#
# Elastic Constant Matrix: (Units=GPa)
#
#
# Indices 1 2 3 4 5 6 
#
# 1 138.4186 68.1405 60.1867 -11.9591 15.9547 5.2962
# 2 68.1405 177.1276 60.2737 -7.3380 0.9336 7.1120
# 3 60.1867 60.2737 107.5068 -13.7581 8.7349 12.6548
# 4 -11.9591 -7.3380 -13.7581 40.8282 -0.7516 -0.8225
# 5 15.9547 0.9336 8.7349 -0.7516 41.9992 -6.9650
# 6 5.2962 7.1120 12.6548 -0.8225 -6.9650 34.2216
#
#
#
# Elastic Compliance Matrix: (Units=1/GPa)
#
#
# Indices 1 2 3 4 5 6 
#
# 1 0.010818 -0.002688 -0.004104 0.001239 -0.003211 -0.000222
# 2 -0.002688 0.007664 -0.002990 -0.000385 0.001503 0.000226
# 3 -0.004104 -0.002990 0.014336 0.002966 -0.002031 -0.004387
# 4 0.001239 -0.000385 0.002966 0.025757 -0.000741 -0.000740
# 5 -0.003211 0.001503 -0.002031 -0.000741 0.026450 0.006301
# 6 -0.000222 0.000226 -0.004387 -0.000740 0.006301 0.032096
#
#
# Mechanical properties :
#
#
# Convention : Reuss Voigt Hill
#
# Bulk Modulus (GPa) = 75.44315 88.91721 82.18018
# Shear Modulus (GPa) = 35.43500 39.03995 37.23748
#
# Velocity S-wave (km/s) = 3.98902 4.18702 4.08922
# Velocity P-wave (km/s) = 7.42257 7.95636 7.69410
#
# Compressibility (1/GPa) = 0.01325501
#
# Stress axis : x y z
#
# Youngs Moduli (GPa) = 92.44166 130.47592 69.75233
#
# Poissons Ratio (x) = 0.35072 0.28623
# Poissons Ratio (y) = 0.24848 0.20857
# Poissons Ratio (z) = 0.37934 0.39014
#
# Static dielectric constant tensor:
#      x y z
#    x 4.189800 -0.073960 0.163080 
#    y -0.073960 4.380860 -0.082360 
#    z 0.163080 -0.082360 3.994730 
# 
# 
# High freq. dielectric constant tensor:
#      x y z
#    x 1.882240 -0.006500 0.022400 
#    y -0.006500 1.904360 -0.002830 
#    z 0.022400 -0.002830 1.867280 
# 
# From -- ./inp_files/572790.got.cif
#   From: 2010.06.25/outbox.cif.g09.slc.cpg/sg2_287_cif.got.tgz:572790.got - 2010.06.27 13:26:56.
