data_PCOD8032937
_publ_section_title
;
Structure prediction by ZEFSAII (Michael W. Deem and Ramdas Pophale) SiO2 
 PCOD8032937
Probable space group: P -1
;
_chemical_formula_sum "Si O2"
_cell_formula_units_Z 16
_cell_length_a 18.166797
_cell_length_b 9.188791
_cell_length_c 5.472265
_cell_angle_alpha 103.445331
_cell_angle_beta 96.149632
_cell_angle_gamma 52.269314
_cell_volume 701.939558
_symmetry_space_group_name_H-M "P -1"
_symmetry_group_IT_number 2
_symmetry_cell_setting 'triclinic'
loop_
_space_group_symop_operation_xyz
x,y,z
-x,-y,-z
loop_
_atom_site_type_symbol
_atom_site_label
_atom_site_fract_x
_atom_site_fract_y
_atom_site_fract_z
Si Si1 0.466842 0.373780 0.416152
Si Si2 0.339282 0.374047 0.030176
Si Si3 0.829629 0.437717 0.644432
Si Si4 0.784911 0.792255 0.600284
Si Si5 0.407721 0.036517 0.576568
Si Si6 0.814250 0.938409 0.163204
Si Si7 0.001773 0.093363 0.785739
Si Si8 0.722602 0.352187 0.277307
O O1 0.500000 0.500000 0.500000
O O2 0.377941 0.462668 0.596277
O O3 0.560385 0.167672 0.418492
O O4 0.430148 0.357723 0.136935
O O5 0.369385 0.186120 0.836529
O O6 0.272355 0.578839 0.957941
O O7 0.271417 0.394758 0.220100
O O8 0.848422 0.562503 0.532080
O O9 0.910265 0.311663 0.822838
O O10 0.813133 0.305218 0.433793
O O11 0.675228 0.885781 0.614145
O O12 0.805174 0.854117 0.376483
O O13 0.809809 0.850795 0.877781
O O14 0.500000 0.000000 0.500000
O O15 0.911670 0.902817 0.180562
O O16 0.730265 0.163551 0.209760
O O17 0.000000 0.000000 0.500000
O O18 0.000000 0.000000 0.000000
#
# Coordination Sequence:
#
# PCOD8032937 Si02
#       8
#     2   2   2   2   2   2   2   2
#     4  11  25  39  63 102 139 186 244 309 366 426
#     4  11  23  44  72  99 143 194 251 302 371 441
#     4  11  25  46  76 103 143 194 246 297 366 447
#     4  12  28  48  71 111 153 194 240 311 381 424
#     4  12  23  46  69 102 140 199 256 295 360 447
#     4  12  28  47  74 110 152 192 236 317 381 427
#     4  12  26  48  81 115 145 192 254 298 359 460
#     4  11  23  44  69 100 138 192 246 298 364 442
#
# _framework density 22.793987000000001
#
# number of rings (size 3 to 8) (size 9 to 14) (size 15 to 20)
#    0.000    0.500    3.750    4.125    5.250    3.500 
#    0.000    0.000    0.000    0.000    0.000    0.000 
#    0.000    0.000    0.000    0.000    0.000    0.000 
#
# Total GULP energy -198212.728537 kJ/mol
# GULP energy per Si atom -12388.295534 kJ/mol
# Density = 2.274211 g / cm^3
# Si number density = 22.793987 Si / 1000 Ang^3
#
#
#
# Elastic Constant Matrix: (Units=GPa)
#
#
# Indices 1 2 3 4 5 6 
#
# 1 129.7592 49.4493 54.7833 -9.7995 19.0536 1.8917
# 2 49.4493 164.6298 41.5356 -22.4579 6.2309 20.1663
# 3 54.7833 41.5356 126.5283 -9.2028 14.5172 10.1055
# 4 -9.7995 -22.4579 -9.2028 38.1241 9.8562 7.6635
# 5 19.0536 6.2309 14.5172 9.8562 42.7456 -9.0695
# 6 1.8917 20.1663 10.1055 7.6635 -9.0695 41.0375
#
#
#
# Elastic Compliance Matrix: (Units=1/GPa)
#
#
# Indices 1 2 3 4 5 6 
#
# 1 0.010542 -0.001984 -0.003407 0.001592 -0.003568 0.000242
# 2 -0.001984 0.008487 -0.000714 0.006161 -0.002731 -0.005657
# 3 -0.003407 -0.000714 0.010448 0.002729 -0.003254 -0.003294
# 4 0.001592 0.006161 0.002729 0.037356 -0.014090 -0.013863
# 5 -0.003568 -0.002731 -0.003254 -0.014090 0.032299 0.012077
# 6 0.000242 -0.005657 -0.003294 -0.013863 0.012077 0.033206
#
#
# Mechanical properties :
#
#
# Convention : Reuss Voigt Hill
#
# Bulk Modulus (GPa) = 57.91504 79.16153 68.53829
# Shear Modulus (GPa) = 33.26603 42.72473 37.99538
#
# Velocity S-wave (km/s) = 3.82438 4.33411 4.08720
# Velocity P-wave (km/s) = 6.70555 7.73632 7.23930
#
# Compressibility (1/GPa) = 0.01726667
#
# Stress axis : x y z
#
# Youngs Moduli (GPa) = 94.85969 117.82669 95.71509
#
# Poissons Ratio (x) = 0.23379 0.32611
# Poissons Ratio (y) = 0.18822 0.06831
# Poissons Ratio (z) = 0.32319 0.08409
#
# Static dielectric constant tensor:
#      x y z
#    x 4.400870 0.040910 -0.100310 
#    y 0.040910 3.115520 0.767920 
#    z -0.100310 0.767920 4.078790 
# 
# 
# High freq. dielectric constant tensor:
#      x y z
#    x 1.906090 0.003520 0.011260 
#    y 0.003520 1.921570 -0.006380 
#    z 0.011260 -0.006380 1.897320 
# 
# From -- ./inp_files/39224.got.cif
#   From: 2010.06.25/outbox.cif.g09.slc.cpg/sg2_20_cif.got.tgz:39224.got - 2010.06.27 13:26:56.
