data_PCOD8032378
_publ_section_title
;
Structure prediction by ZEFSAII (Michael W. Deem and Ramdas Pophale) SiO2 
 PCOD8032378
Probable space group: P -1
;
_chemical_formula_sum "Si O2"
_cell_formula_units_Z 14
_cell_length_a 18.515920
_cell_length_b 13.206718
_cell_length_c 9.293647
_cell_angle_alpha 30.239130
_cell_angle_beta 135.662940
_cell_angle_gamma 143.835841
_cell_volume 674.170465
_symmetry_space_group_name_H-M "P -1"
_symmetry_group_IT_number 2
_symmetry_cell_setting 'triclinic'
loop_
_space_group_symop_operation_xyz
x,y,z
-x,-y,-z
loop_
_atom_site_type_symbol
_atom_site_label
_atom_site_fract_x
_atom_site_fract_y
_atom_site_fract_z
Si Si1 0.975531 0.365480 0.281090
Si Si2 0.401336 0.518200 0.749049
Si Si3 0.511969 0.033291 0.144624
Si Si4 0.683685 0.917030 0.042542
Si Si5 0.119826 0.066366 0.501603
Si Si6 0.787983 0.434156 0.102777
Si Si7 0.211472 0.585521 0.544145
O O1 0.874511 0.372306 0.220285
O O2 0.097875 0.471292 0.415905
O O3 0.923208 0.089479 0.513394
O O4 0.000000 0.500000 0.000000
O O5 0.345335 0.319651 0.789433
O O6 0.294629 0.481950 0.747325
O O7 0.466414 0.777081 0.456650
O O8 0.500000 0.500000 0.000000
O O9 0.649598 0.214521 0.168192
O O10 0.431237 0.135641 0.959660
O O11 0.500000 0.000000 0.000000
O O12 0.800207 0.002601 0.204958
O O13 0.714897 0.127117 0.716534
O O14 0.201835 0.340738 0.236338
O O15 0.000000 0.000000 0.500000
O O16 0.831881 0.490641 0.260946
#
# Coordination Sequence:
#
# PCOD8032378 Si02
#       7
#     2   2   2   2   2   2   2
#     4  12  24  44  70  92 131 174 220 272 331 388
#     4  11  24  42  68  95 135 175 216 265 328 393
#     4  11  25  42  65  99 136 174 219 270 325 389
#     4  11  23  42  68  94 135 177 218 266 326 392
#     4  12  24  41  68  97 126 174 224 270 324 389
#     4  12  26  42  67  99 134 168 223 276 326 389
#     4  11  25  44  67 100 134 172 218 273 331 385
#
# _framework density 20.766261
#
# number of rings (size 3 to 8) (size 9 to 14) (size 15 to 20)
#    0.000    0.571    2.857    4.714    2.000    9.714 
#    0.000    0.000    0.000    0.000    0.000    0.000 
#    0.000    0.000    0.000    0.000    0.000    0.000 
#
# Total GULP energy -173683.532634 kJ/mol
# GULP energy per Si atom -12405.966617 kJ/mol
# Density = 2.071900 g / cm^3
# Si number density = 20.766261 Si / 1000 Ang^3
#
#
#
# Elastic Constant Matrix: (Units=GPa)
#
#
# Indices 1 2 3 4 5 6 
#
# 1 183.1833 60.6491 60.2037 7.5194 17.0046 -4.5513
# 2 60.6491 130.1831 32.4920 5.6390 11.3239 -3.8511
# 3 60.2037 32.4920 83.7833 0.7463 13.3613 -7.8913
# 4 7.5194 5.6390 0.7463 47.3799 -4.9592 7.1350
# 5 17.0046 11.3239 13.3613 -4.9592 35.8345 5.9326
# 6 -4.5513 -3.8511 -7.8913 7.1350 5.9326 41.4009
#
#
#
# Elastic Compliance Matrix: (Units=1/GPa)
#
#
# Indices 1 2 3 4 5 6 
#
# 1 0.007914 -0.002381 -0.004494 -0.001090 -0.001511 0.000196
# 2 -0.002381 0.009386 -0.001620 -0.000971 -0.001479 0.000682
# 3 -0.004494 -0.001620 0.016762 -0.000276 -0.004172 0.003196
# 4 -0.001090 -0.000971 -0.000276 0.022640 0.004865 -0.004862
# 5 -0.001511 -0.001479 -0.004172 0.004865 0.032409 -0.006582
# 6 0.000196 0.000682 0.003196 -0.004862 -0.006582 0.026629
#
#
# Mechanical properties :
#
#
# Convention : Reuss Voigt Hill
#
# Bulk Modulus (GPa) = 58.57841 78.20437 68.39139
# Shear Modulus (GPa) = 36.12122 41.17673 38.64898
#
# Velocity S-wave (km/s) = 4.17516 4.45777 4.31878
# Velocity P-wave (km/s) = 7.17721 8.01478 7.60753
#
# Compressibility (1/GPa) = 0.01707114
#
# Stress axis : x y z
#
# Youngs Moduli (GPa) = 126.35462 106.54132 59.65744
#
# Poissons Ratio (x) = 0.25366 0.26813
# Poissons Ratio (y) = 0.30084 0.09667
# Poissons Ratio (z) = 0.56790 0.17264
#
# Static dielectric constant tensor:
#      x y z
#    x 3.933150 -0.049760 0.106400 
#    y -0.049760 4.006480 -0.116250 
#    z 0.106400 -0.116250 3.934320 
# 
# 
# High freq. dielectric constant tensor:
#      x y z
#    x 1.828980 -0.001150 0.008610 
#    y -0.001150 1.830820 -0.002040 
#    z 0.008610 -0.002040 1.820660 
# 
# From -- ./inp_files/27803.got.cif
#   From: 2010.06.25/outbox.cif.g09.slc.cpg/sg2_14_cif.got.tgz:27803.got - 2010.06.27 13:26:56.
