data_PCOD8032971
_publ_section_title
;
Structure prediction by ZEFSAII (Michael W. Deem and Ramdas Pophale) SiO2 
 PCOD8032971
Probable space group: P -1
;
_chemical_formula_sum "Si O2"
_cell_formula_units_Z 16
_cell_length_a 12.247069
_cell_length_b 13.785806
_cell_length_c 9.509335
_cell_angle_alpha 110.812447
_cell_angle_beta 123.901241
_cell_angle_gamma 115.700364
_cell_volume 722.845019
_symmetry_space_group_name_H-M "P -1"
_symmetry_group_IT_number 2
_symmetry_cell_setting 'triclinic'
loop_
_space_group_symop_operation_xyz
x,y,z
-x,-y,-z
loop_
_atom_site_type_symbol
_atom_site_label
_atom_site_fract_x
_atom_site_fract_y
_atom_site_fract_z
Si Si1 0.069659 0.839406 0.634911
Si Si2 0.750634 0.295016 0.708571
Si Si3 0.155046 0.501943 0.608286
Si Si4 0.777130 0.792371 0.580089
Si Si5 0.847670 0.803233 0.933091
Si Si6 0.487281 0.234174 0.237058
Si Si7 0.531616 0.255005 0.785924
Si Si8 0.876145 0.146674 0.640229
O O1 0.034384 0.787959 0.420584
O O2 0.015286 0.704948 0.622712
O O3 0.884459 0.805993 0.528662
O O4 0.324512 0.041989 0.953274
O O5 0.593137 0.254432 0.464256
O O6 0.642935 0.241027 0.757039
O O7 0.763802 0.182090 0.624995
O O8 0.000000 0.500000 0.000000
O O9 0.310861 0.603716 0.636099
O O10 0.000000 0.500000 0.500000
O O11 0.300923 0.594896 0.900637
O O12 0.766121 0.712794 0.671818
O O13 0.530067 0.678201 0.306594
O O14 0.920680 0.986936 0.819760
O O15 0.653358 0.751493 0.830469
O O16 0.909541 0.746100 0.049989
O O17 0.312468 0.064074 0.603356
#
# Coordination Sequence:
#
# PCOD8032971 Si02
#       8
#     2   2   2   2   2   2   2   2
#     4  11  25  44  71 103 138 177 227 286 343 405
#     4  12  26  46  66  99 143 180 229 283 338 410
#     4  12  27  44  67 103 141 180 235 278 336 417
#     4   9  20  40  69  99 134 175 230 284 339 406
#     4   9  20  41  69 101 131 177 233 279 339 407
#     4  11  24  47  73  97 141 185 224 283 345 402
#     4  11  23  44  69  99 137 183 229 283 344 400
#     4  11  24  42  72 102 135 181 229 281 346 409
#
# _framework density 22.134758999999999
#
# number of rings (size 3 to 8) (size 9 to 14) (size 15 to 20)
#    0.000    1.250    2.500    2.625    5.250    5.000 
#    2.250    1.250    0.000    0.000    0.000    0.000 
#    0.000    0.000    0.000    0.000    0.000    0.000 
#
# Total GULP energy -198386.048066 kJ/mol
# GULP energy per Si atom -12399.128004 kJ/mol
# Density = 2.208438 g / cm^3
# Si number density = 22.134759 Si / 1000 Ang^3
#
#
#
# Elastic Constant Matrix: (Units=GPa)
#
#
# Indices 1 2 3 4 5 6 
#
# 1 -3.4952 -60.4390 -79.8853 36.3955 33.4494 -17.5867
# 2 -60.4390 28.1084 -54.9301 39.1108 24.3048 -13.1306
# 3 -79.8853 -54.9301 -24.7333 30.1729 38.0235 -25.9559
# 4 36.3955 39.1108 30.1729 14.6503 -11.5663 12.6676
# 5 33.4494 24.3048 38.0235 -11.5663 30.9379 -2.2308
# 6 -17.5867 -13.1306 -25.9559 12.6676 -2.2308 29.7849
#
#
#
# Elastic Compliance Matrix: (Units=1/GPa)
#
#
# Indices 1 2 3 4 5 6 
#
# 1 0.008738 -0.003773 -0.005800 0.005358 0.002385 -0.003659
# 2 -0.003773 0.011404 -0.007193 -0.001446 0.003232 -0.002612
# 3 -0.005800 -0.007193 0.011816 0.011451 0.001605 -0.001049
# 4 0.005358 -0.001446 0.011451 0.029876 -0.007617 -0.000772
# 5 0.002385 0.003232 0.001605 -0.007617 0.023047 0.009198
# 6 -0.003659 -0.002612 -0.001049 -0.000772 0.009198 0.030365
#
#
# Mechanical properties :
#
#
# Convention : Reuss Voigt Hill
#
# Bulk Modulus (GPa) = -634.81373 -43.40322 -339.10847
# Shear Modulus (GPa) = 33.72595 28.08355 30.90475
#
# Velocity S-wave (km/s) = 3.90765 3.56582 3.74064
# Velocity P-wave (km/s) = 16.34191 1.64249 11.61369
#
# Compressibility (1/GPa) = -0.00157527
#
# Stress axis : x y z
#
# Youngs Moduli (GPa) = 114.44189 87.69170 84.63248
#
# Poissons Ratio (x) = 0.33088 0.49090
# Poissons Ratio (y) = 0.43181 0.60874
# Poissons Ratio (z) = 0.66381 0.63075
#
# Static dielectric constant tensor:
#      x y z
#    x 4.006860 0.020120 0.177640 
#    y 0.020120 4.078790 -0.225480 
#    z 0.177640 -0.225480 3.903780 
# 
# 
# High freq. dielectric constant tensor:
#      x y z
#    x 1.879500 0.008140 0.006680 
#    y 0.008140 1.871380 -0.011310 
#    z 0.006680 -0.011310 1.874860 
# 
# From -- ./inp_files/273886.got.cif
#   From: 2010.06.25/outbox.cif.g09.slc.cpg/sg2_137_cif.got.tgz:273886.got - 2010.06.27 13:26:56.
