data_PCOD8032969
_publ_section_title
;
Structure prediction by ZEFSAII (Michael W. Deem and Ramdas Pophale) SiO2 
 PCOD8032969
Probable space group: P -1
;
_chemical_formula_sum "Si O2"
_cell_formula_units_Z 14
_cell_length_a 16.502319
_cell_length_b 17.210427
_cell_length_c 6.852929
_cell_angle_alpha 37.877034
_cell_angle_beta 127.755974
_cell_angle_gamma 147.809962
_cell_volume 627.300075
_symmetry_space_group_name_H-M "P -1"
_symmetry_group_IT_number 2
_symmetry_cell_setting 'triclinic'
loop_
_space_group_symop_operation_xyz
x,y,z
-x,-y,-z
loop_
_atom_site_type_symbol
_atom_site_label
_atom_site_fract_x
_atom_site_fract_y
_atom_site_fract_z
Si Si1 0.265019 0.081176 0.813046
Si Si2 0.917842 0.694979 0.114613
Si Si3 0.226418 0.672917 0.562716
Si Si4 0.610154 0.556125 0.877568
Si Si5 0.703526 0.073251 0.170674
Si Si6 0.476291 0.182763 0.253891
Si Si7 0.928009 0.314460 0.354890
O O1 0.345420 0.292448 0.510115
O O2 0.317331 0.065761 0.721555
O O3 0.332338 0.059053 0.136546
O O4 0.078393 0.916322 0.865776
O O5 0.889449 0.552373 0.202082
O O6 0.938997 0.658944 0.435010
O O7 0.774091 0.655756 0.000122
O O8 0.374765 0.753380 0.738581
O O9 0.158729 0.720256 0.504891
O O10 0.267222 0.771569 0.215096
O O11 0.500000 0.500000 0.000000
O O12 0.519275 0.365624 0.005059
O O13 0.833216 0.160287 0.350183
O O14 0.553768 0.932576 0.369248
O O15 0.000000 0.500000 0.000000
#
# Coordination Sequence:
#
# PCOD8032969 Si02
#       7
#     2   2   2   2   2   2   2
#     4  12  24  45  70  95 137 175 228 276 325 393
#     4  11  23  44  69  99 132 178 218 275 334 392
#     4  11  24  42  67 101 142 174 215 272 335 401
#     4  11  25  47  71  94 131 176 228 280 332 389
#     4  12  22  40  70  97 139 173 222 263 336 392
#     4  11  25  43  69 100 133 180 220 272 339 393
#     4  12  23  40  67 100 139 174 220 266 334 402
#
# _framework density 22.317867
#
# number of rings (size 3 to 8) (size 9 to 14) (size 15 to 20)
#    0.000    0.571    5.714    2.571    0.000    4.571 
#    0.000    4.286    0.000    0.000    0.000    0.000 
#    0.000    0.000    0.000    0.000    0.000    0.000 
#
# Total GULP energy -173457.152613 kJ/mol
# GULP energy per Si atom -12389.796615 kJ/mol
# Density = 2.226707 g / cm^3
# Si number density = 22.317867 Si / 1000 Ang^3
#
#
#
# Elastic Constant Matrix: (Units=GPa)
#
#
# Indices 1 2 3 4 5 6 
#
# 1 72.0540 40.6713 27.6547 24.2894 -3.4773 12.6559
# 2 40.6713 120.2917 32.0378 10.9709 -7.8633 12.3453
# 3 27.6547 32.0378 126.3198 -2.6009 -13.8394 2.8146
# 4 24.2894 10.9709 -2.6009 46.3593 4.5752 3.3898
# 5 -3.4773 -7.8633 -13.8394 4.5752 24.8626 4.5322
# 6 12.6559 12.3453 2.8146 3.3898 4.5322 31.9865
#
#
#
# Elastic Compliance Matrix: (Units=1/GPa)
#
#
# Indices 1 2 3 4 5 6 
#
# 1 0.022921 -0.005017 -0.003532 -0.010848 0.002754 -0.006062
# 2 -0.005017 0.010769 -0.001316 -0.000057 0.002418 -0.002392
# 3 -0.003532 -0.001316 0.009492 0.002289 0.003902 0.000275
# 4 -0.010848 -0.000057 0.002289 0.027818 -0.005741 0.001978
# 5 0.002754 0.002418 0.003902 -0.005741 0.046111 -0.008292
# 6 -0.006062 -0.002392 0.000275 0.001978 -0.008292 0.035526
#
#
# Mechanical properties :
#
#
# Convention : Reuss Voigt Hill
#
# Bulk Modulus (GPa) = 42.64156 57.71036 50.17596
# Shear Modulus (GPa) = 27.74937 35.19513 31.47225
#
# Velocity S-wave (km/s) = 3.52997 3.97545 3.75931
# Velocity P-wave (km/s) = 5.98015 6.85469 6.43230
#
# Compressibility (1/GPa) = 0.02345130
#
# Stress axis : x y z
#
# Youngs Moduli (GPa) = 43.62825 92.86152 105.35320
#
# Poissons Ratio (x) = 0.46592 0.37211
# Poissons Ratio (y) = 0.21890 0.13861
# Poissons Ratio (z) = 0.15409 0.12218
#
# Static dielectric constant tensor:
#      x y z
#    x 3.704400 0.111340 0.005000 
#    y 0.111340 4.097620 -0.105390 
#    z 0.005000 -0.105390 4.172460 
# 
# 
# High freq. dielectric constant tensor:
#      x y z
#    x 1.854310 0.004250 0.001860 
#    y 0.004250 1.903360 -0.010230 
#    z 0.001860 -0.010230 1.889800 
# 
# From -- ./inp_files/46176.got.cif
#   From: 2010.06.25/outbox.cif.g09.slc.cpg/sg2_24_cif.got.tgz:46176.got - 2010.06.27 13:26:56.
