data_PCOD8032719
_publ_section_title
;
Structure prediction by ZEFSAII (Michael W. Deem and Ramdas Pophale) SiO2 
 PCOD8032719
Probable space group: P -1
;
_chemical_formula_sum "Si O2"
_cell_formula_units_Z 16
_cell_length_a 20.762623
_cell_length_b 9.140372
_cell_length_c 17.472177
_cell_angle_alpha 35.403917
_cell_angle_beta 151.434499
_cell_angle_gamma 151.533787
_cell_volume 742.145328
_symmetry_space_group_name_H-M "P -1"
_symmetry_group_IT_number 2
_symmetry_cell_setting 'triclinic'
loop_
_space_group_symop_operation_xyz
x,y,z
-x,-y,-z
loop_
_atom_site_type_symbol
_atom_site_label
_atom_site_fract_x
_atom_site_fract_y
_atom_site_fract_z
Si Si1 0.015240 0.292949 0.005870
Si Si2 0.687532 0.627980 0.919144
Si Si3 0.571389 0.395593 0.055261
Si Si4 0.180029 0.247700 0.612153
Si Si5 0.906914 0.643489 0.371760
Si Si6 0.142670 0.347843 0.276182
Si Si7 0.578455 0.355859 0.441381
Si Si8 0.717811 0.196688 0.045258
O O1 0.125229 0.293070 0.189657
O O2 0.142812 0.495777 0.985591
O O3 0.918000 0.437470 0.863917
O O4 0.874996 0.942510 0.980722
O O5 0.574661 0.615978 0.737344
O O6 0.586004 0.567805 0.917263
O O7 0.695332 0.332596 0.041440
O O8 0.757870 0.512910 0.213303
O O9 0.500000 0.500000 0.000000
O O10 0.456430 0.017318 0.091824
O O11 0.169939 0.450741 0.582223
O O12 0.287849 0.468346 0.561180
O O13 0.245760 0.055958 0.794855
O O14 0.000000 0.000000 0.500000
O O15 0.000000 0.500000 0.500000
O O16 0.026542 0.017307 0.337652
O O17 0.329489 0.519538 0.432636
O O18 0.500000 0.000000 0.500000
#
# Coordination Sequence:
#
# PCOD8032719 Si02
#       8
#     2   2   2   2   2   2   2   2
#     4  11  23  46  73  96 141 185 237 285 353 428
#     4  12  26  43  72 104 139 188 236 294 351 424
#     4  12  24  46  71 103 138 188 241 289 352 420
#     4  12  25  44  72  98 140 187 227 293 357 420
#     4  12  26  44  70 106 140 183 241 294 353 424
#     4  11  23  43  70  97 137 185 230 284 357 412
#     4  12  25  45  69 103 142 183 232 288 361 422
#     4  12  26  44  72 105 141 180 245 293 351 422
#
# _framework density 21.559118999999999
#
# number of rings (size 3 to 8) (size 9 to 14) (size 15 to 20)
#    0.000    0.250    7.500    0.750    5.250    1.000 
#    2.250    0.625    0.000    0.000    0.000    0.000 
#    0.000    0.000    0.000    0.000    0.000    0.000 
#
# Total GULP energy -198337.907950 kJ/mol
# GULP energy per Si atom -12396.119247 kJ/mol
# Density = 2.151005 g / cm^3
# Si number density = 21.559119 Si / 1000 Ang^3
#
#
#
# Elastic Constant Matrix: (Units=GPa)
#
#
# Indices 1 2 3 4 5 6 
#
# 1 89.4689 48.1945 39.3600 -4.2592 -3.5746 -3.2650
# 2 48.1945 164.9656 44.1605 22.9429 0.9159 0.2528
# 3 39.3600 44.1605 123.9244 27.0796 -6.5026 -13.0081
# 4 -4.2592 22.9429 27.0796 41.0051 -6.5004 -0.2659
# 5 -3.5746 0.9159 -6.5026 -6.5004 29.9777 -4.5653
# 6 -3.2650 0.2528 -13.0081 -0.2659 -4.5653 39.7413
#
#
#
# Elastic Compliance Matrix: (Units=1/GPa)
#
#
# Indices 1 2 3 4 5 6 
#
# 1 0.016422 -0.004545 -0.005227 0.008134 0.002733 0.000036
# 2 -0.004545 0.008268 -0.000609 -0.005044 -0.002158 -0.000907
# 3 -0.005227 -0.000609 0.012126 -0.008057 0.000825 0.003585
# 4 0.008134 -0.005044 -0.008057 0.034431 0.006700 -0.000937
# 5 0.002733 -0.002158 0.000825 0.006700 0.036097 0.004700
# 6 0.000036 -0.000907 0.003585 -0.000937 0.004700 0.026878
#
#
# Mechanical properties :
#
#
# Convention : Reuss Voigt Hill
#
# Bulk Modulus (GPa) = 62.28459 71.30989 66.79724
# Shear Modulus (GPa) = 31.18458 38.58775 34.88616
#
# Velocity S-wave (km/s) = 3.80737 4.23526 4.02700
# Velocity P-wave (km/s) = 6.94845 7.55413 7.25761
#
# Compressibility (1/GPa) = 0.01605533
#
# Stress axis : x y z
#
# Youngs Moduli (GPa) = 60.89236 120.95458 82.46439
#
# Poissons Ratio (x) = 0.54975 0.43101
# Poissons Ratio (y) = 0.27676 0.05021
# Poissons Ratio (z) = 0.31826 0.07364
#
# Static dielectric constant tensor:
#      x y z
#    x 3.846860 -0.012100 -0.180110 
#    y -0.012100 4.113190 0.140340 
#    z -0.180110 0.140340 3.852390 
# 
# 
# High freq. dielectric constant tensor:
#      x y z
#    x 1.840360 0.000210 -0.006450 
#    y 0.000210 1.864450 0.019840 
#    z -0.006450 0.019840 1.847440 
# 
# From -- ./inp_files/577556.got.cif
#   From: 2010.06.25/outbox.cif.g09.slc.cpg/sg2_289_cif.got.tgz:577556.got - 2010.06.27 13:26:56.
