data_PCOD8032082
_publ_section_title
;
Structure prediction by ZEFSAII (Michael W. Deem and Ramdas Pophale) SiO2 
 PCOD8032082
Probable space group: P -1
;
_chemical_formula_sum "Si O2"
_cell_formula_units_Z 14
_cell_length_a 6.459779
_cell_length_b 24.520838
_cell_length_c 15.222058
_cell_angle_alpha 161.820751
_cell_angle_beta 56.904903
_cell_angle_gamma 124.266183
_cell_volume 621.115177
_symmetry_space_group_name_H-M "P -1"
_symmetry_group_IT_number 2
_symmetry_cell_setting 'triclinic'
loop_
_space_group_symop_operation_xyz
x,y,z
-x,-y,-z
loop_
_atom_site_type_symbol
_atom_site_label
_atom_site_fract_x
_atom_site_fract_y
_atom_site_fract_z
Si Si1 0.640785 0.412176 0.405768
Si Si2 0.314544 0.871570 0.783971
Si Si3 0.304872 0.305866 0.672123
Si Si4 0.532115 0.679819 0.147176
Si Si5 0.801831 0.040527 0.372761
Si Si6 0.208597 0.129222 0.063247
Si Si7 0.141726 0.300833 0.064318
O O1 0.500000 0.500000 0.500000
O O2 0.427619 0.261407 0.264732
O O3 0.719349 0.554142 0.679478
O O4 0.851754 0.318659 0.167355
O O5 0.453867 0.724608 0.486122
O O6 0.052990 0.792238 0.773139
O O7 0.500000 0.000000 0.000000
O O8 0.186173 0.955197 0.860327
O O9 0.331851 0.270355 0.715139
O O10 0.062089 0.171426 0.490604
O O11 0.308718 0.511978 0.961531
O O12 0.405105 0.835655 0.371583
O O13 0.747527 0.647419 0.978914
O O14 0.705642 0.918232 0.125482
O O15 0.827848 0.903254 0.235230
#
# Coordination Sequence:
#
# PCOD8032082 Si02
#       7
#     2   2   2   2   2   2   2
#     4  11  25  45  69 104 135 170 226 294 345 409
#     4  11  23  40  71 102 131 181 223 287 342 410
#     4  11  25  45  69  97 142 177 236 284 341 401
#     4  11  27  46  66  99 138 187 232 281 336 412
#     4  12  23  46  69 100 139 183 228 283 339 417
#     4  11  24  40  69 103 137 171 225 284 354 400
#     4  11  27  44  74 100 137 184 230 282 353 410
#
# _framework density 22.540102999999998
#
# number of rings (size 3 to 8) (size 9 to 14) (size 15 to 20)
#    0.000    0.857    4.286    1.714    4.000    1.714 
#    2.571    0.000    0.000    0.000    0.000    0.000 
#    0.000    0.000    0.000    0.000    0.000    0.000 
#
# Total GULP energy -173483.976291 kJ/mol
# GULP energy per Si atom -12391.712592 kJ/mol
# Density = 2.248880 g / cm^3
# Si number density = 22.540103 Si / 1000 Ang^3
#
#
#
# Elastic Constant Matrix: (Units=GPa)
#
#
# Indices 1 2 3 4 5 6 
#
# 1 101.3153 37.2349 39.6374 -5.2443 -2.9085 17.8251
# 2 37.2349 89.0846 44.0777 -9.8460 -1.6438 8.1229
# 3 39.6374 44.0777 101.3947 -4.8330 -8.7532 7.8002
# 4 -5.2443 -9.8460 -4.8330 40.8742 3.4690 0.5449
# 5 -2.9085 -1.6438 -8.7532 3.4690 35.0810 6.8322
# 6 17.8251 8.1229 7.8002 0.5449 6.8322 45.8494
#
#
#
# Elastic Compliance Matrix: (Units=1/GPa)
#
#
# Indices 1 2 3 4 5 6 
#
# 1 0.013179 -0.003470 -0.003231 0.000453 0.000877 -0.004095
# 2 -0.003470 0.015663 -0.005385 0.002789 -0.001099 -0.000379
# 3 -0.003231 -0.005385 0.013759 -0.000337 0.003060 -0.000583
# 4 0.000453 0.002789 -0.000337 0.025359 -0.002312 -0.000570
# 5 0.000877 -0.001099 0.003060 -0.002312 0.030529 -0.005188
# 6 -0.004095 -0.000379 -0.000583 -0.000570 -0.005188 0.024349
#
#
# Mechanical properties :
#
#
# Convention : Reuss Voigt Hill
#
# Bulk Modulus (GPa) = 54.26391 59.29941 56.78166
# Shear Modulus (GPa) = 32.64707 35.75055 34.19881
#
# Velocity S-wave (km/s) = 3.80991 3.98689 3.89941
# Velocity P-wave (km/s) = 6.59398 6.89632 6.74684
#
# Compressibility (1/GPa) = 0.01842845
#
# Stress axis : x y z
#
# Youngs Moduli (GPa) = 75.88046 63.84611 72.67741
#
# Poissons Ratio (x) = 0.22154 0.23483
# Poissons Ratio (y) = 0.26330 0.39138
# Poissons Ratio (z) = 0.24517 0.34382
#
# Static dielectric constant tensor:
#      x y z
#    x 4.021810 -0.251240 -0.190190 
#    y -0.251240 4.108530 -0.241840 
#    z -0.190190 -0.241840 4.045080 
# 
# 
# High freq. dielectric constant tensor:
#      x y z
#    x 1.892890 0.003760 -0.004390 
#    y 0.003760 1.889930 0.002760 
#    z -0.004390 0.002760 1.893890 
# 
# From -- ./inp_files/100862.got.cif
#   From: 2010.06.25/outbox.cif.g09.slc.cpg/sg2_51_cif.got.tgz:100862.got - 2010.06.27 13:26:56.
