data_PCOD8032544
_publ_section_title
;
Structure prediction by ZEFSAII (Michael W. Deem and Ramdas Pophale) SiO2 
 PCOD8032544
Probable space group: P -1
;
_chemical_formula_sum "Si O2"
_cell_formula_units_Z 14
_cell_length_a 8.989357
_cell_length_b 13.640016
_cell_length_c 14.399194
_cell_angle_alpha 45.628085
_cell_angle_beta 136.783040
_cell_angle_gamma 147.349881
_cell_volume 634.462759
_symmetry_space_group_name_H-M "P -1"
_symmetry_group_IT_number 2
_symmetry_cell_setting 'triclinic'
loop_
_space_group_symop_operation_xyz
x,y,z
-x,-y,-z
loop_
_atom_site_type_symbol
_atom_site_label
_atom_site_fract_x
_atom_site_fract_y
_atom_site_fract_z
Si Si1 0.289653 0.086638 0.304190
Si Si2 0.243930 0.469686 0.350983
Si Si3 0.763581 0.236108 0.755455
Si Si4 0.693476 0.441433 0.887938
Si Si5 0.326666 0.961337 0.588313
Si Si6 0.579747 0.481306 0.151619
Si Si7 0.823529 0.974962 0.026688
O O1 0.393547 0.997415 0.355165
O O2 0.555436 0.307814 0.266768
O O3 0.207571 0.015917 0.420306
O O4 0.999581 0.026592 0.167090
O O5 0.500000 0.500000 0.500000
O O6 0.205263 0.605492 0.284065
O O7 0.360599 0.533755 0.257480
O O8 0.936459 0.252197 0.357260
O O9 0.082131 0.340996 0.782215
O O10 0.476564 0.113251 0.638940
O O11 0.727162 0.093103 0.903832
O O12 0.658888 0.558956 0.859320
O O13 0.470720 0.236411 0.963097
O O14 0.000000 0.500000 0.000000
O O15 0.500000 0.500000 0.000000
O O16 0.000000 0.000000 0.000000
#
# Coordination Sequence:
#
# PCOD8032544 Si02
#       7
#     2   2   2   2   2   2   2
#     4  11  23  42  75 108 140 185 255 305 348 434
#     4  12  29  51  68 104 159 191 239 310 378 436
#     4  12  25  45  80 100 144 199 245 300 365 434
#     4  12  27  45  72 109 150 191 238 308 376 431
#     4  11  25  46  71 107 145 190 247 303 361 441
#     4  12  23  45  78 109 142 192 250 304 363 438
#     4  12  22  45  75 107 141 187 251 305 355 435
#
# _framework density 22.065913999999999
#
# number of rings (size 3 to 8) (size 9 to 14) (size 15 to 20)
#    0.000    0.286    5.714    2.571    2.000    2.857 
#    5.143    0.000    0.000    0.000    0.000    0.000 
#    0.000    0.000    0.000    0.000    0.000    0.000 
#
# Total GULP energy -173581.680463 kJ/mol
# GULP energy per Si atom -12398.691462 kJ/mol
# Density = 2.201569 g / cm^3
# Si number density = 22.065914 Si / 1000 Ang^3
#
#
#
# Elastic Constant Matrix: (Units=GPa)
#
#
# Indices 1 2 3 4 5 6 
#
# 1 114.5693 38.1935 53.6383 2.9134 -15.1668 -1.0877
# 2 38.1935 138.7288 43.0747 -2.1628 -15.1343 -2.2633
# 3 53.6383 43.0747 153.2748 -0.1586 -14.4705 -5.2481
# 4 2.9134 -2.1628 -0.1586 47.6066 0.2864 0.9202
# 5 -15.1668 -15.1343 -14.4705 0.2864 26.6884 0.3376
# 6 -1.0877 -2.2633 -5.2481 0.9202 0.3376 34.7116
#
#
#
# Elastic Compliance Matrix: (Units=1/GPa)
#
#
# Indices 1 2 3 4 5 6 
#
# 1 0.011282 -0.001747 -0.003113 -0.000798 0.003744 -0.000246
# 2 -0.001747 0.008489 -0.001481 0.000465 0.003009 0.000233
# 3 -0.003113 -0.001481 0.008239 0.000120 0.001844 0.001030
# 4 -0.000798 0.000465 0.000120 0.021088 -0.000344 -0.000532
# 5 0.003744 0.003009 0.001844 -0.000344 0.042305 0.000190
# 6 -0.000246 0.000233 0.001030 -0.000532 0.000190 0.028984
#
#
# Mechanical properties :
#
#
# Convention : Reuss Voigt Hill
#
# Bulk Modulus (GPa) = 65.24616 75.15398 70.20007
# Shear Modulus (GPa) = 36.18473 39.91242 38.04857
#
# Velocity S-wave (km/s) = 4.05390 4.25759 4.15699
# Velocity P-wave (km/s) = 7.17949 7.63559 7.41105
#
# Compressibility (1/GPa) = 0.01532657
#
# Stress axis : x y z
#
# Youngs Moduli (GPa) = 88.63818 117.80270 121.36866
#
# Poissons Ratio (x) = 0.20586 0.37779
# Poissons Ratio (y) = 0.15489 0.17980
# Poissons Ratio (z) = 0.27591 0.17452
#
# Static dielectric constant tensor:
#      x y z
#    x 3.853660 -0.253490 0.202720 
#    y -0.253490 4.104760 -0.262640 
#    z 0.202720 -0.262640 4.564630 
# 
# 
# High freq. dielectric constant tensor:
#      x y z
#    x 1.853750 -0.004230 0.003100 
#    y -0.004230 1.885600 -0.006110 
#    z 0.003100 -0.006110 1.884340 
# 
# From -- ./inp_files/245279.got.cif
#   From: 2010.06.25/outbox.cif.g09.slc.cpg/sg2_123_cif.got.tgz:245279.got - 2010.06.27 13:26:56.
