data_PCOD8032520
_publ_section_title
;
Structure prediction by ZEFSAII (Michael W. Deem and Ramdas Pophale) SiO2 
 PCOD8032520
Probable space group: P -1
;
_chemical_formula_sum "Si O2"
_cell_formula_units_Z 16
_cell_length_a 12.416957
_cell_length_b 12.413265
_cell_length_c 21.728097
_cell_angle_alpha 149.077003
_cell_angle_beta 24.121497
_cell_angle_gamma 143.495616
_cell_volume 699.861617
_symmetry_space_group_name_H-M "P -1"
_symmetry_group_IT_number 2
_symmetry_cell_setting 'triclinic'
loop_
_space_group_symop_operation_xyz
x,y,z
-x,-y,-z
loop_
_atom_site_type_symbol
_atom_site_label
_atom_site_fract_x
_atom_site_fract_y
_atom_site_fract_z
Si Si1 0.702030 0.284726 0.483646
Si Si2 0.173832 0.910623 0.417326
Si Si3 0.874811 0.010465 0.845670
Si Si4 0.053414 0.372215 0.017809
Si Si5 0.103636 0.452909 0.265988
Si Si6 0.137201 0.203894 0.693345
Si Si7 0.575697 0.581504 0.797284
Si Si8 0.763577 0.823961 0.048647
O O1 0.405679 0.183934 0.580547
O O2 0.713803 0.493673 0.622099
O O3 0.823462 0.336937 0.377813
O O4 0.866820 0.115529 0.347331
O O5 0.051897 0.672045 0.370815
O O6 0.487942 0.927608 0.247699
O O7 0.115907 0.033650 0.568505
O O8 0.000000 0.000000 0.500000
O O9 0.877552 0.173447 0.981541
O O10 0.893076 0.143555 0.838186
O O11 0.613332 0.839229 0.899619
O O12 0.276121 0.473198 0.903364
O O13 0.181397 0.306046 0.982364
O O14 0.869010 0.561694 0.217287
O O15 0.288266 0.491204 0.247728
O O16 0.253805 0.325748 0.074913
O O17 0.000000 0.000000 0.000000
#
# Coordination Sequence:
#
# PCOD8032520 Si02
#       8
#     2   2   2   2   2   2   2   2
#     4  11  23  43  72 102 135 182 228 286 345 416
#     4  12  26  44  70 103 137 180 236 292 345 410
#     4  11  23  43  69 103 137 184 230 279 353 412
#     4  12  26  45  68 102 142 183 230 285 346 418
#     4  11  23  44  70 100 134 181 232 281 349 417
#     4  12  25  43  67 101 145 179 228 286 346 410
#     4  11  23  42  74 100 139 180 233 281 347 412
#     4  12  26  48  74  98 138 187 235 286 352 419
#
# _framework density 22.861661000000002
#
# number of rings (size 3 to 8) (size 9 to 14) (size 15 to 20)
#    0.000    0.500    2.500    7.875    1.750    1.500 
#    2.250    2.500    0.000    0.000    0.000    0.000 
#    0.000    0.000    0.000    0.000    0.000    0.000 
#
# Total GULP energy -198406.271903 kJ/mol
# GULP energy per Si atom -12400.391994 kJ/mol
# Density = 2.280963 g / cm^3
# Si number density = 22.861661 Si / 1000 Ang^3
#
#
#
# Elastic Constant Matrix: (Units=GPa)
#
#
# Indices 1 2 3 4 5 6 
#
# 1 80.9693 19.4508 23.5549 4.0047 26.6092 -9.1723
# 2 19.4508 115.7231 12.0076 1.7970 -7.5700 -10.6845
# 3 23.5549 12.0076 57.3442 -3.5923 -5.6518 -9.4930
# 4 4.0047 1.7970 -3.5923 33.2116 -15.5123 -0.2585
# 5 26.6092 -7.5700 -5.6518 -15.5123 12.5638 2.2685
# 6 -9.1723 -10.6845 -9.4930 -0.2585 2.2685 35.5782
#
#
#
# Elastic Compliance Matrix: (Units=1/GPa)
#
#
# Indices 1 2 3 4 5 6 
#
# 1 -0.005434 0.002515 0.006991 0.021095 0.042456 -0.001334
# 2 0.002515 0.008338 -0.003531 -0.005265 -0.008885 0.002739
# 3 0.006991 -0.003531 0.012940 -0.011543 -0.026411 0.005795
# 4 0.021095 -0.005265 -0.011543 0.003604 -0.049306 0.003948
# 5 0.042456 -0.008885 -0.026411 -0.049306 -0.089625 0.006587
# 6 -0.001334 0.002739 0.005795 0.003948 0.006587 0.029740
#
#
# Mechanical properties :
#
#
# Convention : Reuss Voigt Hill
#
# Bulk Modulus (GPa) = 35.98149 40.45145 38.21647
# Shear Modulus (GPa) = -115.94992 29.53894 -43.20549
#
# Velocity S-wave (km/s) = -7.12939 3.59844 -4.35198
# Velocity P-wave (km/s) = 7.21096 5.91587 2.91552
#
# Compressibility (1/GPa) = 0.02779207
#
# Stress axis : x y z
#
# Youngs Moduli (GPa) = -184.01254 119.92619 77.28240
#
# Poissons Ratio (x) = -0.30156 -0.54026
# Poissons Ratio (y) = 0.46271 0.27289
# Poissons Ratio (z) = 1.28638 0.42346
#
# Static dielectric constant tensor:
#      x y z
#    x 3.651630 0.140000 0.137040 
#    y 0.140000 4.259950 0.061100 
#    z 0.137040 0.061100 4.285070 
# 
# 
# High freq. dielectric constant tensor:
#      x y z
#    x 1.904430 -0.000040 0.003410 
#    y -0.000040 1.914410 0.008470 
#    z 0.003410 0.008470 1.907920 
# 
# From -- ./inp_files/467036.got.cif
#   From: 2010.06.25/outbox.cif.g09.slc.cpg/sg2_234_cif.got.tgz:467036.got - 2010.06.27 13:26:56.
