data_PCOD8032666
_publ_section_title
;
Structure prediction by ZEFSAII (Michael W. Deem and Ramdas Pophale) SiO2 
 PCOD8032666
Probable space group: P -1
;
_chemical_formula_sum "Si O2"
_cell_formula_units_Z 12
_cell_length_a 10.435395
_cell_length_b 13.587467
_cell_length_c 11.439797
_cell_angle_alpha 47.588435
_cell_angle_beta 154.948626
_cell_angle_gamma 128.408878
_cell_volume 506.825022
_symmetry_space_group_name_H-M "P -1"
_symmetry_group_IT_number 2
_symmetry_cell_setting 'triclinic'
loop_
_space_group_symop_operation_xyz
x,y,z
-x,-y,-z
loop_
_atom_site_type_symbol
_atom_site_label
_atom_site_fract_x
_atom_site_fract_y
_atom_site_fract_z
Si Si1 0.406950 0.975253 0.195130
Si Si2 0.578823 0.357550 0.229779
Si Si3 0.907255 0.359014 0.982689
Si Si4 0.944313 0.149019 0.567996
Si Si5 0.922179 0.286161 0.790220
Si Si6 0.320936 0.206517 0.608255
O O1 0.495176 0.920308 0.183096
O O2 0.702449 0.025707 0.468608
O O3 0.231078 0.861513 0.215215
O O4 0.207801 0.105072 0.907596
O O5 0.807444 0.285826 0.389097
O O6 0.269718 0.269594 0.054816
O O7 0.500000 0.500000 0.000000
O O8 0.258351 0.625934 0.522993
O O9 0.565694 0.315213 0.775374
O O10 0.000000 0.500000 0.000000
O O11 0.910918 0.363555 0.841777
O O12 0.153005 0.256918 0.312832
O O13 0.068134 0.171306 0.522297
#
# Coordination Sequence:
#
# PCOD8032666 Si02
#       6
#     2   2   2   2   2   2
#     4  11  23  44  73 105 140 178 238 292 354 404
#     4  12  28  48  70 100 146 191 234 286 346 417
#     4  11  24  44  72 104 137 193 229 288 353 410
#     4  12  25  43  72 105 142 190 227 283 355 421
#     4  11  25  48  72 101 142 183 237 297 339 414
#     4  11  23  43  69 108 146 174 234 294 352 413
#
# _framework density 23.67681
#
# number of rings (size 3 to 8) (size 9 to 14) (size 15 to 20)
#    0.000    0.667    0.000    9.000    2.333    4.000 
#    0.000    0.000    0.000    0.000    0.000    0.000 
#    0.000    0.000    0.000    0.000    0.000    0.000 
#
# Total GULP energy -148867.630800 kJ/mol
# GULP energy per Si atom -12405.635900 kJ/mol
# Density = 2.362292 g / cm^3
# Si number density = 23.676810 Si / 1000 Ang^3
#
#
#
# Elastic Constant Matrix: (Units=GPa)
#
#
# Indices 1 2 3 4 5 6 
#
# 1 80.6777 41.1451 49.7930 -9.1197 4.0690 1.3516
# 2 41.1451 95.1572 44.7563 4.1849 6.6390 -7.4542
# 3 49.7930 44.7563 149.7283 1.0101 -2.0352 2.6529
# 4 -9.1197 4.1849 1.0101 51.8087 -0.6529 -0.0964
# 5 4.0690 6.6390 -2.0352 -0.6529 46.8081 6.1709
# 6 1.3516 -7.4542 2.6529 -0.0964 6.1709 23.3237
#
#
#
# Elastic Compliance Matrix: (Units=1/GPa)
#
#
# Indices 1 2 3 4 5 6 
#
# 1 0.018874 -0.006453 -0.004337 0.003917 -0.000529 -0.002507
# 2 -0.006453 0.015265 -0.002546 -0.002340 -0.002566 0.006212
# 3 -0.004337 -0.002546 0.008940 -0.000718 0.001373 -0.001946
# 4 0.003917 -0.002340 -0.000718 0.020197 0.000361 -0.000905
# 5 -0.000529 -0.002566 0.001373 0.000361 0.022757 -0.006965
# 6 -0.002507 0.006212 -0.001946 -0.000905 -0.006965 0.047066
#
#
# Mechanical properties :
#
#
# Convention : Reuss Voigt Hill
#
# Bulk Modulus (GPa) = 60.94861 66.32802 63.63831
# Shear Modulus (GPa) = 30.25892 37.04603 33.65247
#
# Velocity S-wave (km/s) = 3.57879 3.95986 3.77414
# Velocity P-wave (km/s) = 6.54788 6.99872 6.77705
#
# Compressibility (1/GPa) = 0.01640727
#
# Stress axis : x y z
#
# Youngs Moduli (GPa) = 52.98279 65.50826 111.85458
#
# Poissons Ratio (x) = 0.42271 0.48512
# Poissons Ratio (y) = 0.34189 0.28481
# Poissons Ratio (z) = 0.22979 0.16680
#
# Static dielectric constant tensor:
#      x y z
#    x 4.153010 0.142790 0.045110 
#    y 0.142790 4.095970 0.247880 
#    z 0.045110 0.247880 4.631410 
# 
# 
# High freq. dielectric constant tensor:
#      x y z
#    x 1.933270 0.002950 0.000430 
#    y 0.002950 1.933190 0.013450 
#    z 0.000430 0.013450 1.963310 
# 
# From -- ./inp_files/47130.got.cif
#   From: 2010.06.25/outbox.cif.g09.slc.cpg/sg2_24_cif.got.tgz:47130.got - 2010.06.27 13:26:56.
