data_PCOD8032087
_publ_section_title
;
Structure prediction by ZEFSAII (Michael W. Deem and Ramdas Pophale) SiO2 
 PCOD8032087
Probable space group: P -1
;
_chemical_formula_sum "Si O2"
_cell_formula_units_Z 16
_cell_length_a 11.347822
_cell_length_b 9.154550
_cell_length_c 14.141700
_cell_angle_alpha 101.461235
_cell_angle_beta 149.266672
_cell_angle_gamma 78.281634
_cell_volume 734.269990
_symmetry_space_group_name_H-M "P -1"
_symmetry_group_IT_number 2
_symmetry_cell_setting 'triclinic'
loop_
_space_group_symop_operation_xyz
x,y,z
-x,-y,-z
loop_
_atom_site_type_symbol
_atom_site_label
_atom_site_fract_x
_atom_site_fract_y
_atom_site_fract_z
Si Si1 0.580934 0.821487 0.137587
Si Si2 0.349106 0.932824 0.170501
Si Si3 0.978848 0.375668 0.547666
Si Si4 0.288846 0.429030 0.462164
Si Si5 0.775709 0.121940 0.257603
Si Si6 0.796847 0.905774 0.585066
Si Si7 0.187409 0.552348 0.209095
Si Si8 0.061970 0.873928 0.138320
O O1 0.414794 0.820329 0.114796
O O2 0.764385 0.681102 0.250929
O O3 0.706149 0.976500 0.247007
O O4 0.437680 0.805438 0.940938
O O5 0.575516 0.978995 0.387102
O O6 0.177818 0.850699 0.111870
O O7 0.212143 0.083473 0.055826
O O8 0.843982 0.441627 0.553179
O O9 0.842920 0.240102 0.396343
O O10 0.000000 0.500000 0.500000
O O11 0.227998 0.268306 0.436661
O O12 0.204409 0.445279 0.297876
O O13 0.560812 0.446939 0.664799
O O14 0.982026 0.071405 0.323260
O O15 0.817072 0.992878 0.708206
O O16 0.103007 0.720527 0.204757
O O17 0.000000 0.500000 0.000000
#
# Coordination Sequence:
#
# PCOD8032087 Si02
#       8
#     2   2   2   2   2   2   2   2
#     4  11  25  44  68 102 137 176 230 282 338 401
#     4  11  23  40  72 102 133 173 231 281 336 401
#     4  12  25  46  69  99 138 187 224 275 348 400
#     4  11  27  47  70 101 139 182 228 277 341 411
#     4  11  25  44  70 100 135 178 230 285 331 403
#     4  12  23  46  72  98 135 175 232 284 331 404
#     4  11  28  48  69 103 143 177 224 283 341 407
#     4  11  26  42  71 104 130 182 228 278 345 397
#
# _framework density 21.790351000000001
#
# number of rings (size 3 to 8) (size 9 to 14) (size 15 to 20)
#    0.000    0.750    5.000    0.750    5.250    3.500 
#    0.000    0.000    0.000    0.000    0.000    0.000 
#    0.000    0.000    0.000    0.000    0.000    0.000 
#
# Total GULP energy -198483.684939 kJ/mol
# GULP energy per Si atom -12405.230309 kJ/mol
# Density = 2.174076 g / cm^3
# Si number density = 21.790351 Si / 1000 Ang^3
#
#
#
# Elastic Constant Matrix: (Units=GPa)
#
#
# Indices 1 2 3 4 5 6 
#
# 1 77.1492 25.6025 28.3745 -7.9573 0.3623 -21.0246
# 2 25.6025 81.4190 47.0687 -23.2199 4.6369 -19.3383
# 3 28.3745 47.0687 130.5444 -27.5328 5.5526 -6.2261
# 4 -7.9573 -23.2199 -27.5328 44.9720 -5.6441 -0.1168
# 5 0.3623 4.6369 5.5526 -5.6441 28.4872 -3.9086
# 6 -21.0246 -19.3383 -6.2261 -0.1168 -3.9086 31.0055
#
#
#
# Elastic Compliance Matrix: (Units=1/GPa)
#
#
# Indices 1 2 3 4 5 6 
#
# 1 0.017391 -0.001132 -0.002709 0.001138 0.002202 0.010824
# 2 -0.001132 0.020148 -0.004996 0.007253 0.000642 0.010904
# 3 -0.002709 -0.004996 0.010656 0.003335 -0.000969 -0.002923
# 4 0.001138 0.007253 0.003335 0.028842 0.004785 0.006677
# 5 0.002202 0.000642 -0.000969 0.004785 0.036983 0.006379
# 6 0.010824 0.010904 -0.002923 0.006677 0.006379 0.046635
#
#
# Mechanical properties :
#
#
# Convention : Reuss Voigt Hill
#
# Bulk Modulus (GPa) = 32.76546 54.57822 43.67184
# Shear Modulus (GPa) = 26.52471 33.43075 29.97773
#
# Velocity S-wave (km/s) = 3.49272 3.92114 3.71311
# Velocity P-wave (km/s) = 5.59775 6.75291 6.20228
#
# Compressibility (1/GPa) = 0.03051995
#
# Stress axis : x y z
#
# Youngs Moduli (GPa) = 57.50126 49.63257 93.84628
#
# Poissons Ratio (x) = 0.05620 0.25424
# Poissons Ratio (y) = 0.06511 0.46886
# Poissons Ratio (z) = 0.15577 0.24797
#
# Static dielectric constant tensor:
#      x y z
#    x 4.076660 -0.134520 0.057120 
#    y -0.134520 4.041690 -0.328230 
#    z 0.057120 -0.328230 4.148410 
# 
# 
# High freq. dielectric constant tensor:
#      x y z
#    x 1.863600 -0.002280 -0.000990 
#    y -0.002280 1.849320 -0.020980 
#    z -0.000990 -0.020980 1.873110 
# 
# From -- ./inp_files/282807.got.cif
#   From: 2010.06.25/outbox.cif.g09.slc.cpg/sg2_142_cif.got.tgz:282807.got - 2010.06.27 13:26:56.
