data_PCOD8032535
_publ_section_title
;
Structure prediction by ZEFSAII (Michael W. Deem and Ramdas Pophale) SiO2 
 PCOD8032535
Probable space group: P -1
;
_chemical_formula_sum "Si O2"
_cell_formula_units_Z 16
_cell_length_a 5.679423
_cell_length_b 11.183278
_cell_length_c 12.524318
_cell_angle_alpha 66.697632
_cell_angle_beta 70.841770
_cell_angle_gamma 71.447493
_cell_volume 673.665944
_symmetry_space_group_name_H-M "P -1"
_symmetry_group_IT_number 2
_symmetry_cell_setting 'triclinic'
loop_
_space_group_symop_operation_xyz
x,y,z
-x,-y,-z
loop_
_atom_site_type_symbol
_atom_site_label
_atom_site_fract_x
_atom_site_fract_y
_atom_site_fract_z
Si Si1 0.336006 0.445453 0.800572
Si Si2 0.576769 0.731779 0.956152
Si Si3 0.728425 0.997461 0.802298
Si Si4 0.644088 0.763157 0.293828
Si Si5 0.773163 0.600424 0.753546
Si Si6 0.840690 0.044378 0.404480
Si Si7 0.900797 0.141918 0.911385
Si Si8 0.349975 0.217237 0.480638
O O1 0.462662 0.343739 0.723890
O O2 0.565067 0.520632 0.767623
O O3 0.059190 0.526260 0.771112
O O4 0.270847 0.372045 0.943929
O O5 0.631812 0.878031 0.914909
O O6 0.636445 0.683329 0.844796
O O7 0.273728 0.754350 0.017754
O O8 0.534815 0.088188 0.716080
O O9 0.741808 0.111757 0.844739
O O10 0.989061 0.928098 0.729713
O O11 0.687863 0.703416 0.428809
O O12 0.893117 0.779662 0.187240
O O13 0.821225 0.698802 0.616240
O O14 0.716632 0.923128 0.432057
O O15 0.641183 0.183705 0.405729
O O16 0.000000 0.000000 0.500000
O O17 0.000000 0.000000 0.000000
#
# Coordination Sequence:
#
# PCOD8032535 Si02
#       8
#     2   2   2   2   2   2   2   2
#     4  12  29  53  77 109 153 213 268 314 375 453
#     4  12  26  49  78 113 154 198 257 326 385 461
#     4  12  24  42  74 117 147 192 242 317 402 454
#     4  12  25  48  74 112 154 198 256 314 390 461
#     4  12  31  52  78 111 151 214 265 316 378 452
#     4  11  23  42  74 110 152 188 239 313 392 468
#     4  12  24  41  71 113 156 193 238 312 398 463
#     4  11  27  46  73 112 152 199 252 317 385 460
#
# _framework density 23.750643
#
# number of rings (size 3 to 8) (size 9 to 14) (size 15 to 20)
#    0.000    0.250    5.000    3.375    7.000    2.000 
#    0.000    0.000    0.000    0.000    0.000    0.000 
#    0.000    0.000    0.000    0.000    0.000    0.000 
#
# Total GULP energy -198305.518401 kJ/mol
# GULP energy per Si atom -12394.094900 kJ/mol
# Density = 2.369659 g / cm^3
# Si number density = 23.750643 Si / 1000 Ang^3
#
#
#
# Elastic Constant Matrix: (Units=GPa)
#
#
# Indices 1 2 3 4 5 6 
#
# 1 110.8707 29.3810 17.4664 -3.9315 -1.2386 -13.6293
# 2 29.3810 70.2861 19.5545 3.3844 0.1646 -9.1230
# 3 17.4664 19.5545 123.2682 6.2387 9.8531 -15.6567
# 4 -3.9315 3.3844 6.2387 35.6200 -9.9389 9.9120
# 5 -1.2386 0.1646 9.8531 -9.9389 43.5769 4.6461
# 6 -13.6293 -9.1230 -15.6567 9.9120 4.6461 48.0545
#
#
#
# Elastic Compliance Matrix: (Units=1/GPa)
#
#
# Indices 1 2 3 4 5 6 
#
# 1 0.010459 -0.004021 -0.000762 0.001400 0.000633 0.001605
# 2 -0.004021 0.016758 -0.001652 -0.002489 -0.000593 0.002074
# 3 -0.000762 -0.001652 0.009376 -0.003485 -0.003310 0.003564
# 4 0.001400 -0.002489 -0.003485 0.034336 0.009652 -0.009226
# 5 0.000633 -0.000593 -0.003310 0.009652 0.026511 -0.005566
# 6 0.001605 0.002074 0.003564 -0.009226 -0.005566 0.025261
#
#
# Mechanical properties :
#
#
# Convention : Reuss Voigt Hill
#
# Bulk Modulus (GPa) = 42.15055 48.58098 45.36577
# Shear Modulus (GPa) = 34.84835 41.31851 38.08343
#
# Velocity S-wave (km/s) = 3.83464 4.17547 4.00868
# Velocity P-wave (km/s) = 6.11487 6.61401 6.36933
#
# Compressibility (1/GPa) = 0.02372448
#
# Stress axis : x y z
#
# Youngs Moduli (GPa) = 95.61117 59.67190 106.65537
#
# Poissons Ratio (x) = 0.23992 0.08124
# Poissons Ratio (y) = 0.38443 0.17619
# Poissons Ratio (z) = 0.07283 0.09858
#
# Static dielectric constant tensor:
#      x y z
#    x 3.861960 -0.305490 0.974500 
#    y -0.305490 4.243450 0.684620 
#    z 0.974500 0.684620 3.582100 
# 
# 
# High freq. dielectric constant tensor:
#      x y z
#    x 1.945810 -0.002970 0.007760 
#    y -0.002970 1.938760 0.007050 
#    z 0.007760 0.007050 1.955290 
# 
# From -- ./inp_files/69398.got.cif
#   From: 2010.06.25/outbox.cif.g09.slc.cpg/sg2_35_cif.got.tgz:69398.got - 2010.06.27 13:26:56.
