data_PCOD8032854
_publ_section_title
;
Structure prediction by ZEFSAII (Michael W. Deem and Ramdas Pophale) SiO2 
 PCOD8032854
Probable space group: P -1
;
_chemical_formula_sum "Si O2"
_cell_formula_units_Z 14
_cell_length_a 9.377760
_cell_length_b 12.133318
_cell_length_c 9.532579
_cell_angle_alpha 129.814162
_cell_angle_beta 133.187307
_cell_angle_gamma 60.904470
_cell_volume 605.223363
_symmetry_space_group_name_H-M "P -1"
_symmetry_group_IT_number 2
_symmetry_cell_setting 'triclinic'
loop_
_space_group_symop_operation_xyz
x,y,z
-x,-y,-z
loop_
_atom_site_type_symbol
_atom_site_label
_atom_site_fract_x
_atom_site_fract_y
_atom_site_fract_z
Si Si1 0.855022 0.593135 0.579321
Si Si2 0.139849 0.387221 0.087149
Si Si3 0.395984 0.627491 0.659816
Si Si4 0.546562 0.076359 0.949413
Si Si5 0.808246 0.922704 0.775713
Si Si6 0.788165 0.964089 0.486074
Si Si7 0.097291 0.784587 0.396477
O O1 0.941713 0.612543 0.809172
O O2 0.657827 0.506956 0.390479
O O3 0.823084 0.751141 0.621073
O O4 0.000000 0.500000 0.500000
O O5 0.377541 0.399305 0.259576
O O6 0.000000 0.500000 0.000000
O O7 0.085150 0.243831 0.852877
O O8 0.235964 0.645124 0.435532
O O9 0.351409 0.777549 0.834050
O O10 0.360376 0.130214 0.773237
O O11 0.670706 0.957814 0.843958
O O12 0.500000 0.000000 0.000000
O O13 0.728066 0.986201 0.625410
O O14 0.000000 0.000000 0.000000
O O15 0.005294 0.881359 0.543955
O O16 0.763980 0.120904 0.524227
#
# Coordination Sequence:
#
# PCOD8032854 Si02
#       7
#     2   2   2   2   2   2   2
#     4  12  27  47  72 106 153 193 236 310 373 427
#     4  12  26  45  76 107 140 193 250 294 365 448
#     4  12  25  47  76 110 146 190 244 311 363 432
#     4  12  24  45  75 109 144 194 250 301 365 438
#     4  12  27  46  71 108 150 194 243 303 372 440
#     4  11  24  43  73 108 147 190 244 303 366 439
#     4  11  23  43  76 108 142 187 250 301 363 435
#
# _framework density 23.131955999999999
#
# number of rings (size 3 to 8) (size 9 to 14) (size 15 to 20)
#    0.000    0.286    4.286    5.143    2.000    0.000 
#    0.000    4.286    0.000    0.000    0.000    0.000 
#    0.000    0.000    0.000    0.000    0.000    0.000 
#
# Total GULP energy -173496.812867 kJ/mol
# GULP energy per Si atom -12392.629490 kJ/mol
# Density = 2.307931 g / cm^3
# Si number density = 23.131956 Si / 1000 Ang^3
#
#
#
# Elastic Constant Matrix: (Units=GPa)
#
#
# Indices 1 2 3 4 5 6 
#
# 1 151.5213 51.7043 60.8838 0.1590 -19.8995 -2.1851
# 2 51.7043 102.0642 23.4624 10.7924 3.9206 2.0878
# 3 60.8838 23.4624 131.5813 -10.9299 5.0121 9.9545
# 4 0.1590 10.7924 -10.9299 47.4424 1.4410 -0.3385
# 5 -19.8995 3.9206 5.0121 1.4410 46.8895 2.4782
# 6 -2.1851 2.0878 9.9545 -0.3385 2.4782 41.9440
#
#
#
# Elastic Compliance Matrix: (Units=1/GPa)
#
#
# Indices 1 2 3 4 5 6 
#
# 1 0.010681 -0.004605 -0.004453 -0.000165 0.005318 0.001527
# 2 -0.004605 0.012595 -0.000188 -0.002811 -0.002865 -0.000676
# 3 -0.004453 -0.000188 0.010196 0.002478 -0.002911 -0.002450
# 4 -0.000165 -0.002811 0.002478 0.022311 -0.000773 -0.000231
# 5 0.005318 -0.002865 -0.002911 -0.000773 0.024175 -0.000324
# 6 0.001527 -0.000676 -0.002450 -0.000231 -0.000324 0.024553
#
#
# Mechanical properties :
#
#
# Convention : Reuss Voigt Hill
#
# Bulk Modulus (GPa) = 66.75848 73.02975 69.89411
# Shear Modulus (GPa) = 39.06326 43.86294 41.46310
#
# Velocity S-wave (km/s) = 4.11385 4.35927 4.23834
# Velocity P-wave (km/s) = 7.17548 7.54832 7.36426
#
# Compressibility (1/GPa) = 0.01497937
#
# Stress axis : x y z
#
# Youngs Moduli (GPa) = 93.62293 79.39559 98.07938
#
# Poissons Ratio (x) = 0.36565 0.43673
# Poissons Ratio (y) = 0.43117 0.01845
# Poissons Ratio (z) = 0.41689 0.01494
#
# Static dielectric constant tensor:
#      x y z
#    x 4.325300 -0.103020 -0.428510 
#    y -0.103020 4.188830 0.351010 
#    z -0.428510 0.351010 6.159510 
# 
# 
# High freq. dielectric constant tensor:
#      x y z
#    x 1.911770 -0.004210 -0.006060 
#    y -0.004210 1.915070 0.016430 
#    z -0.006060 0.016430 1.938160 
# 
# From -- ./inp_files/190484.got.cif
#   From: 2010.06.25/outbox.cif.g09.slc.cpg/sg2_96_cif.got.tgz:190484.got - 2010.06.27 13:26:56.
