data_PCOD8032605
_publ_section_title
;
Structure prediction by ZEFSAII (Michael W. Deem and Ramdas Pophale) SiO2 
 PCOD8032605
Probable space group: P -1
;
_chemical_formula_sum "Si O2"
_cell_formula_units_Z 16
_cell_length_a 20.549101
_cell_length_b 23.410844
_cell_length_c 6.745017
_cell_angle_alpha 56.316969
_cell_angle_beta 129.201060
_cell_angle_gamma 163.371792
_cell_volume 700.259107
_symmetry_space_group_name_H-M "P -1"
_symmetry_group_IT_number 2
_symmetry_cell_setting 'triclinic'
loop_
_space_group_symop_operation_xyz
x,y,z
-x,-y,-z
loop_
_atom_site_type_symbol
_atom_site_label
_atom_site_fract_x
_atom_site_fract_y
_atom_site_fract_z
Si Si1 0.275414 0.129783 0.380608
Si Si2 0.848138 0.029184 0.952757
Si Si3 0.606620 0.059880 0.297947
Si Si4 0.704114 0.260880 0.379292
Si Si5 0.942272 0.675839 0.242885
Si Si6 0.408125 0.671312 0.052280
Si Si7 0.501535 0.574283 0.971859
Si Si8 0.125619 0.163744 0.503954
O O1 0.215838 0.030342 0.284191
O O2 0.303756 0.228471 0.157920
O O3 0.534379 0.309057 0.650080
O O4 0.036022 0.933877 0.434150
O O5 0.641705 0.827817 0.065228
O O6 0.849074 0.110578 0.849045
O O7 0.119057 0.209877 0.210598
O O8 0.621612 0.140619 0.296031
O O9 0.892811 0.251442 0.453775
O O10 0.415489 0.856266 0.416367
O O11 0.500000 0.000000 0.000000
O O12 0.601833 0.254804 0.119582
O O13 0.000000 0.500000 0.500000
O O14 0.828545 0.549324 0.076610
O O15 0.755980 0.579238 0.207525
O O16 0.500000 0.500000 0.000000
O O17 0.596196 0.634316 0.264567
O O18 0.000000 0.000000 0.500000
#
# Coordination Sequence:
#
# PCOD8032605 Si02
#       8
#     2   2   2   2   2   2   2   2
#     4  11  24  44  67  96 141 188 236 291 348 419
#     4  11  24  45  67  97 142 183 232 288 351 416
#     4  11  27  48  76 111 147 185 238 295 363 439
#     4  11  24  48  75 108 146 184 235 297 363 438
#     4  12  25  47  70 101 146 182 231 295 356 421
#     4  11  24  45  70 104 138 186 230 287 357 422
#     4  12  26  42  66 106 138 186 249 289 348 422
#     4  11  23  43  67  91 132 190 233 296 353 397
#
# _framework density 22.848686000000001
#
# number of rings (size 3 to 8) (size 9 to 14) (size 15 to 20)
#    0.000    0.750    5.000    1.875    5.250    2.000 
#    0.000    0.000    0.000    0.000    0.000    0.000 
#    0.000    0.000    0.000    0.000    0.000    0.000 
#
# Total GULP energy -198230.943981 kJ/mol
# GULP energy per Si atom -12389.433999 kJ/mol
# Density = 2.279668 g / cm^3
# Si number density = 22.848686 Si / 1000 Ang^3
#
#
#
# Elastic Constant Matrix: (Units=GPa)
#
#
# Indices 1 2 3 4 5 6 
#
# 1 112.6333 36.2086 64.5300 7.3206 5.5480 -17.4750
# 2 36.2086 87.4126 40.3351 18.2440 -7.9876 -20.0488
# 3 64.5300 40.3351 195.8364 23.4095 -7.2391 -12.5299
# 4 7.3206 18.2440 23.4095 32.0258 -2.0901 6.3117
# 5 5.5480 -7.9876 -7.2391 -2.0901 33.0656 -1.0062
# 6 -17.4750 -20.0488 -12.5299 6.3117 -1.0062 45.2889
#
#
#
# Elastic Compliance Matrix: (Units=1/GPa)
#
#
# Indices 1 2 3 4 5 6 
#
# 1 0.012473 -0.003674 -0.003501 0.001176 -0.003612 0.001973
# 2 -0.003674 0.017424 -0.000547 -0.009907 0.004311 0.007621
# 3 -0.003501 -0.000547 0.006984 -0.004065 0.001756 0.000945
# 4 0.001176 -0.009907 -0.004065 0.041639 -0.001180 -0.010885
# 5 -0.003612 0.004311 0.001756 -0.001180 0.032258 0.001882
# 6 0.001973 0.007621 0.000945 -0.010885 0.001882 0.028036
#
#
# Mechanical properties :
#
#
# Convention : Reuss Voigt Hill
#
# Bulk Modulus (GPa) = 46.64954 75.33663 60.99309
# Shear Modulus (GPa) = 30.97844 39.06330 35.02087
#
# Velocity S-wave (km/s) = 3.68612 4.13928 3.91926
# Velocity P-wave (km/s) = 6.21110 7.47585 6.87263
#
# Compressibility (1/GPa) = 0.02143644
#
# Stress axis : x y z
#
# Youngs Moduli (GPa) = 80.17291 57.39294 143.18824
#
# Poissons Ratio (x) = 0.21087 0.50132
# Poissons Ratio (y) = 0.29456 0.07830
# Poissons Ratio (z) = 0.28070 0.03138
#
# Static dielectric constant tensor:
#      x y z
#    x 2.050240 -0.851210 -0.383010 
#    y -0.851210 4.018800 -0.042600 
#    z -0.383010 -0.042600 4.071620 
# 
# 
# High freq. dielectric constant tensor:
#      x y z
#    x 1.900670 -0.014650 0.011710 
#    y -0.014650 1.906260 0.007860 
#    z 0.011710 0.007860 1.912650 
# 
# From -- ./inp_files/120640.got.cif
#   From: 2010.06.25/outbox.cif.g09.slc.cpg/sg2_61_cif.got.tgz:120640.got - 2010.06.27 13:26:56.
