data_PCOD8032494
_publ_section_title
;
Structure prediction by ZEFSAII (Michael W. Deem and Ramdas Pophale) SiO2 
 PCOD8032494
Probable space group: P -1
;
_chemical_formula_sum "Si O2"
_cell_formula_units_Z 12
_cell_length_a 11.667004
_cell_length_b 8.424406
_cell_length_c 9.240271
_cell_angle_alpha 49.921919
_cell_angle_beta 97.255684
_cell_angle_gamma 128.679105
_cell_volume 481.085831
_symmetry_space_group_name_H-M "P -1"
_symmetry_group_IT_number 2
_symmetry_cell_setting 'triclinic'
loop_
_space_group_symop_operation_xyz
x,y,z
-x,-y,-z
loop_
_atom_site_type_symbol
_atom_site_label
_atom_site_fract_x
_atom_site_fract_y
_atom_site_fract_z
Si Si1 0.224533 0.584404 0.654605
Si Si2 0.746994 0.664797 0.747584
Si Si3 0.931084 0.245493 0.026406
Si Si4 0.375607 0.909148 0.910069
Si Si5 0.546414 0.782091 0.558284
Si Si6 0.919265 0.789628 0.418308
O O1 0.358716 0.571704 0.708562
O O2 0.151638 0.476093 0.544240
O O3 0.065142 0.357906 0.862687
O O4 0.321165 0.922487 0.496598
O O5 0.595396 0.605178 0.694103
O O6 0.836342 0.651590 0.641035
O O7 0.685935 0.390163 0.996389
O O8 0.880520 0.975712 0.672893
O O9 0.764616 0.136605 0.002818
O O10 0.000000 0.500000 0.000000
O O11 0.873811 0.963167 0.260898
O O12 0.449574 0.140533 0.654414
O O13 0.500000 0.000000 0.000000
#
# Coordination Sequence:
#
# PCOD8032494 Si02
#       6
#     2   2   2   2   2   2
#     4  11  25  44  72 103 142 184 227 292 348 400
#     4  11  24  45  75 103 138 187 229 282 349 417
#     4  12  22  48  73  97 145 184 230 290 343 414
#     4  12  26  45  74 104 134 187 237 278 346 418
#     4  11  25  50  68 101 149 177 228 295 342 407
#     4  11  23  42  72 109 134 184 238 277 350 413
#
# _framework density 24.943572
#
# number of rings (size 3 to 8) (size 9 to 14) (size 15 to 20)
#    0.000    0.667    5.000    1.500    4.667    2.000 
#    6.000    4.167    0.000    0.000    0.000    0.000 
#    0.000    0.000    0.000    0.000    0.000    0.000 
#
# Total GULP energy -148741.643531 kJ/mol
# GULP energy per Si atom -12395.136961 kJ/mol
# Density = 2.488680 g / cm^3
# Si number density = 24.943572 Si / 1000 Ang^3
#
#
#
# Elastic Constant Matrix: (Units=GPa)
#
#
# Indices 1 2 3 4 5 6 
#
# 1 173.9223 9.9335 58.2986 7.0851 -1.1896 39.6677
# 2 9.9335 102.4813 -1.5117 21.0349 -11.3000 10.5748
# 3 58.2986 -1.5117 68.4598 -0.6443 7.5952 6.3605
# 4 7.0851 21.0349 -0.6443 21.4989 6.2401 0.8696
# 5 -1.1896 -11.3000 7.5952 6.2401 41.5705 0.3394
# 6 39.6677 10.5748 6.3605 0.8696 0.3394 39.7250
#
#
#
# Elastic Compliance Matrix: (Units=1/GPa)
#
#
# Indices 1 2 3 4 5 6 
#
# 1 0.011263 0.001391 -0.009049 -0.005901 0.003322 -0.010067
# 2 0.001391 0.014087 -0.001320 -0.015994 0.006549 -0.004633
# 3 -0.009049 -0.001320 0.022449 0.006377 -0.005723 0.005702
# 4 -0.005901 -0.015994 0.006377 0.068643 -0.016049 0.007763
# 5 0.003322 0.006549 -0.005723 -0.016049 0.029418 -0.004044
# 6 -0.010067 -0.004633 0.005702 0.007763 -0.004044 0.035410
#
#
# Mechanical properties :
#
#
# Convention : Reuss Voigt Hill
#
# Bulk Modulus (GPa) = 33.50963 53.14492 43.32728
# Shear Modulus (GPa) = 23.90361 39.10173 31.50267
#
# Velocity S-wave (km/s) = 3.09901 3.96360 3.55767
# Velocity P-wave (km/s) = 5.12528 6.50378 5.85524
#
# Compressibility (1/GPa) = 0.02984217
#
# Stress axis : x y z
#
# Youngs Moduli (GPa) = 88.78951 70.98928 44.54542
#
# Poissons Ratio (x) = -0.09875 0.40309
# Poissons Ratio (y) = -0.12351 0.05880
# Poissons Ratio (z) = 0.80345 0.09371
#
# Static dielectric constant tensor:
#      x y z
#    x 5.017620 0.125970 -0.152610 
#    y 0.125970 4.689460 -0.189560 
#    z -0.152610 -0.189560 4.414800 
# 
# 
# High freq. dielectric constant tensor:
#      x y z
#    x 2.005170 0.015480 0.002140 
#    y 0.015480 1.996000 -0.008330 
#    z 0.002140 -0.008330 1.976970 
# 
# From -- ./inp_files/242219.got.cif
#   From: 2010.06.25/outbox.cif.g09.slc.cpg/sg2_122_cif.got.tgz:242219.got - 2010.06.27 13:26:56.
