data_PCOD8032888
_publ_section_title
;
Structure prediction by ZEFSAII (Michael W. Deem and Ramdas Pophale) SiO2 
 PCOD8032888
Probable space group: P -1
;
_chemical_formula_sum "Si O2"
_cell_formula_units_Z 14
_cell_length_a 15.074953
_cell_length_b 8.642905
_cell_length_c 14.578726
_cell_angle_alpha 103.191014
_cell_angle_beta 26.631174
_cell_angle_gamma 119.226370
_cell_volume 628.984351
_symmetry_space_group_name_H-M "P -1"
_symmetry_group_IT_number 2
_symmetry_cell_setting 'triclinic'
loop_
_space_group_symop_operation_xyz
x,y,z
-x,-y,-z
loop_
_atom_site_type_symbol
_atom_site_label
_atom_site_fract_x
_atom_site_fract_y
_atom_site_fract_z
Si Si1 0.683244 0.648334 0.570875
Si Si2 0.618007 0.676369 0.047750
Si Si3 0.596853 0.280295 0.292617
Si Si4 0.987739 0.076876 0.426306
Si Si5 0.131345 0.524760 0.752875
Si Si6 0.900743 0.199947 0.299531
Si Si7 0.186476 0.695528 0.421611
O O1 0.457387 0.599148 0.707930
O O2 0.798291 0.548067 0.408200
O O3 0.902795 0.898915 0.407463
O O4 0.585271 0.559646 0.754220
O O5 0.739857 0.706762 0.837036
O O6 0.855480 0.797478 0.920299
O O7 0.468965 0.765553 0.186782
O O8 0.644954 0.372933 0.362926
O O9 0.367647 0.033283 0.473067
O O10 0.855470 0.325556 0.023488
O O11 0.777211 0.110015 0.631351
O O12 0.000000 0.000000 0.500000
O O13 0.108284 0.698404 0.769308
O O14 0.946148 0.346038 0.362278
O O15 0.000000 0.500000 0.500000
#
# Coordination Sequence:
#
# PCOD8032888 Si02
#       7
#     2   2   2   2   2   2   2
#     4  12  23  42  69 100 137 176 227 277 337 401
#     4  11  24  45  70  96 140 176 218 283 338 391
#     4  11  24  45  66 102 136 177 234 278 333 403
#     4  11  27  45  68 103 134 176 226 277 332 411
#     4  11  25  42  72  97 138 182 222 285 339 393
#     4  11  23  44  67 100 136 176 226 281 334 403
#     4  11  24  44  70  98 132 179 223 270 341 398
#
# _framework density 22.258105
#
# number of rings (size 3 to 8) (size 9 to 14) (size 15 to 20)
#    0.000    0.857    5.714    1.714    2.000    5.714 
#    0.000    0.714    0.000    0.000    0.000    0.000 
#    0.000    0.000    0.000    0.000    0.000    0.000 
#
# Total GULP energy -173466.216740 kJ/mol
# GULP energy per Si atom -12390.444053 kJ/mol
# Density = 2.220744 g / cm^3
# Si number density = 22.258105 Si / 1000 Ang^3
#
#
#
# Elastic Constant Matrix: (Units=GPa)
#
#
# Indices 1 2 3 4 5 6 
#
# 1 141.7174 53.2300 36.8993 12.4229 -6.1933 -28.5317
# 2 53.2300 108.2072 51.0886 2.1057 -7.0594 -13.1919
# 3 36.8993 51.0886 105.8102 -1.3534 -5.5067 -5.7148
# 4 12.4229 2.1057 -1.3534 29.3602 -8.2155 -4.1984
# 5 -6.1933 -7.0594 -5.5067 -8.2155 35.3592 2.7430
# 6 -28.5317 -13.1919 -5.7148 -4.1984 2.7430 40.1808
#
#
#
# Elastic Compliance Matrix: (Units=1/GPa)
#
#
# Indices 1 2 3 4 5 6 
#
# 1 0.010205 -0.003544 -0.001615 -0.003462 -0.000404 0.005519
# 2 -0.003544 0.013671 -0.005215 0.000845 0.001398 0.001223
# 3 -0.001615 -0.005215 0.012562 0.001815 0.001128 -0.000960
# 4 -0.003462 0.000845 0.001815 0.038165 0.008598 0.001478
# 5 -0.000404 0.001398 0.001128 0.008598 0.030730 -0.000867
# 6 0.005519 0.001223 -0.000960 0.001478 -0.000867 0.029285
#
#
# Mechanical properties :
#
#
# Convention : Reuss Voigt Hill
#
# Bulk Modulus (GPa) = 63.73470 70.90787 67.32129
# Shear Modulus (GPa) = 31.13399 35.28116 33.20758
#
# Velocity S-wave (km/s) = 3.74407 3.98564 3.86674
# Velocity P-wave (km/s) = 6.88384 7.28744 7.08851
#
# Compressibility (1/GPa) = 0.01569004
#
# Stress axis : x y z
#
# Youngs Moduli (GPa) = 97.99366 73.14744 79.60297
#
# Poissons Ratio (x) = 0.25921 0.12855
# Poissons Ratio (y) = 0.34726 0.41516
# Poissons Ratio (z) = 0.15825 0.38149
#
# Static dielectric constant tensor:
#      x y z
#    x 4.376720 -0.174620 -0.135720 
#    y -0.174620 3.898030 0.036440 
#    z -0.135720 0.036440 4.015460 
# 
# 
# High freq. dielectric constant tensor:
#      x y z
#    x 1.902590 -0.021220 -0.005100 
#    y -0.021220 1.852890 -0.001010 
#    z -0.005100 -0.001010 1.870580 
# 
# From -- ./inp_files/503612.got.cif
#   From: 2010.06.25/outbox.cif.g09.slc.cpg/sg2_252_cif.got.tgz:503612.got - 2010.06.27 13:26:56.
