data_PCOD8032101
_publ_section_title
;
Structure prediction by ZEFSAII (Michael W. Deem and Ramdas Pophale) SiO2 
 PCOD8032101
Probable space group: P -1
;
_chemical_formula_sum "Si O2"
_cell_formula_units_Z 16
_cell_length_a 11.525012
_cell_length_b 15.656446
_cell_length_c 19.378958
_cell_angle_alpha 161.606140
_cell_angle_beta 48.931741
_cell_angle_gamma 130.966809
_cell_volume 824.208325
_symmetry_space_group_name_H-M "P -1"
_symmetry_group_IT_number 2
_symmetry_cell_setting 'triclinic'
loop_
_space_group_symop_operation_xyz
x,y,z
-x,-y,-z
loop_
_atom_site_type_symbol
_atom_site_label
_atom_site_fract_x
_atom_site_fract_y
_atom_site_fract_z
Si Si1 0.578207 0.120536 0.378944
Si Si2 0.298664 0.781469 0.445801
Si Si3 0.108446 0.709329 0.666976
Si Si4 0.481819 0.527818 0.948462
Si Si5 0.829104 0.708201 0.164290
Si Si6 0.048033 0.319521 0.153983
Si Si7 0.982046 0.399594 0.764558
Si Si8 0.222580 0.153714 0.562005
O O1 0.656793 0.096506 0.403927
O O2 0.708022 0.320240 0.438665
O O3 0.408964 0.220678 0.528701
O O4 0.564683 0.825277 0.121124
O O5 0.456799 0.737725 0.311676
O O6 0.202369 0.479337 0.251007
O O7 0.195711 0.980087 0.600273
O O8 0.000000 0.500000 0.500000
O O9 0.083357 0.663642 0.723578
O O10 0.073252 0.010863 0.890536
O O11 0.305849 0.511101 0.981580
O O12 0.500000 0.500000 0.000000
O O13 0.834785 0.676715 0.220523
O O14 0.976100 0.628561 0.002903
O O15 0.003802 0.459367 0.207522
O O16 0.136832 0.256837 0.607443
O O17 0.830730 0.167916 0.650308
#
# Coordination Sequence:
#
# PCOD8032101 Si02
#       8
#     2   2   2   2   2   2   2   2
#     4  12  22  38  58  88 126 156 199 248 308 355
#     4  12  21  33  60  91 122 156 191 251 311 363
#     4  11  24  40  65  91 118 156 201 258 312 354
#     4  12  21  31  52  91 127 157 184 243 311 373
#     4  12  21  35  58  90 125 161 200 238 306 365
#     4  11  23  41  62  91 122 156 202 252 304 359
#     4  11  24  41  61  88 124 164 207 243 293 360
#     4  11  24  40  60  89 125 166 203 242 291 369
#
# _framework density 19.412568
#
# number of rings (size 3 to 8) (size 9 to 14) (size 15 to 20)
#    0.000    0.500    7.500    3.000    0.000    0.000 
#    0.000    0.625    0.000    0.750    0.000    0.000 
#    0.000    0.000    0.000    0.000    0.000    0.000 
#
# Total GULP energy -198289.908438 kJ/mol
# GULP energy per Si atom -12393.119277 kJ/mol
# Density = 1.936838 g / cm^3
# Si number density = 19.412568 Si / 1000 Ang^3
#
#
#
# Elastic Constant Matrix: (Units=GPa)
#
#
# Indices 1 2 3 4 5 6 
#
# 1 80.5438 45.6458 29.6382 3.7844 -1.4421 -3.6223
# 2 45.6458 109.4735 36.8344 -12.8434 -8.5462 -3.0948
# 3 29.6382 36.8344 105.2258 -0.5959 9.8999 -2.9741
# 4 3.7844 -12.8434 -0.5959 34.7976 3.7195 3.9602
# 5 -1.4421 -8.5462 9.8999 3.7195 26.6629 2.5653
# 6 -3.6223 -3.0948 -2.9741 3.9602 2.5653 30.5205
#
#
#
# Elastic Compliance Matrix: (Units=1/GPa)
#
#
# Indices 1 2 3 4 5 6 
#
# 1 0.017605 -0.006998 -0.002499 -0.004753 0.000133 0.001742
# 2 -0.006998 0.014208 -0.003443 0.005533 0.004763 -0.000844
# 3 -0.002499 -0.003443 0.011981 -0.000298 -0.005746 0.001043
# 4 -0.004753 0.005533 -0.000298 0.032007 -0.002455 -0.003979
# 5 0.000133 0.004763 -0.005746 -0.002455 0.041829 -0.003258
# 6 0.001742 -0.000844 0.001043 -0.003979 -0.003258 0.033778
#
#
# Mechanical properties :
#
#
# Convention : Reuss Voigt Hill
#
# Bulk Modulus (GPa) = 55.82291 57.71998 56.77144
# Shear Modulus (GPa) = 27.28380 30.60450 28.94415
#
# Velocity S-wave (km/s) = 3.75303 3.97486 3.86554
# Velocity P-wave (km/s) = 6.89919 7.13189 7.01650
#
# Compressibility (1/GPa) = 0.01791379
#
# Stress axis : x y z
#
# Youngs Moduli (GPa) = 56.80215 70.38303 83.46507
#
# Poissons Ratio (x) = 0.49251 0.20861
# Poissons Ratio (y) = 0.39747 0.28739
# Poissons Ratio (z) = 0.14197 0.24234
#
# Static dielectric constant tensor:
#      x y z
#    x 3.330880 0.132570 0.204780 
#    y 0.132570 3.641790 -0.119550 
#    z 0.204780 -0.119550 3.819160 
# 
# 
# High freq. dielectric constant tensor:
#      x y z
#    x 1.738750 0.008290 0.018570 
#    y 0.008290 1.738310 -0.013320 
#    z 0.018570 -0.013320 1.776550 
# 
# From -- ./inp_files/77021.got.cif
#   From: 2010.06.25/outbox.cif.g09.slc.cpg/sg2_39_cif.got.tgz:77021.got - 2010.06.27 13:26:56.
