data_PCOD8032840
_publ_section_title
;
Structure prediction by ZEFSAII (Michael W. Deem and Ramdas Pophale) SiO2 
 PCOD8032840
Probable space group: P -1
;
_chemical_formula_sum "Si O2"
_cell_formula_units_Z 14
_cell_length_a 11.885172
_cell_length_b 11.172313
_cell_length_c 11.215294
_cell_angle_alpha 145.158444
_cell_angle_beta 102.399311
_cell_angle_gamma 100.810973
_cell_volume 630.055510
_symmetry_space_group_name_H-M "P -1"
_symmetry_group_IT_number 2
_symmetry_cell_setting 'triclinic'
loop_
_space_group_symop_operation_xyz
x,y,z
-x,-y,-z
loop_
_atom_site_type_symbol
_atom_site_label
_atom_site_fract_x
_atom_site_fract_y
_atom_site_fract_z
Si Si1 0.906590 0.590434 0.078868
Si Si2 0.503367 0.532265 0.383230
Si Si3 0.158168 0.153690 0.282329
Si Si4 0.593592 0.169687 0.541216
Si Si5 0.285408 0.996089 0.745373
Si Si6 0.992619 0.880946 0.553022
Si Si7 0.059188 0.415460 0.341175
O O1 0.883297 0.590449 0.216820
O O2 0.756724 0.435142 0.841122
O O3 0.027938 0.911907 0.333608
O O4 0.000000 0.500000 0.000000
O O5 0.500000 0.500000 0.500000
O O6 0.672626 0.683893 0.500082
O O7 0.468161 0.718962 0.469434
O O8 0.389990 0.219775 0.054401
O O9 0.059631 0.175492 0.369639
O O10 0.155124 0.317057 0.308195
O O11 0.086231 0.842204 0.977467
O O12 0.606732 0.970356 0.305721
O O13 0.500000 0.000000 0.500000
O O14 0.177196 0.681669 0.507164
O O15 0.170887 0.036192 0.704543
O O16 0.000000 0.500000 0.500000
#
# Coordination Sequence:
#
# PCOD8032840 Si02
#       7
#     2   2   2   2   2   2   2
#     4  11  24  45  70 102 141 188 245 301 365 430
#     4  12  29  50  72 107 158 196 242 305 382 449
#     4  11  26  42  71 107 141 188 248 308 363 441
#     4  12  29  47  74 108 152 197 247 303 374 450
#     4  12  25  47  75 106 150 195 244 308 374 442
#     4  11  24  42  73 102 136 185 247 307 364 432
#     4  11  23  43  75 105 142 189 255 307 366 433
#
# _framework density 22.220262999999999
#
# number of rings (size 3 to 8) (size 9 to 14) (size 15 to 20)
#    0.000    0.571    4.286    2.571    6.000    4.000 
#    0.000    0.000    0.000    0.000    0.000    0.000 
#    0.000    0.000    0.000    0.000    0.000    0.000 
#
# Total GULP energy -173458.243797 kJ/mol
# GULP energy per Si atom -12389.874557 kJ/mol
# Density = 2.216969 g / cm^3
# Si number density = 22.220263 Si / 1000 Ang^3
#
#
#
# Elastic Constant Matrix: (Units=GPa)
#
#
# Indices 1 2 3 4 5 6 
#
# 1 141.8934 54.1076 49.6301 -7.4366 -5.5575 -10.3143
# 2 54.1076 116.7469 47.8512 -3.3700 -11.5271 -2.2786
# 3 49.6301 47.8512 141.9490 -17.0175 -9.5926 -12.7375
# 4 -7.4366 -3.3700 -17.0175 45.6363 -0.8943 -3.9499
# 5 -5.5575 -11.5271 -9.5926 -0.8943 41.4082 -9.6676
# 6 -10.3143 -2.2786 -12.7375 -3.9499 -9.6676 38.0771
#
#
#
# Elastic Compliance Matrix: (Units=1/GPa)
#
#
# Indices 1 2 3 4 5 6 
#
# 1 0.009160 -0.003432 -0.001771 0.000744 0.000309 0.001839
# 2 -0.003432 0.011403 -0.002669 -0.000739 0.001908 -0.000732
# 3 -0.001771 -0.002669 0.009408 0.003356 0.002060 0.003379
# 4 0.000744 -0.000739 0.003356 0.023644 0.002183 0.004287
# 5 0.000309 0.001908 0.002060 0.002183 0.027114 0.007998
# 6 0.001839 -0.000732 0.003379 0.004287 0.007998 0.030323
#
#
# Mechanical properties :
#
#
# Convention : Reuss Voigt Hill
#
# Bulk Modulus (GPa) = 70.28369 78.19632 74.24000
# Shear Modulus (GPa) = 38.01147 41.62436 39.81791
#
# Velocity S-wave (km/s) = 4.14051 4.33281 4.23775
# Velocity P-wave (km/s) = 7.38631 7.76524 7.57814
#
# Compressibility (1/GPa) = 0.01422805
#
# Stress axis : x y z
#
# Youngs Moduli (GPa) = 109.16635 87.69670 106.28745
#
# Poissons Ratio (x) = 0.30095 0.18821
# Poissons Ratio (y) = 0.37463 0.28372
# Poissons Ratio (z) = 0.19330 0.23409
#
# Static dielectric constant tensor:
#      x y z
#    x 4.105020 -0.001000 -0.288920 
#    y -0.001000 4.240160 -0.225750 
#    z -0.288920 -0.225750 4.121060 
# 
# 
# High freq. dielectric constant tensor:
#      x y z
#    x 1.883170 -0.010350 -0.014880 
#    y -0.010350 1.879950 -0.009150 
#    z -0.014880 -0.009150 1.887200 
# 
# From -- ./inp_files/26807.got.cif
#   From: 2010.06.25/outbox.cif.g09.slc.cpg/sg2_14_cif.got.tgz:26807.got - 2010.06.27 13:26:56.
