data_PCOD8032783
_publ_section_title
;
Structure prediction by ZEFSAII (Michael W. Deem and Ramdas Pophale) SiO2 
 PCOD8032783
Probable space group: P -1
;
_chemical_formula_sum "Si O2"
_cell_formula_units_Z 14
_cell_length_a 14.646961
_cell_length_b 8.984165
_cell_length_c 14.939840
_cell_angle_alpha 150.148529
_cell_angle_beta 143.474610
_cell_angle_gamma 40.226768
_cell_volume 567.542273
_symmetry_space_group_name_H-M "P -1"
_symmetry_group_IT_number 2
_symmetry_cell_setting 'triclinic'
loop_
_space_group_symop_operation_xyz
x,y,z
-x,-y,-z
loop_
_atom_site_type_symbol
_atom_site_label
_atom_site_fract_x
_atom_site_fract_y
_atom_site_fract_z
Si Si1 0.797725 0.462957 0.583660
Si Si2 0.259764 0.418225 0.723119
Si Si3 0.510559 0.929509 0.576432
Si Si4 0.715115 0.496907 0.850415
Si Si5 0.109789 0.661842 0.912586
Si Si6 0.110203 0.871213 0.346772
Si Si7 0.236668 0.882336 0.790072
O O1 0.691278 0.811490 0.691903
O O2 0.779886 0.256821 0.548019
O O3 0.710541 0.347713 0.370228
O O4 0.982399 0.447842 0.703170
O O5 0.230937 0.564656 0.875177
O O6 0.222675 0.705035 0.777379
O O7 0.435124 0.220839 0.732835
O O8 0.142705 0.188541 0.498420
O O9 0.419960 0.655934 0.375680
O O10 0.500000 0.000000 0.500000
O O11 0.864488 0.382637 0.843629
O O12 0.769874 0.383382 0.933738
O O13 0.654610 0.868084 0.988566
O O14 0.000000 0.000000 0.000000
O O15 0.933414 0.913703 0.262986
#
# Coordination Sequence:
#
# PCOD8032783 Si02
#       7
#     2   2   2   2   2   2   2
#     4  12  25  44  76  99 146 183 238 290 356 423
#     4  11  25  43  75 101 146 189 235 283 362 424
#     4  11  25  52  70 102 144 195 228 288 361 431
#     4  11  26  43  72 103 147 177 240 292 350 418
#     4  12  25  44  73 111 136 186 243 299 341 417
#     4  11  23  43  72 107 135 187 239 292 350 414
#     4  12  22  42  70 109 136 183 235 298 345 413
#
# _framework density 24.667767000000001
#
# number of rings (size 3 to 8) (size 9 to 14) (size 15 to 20)
#    0.000    0.571    4.286    3.857    4.000    2.857 
#    0.000    4.286    0.000    0.000    0.000    0.000 
#    0.000    0.000    0.000    0.000    0.000    0.000 
#
# Total GULP energy -173552.762821 kJ/mol
# GULP energy per Si atom -12396.625916 kJ/mol
# Density = 2.461162 g / cm^3
# Si number density = 24.667767 Si / 1000 Ang^3
#
#
#
# Elastic Constant Matrix: (Units=GPa)
#
#
# Indices 1 2 3 4 5 6 
#
# 1 136.1795 57.5087 29.2576 9.0828 -38.2588 4.8098
# 2 57.5087 115.0848 12.3364 7.2504 -9.0147 14.2027
# 3 29.2576 12.3364 60.7195 14.8778 -20.3693 13.1725
# 4 9.0828 7.2504 14.8778 34.8500 0.4387 3.0325
# 5 -38.2588 -9.0147 -20.3693 0.4387 41.4573 5.4864
# 6 4.8098 14.2027 13.1725 3.0325 5.4864 55.6980
#
#
#
# Elastic Compliance Matrix: (Units=1/GPa)
#
#
# Indices 1 2 3 4 5 6 
#
# 1 0.012844 -0.005333 -0.001150 -0.001842 0.010198 -0.000382
# 2 -0.005333 0.011510 0.000295 -0.000906 -0.001959 -0.002302
# 3 -0.001150 0.000295 0.024927 -0.009989 0.012221 -0.006531
# 4 -0.001842 -0.000906 -0.009989 0.033577 -0.007379 0.001651
# 5 0.010198 -0.001959 0.012221 -0.007379 0.040091 -0.006819
# 6 -0.000382 -0.002302 -0.006531 0.001651 -0.006819 0.020700
#
#
# Mechanical properties :
#
#
# Convention : Reuss Voigt Hill
#
# Bulk Modulus (GPa) = 27.09594 56.68769 41.89181
# Shear Modulus (GPa) = 29.70407 40.59314 35.14860
#
# Velocity S-wave (km/s) = 3.47387 4.06099 3.77885
# Velocity P-wave (km/s) = 5.20563 6.70964 6.00491
#
# Compressibility (1/GPa) = 0.03690590
#
# Stress axis : x y z
#
# Youngs Moduli (GPa) = 77.85787 86.87954 40.11665
#
# Poissons Ratio (x) = 0.46332 0.04613
# Poissons Ratio (y) = 0.41521 -0.01184
# Poissons Ratio (z) = 0.08954 -0.02565
#
# Static dielectric constant tensor:
#      x y z
#    x 4.626100 -0.170130 -0.059020 
#    y -0.170130 4.259670 0.307970 
#    z -0.059020 0.307970 4.379790 
# 
# 
# High freq. dielectric constant tensor:
#      x y z
#    x 1.996080 0.000140 -0.005290 
#    y 0.000140 1.974650 0.023590 
#    z -0.005290 0.023590 1.975850 
# 
# From -- ./inp_files/189722.got.cif
#   From: 2010.06.25/outbox.cif.g09.slc.cpg/sg2_95_cif.got.tgz:189722.got - 2010.06.27 13:26:56.
