data_PCOD8032755
_publ_section_title
;
Structure prediction by ZEFSAII (Michael W. Deem and Ramdas Pophale) SiO2 
 PCOD8032755
Probable space group: P -1
;
_chemical_formula_sum "Si O2"
_cell_formula_units_Z 12
_cell_length_a 5.187252
_cell_length_b 14.111806
_cell_length_c 8.980789
_cell_angle_alpha 124.210122
_cell_angle_beta 81.613883
_cell_angle_gamma 74.932791
_cell_volume 488.618501
_symmetry_space_group_name_H-M "P -1"
_symmetry_group_IT_number 2
_symmetry_cell_setting 'triclinic'
loop_
_space_group_symop_operation_xyz
x,y,z
-x,-y,-z
loop_
_atom_site_type_symbol
_atom_site_label
_atom_site_fract_x
_atom_site_fract_y
_atom_site_fract_z
Si Si1 0.150760 0.912628 0.274191
Si Si2 0.983446 0.683046 0.399314
Si Si3 0.912593 0.256339 0.095684
Si Si4 0.467485 0.308674 0.793021
Si Si5 0.788735 0.910642 0.817777
Si Si6 0.289553 0.412285 0.198505
O O1 0.464172 0.820197 0.230379
O O2 0.137676 0.997342 0.210796
O O3 0.017721 0.818047 0.135440
O O4 0.000000 0.000000 0.500000
O O5 0.795677 0.661463 0.267235
O O6 0.770287 0.800882 0.618978
O O7 0.245644 0.708864 0.334739
O O8 0.106527 0.559029 0.386125
O O9 0.576928 0.351626 0.219047
O O10 0.969524 0.156773 0.137659
O O11 0.105283 0.332275 0.166237
O O12 0.370604 0.419022 0.022802
O O13 0.500000 0.000000 0.000000
#
# Coordination Sequence:
#
# PCOD8032755 Si02
#       6
#     2   2   2   2   2   2
#     4  11  24  46  76 105 146 192 250 299 363 438
#     4  12  26  44  74 110 144 198 240 303 367 438
#     4  11  26  48  73 108 148 195 238 309 366 432
#     4  11  23  43  71 112 145 183 247 309 368 423
#     4  12  28  47  74 108 157 194 245 300 371 442
#     4  11  24  47  76 104 150 187 249 302 369 431
#
# _framework density 24.559035999999999
#
# number of rings (size 3 to 8) (size 9 to 14) (size 15 to 20)
#    0.000    0.667    1.667    6.500    2.333    4.667 
#    0.000    0.000    0.000    0.000    0.000    0.000 
#    0.000    0.000    0.000    0.000    0.000    0.000 
#
# Total GULP energy -148730.479746 kJ/mol
# GULP energy per Si atom -12394.206645 kJ/mol
# Density = 2.450314 g / cm^3
# Si number density = 24.559036 Si / 1000 Ang^3
#
#
#
# Elastic Constant Matrix: (Units=GPa)
#
#
# Indices 1 2 3 4 5 6 
#
# 1 138.0970 62.2723 13.5224 -1.0070 -16.3907 -15.1147
# 2 62.2723 173.1461 30.0924 7.1589 -10.2189 -19.0102
# 3 13.5224 30.0924 77.0571 11.1922 -17.9564 9.1889
# 4 -1.0070 7.1589 11.1922 40.7217 -5.5323 2.5354
# 5 -16.3907 -10.2189 -17.9564 -5.5323 19.2850 -3.0495
# 6 -15.1147 -19.0102 9.1889 2.5354 -3.0495 43.6764
#
#
#
# Elastic Compliance Matrix: (Units=1/GPa)
#
#
# Indices 1 2 3 4 5 6 
#
# 1 0.009759 -0.002971 0.000892 0.001505 0.008361 0.002393
# 2 -0.002971 0.007647 -0.002905 -0.000934 -0.000988 0.002897
# 3 0.000892 -0.002905 0.018191 -0.002211 0.014951 -0.003611
# 4 0.001505 -0.000934 -0.002211 0.026236 0.006171 -0.000513
# 5 0.008361 -0.000988 0.014951 0.006171 0.074789 0.004181
# 6 0.002393 0.002897 -0.003611 -0.000513 0.004181 0.026066
#
#
# Mechanical properties :
#
#
# Convention : Reuss Voigt Hill
#
# Bulk Modulus (GPa) = 39.01786 66.67493 52.84639
# Shear Modulus (GPa) = 27.59394 39.56417 33.57905
#
# Velocity S-wave (km/s) = 3.35561 4.01806 3.70168
# Velocity P-wave (km/s) = 5.56196 6.98099 6.31148
#
# Compressibility (1/GPa) = 0.02562929
#
# Stress axis : x y z
#
# Youngs Moduli (GPa) = 102.47167 130.76679 54.97204
#
# Poissons Ratio (x) = 0.38849 -0.04903
# Poissons Ratio (y) = 0.30443 0.15969
# Poissons Ratio (z) = -0.09140 0.37987
#
# Static dielectric constant tensor:
#      x y z
#    x 4.166530 -0.262740 -0.040020 
#    y -0.262740 4.847570 0.256340 
#    z -0.040020 0.256340 4.837020 
# 
# 
# High freq. dielectric constant tensor:
#      x y z
#    x 1.958080 -0.014040 0.005340 
#    y -0.014040 2.002010 0.008540 
#    z 0.005340 0.008540 1.987330 
# 
# From -- ./inp_files/134569.got.cif
#   From: 2010.06.25/outbox.cif.g09.slc.cpg/sg2_68_cif.got.tgz:134569.got - 2010.06.27 13:26:56.
