data_PCOD8032763
_publ_section_title
;
Structure prediction by ZEFSAII (Michael W. Deem and Ramdas Pophale) SiO2 
 PCOD8032763
Probable space group: P -1
;
_chemical_formula_sum "Si O2"
_cell_formula_units_Z 14
_cell_length_a 11.908953
_cell_length_b 9.048057
_cell_length_c 9.109054
_cell_angle_alpha 118.852480
_cell_angle_beta 69.317779
_cell_angle_gamma 69.671333
_cell_volume 623.321904
_symmetry_space_group_name_H-M "P -1"
_symmetry_group_IT_number 2
_symmetry_cell_setting 'triclinic'
loop_
_space_group_symop_operation_xyz
x,y,z
-x,-y,-z
loop_
_atom_site_type_symbol
_atom_site_label
_atom_site_fract_x
_atom_site_fract_y
_atom_site_fract_z
Si Si1 0.391173 0.614676 0.970500
Si Si2 0.936551 0.222814 0.217887
Si Si3 0.087377 0.403364 0.722516
Si Si4 0.595743 0.968623 0.083212
Si Si5 0.761935 0.604237 0.073530
Si Si6 0.577075 0.566679 0.592213
Si Si7 0.830182 0.901122 0.725577
O O1 0.311812 0.510880 0.902129
O O2 0.508225 0.602197 0.801199
O O3 0.500000 0.500000 0.000000
O O4 0.255397 0.864874 0.195954
O O5 0.970795 0.354480 0.163674
O O6 0.756907 0.375011 0.407738
O O7 0.004679 0.182605 0.331318
O O8 0.000000 0.000000 0.000000
O O9 0.215855 0.297570 0.744005
O O10 0.162053 0.256454 0.471613
O O11 0.936569 0.425752 0.844382
O O12 0.645340 0.785413 0.092401
O O13 0.479998 0.200924 0.330681
O O14 0.751440 0.912293 0.920057
O O15 0.500000 0.000000 0.000000
O O16 0.500000 0.500000 0.500000
#
# Coordination Sequence:
#
# PCOD8032763 Si02
#       7
#     2   2   2   2   2   2   2
#     4  11  26  47  67 104 143 183 230 291 355 419
#     4  12  24  45  75 102 141 184 244 296 343 426
#     4  11  25  42  72 106 138 185 235 296 357 407
#     4  11  23  43  72 100 135 182 232 287 345 419
#     4  11  24  45  69 102 151 179 231 296 355 420
#     4  11  25  44  70  98 133 183 234 281 348 415
#     4  11  24  44  71 102 135 188 245 280 350 424
#
# _framework density 22.460303
#
# number of rings (size 3 to 8) (size 9 to 14) (size 15 to 20)
#    0.000    0.857    1.429    6.429    4.000    1.714 
#    2.571    4.286    0.000    0.000    0.000    0.000 
#    0.000    0.000    0.000    0.000    0.000    0.000 
#
# Total GULP energy -173505.896253 kJ/mol
# GULP energy per Si atom -12393.278304 kJ/mol
# Density = 2.240918 g / cm^3
# Si number density = 22.460303 Si / 1000 Ang^3
#
#
#
# Elastic Constant Matrix: (Units=GPa)
#
#
# Indices 1 2 3 4 5 6 
#
# 1 121.0297 31.0127 38.9153 13.6472 -0.0732 -15.3480
# 2 31.0127 112.4149 35.0865 16.3310 5.5274 -12.8517
# 3 38.9153 35.0865 120.1338 24.5185 7.6711 -3.1891
# 4 13.6472 16.3310 24.5185 32.9262 0.4167 3.8011
# 5 -0.0732 5.5274 7.6711 0.4167 49.1920 -5.7260
# 6 -15.3480 -12.8517 -3.1891 3.8011 -5.7260 47.7692
#
#
#
# Elastic Compliance Matrix: (Units=1/GPa)
#
#
# Indices 1 2 3 4 5 6 
#
# 1 0.009996 -0.001429 -0.002392 -0.002004 0.000907 0.002936
# 2 -0.001429 0.010703 -0.001813 -0.003649 -0.000598 0.002518
# 3 -0.002392 -0.001813 0.010994 -0.006254 -0.001485 -0.000203
# 4 -0.002004 -0.003649 -0.006254 0.038243 0.000473 -0.005030
# 5 0.000907 -0.000598 -0.001485 0.000473 0.020916 0.002501
# 6 0.002936 0.002518 -0.000203 -0.005030 0.002501 0.023241
#
#
# Mechanical properties :
#
#
# Convention : Reuss Voigt Hill
#
# Bulk Modulus (GPa) = 48.95825 62.62301 55.79063
# Shear Modulus (GPa) = 37.82980 42.54841 40.18910
#
# Velocity S-wave (km/s) = 4.10847 4.35717 4.23465
# Velocity P-wave (km/s) = 6.65966 7.29763 6.98593
#
# Compressibility (1/GPa) = 0.02042557
#
# Stress axis : x y z
#
# Youngs Moduli (GPa) = 100.03509 93.42968 90.95665
#
# Poissons Ratio (x) = 0.13352 0.21755
# Poissons Ratio (y) = 0.14296 0.16493
# Poissons Ratio (z) = 0.23927 0.16941
#
# Static dielectric constant tensor:
#      x y z
#    x 4.412110 0.049890 -0.086850 
#    y 0.049890 4.180470 0.089870 
#    z -0.086850 0.089870 4.078690 
# 
# 
# High freq. dielectric constant tensor:
#      x y z
#    x 1.911050 -0.009010 -0.000910 
#    y -0.009010 1.887530 0.004100 
#    z -0.000910 0.004100 1.878640 
# 
# From -- ./inp_files/156620.got.cif
#   From: 2010.06.25/outbox.cif.g09.slc.cpg/sg2_79_cif.got.tgz:156620.got - 2010.06.27 13:26:56.
