data_PCOD8032934
_publ_section_title
;
Structure prediction by ZEFSAII (Michael W. Deem and Ramdas Pophale) SiO2 
 PCOD8032934
Probable space group: P -1
;
_chemical_formula_sum "Si O2"
_cell_formula_units_Z 14
_cell_length_a 6.025881
_cell_length_b 20.638392
_cell_length_c 20.706381
_cell_angle_alpha 20.964472
_cell_angle_beta 131.193983
_cell_angle_gamma 121.702168
_cell_volume 653.868973
_symmetry_space_group_name_H-M "P -1"
_symmetry_group_IT_number 2
_symmetry_cell_setting 'triclinic'
loop_
_space_group_symop_operation_xyz
x,y,z
-x,-y,-z
loop_
_atom_site_type_symbol
_atom_site_label
_atom_site_fract_x
_atom_site_fract_y
_atom_site_fract_z
Si Si1 0.631982 0.776644 0.400384
Si Si2 0.359346 0.484795 0.561712
Si Si3 0.345498 0.937136 0.321394
Si Si4 0.317121 0.640131 0.689218
Si Si5 0.253543 0.894138 0.561437
Si Si6 0.349886 0.945263 0.959206
Si Si7 0.370802 0.790847 0.824939
O O1 0.415822 0.649832 0.461552
O O2 0.605655 0.860266 0.388879
O O3 0.995127 0.645995 0.586705
O O4 0.519598 0.964556 0.158856
O O5 0.500000 0.500000 0.500000
O O6 0.000000 0.500000 0.500000
O O7 0.564837 0.281553 0.818703
O O8 0.454283 0.775594 0.547649
O O9 0.339935 0.136181 0.168627
O O10 0.022261 0.961025 0.201117
O O11 0.280151 0.720844 0.679341
O O12 0.556459 0.423929 0.934914
O O13 0.301828 0.793510 0.733724
O O14 0.500000 0.000000 0.500000
O O15 0.923436 0.061244 0.332980
O O16 0.500000 0.000000 0.000000
#
# Coordination Sequence:
#
# PCOD8032934 Si02
#       7
#     2   2   2   2   2   2   2
#     4  11  25  44  70  98 140 182 233 293 355 429
#     4  12  27  45  70 104 138 183 245 297 363 435
#     4  11  24  43  67 101 137 178 235 287 350 429
#     4  11  24  44  68 101 137 182 233 280 357 422
#     4  11  23  44  68  99 135 177 232 284 346 428
#     4  11  24  44  70  96 136 182 230 295 356 414
#     4  11  24  43  69  97 138 179 226 290 350 417
#
# _framework density 21.411019
#
# number of rings (size 3 to 8) (size 9 to 14) (size 15 to 20)
#    0.000    0.857    4.286    2.143    4.000    4.000 
#    0.000    0.000    0.000    0.000    0.000    0.000 
#    0.000    0.000    0.000    0.000    0.000    0.000 
#
# Total GULP energy -173455.590503 kJ/mol
# GULP energy per Si atom -12389.685036 kJ/mol
# Density = 2.136229 g / cm^3
# Si number density = 21.411019 Si / 1000 Ang^3
#
#
#
# Elastic Constant Matrix: (Units=GPa)
#
#
# Indices 1 2 3 4 5 6 
#
# 1 89.6607 32.4219 35.7198 -2.2338 -8.7513 -6.8459
# 2 32.4219 124.2146 45.1861 -6.3865 -9.4933 -3.0051
# 3 35.7198 45.1861 162.0239 -13.3608 -16.3273 -7.0173
# 4 -2.2338 -6.3865 -13.3608 34.6070 6.5644 -0.6117
# 5 -8.7513 -9.4933 -16.3273 6.5644 22.8407 -4.0557
# 6 -6.8459 -3.0051 -7.0173 -0.6117 -4.0557 35.8039
#
#
#
# Elastic Compliance Matrix: (Units=1/GPa)
#
#
# Indices 1 2 3 4 5 6 
#
# 1 0.013294 -0.002525 -0.001860 -0.000929 0.003396 0.002334
# 2 -0.002525 0.009549 -0.001902 0.000583 0.001496 0.000125
# 3 -0.001860 -0.001902 0.007702 0.001819 0.003737 0.001449
# 4 -0.000929 0.000583 0.001819 0.031119 -0.007778 -0.000122
# 5 0.003396 0.001496 0.003737 -0.007778 0.051899 0.007253
# 6 0.002334 0.000125 0.001449 -0.000122 0.007253 0.029490
#
#
# Mechanical properties :
#
#
# Convention : Reuss Voigt Hill
#
# Bulk Modulus (GPa) = 55.64686 66.95053 61.29869
# Shear Modulus (GPa) = 30.93736 36.15508 33.54622
#
# Velocity S-wave (km/s) = 3.80534 4.11374 3.96254
# Velocity P-wave (km/s) = 6.73452 7.34172 7.04467
#
# Compressibility (1/GPa) = 0.01797047
#
# Stress axis : x y z
#
# Youngs Moduli (GPa) = 75.22357 104.72332 129.84135
#
# Poissons Ratio (x) = 0.26443 0.24148
# Poissons Ratio (y) = 0.18994 0.24697
# Poissons Ratio (z) = 0.13990 0.19919
#
# Static dielectric constant tensor:
#      x y z
#    x 4.226490 0.004790 -0.188370 
#    y 0.004790 4.126420 -0.000960 
#    z -0.188370 -0.000960 4.005200 
# 
# 
# High freq. dielectric constant tensor:
#      x y z
#    x 1.841260 0.005030 -0.007850 
#    y 0.005030 1.858200 0.001640 
#    z -0.007850 0.001640 1.843120 
# 
# From -- ./inp_files/11250.got.cif
#   From: 2010.06.25/outbox.cif.g09.slc.cpg/sg2_6_cif.got.tgz:11250.got - 2010.06.27 13:26:56.
