data_PCOD8032047
_publ_section_title
;
Structure prediction by ZEFSAII (Michael W. Deem and Ramdas Pophale) SiO2 
 PCOD8032047
Probable space group: P -1
;
_chemical_formula_sum "Si O2"
_cell_formula_units_Z 16
_cell_length_a 8.848050
_cell_length_b 14.525972
_cell_length_c 11.641299
_cell_angle_alpha 60.825447
_cell_angle_beta 113.193770
_cell_angle_gamma 61.464916
_cell_volume 661.798309
_symmetry_space_group_name_H-M "P -1"
_symmetry_group_IT_number 2
_symmetry_cell_setting 'triclinic'
loop_
_space_group_symop_operation_xyz
x,y,z
-x,-y,-z
loop_
_atom_site_type_symbol
_atom_site_label
_atom_site_fract_x
_atom_site_fract_y
_atom_site_fract_z
Si Si1 0.850807 0.695874 0.019601
Si Si2 0.730689 0.992940 0.843088
Si Si3 0.345982 0.497920 0.673460
Si Si4 0.197812 0.095138 0.837820
Si Si5 0.783107 0.583909 0.488468
Si Si6 0.398483 0.434590 0.202773
Si Si7 0.491081 0.325360 0.052634
Si Si8 0.020528 0.990771 0.281141
O O1 0.029784 0.582345 0.261226
O O2 0.080275 0.558093 0.066556
O O3 0.686088 0.897405 0.841177
O O4 0.597215 0.745117 0.892685
O O5 0.933875 0.952168 0.843484
O O6 0.405703 0.220581 0.629308
O O7 0.913002 0.882756 0.083506
O O8 0.453591 0.367465 0.677908
O O9 0.580776 0.465457 0.784838
O O10 0.023134 0.712011 0.412891
O O11 0.295783 0.461337 0.799920
O O12 0.212380 0.978074 0.841906
O O13 0.500000 0.000000 0.000000
O O14 0.000000 0.500000 0.500000
O O15 0.424012 0.438413 0.071198
O O16 0.660146 0.217720 0.454425
O O17 0.843324 0.144738 0.236718
#
# Coordination Sequence:
#
# PCOD8032047 Si02
#       8
#     2   2   2   2   2   2   2   2
#     4  12  26  47  75 109 146 190 250 303 364 439
#     4  12  25  43  72 107 153 187 236 297 372 444
#     4  11  24  43  72 106 143 192 237 299 369 436
#     4  11  23  40  68 107 147 189 235 295 373 442
#     4  12  24  45  73 109 149 187 235 302 376 437
#     4  11  26  49  74 103 146 198 250 303 359 433
#     4  12  25  48  73 105 146 197 250 303 361 429
#     4  11  25  45  69 106 147 194 243 303 363 437
#
# _framework density 24.176549000000001
#
# number of rings (size 3 to 8) (size 9 to 14) (size 15 to 20)
#    0.000    0.500    3.750    4.500    0.000    2.500 
#    0.000    0.625    0.000    0.000    0.000    0.000 
#    0.000    0.000    0.000    0.000    0.000    0.000 
#
# Total GULP energy -198336.218822 kJ/mol
# GULP energy per Si atom -12396.013676 kJ/mol
# Density = 2.412152 g / cm^3
# Si number density = 24.176549 Si / 1000 Ang^3
#
#
#
# Elastic Constant Matrix: (Units=GPa)
#
#
# Indices 1 2 3 4 5 6 
#
# 1 113.0177 32.3037 35.5751 -16.3322 -7.3022 -19.3677
# 2 32.3037 100.6788 30.0788 -12.6441 -1.4091 -24.1520
# 3 35.5751 30.0788 82.0942 -21.6447 -13.3753 6.8621
# 4 -16.3322 -12.6441 -21.6447 40.0365 -1.0672 2.5808
# 5 -7.3022 -1.4091 -13.3753 -1.0672 33.6481 -3.0061
# 6 -19.3677 -24.1520 6.8621 2.5808 -3.0061 40.0358
#
#
#
# Elastic Compliance Matrix: (Units=1/GPa)
#
#
# Indices 1 2 3 4 5 6 
#
# 1 0.011933 -0.000693 -0.004777 0.001703 0.001266 0.006159
# 2 -0.000693 0.014042 -0.005622 0.000507 -0.000978 0.008993
# 3 -0.004777 -0.005622 0.020183 0.007945 0.006180 -0.009210
# 4 0.001703 0.000507 0.007945 0.030364 0.004346 -0.001863
# 5 0.001266 -0.000978 0.006180 0.004346 0.032649 0.001135
# 6 0.006159 0.008993 -0.009210 -0.001863 0.001135 0.035166
#
#
# Mechanical properties :
#
#
# Convention : Reuss Voigt Hill
#
# Bulk Modulus (GPa) = 41.71074 54.63398 48.17236
# Shear Modulus (GPa) = 28.65149 35.93296 32.29223
#
# Velocity S-wave (km/s) = 3.44625 3.85940 3.65867
# Velocity P-wave (km/s) = 5.75548 6.51974 6.14949
#
# Compressibility (1/GPa) = 0.02397464
#
# Stress axis : x y z
#
# Youngs Moduli (GPa) = 83.79985 71.21567 49.54771
#
# Poissons Ratio (x) = 0.04932 0.23668
# Poissons Ratio (y) = 0.05804 0.27856
# Poissons Ratio (z) = 0.40030 0.40038
#
# Static dielectric constant tensor:
#      x y z
#    x 4.547870 0.213110 -0.288330 
#    y 0.213110 4.734160 0.056450 
#    z -0.288330 0.056450 4.205810 
# 
# 
# High freq. dielectric constant tensor:
#      x y z
#    x 1.970670 0.001610 -0.016190 
#    y 0.001610 1.965430 -0.009320 
#    z -0.016190 -0.009320 1.950270 
# 
# From -- ./inp_files/398808.got.cif
#   From: 2010.06.25/outbox.cif.g09.slc.cpg/sg2_200_cif.got.tgz:398808.got - 2010.06.27 13:26:56.
