data_PCOD8032111
_publ_section_title
;
Structure prediction by ZEFSAII (Michael W. Deem and Ramdas Pophale) SiO2 
 PCOD8032111
Probable space group: P -1
;
_chemical_formula_sum "Si O2"
_cell_formula_units_Z 14
_cell_length_a 8.982997
_cell_length_b 14.916169
_cell_length_c 12.152810
_cell_angle_alpha 131.117316
_cell_angle_beta 32.697563
_cell_angle_gamma 122.373551
_cell_volume 662.057196
_symmetry_space_group_name_H-M "P -1"
_symmetry_group_IT_number 2
_symmetry_cell_setting 'triclinic'
loop_
_space_group_symop_operation_xyz
x,y,z
-x,-y,-z
loop_
_atom_site_type_symbol
_atom_site_label
_atom_site_fract_x
_atom_site_fract_y
_atom_site_fract_z
Si Si1 0.199229 0.391206 0.324861
Si Si2 0.887512 0.742324 0.506687
Si Si3 0.402777 0.964881 0.650430
Si Si4 0.028184 0.187678 0.116786
Si Si5 0.172738 0.609637 0.018839
Si Si6 0.027687 0.999946 0.610286
Si Si7 0.253763 0.793201 0.926615
O O1 0.092992 0.338186 0.462079
O O2 0.000000 0.500000 0.500000
O O3 0.186603 0.295865 0.157502
O O4 0.512166 0.431164 0.179377
O O5 0.576481 0.774112 0.686482
O O6 0.039561 0.671331 0.257750
O O7 0.035525 0.864786 0.541559
O O8 0.224791 0.847564 0.675164
O O9 0.686203 0.934752 0.510610
O O10 0.500000 0.000000 0.500000
O O11 0.243133 0.076448 0.895326
O O12 0.918363 0.220179 0.089349
O O13 0.156531 0.698259 0.997896
O O14 0.000000 0.500000 0.000000
O O15 0.796693 0.075222 0.883944
O O16 0.000000 0.000000 0.500000
#
# Coordination Sequence:
#
# PCOD8032111 Si02
#       7
#     2   2   2   2   2   2   2
#     4  11  28  47  70  99 134 182 231 287 338 398
#     4  11  25  45  69  99 141 176 227 282 338 411
#     4  11  23  41  63  98 139 179 215 275 332 409
#     4  11  25  42  66  99 139 176 226 273 343 398
#     4  11  27  49  72  99 133 181 235 282 338 405
#     4  12  22  41  69 102 139 177 223 271 346 406
#     4  11  25  42  70 103 134 184 220 281 343 412
#
# _framework density 21.146208000000001
#
# number of rings (size 3 to 8) (size 9 to 14) (size 15 to 20)
#    0.000    0.857    2.857    3.000    8.000    1.714 
#    2.571    0.000    0.000    0.000    0.000    0.000 
#    0.000    0.000    0.000    0.000    0.000    0.000 
#
# Total GULP energy -173574.652458 kJ/mol
# GULP energy per Si atom -12398.189461 kJ/mol
# Density = 2.109808 g / cm^3
# Si number density = 21.146208 Si / 1000 Ang^3
#
#
#
# Elastic Constant Matrix: (Units=GPa)
#
#
# Indices 1 2 3 4 5 6 
#
# 1 121.6007 45.7257 39.1695 -9.0117 1.1919 -4.8212
# 2 45.7257 125.1103 56.2030 2.0595 1.6863 9.4908
# 3 39.1695 56.2030 115.9472 -6.8215 -1.8815 -5.2223
# 4 -9.0117 2.0595 -6.8215 35.2154 -3.4560 1.7513
# 5 1.1919 1.6863 -1.8815 -3.4560 39.7025 -1.4195
# 6 -4.8212 9.4908 -5.2223 1.7513 -1.4195 40.2294
#
#
#
# Elastic Compliance Matrix: (Units=1/GPa)
#
#
# Indices 1 2 3 4 5 6 
#
# 1 0.010189 -0.003115 -0.001719 0.002377 0.000010 0.001630
# 2 -0.003115 0.011678 -0.004929 -0.002346 -0.000973 -0.003700
# 3 -0.001719 -0.004929 0.011847 0.002129 0.001095 0.002441
# 4 0.002377 -0.002346 0.002129 0.029826 0.002722 -0.000088
# 5 0.000010 -0.000973 0.001095 0.002722 0.025559 0.001156
# 6 0.001630 -0.003700 0.002441 -0.000088 0.001156 0.026287
#
#
# Mechanical properties :
#
#
# Convention : Reuss Voigt Hill
#
# Bulk Modulus (GPa) = 70.47456 71.65052 71.06254
# Shear Modulus (GPa) = 35.80601 37.80012 36.80306
#
# Velocity S-wave (km/s) = 4.11939 4.23254 4.17635
# Velocity P-wave (km/s) = 7.48501 7.60545 7.54547
#
# Compressibility (1/GPa) = 0.01418952
#
# Stress axis : x y z
#
# Youngs Moduli (GPa) = 98.14324 85.63153 84.40600
#
# Poissons Ratio (x) = 0.26671 0.14509
# Poissons Ratio (y) = 0.30568 0.41603
# Poissons Ratio (z) = 0.16871 0.42207
#
# Static dielectric constant tensor:
#      x y z
#    x 3.898940 -0.094040 -0.002880 
#    y -0.094040 2.974570 -0.029130 
#    z -0.002880 -0.029130 3.953070 
# 
# 
# High freq. dielectric constant tensor:
#      x y z
#    x 1.846480 -0.003490 -0.000430 
#    y -0.003490 1.829940 -0.011040 
#    z -0.000430 -0.011040 1.839510 
# 
# From -- ./inp_files/26726.got.cif
#   From: 2010.06.25/outbox.cif.g09.slc.cpg/sg2_14_cif.got.tgz:26726.got - 2010.06.27 13:26:56.
