data_PCOD8032658
_publ_section_title
;
Structure prediction by ZEFSAII (Michael W. Deem and Ramdas Pophale) SiO2 
 PCOD8032658
Probable space group: P -1
;
_chemical_formula_sum "Si O2"
_cell_formula_units_Z 16
_cell_length_a 9.183234
_cell_length_b 9.006481
_cell_length_c 13.472859
_cell_angle_alpha 129.211270
_cell_angle_beta 110.317228
_cell_angle_gamma 97.079181
_cell_volume 713.943657
_symmetry_space_group_name_H-M "P -1"
_symmetry_group_IT_number 2
_symmetry_cell_setting 'triclinic'
loop_
_space_group_symop_operation_xyz
x,y,z
-x,-y,-z
loop_
_atom_site_type_symbol
_atom_site_label
_atom_site_fract_x
_atom_site_fract_y
_atom_site_fract_z
Si Si1 0.175574 0.602365 0.147439
Si Si2 0.083275 0.154164 0.228610
Si Si3 0.237899 0.246636 0.099741
Si Si4 0.129729 0.992108 0.375786
Si Si5 0.187175 0.009669 0.612081
Si Si6 0.581266 0.253258 0.112927
Si Si7 0.539100 0.303103 0.907919
Si Si8 0.027183 0.495551 0.619152
O O1 0.185995 0.440048 0.162216
O O2 0.189866 0.811891 0.294400
O O3 0.334850 0.663335 0.137895
O O4 0.000000 0.500000 0.000000
O O5 0.211050 0.161442 0.171728
O O6 0.055750 0.363196 0.293167
O O7 0.169091 0.148082 0.353754
O O8 0.893255 0.942357 0.085222
O O9 0.438200 0.326817 0.146646
O O10 0.923317 0.892483 0.313033
O O11 0.230751 0.111447 0.552861
O O12 0.362512 0.081183 0.746913
O O13 0.073742 0.748640 0.466301
O O14 0.763502 0.398536 0.272283
O O15 0.626808 0.281751 0.019771
O O16 0.500000 0.000000 0.000000
O O17 0.500000 0.500000 0.000000
O O18 0.000000 0.500000 0.500000
#
# Coordination Sequence:
#
# PCOD8032658 Si02
#       8
#     2   2   2   2   2   2   2   2
#     4  12  25  42  72 105 143 186 235 290 354 415
#     4  11  23  43  69 103 140 188 230 288 346 422
#     4  11  24  43  68 104 146 176 238 292 345 406
#     4  11  24  42  72 100 142 188 236 283 358 417
#     4  11  26  47  70 103 143 185 236 294 355 420
#     4  12  26  44  72 107 139 181 238 287 344 417
#     4  12  27  46  74 103 141 183 240 296 346 420
#     4  12  25  45  73 102 143 188 227 288 358 422
#
# _framework density 22.410733
#
# number of rings (size 3 to 8) (size 9 to 14) (size 15 to 20)
#    0.000    0.500    5.000    3.000    8.750    0.500 
#    0.000    1.875    0.000    0.000    0.000    0.000 
#    0.000    0.000    0.000    0.000    0.000    0.000 
#
# Total GULP energy -198343.174848 kJ/mol
# GULP energy per Si atom -12396.448428 kJ/mol
# Density = 2.235972 g / cm^3
# Si number density = 22.410733 Si / 1000 Ang^3
#
#
#
# Elastic Constant Matrix: (Units=GPa)
#
#
# Indices 1 2 3 4 5 6 
#
# 1 109.3332 33.9483 55.2838 3.7325 -15.7958 -4.7058
# 2 33.9483 130.5065 45.8777 -15.2709 -6.5890 0.4637
# 3 55.2838 45.8777 102.2831 -4.3677 15.2418 -0.4797
# 4 3.7325 -15.2709 -4.3677 49.6042 -3.4744 -12.9754
# 5 -15.7958 -6.5890 15.2418 -3.4744 42.1207 -1.5721
# 6 -4.7058 0.4637 -0.4797 -12.9754 -1.5721 41.1213
#
#
#
# Elastic Compliance Matrix: (Units=1/GPa)
#
#
# Indices 1 2 3 4 5 6 
#
# 1 0.015610 -0.000297 -0.009726 -0.001024 0.009306 0.001709
# 2 -0.000297 0.009914 -0.004657 0.003145 0.003418 0.000923
# 3 -0.009726 -0.004657 0.018783 -0.000183 -0.011237 -0.001329
# 4 -0.001024 0.003145 -0.000183 0.023257 0.002364 0.007274
# 5 0.009306 0.003418 -0.011237 0.002364 0.032134 0.002870
# 6 0.001709 0.000923 -0.001329 0.007274 0.002870 0.026893
#
#
# Mechanical properties :
#
#
# Convention : Reuss Voigt Hill
#
# Bulk Modulus (GPa) = 66.90683 68.03803 67.47243
# Shear Modulus (GPa) = 31.06863 40.37011 35.71937
#
# Velocity S-wave (km/s) = 3.72738 4.24886 3.99664
# Velocity P-wave (km/s) = 6.96018 7.38214 7.17426
#
# Compressibility (1/GPa) = 0.01494616
#
# Stress axis : x y z
#
# Youngs Moduli (GPa) = 64.06309 100.86499 53.23977
#
# Poissons Ratio (x) = 0.03000 0.51781
# Poissons Ratio (y) = 0.01906 0.24793
# Poissons Ratio (z) = 0.62308 0.46972
#
# Static dielectric constant tensor:
#      x y z
#    x 3.711500 0.202350 -0.062120 
#    y 0.202350 4.152940 0.000930 
#    z -0.062120 0.000930 4.092350 
# 
# 
# High freq. dielectric constant tensor:
#      x y z
#    x 1.887310 -0.000760 -0.016390 
#    y -0.000760 1.899990 -0.011100 
#    z -0.016390 -0.011100 1.875030 
# 
# From -- ./inp_files/495767.got.cif
#   From: 2010.06.25/outbox.cif.g09.slc.cpg/sg2_248_cif.got.tgz:495767.got - 2010.06.27 13:26:56.
