data_PCOD8032459
_publ_section_title
;
Structure prediction by ZEFSAII (Michael W. Deem and Ramdas Pophale) SiO2 
 PCOD8032459
Probable space group: P -1
;
_chemical_formula_sum "Si O2"
_cell_formula_units_Z 16
_cell_length_a 12.564329
_cell_length_b 8.586009
_cell_length_c 12.385531
_cell_angle_alpha 54.682905
_cell_angle_beta 79.203827
_cell_angle_gamma 118.261673
_cell_volume 736.639994
_symmetry_space_group_name_H-M "P -1"
_symmetry_group_IT_number 2
_symmetry_cell_setting 'triclinic'
loop_
_space_group_symop_operation_xyz
x,y,z
-x,-y,-z
loop_
_atom_site_type_symbol
_atom_site_label
_atom_site_fract_x
_atom_site_fract_y
_atom_site_fract_z
Si Si1 0.783400 0.300731 0.570262
Si Si2 0.353276 0.944781 0.530530
Si Si3 0.099460 0.241171 0.299031
Si Si4 0.021845 0.519780 0.861252
Si Si5 0.852013 0.950033 0.036070
Si Si6 0.911719 0.092673 0.735050
Si Si7 0.480464 0.486095 0.637916
Si Si8 0.388282 0.714969 0.196134
O O1 0.668744 0.101275 0.574760
O O2 0.856189 0.190734 0.630014
O O3 0.697996 0.277204 0.698557
O O4 0.910399 0.621583 0.378692
O O5 0.198206 0.679002 0.732044
O O6 0.500000 0.000000 0.500000
O O7 0.393063 0.208538 0.456975
O O8 0.271235 0.485808 0.219127
O O9 0.014617 0.331263 0.253432
O O10 0.102454 0.126390 0.234491
O O11 0.000000 0.000000 0.500000
O O12 0.892077 0.204829 0.975342
O O13 0.000000 0.500000 0.000000
O O14 0.809086 0.929623 0.927073
O O15 0.697220 0.671479 0.237627
O O16 0.000000 0.000000 0.000000
O O17 0.500000 0.500000 0.500000
O O18 0.510755 0.320871 0.752347
O O19 0.500000 0.000000 0.000000
#
# Coordination Sequence:
#
# PCOD8032459 Si02
#       8
#     2   2   2   2   2   2   2   2
#     4  11  23  43  71  98 138 183 229 287 348 414
#     4  12  26  45  69 103 142 186 229 287 359 419
#     4  12  24  43  72 103 138 184 236 289 345 422
#     4  12  25  45  70 103 137 182 239 288 341 416
#     4  12  26  45  71 102 139 185 239 288 341 418
#     4  11  23  42  71 102 133 179 239 288 338 405
#     4  12  27  46  70 104 145 186 229 288 360 421
#     4  12  26  44  70 104 145 183 229 290 358 417
#
# _framework density 21.720244000000001
#
# number of rings (size 3 to 8) (size 9 to 14) (size 15 to 20)
#    0.000    0.250    2.500    7.500    1.750    2.000 
#    0.000    2.500    0.000    0.000    0.000    0.000 
#    0.000    0.000    0.000    0.000    0.000    0.000 
#
# Total GULP energy -198454.002889 kJ/mol
# GULP energy per Si atom -12403.375181 kJ/mol
# Density = 2.167081 g / cm^3
# Si number density = 21.720244 Si / 1000 Ang^3
#
#
#
# Elastic Constant Matrix: (Units=GPa)
#
#
# Indices 1 2 3 4 5 6 
#
# 1 95.8994 20.3145 21.2298 3.5322 3.5550 12.9588
# 2 20.3145 163.8423 37.0804 5.0752 2.7586 4.4208
# 3 21.2298 37.0804 116.8697 8.7802 -5.5047 14.0647
# 4 3.5322 5.0752 8.7802 38.8291 1.1413 -1.6640
# 5 3.5550 2.7586 -5.5047 1.1413 42.5453 0.1308
# 6 12.9588 4.4208 14.0647 -1.6640 0.1308 37.3026
#
#
#
# Elastic Compliance Matrix: (Units=1/GPa)
#
#
# Indices 1 2 3 4 5 6 
#
# 1 0.011458 -0.000982 -0.001358 -0.000721 -0.001040 -0.003381
# 2 -0.000982 0.006686 -0.001982 -0.000306 -0.000601 0.000285
# 3 -0.001358 -0.001982 0.010046 -0.002073 0.001607 -0.003179
# 4 -0.000721 -0.000306 -0.002073 0.026451 -0.000904 0.002251
# 5 -0.001040 -0.000601 0.001607 -0.000904 0.023863 -0.000298
# 6 -0.003381 0.000285 -0.003179 0.002251 -0.000298 0.029249
#
#
# Mechanical properties :
#
#
# Convention : Reuss Voigt Hill
#
# Bulk Modulus (GPa) = 51.16299 59.31787 55.24043
# Shear Modulus (GPa) = 40.67908 43.60118 42.14013
#
# Velocity S-wave (km/s) = 4.33236 4.48526 4.40947
# Velocity P-wave (km/s) = 6.97369 7.36157 7.17025
#
# Compressibility (1/GPa) = 0.01954538
#
# Stress axis : x y z
#
# Youngs Moduli (GPa) = 87.27388 149.57089 99.54059
#
# Poissons Ratio (x) = 0.14693 0.13514
# Poissons Ratio (y) = 0.08573 0.19733
# Poissons Ratio (z) = 0.11849 0.29650
#
# Static dielectric constant tensor:
#      x y z
#    x 4.304040 -0.018120 -0.187060 
#    y -0.018120 4.161400 -0.053620 
#    z -0.187060 -0.053620 4.113560 
# 
# 
# High freq. dielectric constant tensor:
#      x y z
#    x 1.860640 -0.004840 0.004390 
#    y -0.004840 1.876230 0.003270 
#    z 0.004390 0.003270 1.863790 
# 
# From -- ./inp_files/418924.got.cif
#   From: 2010.06.25/outbox.cif.g09.slc.cpg/sg2_210_cif.got.tgz:418924.got - 2010.06.27 13:26:56.
