data_PCOD8032836
_publ_section_title
;
Structure prediction by ZEFSAII (Michael W. Deem and Ramdas Pophale) SiO2 
 PCOD8032836
Probable space group: P -1
;
_chemical_formula_sum "Si O2"
_cell_formula_units_Z 16
_cell_length_a 12.504367
_cell_length_b 8.983444
_cell_length_c 11.236013
_cell_angle_alpha 54.671017
_cell_angle_beta 130.503949
_cell_angle_gamma 132.380536
_cell_volume 686.387817
_symmetry_space_group_name_H-M "P -1"
_symmetry_group_IT_number 2
_symmetry_cell_setting 'triclinic'
loop_
_space_group_symop_operation_xyz
x,y,z
-x,-y,-z
loop_
_atom_site_type_symbol
_atom_site_label
_atom_site_fract_x
_atom_site_fract_y
_atom_site_fract_z
Si Si1 0.922369 0.604682 0.709868
Si Si2 0.988889 0.238421 0.922281
Si Si3 0.744090 0.861474 0.802418
Si Si4 0.445496 0.656777 0.838042
Si Si5 0.629667 0.540553 0.676442
Si Si6 0.513086 0.803983 0.063248
Si Si7 0.880690 0.989720 0.200861
Si Si8 0.885010 0.589744 0.417462
O O1 0.014301 0.469243 0.849925
O O2 0.774752 0.517499 0.735242
O O3 0.855716 0.580165 0.541038
O O4 0.043625 0.845711 0.712996
O O5 0.866505 0.111156 0.783893
O O6 0.911211 0.110484 0.044442
O O7 0.162470 0.254639 0.016478
O O8 0.585696 0.819184 0.778833
O O9 0.697834 0.774122 0.673602
O O10 0.284667 0.556266 0.695043
O O11 0.500000 0.500000 0.000000
O O12 0.420008 0.758575 0.891236
O O13 0.500000 0.500000 0.500000
O O14 0.561193 0.381099 0.809695
O O15 0.693317 0.848877 0.153917
O O16 0.500000 0.000000 0.000000
O O17 0.954696 0.831801 0.318701
O O18 0.000000 0.500000 0.500000
#
# Coordination Sequence:
#
# PCOD8032836 Si02
#       8
#     2   2   2   2   2   2   2   2
#     4  12  28  47  73 109 154 188 246 307 378 441
#     4  11  25  44  76 111 141 195 252 306 365 443
#     4  11  23  43  75 102 147 189 249 296 372 426
#     4  12  23  48  76 102 145 195 251 302 358 447
#     4  12  26  47  69 103 148 195 235 302 379 434
#     4  12  27  44  78 108 143 190 254 303 364 437
#     4  12  24  50  74 110 149 197 249 304 366 447
#     4  12  30  49  76 112 151 196 247 308 376 437
#
# _framework density 23.310435999999999
#
# number of rings (size 3 to 8) (size 9 to 14) (size 15 to 20)
#    0.000    0.250    5.000    3.000    8.750    0.000 
#    2.250    1.250    0.000    0.000    0.000    0.000 
#    0.000    0.000    0.000    0.000    0.000    0.000 
#
# Total GULP energy -198374.434244 kJ/mol
# GULP energy per Si atom -12398.402140 kJ/mol
# Density = 2.325738 g / cm^3
# Si number density = 23.310436 Si / 1000 Ang^3
#
#
#
# Elastic Constant Matrix: (Units=GPa)
#
#
# Indices 1 2 3 4 5 6 
#
# 1 103.6557 46.5455 43.7114 14.5518 -18.3278 -8.1312
# 2 46.5455 146.5509 60.7285 23.8224 1.6640 -28.2207
# 3 43.7114 60.7285 106.3241 30.0399 -9.6790 -7.0207
# 4 14.5518 23.8224 30.0399 45.2017 -10.4573 0.2612
# 5 -18.3278 1.6640 -9.6790 -10.4573 43.7710 3.6181
# 6 -8.1312 -28.2207 -7.0207 0.2612 3.6181 46.7161
#
#
#
# Elastic Compliance Matrix: (Units=1/GPa)
#
#
# Indices 1 2 3 4 5 6 
#
# 1 0.013243 -0.003035 -0.003518 0.000863 0.005127 -0.000459
# 2 -0.003035 0.011238 -0.004274 -0.003032 -0.003858 0.005934
# 3 -0.003518 -0.004274 0.015128 -0.006536 0.000549 -0.000926
# 4 0.000863 -0.003032 -0.006536 0.029263 0.006297 -0.003315
# 5 0.005127 -0.003858 0.000549 0.006297 0.027053 -0.003486
# 6 -0.000459 0.005934 -0.000926 -0.003315 -0.003486 0.025060
#
#
# Mechanical properties :
#
#
# Convention : Reuss Voigt Hill
#
# Bulk Modulus (GPa) = 55.69455 73.16682 64.43069
# Shear Modulus (GPa) = 33.64184 40.84079 37.24132
#
# Velocity S-wave (km/s) = 3.80308 4.19028 4.00137
# Velocity P-wave (km/s) = 6.57487 7.40725 7.00344
#
# Compressibility (1/GPa) = 0.01795508
#
# Stress axis : x y z
#
# Youngs Moduli (GPa) = 75.51058 88.98557 66.10199
#
# Poissons Ratio (x) = 0.27008 0.23257
# Poissons Ratio (y) = 0.22918 0.28249
# Poissons Ratio (z) = 0.26568 0.38028
#
# Static dielectric constant tensor:
#      x y z
#    x 4.208260 -0.352560 -0.104150 
#    y -0.352560 4.524440 0.101810 
#    z -0.104150 0.101810 4.052900 
# 
# 
# High freq. dielectric constant tensor:
#      x y z
#    x 1.943410 -0.011090 -0.007750 
#    y -0.011090 1.935080 0.022490 
#    z -0.007750 0.022490 1.908250 
# 
# From -- ./inp_files/419237.got.cif
#   From: 2010.06.25/outbox.cif.g09.slc.cpg/sg2_210_cif.got.tgz:419237.got - 2010.06.27 13:26:56.
