data_PCOD8032110
_publ_section_title
;
Structure prediction by ZEFSAII (Michael W. Deem and Ramdas Pophale) SiO2 
 PCOD8032110
Probable space group: P -1
;
_chemical_formula_sum "Si O2"
_cell_formula_units_Z 12
_cell_length_a 8.520415
_cell_length_b 13.278928
_cell_length_c 7.003528
_cell_angle_alpha 107.489109
_cell_angle_beta 108.813652
_cell_angle_gamma 53.731605
_cell_volume 598.451701
_symmetry_space_group_name_H-M "P -1"
_symmetry_group_IT_number 2
_symmetry_cell_setting 'triclinic'
loop_
_space_group_symop_operation_xyz
x,y,z
-x,-y,-z
loop_
_atom_site_type_symbol
_atom_site_label
_atom_site_fract_x
_atom_site_fract_y
_atom_site_fract_z
Si Si1 0.988044 0.627710 0.595529
Si Si2 0.289834 0.628295 0.996532
Si Si3 0.664400 0.207009 0.175379
Si Si4 0.123765 0.735044 0.401082
Si Si5 0.641638 0.825258 0.807175
Si Si6 0.772899 0.956478 0.198304
O O1 0.135766 0.610694 0.811167
O O2 0.039152 0.662803 0.434669
O O3 0.000000 0.500000 0.500000
O O4 0.764537 0.739577 0.627402
O O5 0.305306 0.740984 0.979478
O O6 0.500000 0.500000 0.000000
O O7 0.225779 0.659997 0.206897
O O8 0.712076 0.265481 0.406503
O O9 0.436208 0.246586 0.134626
O O10 0.808118 0.053234 0.148415
O O11 0.945146 0.880065 0.376601
O O12 0.444655 0.959075 0.736602
O O13 0.782004 0.853235 0.001128
#
# Coordination Sequence:
#
# PCOD8032110 Si02
#       6
#     2   2   2   2   2   2
#     4  11  26  43  64  90 127 163 209 260 300 370
#     4  11  26  42  62  90 126 169 209 254 302 367
#     4   9  22  41  64  90 127 158 204 257 305 365
#     4  11  23  41  63  96 121 163 210 247 315 371
#     4   9  20  42  63  93 125 159 203 257 308 357
#     4   9  19  41  66  93 127 159 202 256 311 368
#
# _framework density 20.051743999999999
#
# number of rings (size 3 to 8) (size 9 to 14) (size 15 to 20)
#    1.000    1.000    1.667    0.500    4.667    4.667 
#    3.000    0.000    0.000    0.000    0.000    0.000 
#    0.000    0.000    0.000    0.000    0.000    0.000 
#
# Total GULP energy -148743.438816 kJ/mol
# GULP energy per Si atom -12395.286568 kJ/mol
# Density = 2.000610 g / cm^3
# Si number density = 20.051744 Si / 1000 Ang^3
#
#
#
# Elastic Constant Matrix: (Units=GPa)
#
#
# Indices 1 2 3 4 5 6 
#
# 1 87.4494 49.8413 45.5214 14.9846 -20.4226 20.8169
# 2 49.8413 123.9081 46.9392 11.0103 -14.5247 14.1822
# 3 45.5214 46.9392 94.2521 14.4106 -31.4808 11.1616
# 4 14.9846 11.0103 14.4106 27.8608 0.0977 -0.0143
# 5 -20.4226 -14.5247 -31.4808 0.0977 29.6808 3.2958
# 6 20.8169 14.1822 11.1616 -0.0143 3.2958 50.6899
#
#
#
# Elastic Compliance Matrix: (Units=1/GPa)
#
#
# Indices 1 2 3 4 5 6 
#
# 1 0.020962 -0.004821 -0.001889 -0.008434 0.010928 -0.007557
# 2 -0.004821 0.011281 -0.003957 0.000189 -0.001975 -0.000176
# 3 -0.001889 -0.003957 0.022464 -0.009116 0.021113 -0.004439
# 4 -0.008434 0.000189 -0.009116 0.045130 -0.016249 0.006487
# 5 0.010928 -0.001975 0.021113 -0.016249 0.064108 -0.012757
# 6 -0.007557 -0.000176 -0.004439 0.006487 -0.012757 0.024689
#
#
# Mechanical properties :
#
#
# Convention : Reuss Voigt Hill
#
# Bulk Modulus (GPa) = 29.96422 65.57926 47.77174
# Shear Modulus (GPa) = 22.61491 32.53350 27.57420
#
# Velocity S-wave (km/s) = 3.36196 4.03237 3.71233
# Velocity P-wave (km/s) = 5.48144 7.37943 6.50009
#
# Compressibility (1/GPa) = 0.03337313
#
# Stress axis : x y z
#
# Youngs Moduli (GPa) = 47.70479 88.64683 44.51508
#
# Poissons Ratio (x) = 0.42737 0.08408
# Poissons Ratio (y) = 0.22999 0.17615
# Poissons Ratio (z) = 0.09011 0.35079
#
# Static dielectric constant tensor:
#      x y z
#    x 3.725100 0.057380 0.071690 
#    y 0.057380 3.641720 -0.015170 
#    z 0.071690 -0.015170 3.457370 
# 
# 
# High freq. dielectric constant tensor:
#      x y z
#    x 1.790120 0.002230 0.007950 
#    y 0.002230 1.782540 0.009400 
#    z 0.007950 0.009400 1.767170 
# 
# From -- ./inp_files/28748.got.cif
#   From: 2010.06.25/outbox.cif.g09.slc.cpg/sg2_15_cif.got.tgz:28748.got - 2010.06.27 13:26:56.
