data_PCOD8032875
_publ_section_title
;
Structure prediction by ZEFSAII (Michael W. Deem and Ramdas Pophale) SiO2 
 PCOD8032875
Probable space group: P -1
;
_chemical_formula_sum "Si O2"
_cell_formula_units_Z 16
_cell_length_a 8.408824
_cell_length_b 17.813799
_cell_length_c 9.684139
_cell_angle_alpha 29.573292
_cell_angle_beta 94.058455
_cell_angle_gamma 97.021108
_cell_volume 708.691503
_symmetry_space_group_name_H-M "P -1"
_symmetry_group_IT_number 2
_symmetry_cell_setting 'triclinic'
loop_
_space_group_symop_operation_xyz
x,y,z
-x,-y,-z
loop_
_atom_site_type_symbol
_atom_site_label
_atom_site_fract_x
_atom_site_fract_y
_atom_site_fract_z
Si Si1 0.897403 0.423371 0.490465
Si Si2 0.395557 0.417598 0.744003
Si Si3 0.261181 0.907196 0.049522
Si Si4 0.576461 0.054178 0.716391
Si Si5 0.939723 0.604540 0.944507
Si Si6 0.227999 0.095977 0.249702
Si Si7 0.433634 0.355938 0.140291
Si Si8 0.090833 0.075902 0.563508
O O1 0.716405 0.458302 0.418031
O O2 0.866979 0.239621 0.765853
O O3 0.000000 0.500000 0.500000
O O4 0.987931 0.511818 0.227306
O O5 0.500000 0.500000 0.500000
O O6 0.289466 0.264975 0.926625
O O7 0.494572 0.375935 0.952654
O O8 0.287212 0.922048 0.192343
O O9 0.437739 0.916346 0.972761
O O10 0.177105 0.050337 0.755487
O O11 0.498306 0.209934 0.445498
O O12 0.660248 0.016304 0.638166
O O13 0.757801 0.647311 0.855757
O O14 0.019753 0.781776 0.665666
O O15 0.000000 0.500000 0.000000
O O16 0.231049 0.088487 0.430740
O O17 0.040387 0.068998 0.242972
O O18 0.500000 0.500000 0.000000
#
# Coordination Sequence:
#
# PCOD8032875 Si02
#       8
#     2   2   2   2   2   2   2   2
#     4  11  24  44  67 100 138 174 232 285 344 407
#     4  11  23  44  65 100 138 178 228 278 341 410
#     4  11  24  44  69 103 143 178 230 294 337 415
#     4  11  24  44  70 104 140 182 231 281 358 405
#     4  11  25  48  70  97 134 184 229 282 348 406
#     4  11  24  42  72 100 138 182 230 280 352 403
#     4  11  24  45  69  99 136 178 235 283 337 419
#     4  11  24  47  70 102 141 179 237 283 337 422
#
# _framework density 22.576820000000001
#
# number of rings (size 3 to 8) (size 9 to 14) (size 15 to 20)
#    0.000    1.000    3.750    3.000    5.250    5.500 
#    2.250    0.000    0.000    0.000    0.000    0.000 
#    0.000    0.000    0.000    0.000    0.000    0.000 
#
# Total GULP energy -198215.660308 kJ/mol
# GULP energy per Si atom -12388.478769 kJ/mol
# Density = 2.252543 g / cm^3
# Si number density = 22.576820 Si / 1000 Ang^3
#
#
#
# Elastic Constant Matrix: (Units=GPa)
#
#
# Indices 1 2 3 4 5 6 
#
# 1 48.0267 38.4262 45.6451 4.4908 -6.3847 -2.0080
# 2 38.4262 148.6013 77.9108 5.1790 -1.7131 -6.4108
# 3 45.6451 77.9108 160.6905 9.3149 -5.6289 4.7520
# 4 4.4908 5.1790 9.3149 42.6280 7.1366 0.0685
# 5 -6.3847 -1.7131 -5.6289 7.1366 35.0877 -6.5671
# 6 -2.0080 -6.4108 4.7520 0.0685 -6.5671 41.8282
#
#
#
# Elastic Compliance Matrix: (Units=1/GPa)
#
#
# Indices 1 2 3 4 5 6 
#
# 1 0.031707 -0.004507 -0.006572 -0.002266 0.005411 0.002431
# 2 -0.004507 0.009816 -0.003558 0.000166 -0.000648 0.001590
# 3 -0.006572 -0.003558 0.009937 -0.001055 0.000069 -0.001977
# 4 -0.002266 0.000166 -0.001055 0.024881 -0.005806 -0.000916
# 5 0.005411 -0.000648 0.000069 -0.005806 0.031604 0.005124
# 6 0.002431 0.001590 -0.001977 -0.000916 0.005124 0.025298
#
#
# Mechanical properties :
#
#
# Convention : Reuss Voigt Hill
#
# Bulk Modulus (GPa) = 45.07527 75.69810 60.38668
# Shear Modulus (GPa) = 29.42659 36.93121 33.17890
#
# Velocity S-wave (km/s) = 3.61418 4.04889 3.83770
# Velocity P-wave (km/s) = 6.11760 7.44714 6.81487
#
# Compressibility (1/GPa) = 0.02218512
#
# Stress axis : x y z
#
# Youngs Moduli (GPa) = 31.53860 101.87650 100.63014
#
# Poissons Ratio (x) = 0.45915 0.66138
# Poissons Ratio (y) = 0.14214 0.35807
# Poissons Ratio (z) = 0.20728 0.36251
#
# Static dielectric constant tensor:
#      x y z
#    x 4.197970 0.173170 -0.058640 
#    y 0.173170 3.926840 0.050750 
#    z -0.058640 0.050750 4.159080 
# 
# 
# High freq. dielectric constant tensor:
#      x y z
#    x 1.876190 0.013060 -0.009710 
#    y 0.013060 1.892550 -0.004170 
#    z -0.009710 -0.004170 1.908150 
# 
# From -- ./inp_files/216351.got.cif
#   From: 2010.06.25/outbox.cif.g09.slc.cpg/sg2_109_cif.got.tgz:216351.got - 2010.06.27 13:26:56.
