data_PCOD8032394
_publ_section_title
;
Structure prediction by ZEFSAII (Michael W. Deem and Ramdas Pophale) SiO2 
 PCOD8032394
Probable space group: P -1
;
_chemical_formula_sum "Si O2"
_cell_formula_units_Z 14
_cell_length_a 9.777910
_cell_length_b 9.198073
_cell_length_c 11.647203
_cell_angle_alpha 123.677580
_cell_angle_beta 122.803598
_cell_angle_gamma 51.976253
_cell_volume 653.901514
_symmetry_space_group_name_H-M "P -1"
_symmetry_group_IT_number 2
_symmetry_cell_setting 'triclinic'
loop_
_space_group_symop_operation_xyz
x,y,z
-x,-y,-z
loop_
_atom_site_type_symbol
_atom_site_label
_atom_site_fract_x
_atom_site_fract_y
_atom_site_fract_z
Si Si1 0.666616 0.131116 0.620927
Si Si2 0.926951 0.709341 0.617427
Si Si3 0.795635 0.448051 0.785944
Si Si4 0.526382 0.168389 0.829197
Si Si5 0.833756 0.571249 0.095100
Si Si6 0.136527 0.787661 0.928048
Si Si7 0.380138 0.246664 0.339784
O O1 0.779601 0.254675 0.730207
O O2 0.552060 0.165297 0.701352
O O3 0.531676 0.211115 0.488205
O O4 0.802259 0.898536 0.564798
O O5 0.814662 0.694828 0.667609
O O6 0.000000 0.500000 0.500000
O O7 0.094370 0.743601 0.759474
O O8 0.643753 0.577127 0.679084
O O9 0.000462 0.371914 0.796833
O O10 0.760805 0.594667 0.941834
O O11 0.319041 0.306644 0.827839
O O12 0.567989 0.951863 0.795450
O O13 0.655862 0.244192 0.986310
O O14 0.903153 0.345843 0.058755
O O15 0.000000 0.000000 0.000000
#
# Coordination Sequence:
#
# PCOD8032394 Si02
#       7
#     2   2   2   2   2   2   2
#     4  11  24  43  67  96 135 174 225 277 334 397
#     4  11  24  41  69 101 133 175 225 278 338 395
#     4  11  23  44  64  96 135 184 212 275 346 400
#     4  11  23  42  69 100 125 174 231 282 325 393
#     4  11  24  40  69  95 136 166 229 282 335 393
#     4  12  20  41  69  99 129 168 224 280 331 392
#     4  11  24  41  65  94 141 176 220 274 341 397
#
# _framework density 21.409953000000002
#
# number of rings (size 3 to 8) (size 9 to 14) (size 15 to 20)
#    0.000    0.857    5.714    2.571    4.000    1.714 
#    0.000    4.286    0.000    0.000    0.000    0.000 
#    0.000    0.000    0.000    0.000    0.000    0.000 
#
# Total GULP energy -173572.769613 kJ/mol
# GULP energy per Si atom -12398.054972 kJ/mol
# Density = 2.136122 g / cm^3
# Si number density = 21.409953 Si / 1000 Ang^3
#
#
#
# Elastic Constant Matrix: (Units=GPa)
#
#
# Indices 1 2 3 4 5 6 
#
# 1 96.7009 52.6202 22.7453 11.4578 4.7578 -5.4886
# 2 52.6202 141.6911 54.2690 8.8112 -15.7391 2.5768
# 3 22.7453 54.2690 122.7521 -3.5880 5.6055 -14.5151
# 4 11.4578 8.8112 -3.5880 44.6744 3.4639 0.6460
# 5 4.7578 -15.7391 5.6055 3.4639 25.4039 1.7520
# 6 -5.4886 2.5768 -14.5151 0.6460 1.7520 29.4227
#
#
#
# Elastic Compliance Matrix: (Units=1/GPa)
#
#
# Indices 1 2 3 4 5 6 
#
# 1 0.014429 -0.006443 0.000930 -0.001878 -0.006931 0.004168
# 2 -0.006443 0.013249 -0.005953 -0.002240 0.011443 -0.005931
# 3 0.000930 -0.005953 0.011823 0.002349 -0.007268 0.006909
# 4 -0.001878 -0.002240 0.002349 0.023862 -0.004861 0.000770
# 5 -0.006931 0.011443 -0.007268 -0.004861 0.050624 -0.008788
# 6 0.004168 -0.005931 0.006909 0.000770 -0.008788 0.039199
#
#
# Mechanical properties :
#
#
# Convention : Reuss Voigt Hill
#
# Bulk Modulus (GPa) = 60.35772 68.93480 64.64626
# Shear Modulus (GPa) = 27.52655 35.33414 31.43035
#
# Velocity S-wave (km/s) = 3.58954 4.06687 3.83564
# Velocity P-wave (km/s) = 6.74035 7.37021 7.06231
#
# Compressibility (1/GPa) = 0.01656789
#
# Stress axis : x y z
#
# Youngs Moduli (GPa) = 69.30545 75.47864 84.57753
#
# Poissons Ratio (x) = 0.48634 -0.07862
# Poissons Ratio (y) = 0.44657 0.50347
# Poissons Ratio (z) = -0.06443 0.44931
#
# Static dielectric constant tensor:
#      x y z
#    x 3.807990 0.161410 0.341810 
#    y 0.161410 3.791450 0.044650 
#    z 0.341810 0.044650 4.257630 
# 
# 
# High freq. dielectric constant tensor:
#      x y z
#    x 1.821250 0.007070 0.017780 
#    y 0.007070 1.849220 -0.006180 
#    z 0.017780 -0.006180 1.847850 
# 
# From -- ./inp_files/185544.got.cif
#   From: 2010.06.25/outbox.cif.g09.slc.cpg/sg2_93_cif.got.tgz:185544.got - 2010.06.27 13:26:56.
