data_PCOD8032665
_publ_section_title
;
Structure prediction by ZEFSAII (Michael W. Deem and Ramdas Pophale) SiO2 
 PCOD8032665
Probable space group: P -1
;
_chemical_formula_sum "Si O2"
_cell_formula_units_Z 16
_cell_length_a 23.081617
_cell_length_b 5.223166
_cell_length_c 6.783004
_cell_angle_alpha 72.519774
_cell_angle_beta 101.706698
_cell_angle_gamma 117.863037
_cell_volume 687.665614
_symmetry_space_group_name_H-M "P -1"
_symmetry_group_IT_number 2
_symmetry_cell_setting 'triclinic'
loop_
_space_group_symop_operation_xyz
x,y,z
-x,-y,-z
loop_
_atom_site_type_symbol
_atom_site_label
_atom_site_fract_x
_atom_site_fract_y
_atom_site_fract_z
Si Si1 0.556378 0.433055 0.963171
Si Si2 0.533342 0.954182 0.340458
Si Si3 0.725686 0.527223 0.584617
Si Si4 0.357743 0.163346 0.372347
Si Si5 0.184918 0.059907 0.776238
Si Si6 0.037126 0.202883 0.158367
Si Si7 0.822803 0.529558 0.974897
Si Si8 0.045249 0.780139 0.588831
O O1 0.527895 0.235159 0.795580
O O2 0.619128 0.725973 0.862445
O O3 0.500000 0.500000 0.000000
O O4 0.578385 0.262779 0.184531
O O5 0.579410 0.793624 0.460853
O O6 0.500000 0.000000 0.500000
O O7 0.671565 0.629934 0.596709
O O8 0.758191 0.696721 0.369149
O O9 0.693989 0.178335 0.595209
O O10 0.780382 0.608772 0.770932
O O11 0.166462 0.243385 0.888483
O O12 0.212660 0.824908 0.921361
O O13 0.121454 0.852464 0.649654
O O14 0.986187 0.317193 0.188639
O O15 0.046487 0.056914 0.402890
O O16 0.108259 0.432666 0.080574
O O17 0.000000 0.000000 0.000000
O O18 0.000000 0.500000 0.500000
#
# Coordination Sequence:
#
# PCOD8032665 Si02
#       8
#     2   2   2   2   2   2   2   2
#     4  11  25  44  76 112 150 185 242 298 371 431
#     4  11  24  46  74 113 153 191 232 306 372 428
#     4  12  29  51  69 106 149 198 250 304 353 443
#     4  12  27  48  78 106 149 196 248 296 365 439
#     4  12  27  49  73 103 144 196 246 304 372 442
#     4  11  23  43  69 108 141 183 242 310 378 441
#     4  12  27  48  77 101 148 194 248 308 376 434
#     4  11  25  40  72 108 144 184 242 307 381 448
#
# _framework density 23.267120999999999
#
# number of rings (size 3 to 8) (size 9 to 14) (size 15 to 20)
#    0.000    0.500    3.750    3.375    7.000    5.000 
#    0.000    0.000    0.000    0.000    0.000    0.000 
#    0.000    0.000    0.000    0.000    0.000    0.000 
#
# Total GULP energy -198315.635043 kJ/mol
# GULP energy per Si atom -12394.727190 kJ/mol
# Density = 2.321416 g / cm^3
# Si number density = 23.267121 Si / 1000 Ang^3
#
#
#
# Elastic Constant Matrix: (Units=GPa)
#
#
# Indices 1 2 3 4 5 6 
#
# 1 94.6404 5.1566 34.1072 -6.6848 -12.1630 -1.6153
# 2 5.1566 96.4087 34.9491 -14.8632 -16.6167 -2.9841
# 3 34.1072 34.9491 136.2388 -18.2962 -18.7169 1.4257
# 4 -6.6848 -14.8632 -18.2962 49.5177 -0.5577 -6.0778
# 5 -12.1630 -16.6167 -18.7169 -0.5577 39.8445 -0.7460
# 6 -1.6153 -2.9841 1.4257 -6.0778 -0.7460 36.0004
#
#
#
# Elastic Compliance Matrix: (Units=1/GPa)
#
#
# Indices 1 2 3 4 5 6 
#
# 1 0.011951 0.001034 -0.002736 0.001063 0.002827 0.000968
# 2 0.001034 0.012534 -0.002438 0.003276 0.004478 0.001828
# 3 -0.002736 -0.002438 0.009318 0.002340 0.002553 -0.000246
# 4 0.001063 0.003276 0.002340 0.022729 0.003186 0.004130
# 5 0.002827 0.004478 0.002553 0.003186 0.029101 0.001538
# 6 0.000968 0.001828 -0.000246 0.004130 0.001538 0.028711
#
#
# Mechanical properties :
#
#
# Convention : Reuss Voigt Hill
#
# Bulk Modulus (GPa) = 39.18112 52.85707 46.01909
# Shear Modulus (GPa) = 38.12914 41.94417 40.03665
#
# Velocity S-wave (km/s) = 4.05255 4.25045 4.15268
# Velocity P-wave (km/s) = 6.22686 6.84509 6.54328
#
# Compressibility (1/GPa) = 0.02552250
#
# Stress axis : x y z
#
# Youngs Moduli (GPa) = 83.67512 79.78006 107.31739
#
# Poissons Ratio (x) = -0.08248 0.29362
# Poissons Ratio (y) = -0.08650 0.26167
# Poissons Ratio (z) = 0.22894 0.19453
#
# Static dielectric constant tensor:
#      x y z
#    x 4.384650 0.082080 0.088090 
#    y 0.082080 4.208760 -0.383930 
#    z 0.088090 -0.383930 4.567040 
# 
# 
# High freq. dielectric constant tensor:
#      x y z
#    x 1.921060 -0.002950 -0.002290 
#    y -0.002950 1.920730 -0.013920 
#    z -0.002290 -0.013920 1.946580 
# 
# From -- ./inp_files/121561.got.cif
#   From: 2010.06.25/outbox.cif.g09.slc.cpg/sg2_61_cif.got.tgz:121561.got - 2010.06.27 13:26:56.
