data_PCOD8032570
_publ_section_title
;
Structure prediction by ZEFSAII (Michael W. Deem and Ramdas Pophale) SiO2 
 PCOD8032570
Probable space group: P -1
;
_chemical_formula_sum "Si O2"
_cell_formula_units_Z 16
_cell_length_a 6.719778
_cell_length_b 9.644907
_cell_length_c 18.099563
_cell_angle_alpha 124.766822
_cell_angle_beta 71.892142
_cell_angle_gamma 131.574422
_cell_volume 716.524104
_symmetry_space_group_name_H-M "P -1"
_symmetry_group_IT_number 2
_symmetry_cell_setting 'triclinic'
loop_
_space_group_symop_operation_xyz
x,y,z
-x,-y,-z
loop_
_atom_site_type_symbol
_atom_site_label
_atom_site_fract_x
_atom_site_fract_y
_atom_site_fract_z
Si Si1 0.073380 0.085907 0.296018
Si Si2 0.321741 0.345214 0.040742
Si Si3 0.608153 0.625531 0.235232
Si Si4 0.344839 0.667714 0.759558
Si Si5 0.545614 0.221383 0.565803
Si Si6 0.617828 0.740551 0.545569
Si Si7 0.104143 0.633739 0.629656
Si Si8 0.275643 0.936676 0.950805
O O1 0.347176 0.182832 0.253745
O O2 0.120341 0.111705 0.387974
O O3 0.961587 0.201521 0.309425
O O4 0.863112 0.832731 0.227058
O O5 0.400578 0.467056 0.147608
O O6 0.010921 0.228773 0.026543
O O7 0.500000 0.500000 0.000000
O O8 0.346993 0.157892 0.982438
O O9 0.711689 0.514058 0.233636
O O10 0.481656 0.705708 0.328190
O O11 0.146017 0.559548 0.680469
O O12 0.286544 0.820486 0.845053
O O13 0.326867 0.202861 0.531000
O O14 0.846709 0.408603 0.556446
O O15 0.500000 0.000000 0.500000
O O16 0.500000 0.500000 0.500000
O O17 0.385648 0.761886 0.593889
O O18 0.500000 0.000000 0.000000
#
# Coordination Sequence:
#
# PCOD8032570 Si02
#       8
#     2   2   2   2   2   2   2   2
#     4  11  26  44  70 100 144 187 235 293 359 422
#     4  11  28  48  76 111 147 185 240 298 360 443
#     4  12  26  47  69 105 144 185 236 294 358 428
#     4  11  25  46  71 104 141 185 237 293 355 435
#     4  12  25  41  69 100 140 187 242 291 349 423
#     4  11  23  43  65  97 131 190 241 292 354 414
#     4  11  23  45  67  94 143 192 230 294 361 418
#     4  11  25  48  78 106 145 188 233 297 371 430
#
# _framework density 22.330026
#
# number of rings (size 3 to 8) (size 9 to 14) (size 15 to 20)
#    0.000    0.750    3.750    2.625    7.000    2.000 
#    2.250    0.000    0.000    0.000    0.000    0.000 
#    0.000    0.000    0.000    0.000    0.000    0.000 
#
# Total GULP energy -198365.190129 kJ/mol
# GULP energy per Si atom -12397.824383 kJ/mol
# Density = 2.227920 g / cm^3
# Si number density = 22.330026 Si / 1000 Ang^3
#
#
#
# Elastic Constant Matrix: (Units=GPa)
#
#
# Indices 1 2 3 4 5 6 
#
# 1 134.7812 55.6992 31.8063 2.7328 2.8335 -11.4248
# 2 55.6992 140.5485 33.0844 15.4236 1.2773 -15.6857
# 3 31.8063 33.0844 87.9357 9.5123 -9.4893 -19.2978
# 4 2.7328 15.4236 9.5123 39.6536 -4.5515 2.1548
# 5 2.8335 1.2773 -9.4893 -4.5515 41.6056 -0.6780
# 6 -11.4248 -15.6857 -19.2978 2.1548 -0.6780 29.0891
#
#
#
# Elastic Compliance Matrix: (Units=1/GPa)
#
#
# Indices 1 2 3 4 5 6 
#
# 1 0.009320 -0.003223 -0.002309 0.001041 -0.000944 0.000292
# 2 -0.003223 0.009450 -0.001417 -0.003365 -0.000711 0.003122
# 3 -0.002309 -0.001417 0.015393 -0.003059 0.003521 0.008850
# 4 0.001041 -0.003365 -0.003059 0.027747 0.002282 -0.005437
# 5 -0.000944 -0.000711 0.003521 0.002282 0.025207 0.002000
# 6 0.000292 0.003122 0.008850 -0.005437 0.002000 0.042496
#
#
# Mechanical properties :
#
#
# Convention : Reuss Voigt Hill
#
# Bulk Modulus (GPa) = 49.34624 67.16059 58.25341
# Shear Modulus (GPa) = 33.27462 38.24801 35.76132
#
# Velocity S-wave (km/s) = 3.86441 4.14315 4.00620
# Velocity P-wave (km/s) = 6.48522 7.28212 6.89519
#
# Compressibility (1/GPa) = 0.02026497
#
# Stress axis : x y z
#
# Youngs Moduli (GPa) = 107.30024 105.81950 64.96385
#
# Poissons Ratio (x) = 0.34106 0.14999
# Poissons Ratio (y) = 0.34583 0.09207
# Poissons Ratio (z) = 0.24773 0.14997
#
# Static dielectric constant tensor:
#      x y z
#    x 4.541780 -0.014010 0.608600 
#    y -0.014010 4.017780 -0.058870 
#    z 0.608600 -0.058870 4.673150 
# 
# 
# High freq. dielectric constant tensor:
#      x y z
#    x 1.894740 -0.005580 0.006770 
#    y -0.005580 1.880170 0.004200 
#    z 0.006770 0.004200 1.882760 
# 
# From -- ./inp_files/548308.got.cif
#   From: 2010.06.25/outbox.cif.g09.slc.cpg/sg2_275_cif.got.tgz:548308.got - 2010.06.27 13:26:56.
