data_PCOD8032226
_publ_section_title
;
Structure prediction by ZEFSAII (Michael W. Deem and Ramdas Pophale) SiO2 
 PCOD8032226
Probable space group: P -1
;
_chemical_formula_sum "Si O2"
_cell_formula_units_Z 14
_cell_length_a 18.175520
_cell_length_b 9.031606
_cell_length_c 12.720548
_cell_angle_alpha 108.401718
_cell_angle_beta 19.221701
_cell_angle_gamma 108.361131
_cell_volume 651.352735
_symmetry_space_group_name_H-M "P -1"
_symmetry_group_IT_number 2
_symmetry_cell_setting 'triclinic'
loop_
_space_group_symop_operation_xyz
x,y,z
-x,-y,-z
loop_
_atom_site_type_symbol
_atom_site_label
_atom_site_fract_x
_atom_site_fract_y
_atom_site_fract_z
Si Si1 0.989817 0.591027 0.322490
Si Si2 0.943186 0.231712 0.352873
Si Si3 0.612119 0.190329 0.615025
Si Si4 0.896630 0.846651 0.663124
Si Si5 0.216761 0.485733 0.631823
Si Si6 0.689426 0.936572 0.303469
Si Si7 0.485079 0.642533 0.630526
O O1 0.024122 0.413449 0.272108
O O2 0.863904 0.692937 0.600020
O O3 0.854088 0.599766 0.399448
O O4 0.230821 0.678554 0.003581
O O5 0.933609 0.189387 0.479211
O O6 0.700785 0.206320 0.618978
O O7 0.102575 0.111511 0.056296
O O8 0.652524 0.350535 0.532825
O O9 0.757428 0.068686 0.327510
O O10 0.352151 0.129706 0.951762
O O11 0.000000 0.000000 0.500000
O O12 0.392843 0.383143 0.429704
O O13 0.000000 0.500000 0.000000
O O14 0.603236 0.787758 0.449303
O O15 0.500000 0.000000 0.500000
O O16 0.500000 0.500000 0.500000
#
# Coordination Sequence:
#
# PCOD8032226 Si02
#       7
#     2   2   2   2   2   2   2
#     4  11  25  42  68  98 131 174 224 270 327 402
#     4  11  24  44  67  96 130 176 223 275 333 390
#     4  11  25  44  68  99 137 172 221 277 337 393
#     4  12  27  45  66  95 136 182 224 268 330 399
#     4  11  23  41  70 101 132 167 219 277 334 397
#     4  12  23  41  69  98 136 176 215 280 341 386
#     4  12  21  40  67  97 131 168 219 273 333 389
#
# _framework density 21.493729999999999
#
# number of rings (size 3 to 8) (size 9 to 14) (size 15 to 20)
#    0.000    0.571    4.286    4.286    0.000    5.143 
#    0.000    0.000    0.000    0.000    0.000    0.000 
#    0.000    0.000    0.000    0.000    0.000    0.000 
#
# Total GULP energy -173634.951248 kJ/mol
# GULP energy per Si atom -12402.496518 kJ/mol
# Density = 2.144481 g / cm^3
# Si number density = 21.493730 Si / 1000 Ang^3
#
#
#
# Elastic Constant Matrix: (Units=GPa)
#
#
# Indices 1 2 3 4 5 6 
#
# 1 171.0720 60.9583 17.6104 -4.5629 7.5593 -14.7770
# 2 60.9583 87.1268 20.8490 2.3110 7.6026 -4.2465
# 3 17.6104 20.8490 67.9283 -3.8897 3.2154 0.0392
# 4 -4.5629 2.3110 -3.8897 41.3948 5.2684 9.6829
# 5 7.5593 7.6026 3.2154 5.2684 33.6351 4.9666
# 6 -14.7770 -4.2465 0.0392 9.6829 4.9666 37.3993
#
#
#
# Elastic Compliance Matrix: (Units=1/GPa)
#
#
# Indices 1 2 3 4 5 6 
#
# 1 0.008081 -0.005371 -0.000358 0.000696 -0.001052 0.002543
# 2 -0.005371 0.016339 -0.003628 -0.001700 -0.001937 0.000434
# 3 -0.000358 -0.003628 0.016082 0.002007 -0.000806 -0.000983
# 4 0.000696 -0.001700 0.002007 0.026403 -0.003164 -0.006336
# 5 -0.001052 -0.001937 -0.000806 -0.003164 0.031570 -0.004008
# 6 0.002543 0.000434 -0.000983 -0.006336 -0.004008 0.029966
#
#
# Mechanical properties :
#
#
# Convention : Reuss Voigt Hill
#
# Bulk Modulus (GPa) = 45.90038 58.32917 52.11478
# Shear Modulus (GPa) = 32.37996 37.59978 34.98987
#
# Velocity S-wave (km/s) = 3.88556 4.18705 4.03911
# Velocity P-wave (km/s) = 6.44451 7.11139 6.78614
#
# Compressibility (1/GPa) = 0.02178631
#
# Stress axis : x y z
#
# Youngs Moduli (GPa) = 123.74910 61.20449 62.18302
#
# Poissons Ratio (x) = 0.32871 0.02228
# Poissons Ratio (y) = 0.66462 0.22562
# Poissons Ratio (z) = 0.04434 0.22207
#
# Static dielectric constant tensor:
#      x y z
#    x 4.205340 -0.026960 -0.032120 
#    y -0.026960 3.818170 0.040660 
#    z -0.032120 0.040660 3.898600 
# 
# 
# High freq. dielectric constant tensor:
#      x y z
#    x 1.864990 0.000410 -0.000880 
#    y 0.000410 1.849670 0.002010 
#    z -0.000880 0.002010 1.834980 
# 
# From -- ./inp_files/183730.got.cif
#   From: 2010.06.25/outbox.cif.g09.slc.cpg/sg2_92_cif.got.tgz:183730.got - 2010.06.27 13:26:56.
