data_PCOD8032442
_publ_section_title
;
Structure prediction by ZEFSAII (Michael W. Deem and Ramdas Pophale) SiO2 
 PCOD8032442
Probable space group: P -1
;
_chemical_formula_sum "Si O2"
_cell_formula_units_Z 12
_cell_length_a 9.469383
_cell_length_b 11.143165
_cell_length_c 11.019291
_cell_angle_alpha 102.018000
_cell_angle_beta 44.817602
_cell_angle_gamma 68.355936
_cell_volume 530.882377
_symmetry_space_group_name_H-M "P -1"
_symmetry_group_IT_number 2
_symmetry_cell_setting 'triclinic'
loop_
_space_group_symop_operation_xyz
x,y,z
-x,-y,-z
loop_
_atom_site_type_symbol
_atom_site_label
_atom_site_fract_x
_atom_site_fract_y
_atom_site_fract_z
Si Si1 0.214387 0.907881 0.028178
Si Si2 0.158185 0.146094 0.783091
Si Si3 0.419590 0.498455 0.914946
Si Si4 0.218290 0.476430 0.449758
Si Si5 0.334270 0.848544 0.216871
Si Si6 0.170568 0.204281 0.059024
O O1 0.329537 0.810915 0.070734
O O2 0.923098 0.961383 0.178442
O O3 0.499688 0.742299 0.732578
O O4 0.125843 0.090003 0.118145
O O5 0.103788 0.235500 0.963987
O O6 0.500000 0.000000 0.500000
O O7 0.930986 0.315515 0.863268
O O8 0.650717 0.458978 0.674762
O O9 0.472143 0.328036 0.848956
O O10 0.500000 0.500000 0.000000
O O11 0.000000 0.500000 0.500000
O O12 0.045770 0.597364 0.701977
O O13 0.481861 0.915706 0.153612
O O14 0.000000 0.000000 0.500000
#
# Coordination Sequence:
#
# PCOD8032442 Si02
#       6
#     2   2   2   2   2   2
#     4  11  24  46  71 104 146 191 241 296 365 435
#     4  11  26  48  74 107 148 192 238 307 373 425
#     4  11  23  45  72 101 143 190 243 290 357 438
#     4  11  23  42  70 107 144 187 243 300 356 429
#     4  12  24  42  71 106 141 191 244 295 358 432
#     4  12  26  44  72 107 145 192 244 299 369 430
#
# _framework density 22.603876
#
# number of rings (size 3 to 8) (size 9 to 14) (size 15 to 20)
#    0.000    0.667    5.000    3.000    2.333    4.667 
#    0.000    3.333    0.000    0.000    0.000    0.000 
#    0.000    0.000    0.000    0.000    0.000    0.000 
#
# Total GULP energy -148794.318717 kJ/mol
# GULP energy per Si atom -12399.526560 kJ/mol
# Density = 2.255243 g / cm^3
# Si number density = 22.603876 Si / 1000 Ang^3
#
#
#
# Elastic Constant Matrix: (Units=GPa)
#
#
# Indices 1 2 3 4 5 6 
#
# 1 155.7536 33.6427 80.4448 -4.3337 -3.8787 4.4144
# 2 33.6427 63.1725 64.8951 10.5172 2.1678 2.6050
# 3 80.4448 64.8951 159.9227 3.2996 -18.8891 6.1380
# 4 -4.3337 10.5172 3.2996 32.1746 3.3954 -2.6758
# 5 -3.8787 2.1678 -18.8891 3.3954 45.4209 -5.2245
# 6 4.4144 2.6050 6.1380 -2.6758 -5.2245 44.3829
#
#
#
# Elastic Compliance Matrix: (Units=1/GPa)
#
#
# Indices 1 2 3 4 5 6 
#
# 1 0.008840 -0.000371 -0.004473 0.001881 -0.001260 -0.000274
# 2 -0.000371 0.030926 -0.012900 -0.008265 -0.006398 -0.001246
# 3 -0.004473 -0.012900 0.014430 0.001490 0.006125 0.000017
# 4 0.001881 -0.008265 0.001490 0.034171 -0.001148 0.002017
# 5 -0.001260 -0.006398 0.006125 -0.001148 0.025140 0.002544
# 6 -0.000274 -0.001246 0.000017 0.002017 0.002544 0.023050
#
#
# Mechanical properties :
#
#
# Convention : Reuss Voigt Hill
#
# Bulk Modulus (GPa) = 53.45630 81.86822 67.66226
# Shear Modulus (GPa) = 28.04561 37.72010 32.88285
#
# Velocity S-wave (km/s) = 3.52624 4.08946 3.81825
# Velocity P-wave (km/s) = 6.34663 7.65477 7.03119
#
# Compressibility (1/GPa) = 0.01870687
#
# Stress axis : x y z
#
# Youngs Moduli (GPa) = 113.12842 32.33514 69.30088
#
# Poissons Ratio (x) = 0.01200 0.30998
# Poissons Ratio (y) = 0.04200 0.89399
# Poissons Ratio (z) = 0.50601 0.41713
#
# Static dielectric constant tensor:
#      x y z
#    x 4.221360 -0.142340 -0.099680 
#    y -0.142340 2.924510 -0.705450 
#    z -0.099680 -0.705450 3.960100 
# 
# 
# High freq. dielectric constant tensor:
#      x y z
#    x 1.900460 0.013700 -0.004170 
#    y 0.013700 1.888520 -0.005440 
#    z -0.004170 -0.005440 1.896140 
# 
# From -- ./inp_files/332526.got.cif
#   From: 2010.06.25/outbox.cif.g09.slc.cpg/sg2_167_cif.got.tgz:332526.got - 2010.06.27 13:26:56.
