data_PCOD8032382
_publ_section_title
;
Structure prediction by ZEFSAII (Michael W. Deem and Ramdas Pophale) SiO2 
 PCOD8032382
Probable space group: P -1
;
_chemical_formula_sum "Si O2"
_cell_formula_units_Z 14
_cell_length_a 8.360865
_cell_length_b 22.802027
_cell_length_c 16.607423
_cell_angle_alpha 156.728193
_cell_angle_beta 43.726663
_cell_angle_gamma 147.752302
_cell_volume 644.946292
_symmetry_space_group_name_H-M "P -1"
_symmetry_group_IT_number 2
_symmetry_cell_setting 'triclinic'
loop_
_space_group_symop_operation_xyz
x,y,z
-x,-y,-z
loop_
_atom_site_type_symbol
_atom_site_label
_atom_site_fract_x
_atom_site_fract_y
_atom_site_fract_z
Si Si1 0.759018 0.098181 0.899234
Si Si2 0.262695 0.216053 0.405437
Si Si3 0.259560 0.532329 0.997880
Si Si4 0.243970 0.367926 0.179689
Si Si5 0.898843 0.125742 0.703029
Si Si6 0.649933 0.135858 0.539072
Si Si7 0.866377 0.016527 0.990583
O O1 0.894246 0.180908 0.865684
O O2 0.824895 0.956546 0.721803
O O3 0.394389 0.975332 0.880638
O O4 0.937959 0.281318 0.129499
O O5 0.591910 0.420450 0.573394
O O6 0.289291 0.173760 0.250306
O O7 0.003305 0.232761 0.525390
O O8 0.542349 0.626250 0.953994
O O9 0.144715 0.329295 0.821411
O O10 0.358745 0.688598 0.229445
O O11 0.000000 0.500000 0.000000
O O12 0.151550 0.217423 0.095287
O O13 0.550945 0.997279 0.633100
O O14 0.000000 0.000000 0.500000
O O15 0.500000 0.000000 0.500000
O O16 0.000000 0.000000 0.000000
#
# Coordination Sequence:
#
# PCOD8032382 Si02
#       7
#     2   2   2   2   2   2   2
#     4  11  26  43  67  97 135 175 221 283 337 391
#     4  11  23  42  68  96 128 179 222 272 341 397
#     4  12  24  40  69 102 135 181 221 272 340 397
#     4  11  23  44  68  94 135 170 223 274 331 403
#     4  12  26  44  67 102 141 176 227 281 337 402
#     4  12  22  39  67  95 135 178 223 274 334 404
#     4  11  26  45  67  95 131 175 225 279 335 396
#
# _framework density 21.707235000000001
#
# number of rings (size 3 to 8) (size 9 to 14) (size 15 to 20)
#    0.000    0.571    2.857    6.857    2.000    6.286 
#    0.000    0.000    0.000    0.000    0.000    0.000 
#    0.000    0.000    0.000    0.000    0.000    0.000 
#
# Total GULP energy -173645.712021 kJ/mol
# GULP energy per Si atom -12403.265144 kJ/mol
# Density = 2.165783 g / cm^3
# Si number density = 21.707235 Si / 1000 Ang^3
#
#
#
# Elastic Constant Matrix: (Units=GPa)
#
#
# Indices 1 2 3 4 5 6 
#
# 1 133.4466 48.0367 39.2245 12.8695 11.7189 -14.4512
# 2 48.0367 123.9687 38.2568 7.1583 -10.6871 -11.2281
# 3 39.2245 38.2568 117.1223 13.1123 9.4993 -4.5211
# 4 12.8695 7.1583 13.1123 35.4691 4.8800 2.6010
# 5 11.7189 -10.6871 9.4993 4.8800 43.3299 -3.3711
# 6 -14.4512 -11.2281 -4.5211 2.6010 -3.3711 37.7174
#
#
#
# Elastic Compliance Matrix: (Units=1/GPa)
#
#
# Indices 1 2 3 4 5 6 
#
# 1 0.009846 -0.003160 -0.001716 -0.002125 -0.002629 0.002538
# 2 -0.003160 0.010709 -0.002620 -0.000795 0.004324 0.002104
# 3 -0.001716 -0.002620 0.010405 -0.002374 -0.002213 -0.000224
# 4 -0.002125 -0.000795 -0.002374 0.030665 -0.002843 -0.003704
# 5 -0.002629 0.004324 -0.002213 -0.002843 0.025858 0.002522
# 6 0.002538 0.002104 -0.000224 -0.003704 0.002522 0.028566
#
#
# Mechanical properties :
#
#
# Convention : Reuss Voigt Hill
#
# Bulk Modulus (GPa) = 62.62556 69.50816 66.06686
# Shear Modulus (GPa) = 36.66652 39.90458 38.28555
#
# Velocity S-wave (km/s) = 4.11437 4.29220 4.20423
# Velocity P-wave (km/s) = 7.17520 7.52690 7.35315
#
# Compressibility (1/GPa) = 0.01596792
#
# Stress axis : x y z
#
# Youngs Moduli (GPa) = 101.56258 93.38161 96.10444
#
# Poissons Ratio (x) = 0.29506 0.16495
# Poissons Ratio (y) = 0.32092 0.25180
# Poissons Ratio (z) = 0.17431 0.24467
#
# Static dielectric constant tensor:
#      x y z
#    x 8.365670 6.281400 0.509340 
#    y 6.281400 13.098100 0.359280 
#    z 0.509340 0.359280 4.365270 
# 
# 
# High freq. dielectric constant tensor:
#      x y z
#    x 1.861750 0.005630 0.014530 
#    y 0.005630 1.855800 -0.001060 
#    z 0.014530 -0.001060 1.854100 
# 
# From -- ./inp_files/334220.got.cif
#   From: 2010.06.25/outbox.cif.g09.slc.cpg/sg2_168_cif.got.tgz:334220.got - 2010.06.27 13:26:56.
