data_PCOD8032804
_publ_section_title
;
Structure prediction by ZEFSAII (Michael W. Deem and Ramdas Pophale) SiO2 
 PCOD8032804
Probable space group: P -1
;
_chemical_formula_sum "Si O2"
_cell_formula_units_Z 16
_cell_length_a 11.405741
_cell_length_b 10.973502
_cell_length_c 13.636489
_cell_angle_alpha 127.943848
_cell_angle_beta 148.960888
_cell_angle_gamma 62.656818
_cell_volume 684.376965
_symmetry_space_group_name_H-M "P -1"
_symmetry_group_IT_number 2
_symmetry_cell_setting 'triclinic'
loop_
_space_group_symop_operation_xyz
x,y,z
-x,-y,-z
loop_
_atom_site_type_symbol
_atom_site_label
_atom_site_fract_x
_atom_site_fract_y
_atom_site_fract_z
Si Si1 0.841467 0.630064 0.470883
Si Si2 0.957645 0.321784 0.159455
Si Si3 0.832264 0.120092 0.266077
Si Si4 0.452511 0.819342 0.095608
Si Si5 0.681405 0.653643 0.737130
Si Si6 0.627727 0.552694 0.007060
Si Si7 0.696208 0.145044 0.405779
Si Si8 0.141954 0.239763 0.885166
O O1 0.570597 0.578296 0.241620
O O2 0.000000 0.500000 0.500000
O O3 0.867002 0.677282 0.625633
O O4 0.916299 0.779074 0.526318
O O5 0.103576 0.296923 0.156427
O O6 0.738724 0.183028 0.955797
O O7 0.861845 0.486565 0.165159
O O8 0.761832 0.159802 0.345537
O O9 0.827966 0.936827 0.157200
O O10 0.660563 0.174051 0.089860
O O11 0.662116 0.963477 0.326754
O O12 0.536665 0.647264 0.080936
O O13 0.500000 0.500000 0.500000
O O14 0.542886 0.796875 0.717479
O O15 0.807152 0.643967 0.927319
O O16 0.676180 0.692839 0.032962
O O17 0.887415 0.243192 0.661076
#
# Coordination Sequence:
#
# PCOD8032804 Si02
#       8
#     2   2   2   2   2   2   2   2
#     4  11  25  41  72 106 142 181 232 295 361 413
#     4  11  27  44  67 104 142 189 233 288 352 424
#     4  11  23  46  72 111 142 178 241 298 360 416
#     4  11  23  43  73 106 140 184 234 297 360 412
#     4  12  28  49  71  98 147 194 239 288 351 431
#     4  12  24  42  73 104 146 177 235 296 355 406
#     4  12  26  45  75 105 144 187 238 298 355 418
#     4  12  27  44  76 108 138 189 242 292 356 424
#
# _framework density 23.378928999999999
#
# number of rings (size 3 to 8) (size 9 to 14) (size 15 to 20)
#    0.000    0.500    5.000    3.375    5.250    3.500 
#    0.000    0.625    0.000    0.000    0.000    0.000 
#    0.000    0.000    0.000    0.000    0.000    0.000 
#
# Total GULP energy -198360.394664 kJ/mol
# GULP energy per Si atom -12397.524666 kJ/mol
# Density = 2.332572 g / cm^3
# Si number density = 23.378929 Si / 1000 Ang^3
#
#
#
# Elastic Constant Matrix: (Units=GPa)
#
#
# Indices 1 2 3 4 5 6 
#
# 1 120.2027 35.8259 58.6108 -9.5181 12.8330 -9.4109
# 2 35.8259 87.3424 26.1384 4.0539 11.0480 11.3752
# 3 58.6108 26.1384 139.8791 15.4907 10.4187 9.1093
# 4 -9.5181 4.0539 15.4907 34.7899 4.8812 5.8528
# 5 12.8330 11.0480 10.4187 4.8812 38.3340 4.8962
# 6 -9.4109 11.3752 9.1093 5.8528 4.8962 27.5027
#
#
#
# Elastic Compliance Matrix: (Units=1/GPa)
#
#
# Indices 1 2 3 4 5 6 
#
# 1 0.014243 -0.004956 -0.006006 0.006266 -0.003554 0.008212
# 2 -0.004956 0.014648 0.000103 -0.001698 -0.001459 -0.007167
# 3 -0.006006 0.000103 0.010532 -0.005652 0.000407 -0.004456
# 4 0.006266 -0.001698 -0.005652 0.034060 -0.004181 -0.001785
# 5 -0.003554 -0.001459 0.000407 -0.004181 0.028754 -0.004977
# 6 0.008212 -0.007167 -0.004456 -0.001785 -0.004977 0.044876
#
#
# Mechanical properties :
#
#
# Convention : Reuss Voigt Hill
#
# Bulk Modulus (GPa) = 56.47925 65.39713 60.93819
# Shear Modulus (GPa) = 28.61496 35.24859 31.93177
#
# Velocity S-wave (km/s) = 3.50231 3.88713 3.69973
# Velocity P-wave (km/s) = 6.36911 6.94117 6.66128
#
# Compressibility (1/GPa) = 0.01770562
#
# Stress axis : x y z
#
# Youngs Moduli (GPa) = 70.20790 68.26898 94.94690
#
# Poissons Ratio (x) = 0.33832 0.57025
# Poissons Ratio (y) = 0.34793 -0.00976
# Poissons Ratio (z) = 0.42167 -0.00702
#
# Static dielectric constant tensor:
#      x y z
#    x 4.285790 0.375170 0.081030 
#    y 0.375170 4.302600 0.076900 
#    z 0.081030 0.076900 4.522640 
# 
# 
# High freq. dielectric constant tensor:
#      x y z
#    x 1.921630 0.030540 0.011890 
#    y 0.030540 1.926060 -0.006470 
#    z 0.011890 -0.006470 1.941140 
# 
# From -- ./inp_files/519178.got.cif
#   From: 2010.06.25/outbox.cif.g09.slc.cpg/sg2_260_cif.got.tgz:519178.got - 2010.06.27 13:26:56.
