data_PCOD8032724
_publ_section_title
;
Structure prediction by ZEFSAII (Michael W. Deem and Ramdas Pophale) SiO2 
 PCOD8032724
Probable space group: P -1
;
_chemical_formula_sum "Si O2"
_cell_formula_units_Z 16
_cell_length_a 26.104132
_cell_length_b 9.656603
_cell_length_c 13.396867
_cell_angle_alpha 25.711999
_cell_angle_beta 150.212510
_cell_angle_gamma 142.499701
_cell_volume 726.830415
_symmetry_space_group_name_H-M "P -1"
_symmetry_group_IT_number 2
_symmetry_cell_setting 'triclinic'
loop_
_space_group_symop_operation_xyz
x,y,z
-x,-y,-z
loop_
_atom_site_type_symbol
_atom_site_label
_atom_site_fract_x
_atom_site_fract_y
_atom_site_fract_z
Si Si1 0.584266 0.259432 0.508830
Si Si2 0.272668 0.262050 0.665559
Si Si3 0.677113 0.434529 0.853751
Si Si4 0.835975 0.587593 0.196494
Si Si5 0.907468 0.474069 0.936088
Si Si6 0.531163 0.693232 0.308820
Si Si7 0.020963 0.982103 0.163240
Si Si8 0.219717 0.134684 0.870181
O O1 0.618865 0.539577 0.304932
O O2 0.529672 0.401645 0.419303
O O3 0.500000 0.000000 0.500000
O O4 0.683393 0.077563 0.824024
O O5 0.190538 0.364393 0.380062
O O6 0.234135 0.352042 0.653694
O O7 0.277086 0.877773 0.915493
O O8 0.649440 0.710286 0.545884
O O9 0.560011 0.343083 0.742954
O O10 0.746256 0.574244 0.970296
O O11 0.889917 0.254660 0.506867
O O12 0.788380 0.650863 0.183717
O O13 0.917212 0.874713 0.117412
O O14 0.940680 0.661840 0.971157
O O15 0.000000 0.500000 0.000000
O O16 0.882318 0.102052 0.160830
O O17 0.500000 0.000000 0.000000
O O18 0.000000 0.000000 0.000000
#
# Coordination Sequence:
#
# PCOD8032724 Si02
#       8
#     2   2   2   2   2   2   2   2
#     4  11  24  44  67 100 139 171 228 290 340 411
#     4  11  24  43  73 100 132 188 231 278 353 413
#     4  11  23  43  70  99 134 183 233 282 347 414
#     4  11  25  45  65 100 139 176 232 286 340 411
#     4  11  24  45  68 100 141 180 228 283 342 414
#     4  11  23  43  71 100 133 179 230 286 348 414
#     4  11  26  42  67 100 137 183 230 284 344 406
#     4  11  25  43  69  99 136 180 228 279 347 409
#
# _framework density 22.013390000000001
#
# number of rings (size 3 to 8) (size 9 to 14) (size 15 to 20)
#    0.000    1.000    5.000    0.750    3.500    2.000 
#    0.000    3.750    0.000    0.000    0.000    0.000 
#    0.000    0.000    0.000    0.000    0.000    0.000 
#
# Total GULP energy -198293.507744 kJ/mol
# GULP energy per Si atom -12393.344234 kJ/mol
# Density = 2.196329 g / cm^3
# Si number density = 22.013390 Si / 1000 Ang^3
#
#
#
# Elastic Constant Matrix: (Units=GPa)
#
#
# Indices 1 2 3 4 5 6 
#
# 1 104.1895 28.5793 8.9276 9.7724 -6.7538 -17.4857
# 2 28.5793 127.1010 31.4114 19.4718 -6.4787 -17.1087
# 3 8.9276 31.4114 89.8362 21.5670 -6.6129 -4.7379
# 4 9.7724 19.4718 21.5670 27.2099 -5.7421 -4.3810
# 5 -6.7538 -6.4787 -6.6129 -5.7421 36.3213 2.4211
# 6 -17.4857 -17.1087 -4.7379 -4.3810 2.4211 41.1691
#
#
#
# Elastic Compliance Matrix: (Units=1/GPa)
#
#
# Indices 1 2 3 4 5 6 
#
# 1 0.010921 -0.001642 0.000282 -0.002121 0.001208 0.003692
# 2 -0.001642 0.009774 -0.002068 -0.004294 0.000206 0.002657
# 3 0.000282 -0.002068 0.014215 -0.009762 0.000741 -0.000186
# 4 -0.002121 -0.004294 -0.009762 0.049529 0.004814 0.001179
# 5 0.001208 0.000206 0.000741 0.004814 0.028722 -0.000493
# 6 0.003692 0.002657 -0.000186 0.001179 -0.000493 0.027095
#
#
# Mechanical properties :
#
#
# Convention : Reuss Voigt Hill
#
# Bulk Modulus (GPa) = 35.64655 50.99593 43.32124
# Shear Modulus (GPa) = 31.95624 37.75396 34.85510
#
# Velocity S-wave (km/s) = 3.81422 4.14580 3.98346
# Velocity P-wave (km/s) = 5.96875 6.79213 6.39371
#
# Compressibility (1/GPa) = 0.02805320
#
# Stress axis : x y z
#
# Youngs Moduli (GPa) = 91.56726 102.31103 70.34982
#
# Poissons Ratio (x) = 0.16797 -0.01981
# Poissons Ratio (y) = 0.15033 0.14549
# Poissons Ratio (z) = -0.02579 0.21160
#
# Static dielectric constant tensor:
#      x y z
#    x 4.130320 0.073050 0.310210 
#    y 0.073050 3.874710 0.201160 
#    z 0.310210 0.201160 4.082380 
# 
# 
# High freq. dielectric constant tensor:
#      x y z
#    x 1.882360 -0.005750 0.004240 
#    y -0.005750 1.856680 0.005060 
#    z 0.004240 0.005060 1.874460 
# 
# From -- ./inp_files/47031.got.cif
#   From: 2010.06.25/outbox.cif.g09.slc.cpg/sg2_24_cif.got.tgz:47031.got - 2010.06.27 13:26:56.
