data_PCOD8032043
_publ_section_title
;
Structure prediction by ZEFSAII (Michael W. Deem and Ramdas Pophale) SiO2 
 PCOD8032043
Probable space group: P -1
;
_chemical_formula_sum "Si O2"
_cell_formula_units_Z 16
_cell_length_a 11.368297
_cell_length_b 12.027495
_cell_length_c 12.384633
_cell_angle_alpha 73.149307
_cell_angle_beta 40.212673
_cell_angle_gamma 103.145783
_cell_volume 719.215468
_symmetry_space_group_name_H-M "P -1"
_symmetry_group_IT_number 2
_symmetry_cell_setting 'triclinic'
loop_
_space_group_symop_operation_xyz
x,y,z
-x,-y,-z
loop_
_atom_site_type_symbol
_atom_site_label
_atom_site_fract_x
_atom_site_fract_y
_atom_site_fract_z
Si Si1 0.931634 0.662203 0.183452
Si Si2 0.547378 0.664512 0.503565
Si Si3 0.761561 0.918499 0.611064
Si Si4 0.235320 0.697995 0.149542
Si Si5 0.991445 0.642920 0.547100
Si Si6 0.446168 0.414945 0.245800
Si Si7 0.672158 0.192520 0.329344
Si Si8 0.021278 0.758972 0.706849
O O1 0.831221 0.752408 0.227637
O O2 0.679537 0.465355 0.388289
O O3 0.033070 0.682924 0.226475
O O4 0.160797 0.730610 0.919726
O O5 0.510643 0.564823 0.661567
O O6 0.522439 0.787143 0.523604
O O7 0.622124 0.746913 0.697585
O O8 0.531382 0.867648 0.859640
O O9 0.000000 0.000000 0.500000
O O10 0.873761 0.059958 0.400712
O O11 0.157961 0.527837 0.233850
O O12 0.220455 0.708581 0.286433
O O13 0.791959 0.616726 0.616448
O O14 0.131684 0.783739 0.501940
O O15 0.706203 0.596689 0.962801
O O16 0.871458 0.278197 0.266797
O O17 0.500000 0.000000 0.500000
#
# Coordination Sequence:
#
# PCOD8032043 Si02
#       8
#     2   2   2   2   2   2   2   2
#     4  11  23  45  71 102 137 182 238 283 350 415
#     4  11  24  42  72 100 135 185 233 290 342 415
#     4  12  25  43  68 100 138 178 232 278 349 419
#     4  11  23  42  67 100 138 179 223 289 343 417
#     4  11  23  40  68 100 136 177 226 281 351 409
#     4  12  22  46  68  98 137 178 230 285 343 416
#     4  12  26  45  69 104 141 183 235 289 347 415
#     4  12  24  43  70 100 136 183 225 283 349 414
#
# _framework density 22.246464
#
# number of rings (size 3 to 8) (size 9 to 14) (size 15 to 20)
#    0.000    0.500    5.000    4.500    0.000    1.000 
#    0.000    0.000    0.000    0.000    0.000    0.000 
#    0.000    0.000    0.000    0.000    0.000    0.000 
#
# Total GULP energy -198293.063118 kJ/mol
# GULP energy per Si atom -12393.316445 kJ/mol
# Density = 2.219583 g / cm^3
# Si number density = 22.246464 Si / 1000 Ang^3
#
#
#
# Elastic Constant Matrix: (Units=GPa)
#
#
# Indices 1 2 3 4 5 6 
#
# 1 91.0108 21.9593 17.4176 6.1872 9.0918 -1.1542
# 2 21.9593 95.0483 54.7243 7.0032 -12.1039 -16.8206
# 3 17.4176 54.7243 79.6665 -5.6730 5.8787 -5.3564
# 4 6.1872 7.0032 -5.6730 35.8949 -1.4395 0.6048
# 5 9.0918 -12.1039 5.8787 -1.4395 18.5331 3.8985
# 6 -1.1542 -16.8206 -5.3564 0.6048 3.8985 46.8644
#
#
#
# Elastic Compliance Matrix: (Units=1/GPa)
#
#
# Indices 1 2 3 4 5 6 
#
# 1 0.013048 -0.004886 0.001100 -0.001514 -0.009963 -0.000458
# 2 -0.004886 0.027951 -0.020113 -0.006869 0.025321 0.005595
# 3 0.001100 -0.020113 0.028086 0.007348 -0.021533 -0.002285
# 4 -0.001514 -0.006869 0.007348 0.030518 -0.003329 -0.001780
# 5 -0.009963 0.025321 -0.021533 -0.003329 0.082038 -0.000400
# 6 -0.000458 0.005595 -0.002285 -0.001780 -0.000400 0.023130
#
#
# Mechanical properties :
#
#
# Convention : Reuss Voigt Hill
#
# Bulk Modulus (GPa) = 46.97615 50.43645 48.70630
# Shear Modulus (GPa) = 19.25562 31.70009 25.47786
#
# Velocity S-wave (km/s) = 2.94523 3.77895 3.38783
# Velocity P-wave (km/s) = 5.72083 6.46231 6.10284
#
# Compressibility (1/GPa) = 0.02128740
#
# Stress axis : x y z
#
# Youngs Moduli (GPa) = 76.63730 35.77747 35.60477
#
# Poissons Ratio (x) = 0.17482 -0.03918
# Poissons Ratio (y) = 0.37448 0.71611
# Poissons Ratio (z) = -0.08432 0.71958
#
# Static dielectric constant tensor:
#      x y z
#    x 4.134910 -0.071770 -0.119750 
#    y -0.071770 4.155830 0.087430 
#    z -0.119750 0.087430 3.888510 
# 
# 
# High freq. dielectric constant tensor:
#      x y z
#    x 1.890440 0.005810 -0.001940 
#    y 0.005810 1.876920 0.010850 
#    z -0.001940 0.010850 1.865060 
# 
# From -- ./inp_files/428082.got.cif
#   From: 2010.06.25/outbox.cif.g09.slc.cpg/sg2_215_cif.got.tgz:428082.got - 2010.06.27 13:26:56.
