data_PCOD8032956
_publ_section_title
;
Structure prediction by ZEFSAII (Michael W. Deem and Ramdas Pophale) SiO2 
 PCOD8032956
Probable space group: P -1
;
_chemical_formula_sum "Si O2"
_cell_formula_units_Z 14
_cell_length_a 11.083163
_cell_length_b 5.207430
_cell_length_c 10.184757
_cell_angle_alpha 87.822743
_cell_angle_beta 98.241405
_cell_angle_gamma 67.149872
_cell_volume 533.253826
_symmetry_space_group_name_H-M "P -1"
_symmetry_group_IT_number 2
_symmetry_cell_setting 'triclinic'
loop_
_space_group_symop_operation_xyz
x,y,z
-x,-y,-z
loop_
_atom_site_type_symbol
_atom_site_label
_atom_site_fract_x
_atom_site_fract_y
_atom_site_fract_z
Si Si1 0.274721 0.408413 0.971106
Si Si2 0.808203 0.817034 0.260698
Si Si3 0.446925 0.566766 0.173526
Si Si4 0.778671 0.850074 0.787491
Si Si5 0.968657 0.054553 0.144449
Si Si6 0.295364 0.591647 0.655124
Si Si7 0.395780 0.283856 0.421285
O O1 0.412423 0.433519 0.037544
O O2 0.198154 0.389141 0.093933
O O3 0.290775 0.146936 0.882379
O O4 0.174135 0.681871 0.868826
O O5 0.815424 0.543772 0.349207
O O6 0.949766 0.795471 0.221343
O O7 0.758819 0.076117 0.347865
O O8 0.265523 0.238537 0.354306
O O9 0.597032 0.559513 0.204375
O O10 0.458279 0.365150 0.302652
O O11 0.665252 0.127873 0.826284
O O12 0.911915 0.891425 0.771074
O O13 0.000000 0.000000 0.000000
O O14 0.360098 0.522810 0.522023
O O15 0.500000 0.000000 0.500000
#
# Coordination Sequence:
#
# PCOD8032956 Si02
#       7
#     2   2   2   2   2   2   2
#     4  11  23  44  69 111 140 183 239 292 361 420
#     4  12  27  45  71 105 148 196 225 288 379 419
#     4  11  24  43  74 110 135 187 244 293 357 419
#     4  11  24  41  77 110 132 184 251 299 345 411
#     4  12  23  46  74 102 145 186 245 295 345 432
#     4  12  27  46  70 104 155 186 232 294 359 436
#     4  11  24  46  75 104 141 188 247 293 349 417
#
# _framework density 26.253914000000002
#
# number of rings (size 3 to 8) (size 9 to 14) (size 15 to 20)
#    0.000    0.571    5.714    1.714    4.000    1.143 
#    0.000    1.429    0.000    0.000    0.000    0.000 
#    0.000    0.000    0.000    0.000    0.000    0.000 
#
# Total GULP energy -173551.153084 kJ/mol
# GULP energy per Si atom -12396.510935 kJ/mol
# Density = 2.619416 g / cm^3
# Si number density = 26.253914 Si / 1000 Ang^3
#
#
#
# Elastic Constant Matrix: (Units=GPa)
#
#
# Indices 1 2 3 4 5 6 
#
# 1 118.3536 11.4434 -30.6289 3.9289 27.5887 25.5627
# 2 11.4434 83.7695 15.2058 21.9837 7.9729 17.3062
# 3 -30.6289 15.2058 80.5664 27.4379 25.3432 13.1445
# 4 3.9289 21.9837 27.4379 52.5385 8.5749 0.7970
# 5 27.5887 7.9729 25.3432 8.5749 41.1106 4.3561
# 6 25.5627 17.3062 13.1445 0.7970 4.3561 37.0101
#
#
#
# Elastic Compliance Matrix: (Units=1/GPa)
#
#
# Indices 1 2 3 4 5 6 
#
# 1 0.032684 0.003343 0.033581 -0.014889 -0.036850 -0.031406
# 2 0.003343 0.015397 0.004392 -0.007985 -0.005181 -0.010287
# 3 0.033581 0.004392 0.053701 -0.024075 -0.047421 -0.038220
# 4 -0.014889 -0.007985 -0.024075 0.032918 0.017417 0.019809
# 5 -0.036850 -0.005181 -0.047421 0.017417 0.071857 0.035884
# 6 -0.031406 -0.010287 -0.038220 0.019809 0.035884 0.062446
#
#
# Mechanical properties :
#
#
# Convention : Reuss Voigt Hill
#
# Bulk Modulus (GPa) = 5.42260 30.52556 17.97408
# Shear Modulus (GPa) = 20.17410 45.24311 32.70860
#
# Velocity S-wave (km/s) = 2.77505 4.15576 3.53350
# Velocity P-wave (km/s) = 3.51252 5.88892 4.84857
#
# Compressibility (1/GPa) = 0.18441325
#
# Stress axis : x y z
#
# Youngs Moduli (GPa) = 30.59618 64.94594 18.62168
#
# Poissons Ratio (x) = -0.21709 -0.62533
# Poissons Ratio (y) = -0.10227 -0.08179
# Poissons Ratio (z) = -1.02744 -0.28526
#
# Static dielectric constant tensor:
#      x y z
#    x 5.477620 0.324800 0.035100 
#    y 0.324800 4.700080 0.227190 
#    z 0.035100 0.227190 5.009910 
# 
# 
# High freq. dielectric constant tensor:
#      x y z
#    x 2.064180 0.036200 -0.012030 
#    y 0.036200 2.034950 0.020480 
#    z -0.012030 0.020480 2.062070 
# 
# From -- ./inp_files/408642.got.cif
#   From: 2010.06.25/outbox.cif.g09.slc.cpg/sg2_205_cif.got.tgz:408642.got - 2010.06.27 13:26:56.
