data_PCOD8032506
_publ_section_title
;
Structure prediction by ZEFSAII (Michael W. Deem and Ramdas Pophale) SiO2 
 PCOD8032506
Probable space group: P -1
;
_chemical_formula_sum "Si O2"
_cell_formula_units_Z 14
_cell_length_a 13.127757
_cell_length_b 17.825326
_cell_length_c 5.943415
_cell_angle_alpha 132.999222
_cell_angle_beta 126.603984
_cell_angle_gamma 36.155719
_cell_volume 596.751365
_symmetry_space_group_name_H-M "P -1"
_symmetry_group_IT_number 2
_symmetry_cell_setting 'triclinic'
loop_
_space_group_symop_operation_xyz
x,y,z
-x,-y,-z
loop_
_atom_site_type_symbol
_atom_site_label
_atom_site_fract_x
_atom_site_fract_y
_atom_site_fract_z
Si Si1 0.787128 0.840804 0.547830
Si Si2 0.978202 0.902725 0.660299
Si Si3 0.085304 0.434689 0.727551
Si Si4 0.658308 0.170598 0.580148
Si Si5 0.489544 0.085582 0.963021
Si Si6 0.415693 0.394532 0.057977
Si Si7 0.671731 0.341035 0.624247
O O1 0.925103 0.847090 0.657251
O O2 0.881219 0.705189 0.548231
O O3 0.703871 0.819293 0.192659
O O4 0.635230 0.985347 0.764975
O O5 0.158194 0.763417 0.517323
O O6 0.825658 0.003085 0.479449
O O7 0.000000 0.000000 0.000000
O O8 0.000000 0.500000 0.500000
O O9 0.257352 0.407140 0.918062
O O10 0.000000 0.500000 0.000000
O O11 0.708813 0.252977 0.713135
O O12 0.572719 0.240676 0.850161
O O13 0.514628 0.189189 0.284068
O O14 0.500000 0.000000 0.000000
O O15 0.492753 0.399009 0.397490
O O16 0.355745 0.522863 0.079998
#
# Coordination Sequence:
#
# PCOD8032506 Si02
#       7
#     2   2   2   2   2   2   2
#     4  11  26  45  70 104 145 185 246 306 376 443
#     4  12  24  44  69 106 145 185 238 303 367 441
#     4  12  30  50  78 110 153 199 252 315 377 452
#     4  12  24  43  75 103 142 191 246 303 369 449
#     4  11  23  42  73 102 138 187 240 309 371 442
#     4  11  26  48  73 104 144 194 247 307 373 452
#     4  11  25  46  71 101 148 191 246 300 377 447
#
# _framework density 23.460356999999998
#
# number of rings (size 3 to 8) (size 9 to 14) (size 15 to 20)
#    0.000    0.571    2.857    4.286    8.000    2.286 
#    0.000    0.000    0.000    0.000    0.000    0.000 
#    0.000    0.000    0.000    0.000    0.000    0.000 
#
# Total GULP energy -173502.025542 kJ/mol
# GULP energy per Si atom -12393.001824 kJ/mol
# Density = 2.340696 g / cm^3
# Si number density = 23.460357 Si / 1000 Ang^3
#
#
#
# Elastic Constant Matrix: (Units=GPa)
#
#
# Indices 1 2 3 4 5 6 
#
# 1 168.4564 47.9586 28.0302 -5.5691 21.1168 3.8001
# 2 47.9586 106.6648 13.3122 1.9018 8.7490 10.0269
# 3 28.0302 13.3122 76.9035 -0.8682 10.2252 -4.2524
# 4 -5.5691 1.9018 -0.8682 34.5375 7.5327 4.6201
# 5 21.1168 8.7490 10.2252 7.5327 41.5521 4.6666
# 6 3.8001 10.0269 -4.2524 4.6201 4.6666 48.0820
#
#
#
# Elastic Compliance Matrix: (Units=1/GPa)
#
#
# Indices 1 2 3 4 5 6 
#
# 1 0.007532 -0.002938 -0.001800 0.002018 -0.003128 -0.000032
# 2 -0.002938 0.011038 -0.000932 -0.000780 -0.000230 -0.002055
# 3 -0.001800 -0.000932 0.014284 0.000464 -0.002692 0.001817
# 4 0.002018 -0.000780 0.000464 0.031027 -0.006339 -0.002322
# 5 -0.003128 -0.000230 -0.002692 -0.006339 0.027744 -0.002027
# 6 -0.000032 -0.002055 0.001817 -0.002322 -0.002027 0.021809
#
#
# Mechanical properties :
#
#
# Convention : Reuss Voigt Hill
#
# Bulk Modulus (GPa) = 46.47881 58.95853 52.71867
# Shear Modulus (GPa) = 37.89440 42.34922 40.12181
#
# Velocity S-wave (km/s) = 4.02338 4.25330 4.13994
# Velocity P-wave (km/s) = 6.43724 7.02186 6.73590
#
# Compressibility (1/GPa) = 0.02151518
#
# Stress axis : x y z
#
# Youngs Moduli (GPa) = 132.77104 90.59260 70.00727
#
# Poissons Ratio (x) = 0.26618 0.12599
# Poissons Ratio (y) = 0.39011 0.06523
# Poissons Ratio (z) = 0.23894 0.08441
#
# Static dielectric constant tensor:
#      x y z
#    x 4.232430 0.331850 0.176410 
#    y 0.331850 4.065590 -0.115860 
#    z 0.176410 -0.115860 4.365280 
# 
# 
# High freq. dielectric constant tensor:
#      x y z
#    x 1.947900 0.005250 0.014840 
#    y 0.005250 1.936130 0.003360 
#    z 0.014840 0.003360 1.924080 
# 
# From -- ./inp_files/28429.got.cif
#   From: 2010.06.25/outbox.cif.g09.slc.cpg/sg2_15_cif.got.tgz:28429.got - 2010.06.27 13:26:56.
