data_PCOD8032444
_publ_section_title
;
Structure prediction by ZEFSAII (Michael W. Deem and Ramdas Pophale) SiO2 
 PCOD8032444
Probable space group: P -1
;
_chemical_formula_sum "Si O2"
_cell_formula_units_Z 14
_cell_length_a 12.147068
_cell_length_b 9.405501
_cell_length_c 8.943880
_cell_angle_alpha 82.101428
_cell_angle_beta 80.591622
_cell_angle_gamma 35.639689
_cell_volume 587.379278
_symmetry_space_group_name_H-M "P -1"
_symmetry_group_IT_number 2
_symmetry_cell_setting 'triclinic'
loop_
_space_group_symop_operation_xyz
x,y,z
-x,-y,-z
loop_
_atom_site_type_symbol
_atom_site_label
_atom_site_fract_x
_atom_site_fract_y
_atom_site_fract_z
Si Si1 0.552917 0.650196 0.592873
Si Si2 0.204761 0.164750 0.657109
Si Si3 0.809519 0.885454 0.786301
Si Si4 0.696361 0.819230 0.069714
Si Si5 0.786816 0.431759 0.266862
Si Si6 0.500632 0.442106 0.839954
Si Si7 0.202034 0.366474 0.376520
O O1 0.672226 0.526557 0.432276
O O2 0.580923 0.473428 0.699630
O O3 0.624316 0.706527 0.676156
O O4 0.329630 0.916586 0.574073
O O5 0.304014 0.066258 0.811049
O O6 0.194565 0.336622 0.560822
O O7 0.982180 0.354651 0.682867
O O8 0.759973 0.832253 0.667230
O O9 0.986071 0.807872 0.722534
O O10 0.628912 0.167368 0.832590
O O11 0.848529 0.728705 0.932748
O O12 0.756778 0.608207 0.158013
O O13 0.500000 0.000000 0.000000
O O14 0.715056 0.377540 0.182359
O O15 0.500000 0.500000 0.000000
#
# Coordination Sequence:
#
# PCOD8032444 Si02
#       7
#     2   2   2   2   2   2   2
#     4  12  26  46  74 108 153 190 235 297 363 442
#     4  11  23  42  70 111 145 180 237 298 366 419
#     4  12  26  46  77 108 144 186 245 301 362 433
#     4  12  23  43  73 108 144 187 233 307 358 417
#     4  12  26  47  72 107 143 192 244 295 368 422
#     4  12  30  50  70 102 147 202 242 292 361 434
#     4  11  23  42  75 113 140 181 241 303 364 422
#
# _framework density 23.834685
#
# number of rings (size 3 to 8) (size 9 to 14) (size 15 to 20)
#    0.000    0.286    4.286    4.714    2.000    2.286 
#    0.000    0.000    0.000    0.000    0.000    0.000 
#    0.000    0.000    0.000    0.000    0.000    0.000 
#
# Total GULP energy -173457.985772 kJ/mol
# GULP energy per Si atom -12389.856127 kJ/mol
# Density = 2.378044 g / cm^3
# Si number density = 23.834685 Si / 1000 Ang^3
#
#
#
# Elastic Constant Matrix: (Units=GPa)
#
#
# Indices 1 2 3 4 5 6 
#
# 1 116.9558 18.8027 47.5775 6.1120 13.1198 10.4075
# 2 18.8027 84.8750 25.2878 3.7756 7.2643 -3.6018
# 3 47.5775 25.2878 123.2196 -8.2288 -4.7613 -2.5906
# 4 6.1120 3.7756 -8.2288 32.5923 3.7019 -5.2774
# 5 13.1198 7.2643 -4.7613 3.7019 43.0085 -11.3464
# 6 10.4075 -3.6018 -2.5906 -5.2774 -11.3464 24.4519
#
#
#
# Elastic Compliance Matrix: (Units=1/GPa)
#
#
# Indices 1 2 3 4 5 6 
#
# 1 0.012871 -0.000844 -0.005582 -0.004632 -0.006724 -0.010314
# 2 -0.000844 0.012981 -0.002503 -0.001638 -0.001863 0.000788
# 3 -0.005582 -0.002503 0.011415 0.004725 0.004672 0.006405
# 4 -0.004632 -0.001638 0.004725 0.034419 0.002049 0.010610
# 5 -0.006724 -0.001863 0.004672 0.002049 0.030639 0.017742
# 6 -0.010314 0.000788 0.006405 0.010610 0.017742 0.056604
#
#
# Mechanical properties :
#
#
# Convention : Reuss Voigt Hill
#
# Bulk Modulus (GPa) = 51.52500 56.48739 54.00619
# Shear Modulus (GPa) = 27.28410 35.56936 31.42673
#
# Velocity S-wave (km/s) = 3.38705 3.86727 3.63510
# Velocity P-wave (km/s) = 6.07953 6.61000 6.35031
#
# Compressibility (1/GPa) = 0.01940805
#
# Stress axis : x y z
#
# Youngs Moduli (GPa) = 77.69354 77.03856 87.60026
#
# Poissons Ratio (x) = 0.06504 0.48903
# Poissons Ratio (y) = 0.06560 0.21924
# Poissons Ratio (z) = 0.43372 0.19281
#
# Static dielectric constant tensor:
#      x y z
#    x 4.864040 -0.350050 0.187390 
#    y -0.350050 4.068350 -0.104530 
#    z 0.187390 -0.104530 4.634360 
# 
# 
# High freq. dielectric constant tensor:
#      x y z
#    x 1.947460 -0.015460 0.002370 
#    y -0.015460 1.926490 -0.003730 
#    z 0.002370 -0.003730 1.961320 
# 
# From -- ./inp_files/243999.got.cif
#   From: 2010.06.25/outbox.cif.g09.slc.cpg/sg2_122_cif.got.tgz:243999.got - 2010.06.27 13:26:56.
