data_PCOD8032462
_publ_section_title
;
Structure prediction by ZEFSAII (Michael W. Deem and Ramdas Pophale) SiO2 
 PCOD8032462
Probable space group: P -1
;
_chemical_formula_sum "Si O2"
_cell_formula_units_Z 10
_cell_length_a 14.897503
_cell_length_b 8.847943
_cell_length_c 13.789396
_cell_angle_alpha 45.137951
_cell_angle_beta 159.391059
_cell_angle_gamma 136.256936
_cell_volume 439.165312
_symmetry_space_group_name_H-M "P -1"
_symmetry_group_IT_number 2
_symmetry_cell_setting 'triclinic'
loop_
_space_group_symop_operation_xyz
x,y,z
-x,-y,-z
loop_
_atom_site_type_symbol
_atom_site_label
_atom_site_fract_x
_atom_site_fract_y
_atom_site_fract_z
Si Si1 0.916914 0.140797 0.110838
Si Si2 0.332157 0.558489 0.388333
Si Si3 0.279919 0.087987 0.794338
Si Si4 0.550165 0.404100 0.296398
Si Si5 0.983038 0.134288 0.824257
O O1 0.080707 0.351640 0.240875
O O2 0.732779 0.989098 0.072151
O O3 0.096478 0.017089 0.284241
O O4 0.743781 0.217332 0.817669
O O5 0.500000 0.500000 0.500000
O O6 0.498495 0.596335 0.637231
O O7 0.355128 0.350012 0.758180
O O8 0.000000 0.000000 0.500000
O O9 0.500000 0.000000 0.000000
O O10 0.770607 0.275462 0.554685
O O11 0.269883 0.290435 0.018042
O O12 0.000000 0.000000 0.000000
#
# Coordination Sequence:
#
# PCOD8032462 Si02
#       5
#     2   2   2   2   2
#     4  11  26  42  71 101 139 184 232 289 344 410
#     4  11  23  42  71 103 131 185 244 281 338 415
#     4  12  26  47  71 104 140 184 234 291 345 406
#     4  12  26  45  72 100 144 182 232 286 346 419
#     4  12  26  46  70 106 143 181 229 290 354 407
#
# _framework density 22.770468999999999
#
# number of rings (size 3 to 8) (size 9 to 14) (size 15 to 20)
#    0.000    0.400    4.000    4.200    5.600    1.600 
#    0.000    0.000    0.000    0.000    0.000    0.000 
#    0.000    0.000    0.000    0.000    0.000    0.000 
#
# Total GULP energy -124028.291413 kJ/mol
# GULP energy per Si atom -12402.829141 kJ/mol
# Density = 2.271864 g / cm^3
# Si number density = 22.770469 Si / 1000 Ang^3
#
#
#
# Elastic Constant Matrix: (Units=GPa)
#
#
# Indices 1 2 3 4 5 6 
#
# 1 143.8416 37.3225 24.4516 -23.1003 17.7752 3.4675
# 2 37.3225 124.5838 44.5530 -20.8468 7.6336 13.2804
# 3 24.4516 44.5530 109.0879 -4.9826 31.3272 -0.8255
# 4 -23.1003 -20.8468 -4.9826 38.9825 -10.0975 2.7508
# 5 17.7752 7.6336 31.3272 -10.0975 43.3306 -3.2482
# 6 3.4675 13.2804 -0.8255 2.7508 -3.2482 39.5542
#
#
#
# Elastic Compliance Matrix: (Units=1/GPa)
#
#
# Indices 1 2 3 4 5 6 
#
# 1 0.008261 -0.001507 -0.000512 0.003558 -0.001972 -0.000638
# 2 -0.001507 0.011464 -0.005059 0.005723 0.003293 -0.003950
# 3 -0.000512 -0.005059 0.013999 -0.003866 -0.009808 0.001499
# 4 0.003558 0.005723 -0.003866 0.032581 0.007623 -0.003954
# 5 -0.001972 0.003293 -0.009808 0.007623 0.032248 0.000980
# 6 -0.000638 -0.003950 0.001499 -0.003954 0.000980 0.027051
#
#
# Mechanical properties :
#
#
# Convention : Reuss Voigt Hill
#
# Bulk Modulus (GPa) = 51.10389 65.57415 58.33902
# Shear Modulus (GPa) = 34.18045 42.45253 38.31649
#
# Velocity S-wave (km/s) = 3.87859 4.32252 4.10656
# Velocity P-wave (km/s) = 6.52301 7.33298 6.93982
#
# Compressibility (1/GPa) = 0.01956798
#
# Stress axis : x y z
#
# Youngs Moduli (GPa) = 121.05552 87.22809 71.43288
#
# Poissons Ratio (x) = 0.13149 0.03658
# Poissons Ratio (y) = 0.18248 0.36135
# Poissons Ratio (z) = 0.06199 0.44125
#
# Static dielectric constant tensor:
#      x y z
#    x 4.008870 0.824140 -0.573240 
#    y 0.824140 3.075620 2.280730 
#    z -0.573240 2.280730 3.083730 
# 
# 
# High freq. dielectric constant tensor:
#      x y z
#    x 1.905490 -0.001440 0.011290 
#    y -0.001440 1.917630 -0.004100 
#    z 0.011290 -0.004100 1.896070 
# 
# From -- ./inp_files/15381.got.cif
#   From: 2010.06.25/outbox.cif.g09.slc.cpg/sg2_8_cif.got.tgz:15381.got - 2010.06.27 13:26:56.
