data_PCOD8032001
_publ_section_title
;
Structure prediction by ZEFSAII (Michael W. Deem and Ramdas Pophale) SiO2 
 PCOD8032001
Probable space group: P -1
;
_chemical_formula_sum "Si O2"
_cell_formula_units_Z 14
_cell_length_a 12.546841
_cell_length_b 9.727122
_cell_length_c 16.814914
_cell_angle_alpha 125.612056
_cell_angle_beta 25.760946
_cell_angle_gamma 129.922504
_cell_volume 683.959029
_symmetry_space_group_name_H-M "P -1"
_symmetry_group_IT_number 2
_symmetry_cell_setting 'triclinic'
loop_
_space_group_symop_operation_xyz
x,y,z
-x,-y,-z
loop_
_atom_site_type_symbol
_atom_site_label
_atom_site_fract_x
_atom_site_fract_y
_atom_site_fract_z
Si Si1 0.209931 0.928515 0.504860
Si Si2 0.444241 0.288811 0.742445
Si Si3 0.471157 0.050863 0.211756
Si Si4 0.054994 0.053418 0.805592
Si Si5 0.184128 0.304625 0.086571
Si Si6 0.340390 0.298169 0.261640
Si Si7 0.628794 0.306387 0.910449
O O1 0.356479 0.817836 0.417818
O O2 0.961832 0.789017 0.583027
O O3 0.395590 0.053021 0.355483
O O4 0.127312 0.056251 0.664995
O O5 0.264117 0.218561 0.763369
O O6 0.608781 0.494430 0.686223
O O7 0.262539 0.262120 0.932333
O O8 0.416882 0.214590 0.261016
O O9 0.288692 0.862948 0.229616
O O10 0.772919 0.072645 0.009710
O O11 0.060646 0.864956 0.778304
O O12 0.138210 0.499072 0.183325
O O13 0.411312 0.318325 0.000048
O O14 0.514001 0.267640 0.062716
#
# Coordination Sequence:
#
# PCOD8032001 Si02
#       7
#     2   2   2   2   2   2   2
#     4  12  23  40  65  90 120 164 207 252 303 356
#     4  11  23  40  64  93 123 162 205 250 305 361
#     4  11  23  41  65  89 127 160 202 253 306 362
#     4  11  23  41  65  89 127 160 202 253 306 362
#     4   9  17  34  61  91 117 152 201 249 300 350
#     4  11  23  40  64  93 123 162 205 250 305 361
#     4   9  17  34  61  91 117 152 201 249 300 350
#
# _framework density 20.469062999999998
#
# number of rings (size 3 to 8) (size 9 to 14) (size 15 to 20)
#    0.000    1.429    5.714    2.143    0.000    1.714 
#    0.000    0.714    0.000    0.000    0.000    0.000 
#    0.000    0.000    0.000    0.000    0.000    0.000 
#
# Total GULP energy -173562.149340 kJ/mol
# GULP energy per Si atom -12397.296381 kJ/mol
# Density = 2.042247 g / cm^3
# Si number density = 20.469063 Si / 1000 Ang^3
#
#
#
# Elastic Constant Matrix: (Units=GPa)
#
#
# Indices 1 2 3 4 5 6 
#
# 1 99.0641 51.3146 49.7594 -5.2070 7.8578 17.8699
# 2 51.3146 47.1833 24.6892 -6.0454 14.9807 5.5203
# 3 49.7594 24.6892 96.9629 -1.0770 22.8022 11.1375
# 4 -5.2070 -6.0454 -1.0770 5.9227 0.9152 6.0789
# 5 7.8578 14.9807 22.8022 0.9152 29.4800 -1.1076
# 6 17.8699 5.5203 11.1375 6.0789 -1.1076 29.1935
#
#
#
# Elastic Compliance Matrix: (Units=1/GPa)
#
#
# Indices 1 2 3 4 5 6 
#
# 1 0.035749 -0.038025 -0.012201 -0.003792 0.019029 -0.008526
# 2 -0.038025 0.080447 0.011080 0.069792 -0.041944 -0.012287
# 3 -0.012201 0.011080 0.018463 0.011420 -0.017190 -0.004700
# 4 -0.003792 0.069792 0.011420 0.337659 -0.057066 -0.087707
# 5 0.019029 -0.041944 -0.017190 -0.057066 0.065878 0.017223
# 6 -0.008526 -0.012287 -0.004700 -0.087707 0.017223 0.062506
#
#
# Mechanical properties :
#
#
# Convention : Reuss Voigt Hill
#
# Bulk Modulus (GPa) = 17.74105 54.97074 36.35590
# Shear Modulus (GPa) = 7.16554 20.74905 13.95730
#
# Velocity S-wave (km/s) = 1.87304 3.18729 2.61410
# Velocity P-wave (km/s) = 3.65565 6.36073 5.18761
#
# Compressibility (1/GPa) = 0.05636643
#
# Stress axis : x y z
#
# Youngs Moduli (GPa) = 27.97270 12.43047 54.16329
#
# Poissons Ratio (x) = 0.47267 0.66087
# Poissons Ratio (y) = 1.06366 -0.60012
# Poissons Ratio (z) = 0.34131 -0.13773
#
# Static dielectric constant tensor:
#      x y z
#    x 3.641980 0.033870 0.267200 
#    y 0.033870 4.220510 -0.086130 
#    z 0.267200 -0.086130 3.612010 
# 
# 
# High freq. dielectric constant tensor:
#      x y z
#    x 1.788400 0.002310 0.024570 
#    y 0.002310 1.798920 -0.002850 
#    z 0.024570 -0.002850 1.789500 
# 
# From -- ./inp_files/263812.got.cif
#   From: 2010.06.25/outbox.cif.g09.slc.cpg/sg2_132_cif.got.tgz:263812.got - 2010.06.27 13:26:56.
