data_PCOD8032182
_publ_section_title
;
Structure prediction by ZEFSAII (Michael W. Deem and Ramdas Pophale) SiO2 
 PCOD8032182
Probable space group: P -1
;
_chemical_formula_sum "Si O2"
_cell_formula_units_Z 12
_cell_length_a 6.488751
_cell_length_b 9.144020
_cell_length_c 11.878450
_cell_angle_alpha 124.372097
_cell_angle_beta 112.935325
_cell_angle_gamma 79.197946
_cell_volume 535.242775
_symmetry_space_group_name_H-M "P -1"
_symmetry_group_IT_number 2
_symmetry_cell_setting 'triclinic'
loop_
_space_group_symop_operation_xyz
x,y,z
-x,-y,-z
loop_
_atom_site_type_symbol
_atom_site_label
_atom_site_fract_x
_atom_site_fract_y
_atom_site_fract_z
Si Si1 0.447635 0.394122 0.761461
Si Si2 0.869308 0.230774 0.864819
Si Si3 0.649178 0.759043 0.968963
Si Si4 0.568097 0.327730 0.507757
Si Si5 0.595038 0.964270 0.824133
Si Si6 0.995359 0.195282 0.630427
O O1 0.659732 0.356666 0.870035
O O2 0.451827 0.324594 0.604035
O O3 0.233084 0.301958 0.734907
O O4 0.448479 0.608245 0.857047
O O5 0.107968 0.324194 0.992580
O O6 0.894320 0.154952 0.713036
O O7 0.813195 0.073681 0.873035
O O8 0.595890 0.907789 0.114581
O O9 0.671849 0.838788 0.884372
O O10 0.500000 0.500000 0.500000
O O11 0.500481 0.148436 0.349970
O O12 0.835937 0.322858 0.580239
O O13 0.000000 0.000000 0.500000
#
# Coordination Sequence:
#
# PCOD8032182 Si02
#       6
#     2   2   2   2   2   2
#     4  11  24  43  69  98 131 168 222 274 322 389
#     4  11  23  41  68  94 130 176 217 268 324 392
#     4  11  24  43  64  99 132 173 218 267 329 386
#     4  11  23  44  67  98 130 170 222 270 326 389
#     4  11  24  43  66  94 136 172 217 268 328 392
#     4  11  24  43  69  99 133 174 219 272 333 387
#
# _framework density 22.419733999999998
#
# number of rings (size 3 to 8) (size 9 to 14) (size 15 to 20)
#    0.000    1.000    1.667    5.000    0.000    8.667 
#    6.000    0.000    0.000    0.000    0.000    0.000 
#    0.000    0.000    0.000    0.000    0.000    0.000 
#
# Total GULP energy -148770.459388 kJ/mol
# GULP energy per Si atom -12397.538282 kJ/mol
# Density = 2.236871 g / cm^3
# Si number density = 22.419734 Si / 1000 Ang^3
#
#
#
# Elastic Constant Matrix: (Units=GPa)
#
#
# Indices 1 2 3 4 5 6 
#
# 1 96.9403 49.1832 18.4354 -0.9707 22.2497 -1.2090
# 2 49.1832 122.3353 31.7934 -4.2817 5.6345 9.7857
# 3 18.4354 31.7934 94.4832 9.6543 4.6614 0.2964
# 4 -0.9707 -4.2817 9.6543 37.2333 2.9891 6.6034
# 5 22.2497 5.6345 4.6614 2.9891 33.6618 -0.3912
# 6 -1.2090 9.7857 0.2964 6.6034 -0.3912 42.7648
#
#
#
# Elastic Compliance Matrix: (Units=1/GPa)
#
#
# Indices 1 2 3 4 5 6 
#
# 1 0.015495 -0.005746 -0.000679 0.000371 -0.009201 0.001616
# 2 -0.005746 0.011526 -0.003090 0.002367 0.002050 -0.003125
# 3 -0.000679 -0.003090 0.012149 -0.003701 -0.000374 0.001172
# 4 0.000371 0.002367 -0.003701 0.029217 -0.002782 -0.005042
# 5 -0.009201 0.002050 -0.000374 -0.002782 0.035745 0.000030
# 6 0.001616 -0.003125 0.001172 -0.005042 0.000030 0.024915
#
#
# Mechanical properties :
#
#
# Convention : Reuss Voigt Hill
#
# Bulk Modulus (GPa) = 49.65263 56.95363 53.30313
# Shear Modulus (GPa) = 32.30152 37.02175 34.66163
#
# Velocity S-wave (km/s) = 3.79986 4.06803 3.93623
# Velocity P-wave (km/s) = 6.43792 6.89374 6.66972
#
# Compressibility (1/GPa) = 0.02013992
#
# Stress axis : x y z
#
# Youngs Moduli (GPa) = 64.53487 86.76172 82.30925
#
# Poissons Ratio (x) = 0.49851 0.05590
# Poissons Ratio (y) = 0.37080 0.25437
# Poissons Ratio (z) = 0.04383 0.26814
#
# Static dielectric constant tensor:
#      x y z
#    x 4.168500 0.014870 0.002140 
#    y 0.014870 4.125490 -0.145270 
#    z 0.002140 -0.145270 4.110640 
# 
# 
# High freq. dielectric constant tensor:
#      x y z
#    x 1.881450 0.004370 -0.006110 
#    y 0.004370 1.892810 -0.009930 
#    z -0.006110 -0.009930 1.893600 
# 
# From -- ./inp_files/21069.got.cif
#   From: 2010.06.25/outbox.cif.g09.slc.cpg/sg2_11_cif.got.tgz:21069.got - 2010.06.27 13:26:56.
