data_PCOD8032326
_publ_section_title
;
Structure prediction by ZEFSAII (Michael W. Deem and Ramdas Pophale) SiO2 
 PCOD8032326
Probable space group: P -1
;
_chemical_formula_sum "Si O2"
_cell_formula_units_Z 16
_cell_length_a 8.762081
_cell_length_b 8.553314
_cell_length_c 12.897956
_cell_angle_alpha 50.266365
_cell_angle_beta 78.322432
_cell_angle_gamma 75.469275
_cell_volume 718.440641
_symmetry_space_group_name_H-M "P -1"
_symmetry_group_IT_number 2
_symmetry_cell_setting 'triclinic'
loop_
_space_group_symop_operation_xyz
x,y,z
-x,-y,-z
loop_
_atom_site_type_symbol
_atom_site_label
_atom_site_fract_x
_atom_site_fract_y
_atom_site_fract_z
Si Si1 0.792828 0.363190 0.099041
Si Si2 0.819285 0.061399 0.030252
Si Si3 0.617889 0.311854 0.344627
Si Si4 0.141652 0.233897 0.170033
Si Si5 0.281789 0.375511 0.454989
Si Si6 0.286743 0.820121 0.223621
Si Si7 0.356850 0.283152 0.719565
Si Si8 0.838795 0.912503 0.548818
O O1 0.795036 0.214642 0.064521
O O2 0.652860 0.328840 0.210308
O O3 0.955226 0.315309 0.160769
O O4 0.763904 0.600334 0.965593
O O5 0.760196 0.850125 0.155361
O O6 0.717058 0.176377 0.901896
O O7 0.000000 0.000000 0.000000
O O8 0.431008 0.334599 0.374494
O O9 0.685169 0.490094 0.322833
O O10 0.695355 0.094611 0.472079
O O11 0.198141 0.203738 0.292853
O O12 0.173431 0.020328 0.194863
O O13 0.218144 0.620308 0.360571
O O14 0.331255 0.293105 0.596323
O O15 0.150536 0.250571 0.478827
O O16 0.463481 0.818692 0.240108
O O17 0.000000 0.000000 0.500000
#
# Coordination Sequence:
#
# PCOD8032326 Si02
#       8
#     2   2   2   2   2   2   2   2
#     4  11  24  42  67  98 138 177 223 277 343 400
#     4  12  25  43  68 101 139 181 228 279 342 410
#     4  11  23  45  70  98 137 184 222 284 341 397
#     4  11  23  42  66  97 137 177 224 279 337 401
#     4  11  25  46  70 101 138 180 231 283 335 410
#     4  11  23  46  70  99 136 181 232 279 336 407
#     4  11  25  45  71  99 138 185 229 280 339 402
#     4  12  24  41  67 101 136 174 227 279 343 404
#
# _framework density 22.270454999999998
#
# number of rings (size 3 to 8) (size 9 to 14) (size 15 to 20)
#    0.000    0.750    2.500    6.000    1.750    3.000 
#    0.000    5.625    0.000    0.000    0.000    0.000 
#    0.000    0.000    0.000    0.000    0.000    0.000 
#
# Total GULP energy -198510.495854 kJ/mol
# GULP energy per Si atom -12406.905991 kJ/mol
# Density = 2.221977 g / cm^3
# Si number density = 22.270455 Si / 1000 Ang^3
#
#
#
# Elastic Constant Matrix: (Units=GPa)
#
#
# Indices 1 2 3 4 5 6 
#
# 1 65.8074 40.0725 51.8901 -0.5613 -6.5205 21.3935
# 2 40.0725 106.7651 33.2729 -3.0713 9.9002 18.2981
# 3 51.8901 33.2729 159.0396 3.8614 19.4879 10.2820
# 4 -0.5613 -3.0713 3.8614 54.1242 5.2967 2.6967
# 5 -6.5205 9.9002 19.4879 5.2967 31.6218 1.5988
# 6 21.3935 18.2981 10.2820 2.6967 1.5988 37.4055
#
#
#
# Elastic Compliance Matrix: (Units=1/GPa)
#
#
# Indices 1 2 3 4 5 6 
#
# 1 0.035719 -0.009317 -0.011000 -0.000441 0.017822 -0.013578
# 2 -0.009317 0.013425 0.001142 0.001334 -0.006983 -0.001350
# 3 -0.011000 0.001142 0.010569 -0.000055 -0.009293 0.003229
# 4 -0.000441 0.001334 -0.000055 0.018981 -0.003573 -0.001601
# 5 0.017822 -0.006983 -0.009293 -0.003573 0.044107 -0.005850
# 6 -0.013578 -0.001350 0.003229 -0.001601 -0.005850 0.034638
#
#
# Mechanical properties :
#
#
# Convention : Reuss Voigt Hill
#
# Bulk Modulus (GPa) = 46.81054 64.67590 55.74322
# Shear Modulus (GPa) = 24.64153 38.38873 31.51513
#
# Velocity S-wave (km/s) = 3.32997 4.15631 3.76587
# Velocity P-wave (km/s) = 5.98746 7.22062 6.63276
#
# Compressibility (1/GPa) = 0.02136271
#
# Stress axis : x y z
#
# Youngs Moduli (GPa) = 27.99627 74.48959 94.61351
#
# Poissons Ratio (x) = 0.69399 1.04077
# Poissons Ratio (y) = 0.26083 -0.10802
# Poissons Ratio (z) = 0.30797 -0.08504
#
# Static dielectric constant tensor:
#      x y z
#    x 3.956980 0.159780 0.052670 
#    y 0.159780 4.162830 -0.115440 
#    z 0.052670 -0.115440 4.376860 
# 
# 
# High freq. dielectric constant tensor:
#      x y z
#    x 1.866210 0.008970 0.006060 
#    y 0.008970 1.888860 -0.004770 
#    z 0.006060 -0.004770 1.898980 
# 
# From -- ./inp_files/243862.got.cif
#   From: 2010.06.25/outbox.cif.g09.slc.cpg/sg2_122_cif.got.tgz:243862.got - 2010.06.27 13:26:56.
