data_PCOD8032277
_publ_section_title
;
Structure prediction by ZEFSAII (Michael W. Deem and Ramdas Pophale) SiO2 
 PCOD8032277
Probable space group: P -1
;
_chemical_formula_sum "Si O2"
_cell_formula_units_Z 16
_cell_length_a 11.531082
_cell_length_b 8.839110
_cell_length_c 13.608328
_cell_angle_alpha 28.835279
_cell_angle_beta 93.169933
_cell_angle_gamma 86.284667
_cell_volume 649.197440
_symmetry_space_group_name_H-M "P -1"
_symmetry_group_IT_number 2
_symmetry_cell_setting 'triclinic'
loop_
_space_group_symop_operation_xyz
x,y,z
-x,-y,-z
loop_
_atom_site_type_symbol
_atom_site_label
_atom_site_fract_x
_atom_site_fract_y
_atom_site_fract_z
Si Si1 0.493500 0.145872 0.669882
Si Si2 0.708136 0.137480 0.228598
Si Si3 0.210946 0.411614 0.745569
Si Si4 0.074390 0.314631 0.982323
Si Si5 0.085468 0.159651 0.718040
Si Si6 0.621812 0.725551 0.752276
Si Si7 0.860121 0.853552 0.703334
Si Si8 0.580787 0.552221 0.152653
O O1 0.500000 0.500000 0.500000
O O2 0.358892 0.153689 0.622179
O O3 0.578847 0.037362 0.641884
O O4 0.533106 0.895465 0.903754
O O5 0.689010 0.302707 0.240875
O O6 0.848740 0.006361 0.283744
O O7 0.638597 0.407864 0.998332
O O8 0.191052 0.185631 0.783628
O O9 0.353454 0.386041 0.778151
O O10 0.138778 0.773501 0.511976
O O11 0.166665 0.271597 0.922455
O O12 0.148048 0.265234 0.116250
O O13 0.993965 0.057690 0.114085
O O14 0.985216 0.666964 0.769602
O O15 0.000000 0.500000 0.500000
O O16 0.747426 0.766992 0.688263
O O17 0.519544 0.657346 0.710706
#
# Coordination Sequence:
#
# PCOD8032277 Si02
#       8
#     2   2   2   2   2   2   2   2
#     4   9  18  33  67 101 127 169 222 277 331 393
#     4   9  19  39  65  89 130 182 216 260 337 397
#     4  12  26  41  67 103 134 169 229 286 333 389
#     4  11  24  44  66  97 135 177 226 284 331 393
#     4  12  25  43  65  99 137 180 220 279 343 394
#     4   9  18  39  64  93 128 174 219 263 330 403
#     4  11  23  41  74  96 129 181 229 271 336 404
#     4   9  21  41  65  97 135 174 223 273 325 410
#
# _framework density 24.645814999999999
#
# number of rings (size 3 to 8) (size 9 to 14) (size 15 to 20)
#    0.000    1.750    2.500    3.750    3.500    2.500 
#    0.000    5.000    0.000    0.000    0.000    0.000 
#    0.000    0.000    0.000    0.000    0.000    0.000 
#
# Total GULP energy -198329.837017 kJ/mol
# GULP energy per Si atom -12395.614814 kJ/mol
# Density = 2.458972 g / cm^3
# Si number density = 24.645815 Si / 1000 Ang^3
#
#
#
# Elastic Constant Matrix: (Units=GPa)
#
#
# Indices 1 2 3 4 5 6 
#
# 1 115.0952 35.3056 18.9555 -9.9244 1.7043 26.0282
# 2 35.3056 56.5294 15.5777 -12.7281 7.6507 29.2723
# 3 18.9555 15.5777 93.1847 -26.9098 -3.5088 5.0728
# 4 -9.9244 -12.7281 -26.9098 32.0615 5.8965 -9.7409
# 5 1.7043 7.6507 -3.5088 5.8965 33.1196 -7.3818
# 6 26.0282 29.2723 5.0728 -9.7409 -7.3818 43.5208
#
#
#
# Elastic Compliance Matrix: (Units=1/GPa)
#
#
# Indices 1 2 3 4 5 6 
#
# 1 0.011152 -0.004954 -0.001479 -0.000741 -0.000205 -0.003366
# 2 -0.004954 0.036496 -0.002465 0.006813 -0.014609 -0.022251
# 3 -0.001479 -0.002465 0.014699 0.011838 0.000905 0.003632
# 4 -0.000741 0.006813 0.011838 0.046078 -0.007708 0.003486
# 5 -0.000205 -0.014609 0.000905 -0.007708 0.038304 0.014615
# 6 -0.003366 -0.022251 0.003632 0.003486 0.014615 0.042792
#
#
# Mechanical properties :
#
#
# Convention : Reuss Voigt Hill
#
# Bulk Modulus (GPa) = 22.44525 44.94301 33.69413
# Shear Modulus (GPa) = 22.50557 34.73842 28.62199
#
# Velocity S-wave (km/s) = 3.02513 3.75841 3.41153
# Velocity P-wave (km/s) = 4.61831 6.09174 5.40547
#
# Compressibility (1/GPa) = 0.04455285
#
# Stress axis : x y z
#
# Youngs Moduli (GPa) = 89.67123 27.40024 68.03109
#
# Poissons Ratio (x) = 0.13573 0.10060
# Poissons Ratio (y) = 0.44420 0.16768
# Poissons Ratio (z) = 0.13260 0.06753
#
# Static dielectric constant tensor:
#      x y z
#    x 4.773850 0.133980 -0.162740 
#    y 0.133980 4.417150 -0.042020 
#    z -0.162740 -0.042020 4.404170 
# 
# 
# High freq. dielectric constant tensor:
#      x y z
#    x 1.993950 0.025390 -0.005390 
#    y 0.025390 1.953810 -0.010730 
#    z -0.005390 -0.010730 1.979610 
# 
# From -- ./inp_files/514827.got.cif
#   From: 2010.06.25/outbox.cif.g09.slc.cpg/sg2_258_cif.got.tgz:514827.got - 2010.06.27 13:26:56.
