data_PCOD8032327
_publ_section_title
;
Structure prediction by ZEFSAII (Michael W. Deem and Ramdas Pophale) SiO2 
 PCOD8032327
Probable space group: P -1
;
_chemical_formula_sum "Si O2"
_cell_formula_units_Z 14
_cell_length_a 11.506477
_cell_length_b 7.772919
_cell_length_c 11.772160
_cell_angle_alpha 70.797508
_cell_angle_beta 113.008797
_cell_angle_gamma 141.259874
_cell_volume 605.940733
_symmetry_space_group_name_H-M "P -1"
_symmetry_group_IT_number 2
_symmetry_cell_setting 'triclinic'
loop_
_space_group_symop_operation_xyz
x,y,z
-x,-y,-z
loop_
_atom_site_type_symbol
_atom_site_label
_atom_site_fract_x
_atom_site_fract_y
_atom_site_fract_z
Si Si1 0.176419 0.165445 0.372012
Si Si2 0.692764 0.238841 0.907671
Si Si3 0.891459 0.108373 0.387551
Si Si4 0.465537 0.632182 0.878214
Si Si5 0.499476 0.591961 0.254925
Si Si6 0.959869 0.462689 0.164233
Si Si7 0.970894 0.856707 0.134674
O O1 0.395606 0.450157 0.367497
O O2 0.090083 0.222371 0.411374
O O3 0.153664 0.950083 0.481231
O O4 0.075552 0.065128 0.233175
O O5 0.568292 0.289804 0.854601
O O6 0.879027 0.485148 0.848211
O O7 0.427417 0.064207 0.117110
O O8 0.768161 0.272757 0.055588
O O9 0.906666 0.329045 0.297792
O O10 0.723714 0.833903 0.310474
O O11 0.538983 0.631132 0.786056
O O12 0.240906 0.423274 0.845274
O O13 0.500000 0.500000 0.000000
O O14 0.066064 0.767905 0.158913
O O15 0.000000 0.000000 0.000000
#
# Coordination Sequence:
#
# PCOD8032327 Si02
#       7
#     2   2   2   2   2   2   2
#     4  11  24  45  67  98 135 180 229 275 334 408
#     4  11  24  41  67 103 139 175 228 280 342 400
#     4  11  24  43  70  95 136 184 225 274 338 402
#     4  12  24  39  64 101 137 174 220 278 340 403
#     4  12  23  44  71 100 136 178 227 282 340 399
#     4  11  23  42  66  97 139 181 220 284 338 399
#     4  12  25  43  68  99 136 176 223 284 342 401
#
# _framework density 23.104566999999999
#
# number of rings (size 3 to 8) (size 9 to 14) (size 15 to 20)
#    0.000    0.571    2.857    6.429    2.000    2.286 
#    0.000    0.714    0.000    4.286    0.000    0.000 
#    0.000    0.000    0.000    0.000    0.000    0.000 
#
# Total GULP energy -173490.590707 kJ/mol
# GULP energy per Si atom -12392.185050 kJ/mol
# Density = 2.305198 g / cm^3
# Si number density = 23.104567 Si / 1000 Ang^3
#
#
#
# Elastic Constant Matrix: (Units=GPa)
#
#
# Indices 1 2 3 4 5 6 
#
# 1 87.2664 26.3166 15.2443 -10.3696 -3.4047 -1.4018
# 2 26.3166 83.6500 23.5761 -20.9704 -1.0903 -13.3475
# 3 15.2443 23.5761 138.7082 -34.5881 -3.3990 -2.8396
# 4 -10.3696 -20.9704 -34.5881 38.9257 2.9291 -2.7732
# 5 -3.4047 -1.0903 -3.3990 2.9291 25.0199 -2.4959
# 6 -1.4018 -13.3475 -2.8396 -2.7732 -2.4959 41.2114
#
#
#
# Elastic Compliance Matrix: (Units=1/GPa)
#
#
# Indices 1 2 3 4 5 6 
#
# 1 0.012828 -0.003789 -0.000567 0.000720 0.001349 -0.000700
# 2 -0.003789 0.016069 -0.000252 0.007836 -0.000211 0.005573
# 3 -0.000567 -0.000252 0.009362 0.008085 0.000348 0.001109
# 4 0.000720 0.007836 0.008085 0.037857 -0.002343 0.005525
# 5 0.001349 -0.000211 0.000348 -0.002343 0.040694 0.002308
# 6 -0.000700 0.005573 0.001109 0.005525 0.002308 0.026634
#
#
# Mechanical properties :
#
#
# Convention : Reuss Voigt Hill
#
# Bulk Modulus (GPa) = 34.43358 48.87762 41.65560
# Shear Modulus (GPa) = 30.79928 37.33057 34.06493
#
# Velocity S-wave (km/s) = 3.65504 4.02397 3.84393
# Velocity P-wave (km/s) = 5.72260 6.54145 6.14568
#
# Compressibility (1/GPa) = 0.02904142
#
# Stress axis : x y z
#
# Youngs Moduli (GPa) = 77.95445 62.23325 106.81792
#
# Poissons Ratio (x) = 0.23582 0.06061
# Poissons Ratio (y) = 0.29539 0.02689
# Poissons Ratio (z) = 0.04423 0.01567
#
# Static dielectric constant tensor:
#      x y z
#    x 4.386740 0.175190 -0.022070 
#    y 0.175190 4.122820 -0.132370 
#    z -0.022070 -0.132370 4.319320 
# 
# 
# High freq. dielectric constant tensor:
#      x y z
#    x 1.917560 0.020640 -0.000810 
#    y 0.020640 1.916080 -0.017470 
#    z -0.000810 -0.017470 1.907630 
# 
# From -- ./inp_files/416665.got.cif
#   From: 2010.06.25/outbox.cif.g09.slc.cpg/sg2_209_cif.got.tgz:416665.got - 2010.06.27 13:26:56.
