data_PCOD8032741
_publ_section_title
;
Structure prediction by ZEFSAII (Michael W. Deem and Ramdas Pophale) SiO2 
 PCOD8032741
Probable space group: P -1
;
_chemical_formula_sum "Si O2"
_cell_formula_units_Z 16
_cell_length_a 8.544313
_cell_length_b 9.424976
_cell_length_c 21.776506
_cell_angle_alpha 150.905926
_cell_angle_beta 60.650249
_cell_angle_gamma 120.752097
_cell_volume 728.856777
_symmetry_space_group_name_H-M "P -1"
_symmetry_group_IT_number 2
_symmetry_cell_setting 'triclinic'
loop_
_space_group_symop_operation_xyz
x,y,z
-x,-y,-z
loop_
_atom_site_type_symbol
_atom_site_label
_atom_site_fract_x
_atom_site_fract_y
_atom_site_fract_z
Si Si1 0.231110 0.135703 0.744342
Si Si2 0.014401 0.213650 0.519727
Si Si3 0.099094 0.274186 0.121857
Si Si4 0.513358 0.252171 0.044184
Si Si5 0.813371 0.194690 0.246981
Si Si6 0.440474 0.099555 0.215310
Si Si7 0.657422 0.244824 0.532530
Si Si8 0.107871 0.836840 0.255269
O O1 0.367913 0.451558 0.837033
O O2 0.031504 0.189627 0.784760
O O3 0.217230 0.043122 0.782970
O O4 0.293227 0.892677 0.594586
O O5 0.820314 0.297538 0.571212
O O6 0.179816 0.485383 0.604124
O O7 0.000000 0.000000 0.500000
O O8 0.087451 0.109248 0.403703
O O9 0.315259 0.320443 0.095928
O O10 0.050193 0.555768 0.203718
O O11 0.013005 0.227745 0.188866
O O12 0.000000 0.000000 0.000000
O O13 0.500000 0.000000 0.000000
O O14 0.598242 0.115878 0.917466
O O15 0.651773 0.123242 0.201607
O O16 0.398583 0.432469 0.342188
O O17 0.315393 0.907076 0.218158
O O18 0.500000 0.000000 0.500000
#
# Coordination Sequence:
#
# PCOD8032741 Si02
#       8
#     2   2   2   2   2   2   2   2
#     4  11  27  47  72 107 139 182 235 287 348 413
#     4  11  23  43  71 104 136 181 231 281 348 414
#     4  12  26  46  71  98 144 185 229 285 346 414
#     4  12  28  46  72 105 140 183 236 283 352 416
#     4  12  26  44  73 103 140 183 233 284 350 408
#     4  12  27  45  70 104 143 182 233 292 341 412
#     4  11  25  44  73 103 143 180 233 291 346 410
#     4  11  26  47  71 103 142 181 230 290 344 412
#
# _framework density 21.952186999999999
#
# number of rings (size 3 to 8) (size 9 to 14) (size 15 to 20)
#    0.000    0.500    2.500    4.500    8.750    7.500 
#    0.000    0.000    0.000    0.000    0.000    0.000 
#    0.000    0.000    0.000    0.000    0.000    0.000 
#
# Total GULP energy -198320.254239 kJ/mol
# GULP energy per Si atom -12395.015890 kJ/mol
# Density = 2.190222 g / cm^3
# Si number density = 21.952187 Si / 1000 Ang^3
#
#
#
# Elastic Constant Matrix: (Units=GPa)
#
#
# Indices 1 2 3 4 5 6 
#
# 1 79.8554 22.0046 39.1827 -6.7663 10.4890 -1.5849
# 2 22.0046 122.6102 26.7355 -4.9921 -3.8042 -1.9258
# 3 39.1827 26.7355 104.9125 3.0884 10.3985 3.6325
# 4 -6.7663 -4.9921 3.0884 30.8809 7.3394 0.4826
# 5 10.4890 -3.8042 10.3985 7.3394 37.2631 3.7235
# 6 -1.5849 -1.9258 3.6325 0.4826 3.7235 43.1230
#
#
#
# Elastic Compliance Matrix: (Units=1/GPa)
#
#
# Indices 1 2 3 4 5 6 
#
# 1 0.016765 -0.001706 -0.005578 0.004993 -0.004454 0.001339
# 2 -0.001706 0.008959 -0.001852 0.000848 0.001711 0.000336
# 3 -0.005578 -0.001852 0.012344 -0.002387 -0.001476 -0.001173
# 4 0.004993 0.000848 -0.002387 0.035683 -0.007750 0.000692
# 5 -0.004454 0.001711 -0.001476 -0.007750 0.030453 -0.002506
# 6 0.001339 0.000336 -0.001173 0.000692 -0.002506 0.023561
#
#
# Mechanical properties :
#
#
# Convention : Reuss Voigt Hill
#
# Bulk Modulus (GPa) = 50.51868 53.69153 52.10511
# Shear Modulus (GPa) = 32.75751 36.88376 34.82063
#
# Velocity S-wave (km/s) = 3.86712 4.10345 3.98704
# Velocity P-wave (km/s) = 6.55763 6.85293 6.70690
#
# Compressibility (1/GPa) = 0.01979466
#
# Stress axis : x y z
#
# Youngs Moduli (GPa) = 59.64985 111.62140 81.00899
#
# Poissons Ratio (x) = 0.19045 0.45189
# Poissons Ratio (y) = 0.10177 0.15003
# Poissons Ratio (z) = 0.33275 0.20672
#
# Static dielectric constant tensor:
#      x y z
#    x 3.985170 -0.036590 0.232360 
#    y -0.036590 3.837470 0.134420 
#    z 0.232360 0.134420 4.024940 
# 
# 
# High freq. dielectric constant tensor:
#      x y z
#    x 1.871630 0.000920 0.011410 
#    y 0.000920 1.879620 0.000790 
#    z 0.011410 0.000790 1.879200 
# 
# From -- ./inp_files/352350.got.cif
#   From: 2010.06.25/outbox.cif.g09.slc.cpg/sg2_177_cif.got.tgz:352350.got - 2010.06.27 13:26:56.
