data_PCOD8032970
_publ_section_title
;
Structure prediction by ZEFSAII (Michael W. Deem and Ramdas Pophale) SiO2 
 PCOD8032970
Probable space group: P -1
;
_chemical_formula_sum "Si O2"
_cell_formula_units_Z 16
_cell_length_a 12.278297
_cell_length_b 10.455037
_cell_length_c 9.117841
_cell_angle_alpha 116.830282
_cell_angle_beta 56.450141
_cell_angle_gamma 125.334294
_cell_volume 780.699333
_symmetry_space_group_name_H-M "P -1"
_symmetry_group_IT_number 2
_symmetry_cell_setting 'triclinic'
loop_
_space_group_symop_operation_xyz
x,y,z
-x,-y,-z
loop_
_atom_site_type_symbol
_atom_site_label
_atom_site_fract_x
_atom_site_fract_y
_atom_site_fract_z
Si Si1 0.850702 0.304414 0.860984
Si Si2 0.528899 0.159984 0.974774
Si Si3 0.895599 0.061427 0.189391
Si Si4 0.615961 0.714111 0.643580
Si Si5 0.900939 0.355624 0.185910
Si Si6 0.553538 0.883807 0.319853
Si Si7 0.122438 0.974843 0.478785
Si Si8 0.384238 0.608835 0.514951
O O1 0.691407 0.296131 0.957094
O O2 0.969051 0.470253 0.794925
O O3 0.848683 0.158049 0.695129
O O4 0.887347 0.293122 0.997467
O O5 0.506793 0.126961 0.803223
O O6 0.414145 0.223105 0.147039
O O7 0.500000 0.000000 0.000000
O O8 0.726903 0.948686 0.221420
O O9 0.927723 0.075896 0.345136
O O10 0.939659 0.239694 0.195876
O O11 0.000000 0.000000 0.000000
O O12 0.734867 0.857317 0.535859
O O13 0.468265 0.647542 0.626010
O O14 0.668733 0.579258 0.572626
O O15 0.752372 0.353674 0.350540
O O16 0.485075 0.711127 0.359249
O O17 0.500000 0.000000 0.500000
O O18 0.000000 0.000000 0.500000
#
# Coordination Sequence:
#
# PCOD8032970 Si02
#       8
#     2   2   2   2   2   2   2   2
#     4  11  24  42  69 100 133 179 221 277 335 408
#     4  12  23  41  71 101 133 171 228 277 330 400
#     4  12  27  44  69 102 138 180 223 284 343 400
#     4  11  24  42  70 100 134 175 229 279 331 402
#     4  11  24  45  68  99 139 178 225 277 347 395
#     4  12  24  44  73  98 136 180 228 276 340 408
#     4  12  25  44  67  98 134 177 227 273 338 409
#     4  11  23  44  69  99 134 181 225 279 337 400
#
# _framework density 20.494444000000001
#
# number of rings (size 3 to 8) (size 9 to 14) (size 15 to 20)
#    0.000    0.500    5.000    3.750    1.750    3.000 
#    2.250    0.000    0.000    0.000    0.000    0.000 
#    0.000    0.000    0.000    0.000    0.000    0.000 
#
# Total GULP energy -198488.442935 kJ/mol
# GULP energy per Si atom -12405.527683 kJ/mol
# Density = 2.044780 g / cm^3
# Si number density = 20.494444 Si / 1000 Ang^3
#
#
#
# Elastic Constant Matrix: (Units=GPa)
#
#
# Indices 1 2 3 4 5 6 
#
# 1 95.9816 43.8283 32.4046 -6.0532 -3.4860 -5.3080
# 2 43.8283 151.5153 60.0076 -3.6440 -0.7549 -11.9926
# 3 32.4046 60.0076 118.5988 2.9620 -1.8714 -14.9746
# 4 -6.0532 -3.6440 2.9620 36.8806 -4.0550 -4.5133
# 5 -3.4860 -0.7549 -1.8714 -4.0550 47.1668 -3.4738
# 6 -5.3080 -11.9926 -14.9746 -4.5133 -3.4738 40.1606
#
#
#
# Elastic Compliance Matrix: (Units=1/GPa)
#
#
# Indices 1 2 3 4 5 6 
#
# 1 0.012546 -0.002738 -0.002028 0.002113 0.001015 0.000410
# 2 -0.002738 0.008948 -0.003671 0.000850 -0.000056 0.001032
# 3 -0.002028 -0.003671 0.011221 -0.001229 0.000331 0.002710
# 4 0.002113 0.000850 -0.001229 0.028383 0.002820 0.003509
# 5 0.001015 -0.000056 0.000331 0.002820 0.021710 0.002436
# 6 0.000410 0.001032 0.002710 0.003509 0.002436 0.026878
#
#
# Mechanical properties :
#
#
# Convention : Reuss Voigt Hill
#
# Bulk Modulus (GPa) = 63.12277 70.95295 67.03786
# Shear Modulus (GPa) = 37.92450 40.16529 39.04489
#
# Velocity S-wave (km/s) = 4.30638 4.43178 4.36953
# Velocity P-wave (km/s) = 7.45610 7.80278 7.63141
#
# Compressibility (1/GPa) = 0.01584214
#
# Stress axis : x y z
#
# Youngs Moduli (GPa) = 79.70518 111.76059 89.11549
#
# Poissons Ratio (x) = 0.30598 0.18070
# Poissons Ratio (y) = 0.21822 0.32715
# Poissons Ratio (z) = 0.16162 0.41028
#
# Static dielectric constant tensor:
#      x y z
#    x 3.709480 0.084880 0.162290 
#    y 0.084880 3.962060 -0.077300 
#    z 0.162290 -0.077300 3.450770 
# 
# 
# High freq. dielectric constant tensor:
#      x y z
#    x 1.804490 0.002330 -0.004880 
#    y 0.002330 1.811890 -0.004560 
#    z -0.004880 -0.004560 1.813790 
# 
# From -- ./inp_files/244909.got.cif
#   From: 2010.06.25/outbox.cif.g09.slc.cpg/sg2_123_cif.got.tgz:244909.got - 2010.06.27 13:26:56.
