data_PCOD8032190
_publ_section_title
;
Structure prediction by ZEFSAII (Michael W. Deem and Ramdas Pophale) SiO2 
 PCOD8032190
Probable space group: P -1
;
_chemical_formula_sum "Si O2"
_cell_formula_units_Z 16
_cell_length_a 11.022218
_cell_length_b 18.949992
_cell_length_c 16.910496
_cell_angle_alpha 149.154325
_cell_angle_beta 146.882104
_cell_angle_gamma 24.662546
_cell_volume 728.066796
_symmetry_space_group_name_H-M "P -1"
_symmetry_group_IT_number 2
_symmetry_cell_setting 'triclinic'
loop_
_space_group_symop_operation_xyz
x,y,z
-x,-y,-z
loop_
_atom_site_type_symbol
_atom_site_label
_atom_site_fract_x
_atom_site_fract_y
_atom_site_fract_z
Si Si1 0.837281 0.664399 0.176310
Si Si2 0.474522 0.080924 0.384398
Si Si3 0.063124 0.879699 0.292307
Si Si4 0.392422 0.108338 0.189238
Si Si5 0.213744 0.418024 0.286399
Si Si6 0.328168 0.524672 0.185868
Si Si7 0.785149 0.083845 0.184149
Si Si8 0.904196 0.308198 0.388475
O O1 0.956883 0.529338 0.186763
O O2 0.106946 0.624025 0.236219
O O3 0.612001 0.876370 0.287016
O O4 0.658124 0.635953 0.994085
O O5 0.739206 0.081239 0.525934
O O6 0.307870 0.138456 0.264036
O O7 0.223998 0.228192 0.453664
O O8 0.220230 0.669691 0.196389
O O9 0.732377 0.022446 0.287415
O O10 0.031893 0.910490 0.209938
O O11 0.165627 0.306973 0.211029
O O12 0.375081 0.964864 0.003136
O O13 0.536621 0.269353 0.277794
O O14 0.197621 0.564801 0.468275
O O15 0.657948 0.431719 0.304276
O O16 0.942398 0.130898 0.260008
#
# Coordination Sequence:
#
# PCOD8032190 Si02
#       8
#     2   2   2   2   2   2   2   2
#     4  11  23  41  68  99 129 169 222 271 320 387
#     4  12  27  44  65  97 139 178 214 267 333 394
#     4  11  23  41  68  99 133 170 218 273 326 389
#     4  11  23  42  70 101 131 170 221 275 331 383
#     4  11  23  41  68  99 133 170 218 273 326 389
#     4  11  23  41  68  99 129 169 222 271 320 387
#     4  11  23  42  70 101 131 170 221 275 331 383
#     4  12  27  44  65  97 139 178 214 267 333 394
#
# _framework density 21.976004
#
# number of rings (size 3 to 8) (size 9 to 14) (size 15 to 20)
#    0.000    0.750    2.500    6.000    3.500    6.000 
#    0.000    0.000    0.000    8.250    0.000    0.000 
#    0.000    0.000    0.000    0.000    0.000    0.000 
#
# Total GULP energy -198471.318437 kJ/mol
# GULP energy per Si atom -12404.457402 kJ/mol
# Density = 2.192599 g / cm^3
# Si number density = 21.976004 Si / 1000 Ang^3
#
#
#
# Elastic Constant Matrix: (Units=GPa)
#
#
# Indices 1 2 3 4 5 6 
#
# 1 95.6272 43.8377 39.1852 -1.7662 -7.3729 18.4984
# 2 43.8377 78.2979 33.5000 -3.0827 -13.5505 16.2122
# 3 39.1852 33.5000 121.3082 -1.3369 -15.0018 -12.6928
# 4 -1.7662 -3.0827 -1.3369 26.2620 5.0526 -3.0569
# 5 -7.3729 -13.5505 -15.0018 5.0526 3.9809 -4.8085
# 6 18.4984 16.2122 -12.6928 -3.0569 -4.8085 44.0225
#
#
#
# Elastic Compliance Matrix: (Units=1/GPa)
#
#
# Indices 1 2 3 4 5 6 
#
# 1 0.009434 0.010059 0.010925 -0.021767 0.130435 0.008217
# 2 0.010059 -0.020458 -0.040677 0.053065 -0.319524 -0.039637
# 3 0.010925 -0.040677 -0.023066 0.049225 -0.298343 -0.025431
# 4 -0.021767 0.053065 0.049225 -0.030270 0.421953 0.047785
# 5 0.130435 -0.319524 -0.298343 0.421953 -2.588847 -0.276635
# 6 0.008217 -0.039637 -0.025431 0.047785 -0.276635 -0.000371
#
#
# Mechanical properties :
#
#
# Convention : Reuss Voigt Hill
#
# Bulk Modulus (GPa) = -13.61006 58.69769 22.54382
# Shear Modulus (GPa) = -1.89488 26.76710 12.43611
#
# Velocity S-wave (km/s) = -0.92958 3.49379 2.38144
# Velocity P-wave (km/s) = 2.71270 6.56074 4.22401
#
# Compressibility (1/GPa) = -0.07347506
#
# Stress axis : x y z
#
# Youngs Moduli (GPa) = 105.99541 -48.88091 -43.35391
#
# Poissons Ratio (x) = 0.49168 0.47365
# Poissons Ratio (y) = -1.06617 -1.76349
# Poissons Ratio (z) = -1.15801 -1.98831
#
# Static dielectric constant tensor:
#      x y z
#    x 3.948670 0.437670 -0.025920 
#    y 0.437670 4.000140 -0.006510 
#    z -0.025920 -0.006510 3.894010 
# 
# 
# High freq. dielectric constant tensor:
#      x y z
#    x 1.857570 0.031840 -0.002500 
#    y 0.031840 1.856870 0.000620 
#    z -0.002500 0.000620 1.870300 
# 
# From -- ./inp_files/316130.got.cif
#   From: 2010.06.25/outbox.cif.g09.slc.cpg/sg2_159_cif.got.tgz:316130.got - 2010.06.27 13:26:56.
