data_PCOD8032977
_publ_section_title
;
Structure prediction by ZEFSAII (Michael W. Deem and Ramdas Pophale) SiO2 
 PCOD8032977
Probable space group: P -1
;
_chemical_formula_sum "Si O2"
_cell_formula_units_Z 16
_cell_length_a 16.273048
_cell_length_b 20.090329
_cell_length_c 9.203564
_cell_angle_alpha 44.112397
_cell_angle_beta 53.902533
_cell_angle_gamma 19.679181
_cell_volume 655.067181
_symmetry_space_group_name_H-M "P -1"
_symmetry_group_IT_number 2
_symmetry_cell_setting 'triclinic'
loop_
_space_group_symop_operation_xyz
x,y,z
-x,-y,-z
loop_
_atom_site_type_symbol
_atom_site_label
_atom_site_fract_x
_atom_site_fract_y
_atom_site_fract_z
Si Si1 0.322757 0.606304 0.710870
Si Si2 0.276343 0.902952 0.922866
Si Si3 0.107804 0.078100 0.136301
Si Si4 0.646179 0.666646 0.309715
Si Si5 0.772548 0.352952 0.577003
Si Si6 0.511629 0.971236 0.864480
Si Si7 0.489250 0.909535 0.567735
Si Si8 0.924034 0.437268 0.683177
O O1 0.500597 0.547266 0.621653
O O2 0.191481 0.706443 0.533944
O O3 0.090129 0.822310 0.731861
O O4 0.489356 0.367224 0.952778
O O5 0.322558 0.975617 0.726242
O O6 0.012667 0.097147 0.813990
O O7 0.247481 0.908124 0.117767
O O8 0.333851 0.916799 0.265526
O O9 0.931011 0.318074 0.885765
O O10 0.788626 0.452600 0.426791
O O11 0.773881 0.588260 0.451408
O O12 0.660963 0.739557 0.059285
O O13 0.651674 0.934348 0.683108
O O14 0.216650 0.226158 0.704174
O O15 0.500000 0.000000 0.000000
O O16 0.770587 0.618263 0.694398
O O17 0.500000 0.000000 0.500000
#
# Coordination Sequence:
#
# PCOD8032977 Si02
#       8
#     2   2   2   2   2   2   2   2
#     4  11  26  48  71 110 140 190 240 293 362 424
#     4  12  25  49  70 106 145 186 241 298 356 425
#     4  11  24  44  76  97 143 189 230 291 357 425
#     4  11  23  44  71 105 143 186 237 294 354 422
#     4  11  26  46  74 105 146 183 238 302 356 428
#     4  11  25  43  71 103 138 189 243 288 355 427
#     4  12  26  43  69 104 142 188 235 293 354 422
#     4  11  23  44  70 101 143 187 236 296 351 421
#
# _framework density 24.424976999999998
#
# number of rings (size 3 to 8) (size 9 to 14) (size 15 to 20)
#    0.000    0.750    5.000    2.250    1.750    1.000 
#    0.000    1.250    0.000    0.000    0.000    0.000 
#    0.000    0.000    0.000    0.000    0.000    0.000 
#
# Total GULP energy -198349.950034 kJ/mol
# GULP energy per Si atom -12396.871877 kJ/mol
# Density = 2.436938 g / cm^3
# Si number density = 24.424977 Si / 1000 Ang^3
#
#
#
# Elastic Constant Matrix: (Units=GPa)
#
#
# Indices 1 2 3 4 5 6 
#
# 1 82.0008 17.7334 35.7057 4.8323 14.3822 -0.6167
# 2 17.7334 62.6803 36.1509 17.2050 8.6349 1.5633
# 3 35.7057 36.1509 110.7918 7.8997 17.5972 -15.9977
# 4 4.8323 17.2050 7.8997 44.1959 -4.2872 -2.0513
# 5 14.3822 8.6349 17.5972 -4.2872 50.3464 -7.2824
# 6 -0.6167 1.5633 -15.9977 -2.0513 -7.2824 31.7729
#
#
#
# Elastic Compliance Matrix: (Units=1/GPa)
#
#
# Indices 1 2 3 4 5 6 
#
# 1 0.014839 -0.001009 -0.004282 -0.000876 -0.003015 -0.002566
# 2 -0.001009 0.023050 -0.007023 -0.008146 -0.002750 -0.005846
# 3 -0.004282 -0.007023 0.013852 0.000922 -0.001324 0.006993
# 4 -0.000876 -0.008146 0.000922 0.026284 0.004066 0.003477
# 5 -0.003015 -0.002750 -0.001324 0.004066 0.022710 0.004878
# 6 -0.002566 -0.005846 0.006993 0.003477 0.004878 0.036575
#
#
# Mechanical properties :
#
#
# Convention : Reuss Voigt Hill
#
# Bulk Modulus (GPa) = 36.88180 48.29476 42.58828
# Shear Modulus (GPa) = 29.24411 36.32191 32.78301
#
# Velocity S-wave (km/s) = 3.46396 3.86045 3.66757
# Velocity P-wave (km/s) = 5.57956 6.29971 5.95054
#
# Compressibility (1/GPa) = 0.02711364
#
# Stress axis : x y z
#
# Youngs Moduli (GPa) = 67.39045 43.38360 72.19313
#
# Poissons Ratio (x) = 0.04375 0.30916
# Poissons Ratio (y) = 0.06797 0.50699
# Poissons Ratio (z) = 0.28859 0.30467
#
# Static dielectric constant tensor:
#      x y z
#    x 4.356020 -0.023500 -0.221050 
#    y -0.023500 4.262780 0.009150 
#    z -0.221050 0.009150 5.051140 
# 
# 
# High freq. dielectric constant tensor:
#      x y z
#    x 1.964900 0.004640 -0.011160 
#    y 0.004640 1.954350 -0.009610 
#    z -0.011160 -0.009610 1.995830 
# 
# From -- ./inp_files/337581.got.cif
#   From: 2010.06.25/outbox.cif.g09.slc.cpg/sg2_169_cif.got.tgz:337581.got - 2010.06.27 13:26:56.
