data_PCOD8032015
_publ_section_title
;
Structure prediction by ZEFSAII (Michael W. Deem and Ramdas Pophale) SiO2 
 PCOD8032015
Probable space group: P -1
;
_chemical_formula_sum "Si O2"
_cell_formula_units_Z 16
_cell_length_a 9.897964
_cell_length_b 11.249414
_cell_length_c 9.192231
_cell_angle_alpha 100.294035
_cell_angle_beta 120.286550
_cell_angle_gamma 55.171258
_cell_volume 716.816390
_symmetry_space_group_name_H-M "P -1"
_symmetry_group_IT_number 2
_symmetry_cell_setting 'triclinic'
loop_
_space_group_symop_operation_xyz
x,y,z
-x,-y,-z
loop_
_atom_site_type_symbol
_atom_site_label
_atom_site_fract_x
_atom_site_fract_y
_atom_site_fract_z
Si Si1 0.045846 0.901980 0.800071
Si Si2 0.335666 0.396287 0.515780
Si Si3 0.495529 0.982555 0.821068
Si Si4 0.027343 0.575676 0.164125
Si Si5 0.799967 0.307434 0.405813
Si Si6 0.822944 0.703021 0.355968
Si Si7 0.682616 0.140078 0.492884
Si Si8 0.910537 0.860977 0.011388
O O1 0.204619 0.758977 0.765326
O O2 0.843888 0.989908 0.625932
O O3 0.033258 0.839363 0.932457
O O4 0.121858 0.004723 0.881354
O O5 0.232898 0.460993 0.319572
O O6 0.362613 0.517528 0.631405
O O7 0.192480 0.385108 0.540352
O O8 0.532059 0.242054 0.559385
O O9 0.376733 0.141552 0.719640
O O10 0.410356 0.892653 0.698963
O O11 0.500000 0.000000 0.000000
O O12 0.709350 0.895336 0.858428
O O13 0.860418 0.623028 0.202232
O O14 0.022829 0.715886 0.138216
O O15 0.000000 0.500000 0.000000
O O16 0.775401 0.221149 0.500913
O O17 0.004478 0.280167 0.527050
#
# Coordination Sequence:
#
# PCOD8032015 Si02
#       8
#     2   2   2   2   2   2   2   2
#     4  11  24  43  71  98 137 180 223 284 339 402
#     4  11  26  43  67 103 134 176 233 282 327 408
#     4  12  24  41  68 101 134 171 231 282 333 397
#     4  11  23  40  65  95 140 178 219 273 344 398
#     4  11  23  42  69  98 134 174 231 270 341 399
#     4  11  24  43  69 101 133 178 233 281 326 408
#     4  12  25  43  73  98 135 182 227 277 343 402
#     4  11  25  42  67 102 138 174 226 283 340 401
#
# _framework density 22.320917999999999
#
# number of rings (size 3 to 8) (size 9 to 14) (size 15 to 20)
#    0.000    0.750    2.500    6.000    5.250    1.000 
#    0.000    0.000    0.000    3.750    0.000    0.000 
#    0.000    0.000    0.000    0.000    0.000    0.000 
#
# Total GULP energy -198405.553924 kJ/mol
# GULP energy per Si atom -12400.347120 kJ/mol
# Density = 2.227011 g / cm^3
# Si number density = 22.320918 Si / 1000 Ang^3
#
#
#
# Elastic Constant Matrix: (Units=GPa)
#
#
# Indices 1 2 3 4 5 6 
#
# 1 95.7487 27.2594 35.7623 11.9215 -16.1598 15.8544
# 2 27.2594 101.0939 41.9311 23.1093 -14.0287 2.2992
# 3 35.7623 41.9311 89.0631 21.7701 -8.9005 16.7553
# 4 11.9215 23.1093 21.7701 45.7986 -5.7337 -4.8632
# 5 -16.1598 -14.0287 -8.9005 -5.7337 34.8800 0.4283
# 6 15.8544 2.2992 16.7553 -4.8632 0.4283 36.2916
#
#
#
# Elastic Compliance Matrix: (Units=1/GPa)
#
#
# Indices 1 2 3 4 5 6 
#
# 1 0.013781 -0.001294 -0.003246 -0.001275 0.004883 -0.004668
# 2 -0.001294 0.013485 -0.004931 -0.003597 0.002957 0.001471
# 3 -0.003246 -0.004931 0.017637 -0.005796 0.000149 -0.007191
# 4 -0.001275 -0.003597 -0.005796 0.027613 0.000935 0.007150
# 5 0.004883 0.002957 0.000149 0.000935 0.032345 -0.002646
# 6 -0.004668 0.001471 -0.007191 0.007150 -0.002646 0.033810
#
#
# Mechanical properties :
#
#
# Convention : Reuss Voigt Hill
#
# Bulk Modulus (GPa) = 38.52021 55.09014 46.80518
# Shear Modulus (GPa) = 30.07185 35.45757 32.76471
#
# Velocity S-wave (km/s) = 3.67447 3.98997 3.83547
# Velocity P-wave (km/s) = 5.94115 6.77945 6.37410
#
# Compressibility (1/GPa) = 0.02596040
#
# Stress axis : x y z
#
# Youngs Moduli (GPa) = 72.56427 74.15546 56.69763
#
# Poissons Ratio (x) = 0.09596 0.18406
# Poissons Ratio (y) = 0.09390 0.27959
# Poissons Ratio (z) = 0.23557 0.36567
#
# Static dielectric constant tensor:
#      x y z
#    x 4.005500 -0.043950 -0.084990 
#    y -0.043950 4.379450 0.214510 
#    z -0.084990 0.214510 4.038760 
# 
# 
# High freq. dielectric constant tensor:
#      x y z
#    x 1.877810 0.003000 -0.013350 
#    y 0.003000 1.893060 0.011190 
#    z -0.013350 0.011190 1.870900 
# 
# From -- ./inp_files/188792.got.cif
#   From: 2010.06.25/outbox.cif.g09.slc.cpg/sg2_95_cif.got.tgz:188792.got - 2010.06.27 13:26:56.
