data_PCOD8032028
_publ_section_title
;
Structure prediction by ZEFSAII (Michael W. Deem and Ramdas Pophale) SiO2 
 PCOD8032028
Probable space group: P -1
;
_chemical_formula_sum "Si O2"
_cell_formula_units_Z 16
_cell_length_a 11.945858
_cell_length_b 17.674024
_cell_length_c 19.948779
_cell_angle_alpha 159.806274
_cell_angle_beta 147.786769
_cell_angle_gamma 41.088792
_cell_volume 756.150203
_symmetry_space_group_name_H-M "P -1"
_symmetry_group_IT_number 2
_symmetry_cell_setting 'triclinic'
loop_
_space_group_symop_operation_xyz
x,y,z
-x,-y,-z
loop_
_atom_site_type_symbol
_atom_site_label
_atom_site_fract_x
_atom_site_fract_y
_atom_site_fract_z
Si Si1 0.810495 0.565034 0.885806
Si Si2 0.581752 0.893364 0.122243
Si Si3 0.820878 0.072872 0.513391
Si Si4 0.993646 0.159454 0.066452
Si Si5 0.701659 0.874936 0.569538
Si Si6 0.212954 0.913712 0.347372
Si Si7 0.807518 0.430782 0.295616
Si Si8 0.517015 0.657532 0.576217
O O1 0.849638 0.344366 0.761670
O O2 0.614523 0.489120 0.672004
O O3 0.752621 0.755132 0.064759
O O4 0.030457 0.681809 0.055543
O O5 0.609214 0.962733 0.272809
O O6 0.585962 0.126650 0.278432
O O7 0.343816 0.746034 0.879734
O O8 0.818768 0.967576 0.498986
O O9 0.000000 0.000000 0.500000
O O10 0.882300 0.353356 0.197976
O O11 0.234426 0.260829 0.248908
O O12 0.843598 0.044319 0.834425
O O13 0.000000 0.000000 0.000000
O O14 0.453231 0.878372 0.442494
O O15 0.689627 0.625707 0.380081
O O16 0.811467 0.928303 0.596395
O O17 0.000000 0.500000 0.500000
O O18 0.500000 0.500000 0.500000
#
# Coordination Sequence:
#
# PCOD8032028 Si02
#       8
#     2   2   2   2   2   2   2   2
#     4  11  24  41  68  97 133 177 223 280 336 406
#     4  11  23  40  66  99 127 172 228 275 332 406
#     4  11  23  41  65  95 126 173 221 270 332 404
#     4  12  23  45  69  96 135 178 232 280 330 408
#     4  11  26  44  66 100 138 179 225 278 340 405
#     4  11  24  46  65  98 144 175 219 282 343 412
#     4  12  23  40  70  97 129 177 231 276 332 400
#     4  11  25  43  66 100 137 173 225 289 343 395
#
# _framework density 21.159817
#
# number of rings (size 3 to 8) (size 9 to 14) (size 15 to 20)
#    0.000    0.750    3.750    3.375    3.500    1.500 
#    2.250    1.875    0.000    0.000    0.000    0.000 
#    0.000    0.000    0.000    0.000    0.000    0.000 
#
# Total GULP energy -198304.568516 kJ/mol
# GULP energy per Si atom -12394.035532 kJ/mol
# Density = 2.111166 g / cm^3
# Si number density = 21.159817 Si / 1000 Ang^3
#
#
#
# Elastic Constant Matrix: (Units=GPa)
#
#
# Indices 1 2 3 4 5 6 
#
# 1 133.5764 52.2922 53.0825 9.6985 -0.9291 9.2115
# 2 52.2922 95.8378 43.1384 8.1990 -6.1440 9.2742
# 3 53.0825 43.1384 133.2474 -9.1144 3.4632 5.6674
# 4 9.6985 8.1990 -9.1144 34.7863 -8.7288 1.2189
# 5 -0.9291 -6.1440 3.4632 -8.7288 42.1136 -0.6147
# 6 9.2115 9.2742 5.6674 1.2189 -0.6147 39.7725
#
#
#
# Elastic Compliance Matrix: (Units=1/GPa)
#
#
# Indices 1 2 3 4 5 6 
#
# 1 0.010570 -0.004111 -0.003019 -0.002920 -0.000738 -0.000981
# 2 -0.004111 0.014666 -0.003257 -0.002661 0.001737 -0.001895
# 3 -0.003019 -0.003257 0.010062 0.004120 -0.000517 -0.000109
# 4 -0.002920 -0.002661 0.004120 0.032780 0.006000 -0.000202
# 5 -0.000738 0.001737 -0.000517 0.006000 0.025269 0.000046
# 6 -0.000981 -0.001895 -0.000109 -0.000202 0.000046 0.025835
#
#
# Mechanical properties :
#
#
# Convention : Reuss Voigt Hill
#
# Bulk Modulus (GPa) = 68.85045 73.29865 71.07455
# Shear Modulus (GPa) = 34.53131 37.61104 36.07118
#
# Velocity S-wave (km/s) = 4.04410 4.22058 4.13328
# Velocity P-wave (km/s) = 7.37667 7.64636 7.51272
#
# Compressibility (1/GPa) = 0.01452423
#
# Stress axis : x y z
#
# Youngs Moduli (GPa) = 94.60878 68.18552 99.38720
#
# Poissons Ratio (x) = 0.28032 0.30001
# Poissons Ratio (y) = 0.38894 0.32369
# Poissons Ratio (z) = 0.28559 0.22207
#
# Static dielectric constant tensor:
#      x y z
#    x 3.933760 0.008790 -0.193490 
#    y 0.008790 3.726370 -0.054760 
#    z -0.193490 -0.054760 4.300110 
# 
# 
# High freq. dielectric constant tensor:
#      x y z
#    x 1.827390 -0.002670 0.000650 
#    y -0.002670 1.835280 -0.019760 
#    z 0.000650 -0.019760 1.851450 
# 
# From -- ./inp_files/472383.got.cif
#   From: 2010.06.25/outbox.cif.g09.slc.cpg/sg2_237_cif.got.tgz:472383.got - 2010.06.27 13:26:56.
