data_PCOD8032580
_publ_section_title
;
Structure prediction by ZEFSAII (Michael W. Deem and Ramdas Pophale) SiO2 
 PCOD8032580
Probable space group: P -1
;
_chemical_formula_sum "Si O2"
_cell_formula_units_Z 16
_cell_length_a 9.173507
_cell_length_b 23.942157
_cell_length_c 8.179210
_cell_angle_alpha 47.048101
_cell_angle_beta 31.150228
_cell_angle_gamma 46.386592
_cell_volume 652.610031
_symmetry_space_group_name_H-M "P -1"
_symmetry_group_IT_number 2
_symmetry_cell_setting 'triclinic'
loop_
_space_group_symop_operation_xyz
x,y,z
-x,-y,-z
loop_
_atom_site_type_symbol
_atom_site_label
_atom_site_fract_x
_atom_site_fract_y
_atom_site_fract_z
Si Si1 0.889310 0.003061 0.785313
Si Si2 0.296604 0.093034 0.317367
Si Si3 0.671407 0.497722 0.507071
Si Si4 0.137238 0.753777 0.726939
Si Si5 0.740505 0.648446 0.307116
Si Si6 0.306550 0.762952 0.909259
Si Si7 0.293487 0.404519 0.189923
Si Si8 0.743722 0.857213 0.382078
O O1 0.154507 0.018815 0.606636
O O2 0.588380 0.073675 0.964039
O O3 0.000000 0.000000 0.500000
O O4 0.825102 0.921659 0.059113
O O5 0.375902 0.109050 0.393979
O O6 0.049311 0.166222 0.335412
O O7 0.500000 0.500000 0.500000
O O8 0.708655 0.584167 0.334808
O O9 0.994266 0.435638 0.312380
O O10 0.477859 0.469144 0.886446
O O11 0.471537 0.729007 0.392292
O O12 0.131911 0.765435 0.902993
O O13 0.024244 0.677780 0.939805
O O14 0.774759 0.609488 0.530332
O O15 0.518143 0.675922 0.919279
O O16 0.492691 0.826718 0.597385
O O17 0.049754 0.786316 0.246542
#
# Coordination Sequence:
#
# PCOD8032580 Si02
#       8
#     2   2   2   2   2   2   2   2
#     4  12  26  45  71 103 139 183 232 282 334 407
#     4  12  26  46  70 103 140 179 225 285 348 405
#     4  12  25  41  65  98 134 172 221 281 340 402
#     4  11  24  43  67  98 132 174 228 282 333 403
#     4  11  23  43  67  94 130 178 226 277 334 403
#     4  11  24  44  69  99 133 179 231 280 337 411
#     4  11  23  43  66  93 131 177 224 273 332 405
#     4  12  25  45  71 102 140 182 225 284 348 408
#
# _framework density 24.516939000000001
#
# number of rings (size 3 to 8) (size 9 to 14) (size 15 to 20)
#    0.000    0.500    0.000    9.750    0.000    6.000 
#    0.000    0.000    0.000    0.000    0.000    0.000 
#    0.000    0.000    0.000    0.000    0.000    0.000 
#
# Total GULP energy -198461.764296 kJ/mol
# GULP energy per Si atom -12403.860269 kJ/mol
# Density = 2.446114 g / cm^3
# Si number density = 24.516939 Si / 1000 Ang^3
#
#
#
# Elastic Constant Matrix: (Units=GPa)
#
#
# Indices 1 2 3 4 5 6 
#
# 1 111.3673 66.7493 42.8765 6.7362 -19.0747 10.8519
# 2 66.7493 92.3039 21.4763 11.4520 -0.0225 6.1887
# 3 42.8765 21.4763 113.2601 0.4893 -17.5596 8.9934
# 4 6.7362 11.4520 0.4893 43.7445 12.3947 -10.2020
# 5 -19.0747 -0.0225 -17.5596 12.3947 38.0163 -6.2237
# 6 10.8519 6.1887 8.9934 -10.2020 -6.2237 36.7078
#
#
#
# Elastic Compliance Matrix: (Units=1/GPa)
#
#
# Indices 1 2 3 4 5 6 
#
# 1 0.020265 -0.013359 -0.003563 -0.002624 0.009032 -0.002063
# 2 -0.013359 0.020747 0.000275 -0.001916 -0.006133 -0.001188
# 3 -0.003563 0.000275 0.010736 -0.000868 0.003239 -0.001316
# 4 -0.002624 -0.001916 -0.000868 0.028281 -0.009707 0.007526
# 5 0.009032 -0.006133 0.003239 -0.009707 0.035644 0.000916
# 6 -0.002063 -0.001188 -0.001316 0.007526 0.000916 0.030622
#
#
# Mechanical properties :
#
#
# Convention : Reuss Voigt Hill
#
# Bulk Modulus (GPa) = 54.19068 64.34839 59.26954
# Shear Modulus (GPa) = 26.91944 36.08234 31.50089
#
# Velocity S-wave (km/s) = 3.31719 3.84048 3.58839
# Velocity P-wave (km/s) = 6.06820 6.78006 6.43398
#
# Compressibility (1/GPa) = 0.01845336
#
# Stress axis : x y z
#
# Youngs Moduli (GPa) = 49.34639 48.20084 93.14236
#
# Poissons Ratio (x) = 0.64394 0.33186
# Poissons Ratio (y) = 0.65924 -0.02563
# Poissons Ratio (z) = 0.17582 -0.01327
#
# Static dielectric constant tensor:
#      x y z
#    x 4.164230 0.080710 -0.305900 
#    y 0.080710 4.763940 0.052650 
#    z -0.305900 0.052650 4.738760 
# 
# 
# High freq. dielectric constant tensor:
#      x y z
#    x 1.962880 0.001380 -0.023090 
#    y 0.001380 1.991540 0.004600 
#    z -0.023090 0.004600 1.989830 
# 
# From -- ./inp_files/226036.got.cif
#   From: 2010.06.25/outbox.cif.g09.slc.cpg/sg2_114_cif.got.tgz:226036.got - 2010.06.27 13:26:56.
