data_PCOD8032603
_publ_section_title
;
Structure prediction by ZEFSAII (Michael W. Deem and Ramdas Pophale) SiO2 
 PCOD8032603
Probable space group: P -1
;
_chemical_formula_sum "Si O2"
_cell_formula_units_Z 16
_cell_length_a 11.930496
_cell_length_b 12.074741
_cell_length_c 13.284305
_cell_angle_alpha 119.601831
_cell_angle_beta 98.003159
_cell_angle_gamma 32.599482
_cell_volume 723.051949
_symmetry_space_group_name_H-M "P -1"
_symmetry_group_IT_number 2
_symmetry_cell_setting 'triclinic'
loop_
_space_group_symop_operation_xyz
x,y,z
-x,-y,-z
loop_
_atom_site_type_symbol
_atom_site_label
_atom_site_fract_x
_atom_site_fract_y
_atom_site_fract_z
Si Si1 0.388527 0.916466 0.006157
Si Si2 0.111862 0.419176 0.086799
Si Si3 0.781292 0.087496 0.639190
Si Si4 0.220316 0.818338 0.649854
Si Si5 0.202018 0.145666 0.300197
Si Si6 0.761096 0.970487 0.377394
Si Si7 0.739103 0.235793 0.136873
Si Si8 0.643142 0.800525 0.523948
O O1 0.197172 0.200904 0.048892
O O2 0.312813 0.970784 0.136146
O O3 0.669088 0.694508 0.940834
O O4 0.376174 0.789130 0.899425
O O5 0.905432 0.689461 0.258366
O O6 0.000000 0.500000 0.000000
O O7 0.488911 0.435301 0.772532
O O8 0.833818 0.925069 0.652759
O O9 0.841285 0.971532 0.484435
O O10 0.991753 0.983592 0.634064
O O11 0.500000 0.500000 0.500000
O O12 0.187273 0.819138 0.762526
O O13 0.194018 0.995669 0.704114
O O14 0.392730 0.062120 0.328058
O O15 0.938581 0.482329 0.389810
O O16 0.463336 0.230087 0.470008
O O17 0.000000 0.000000 0.000000
O O18 0.500000 0.000000 0.500000
#
# Coordination Sequence:
#
# PCOD8032603 Si02
#       8
#     2   2   2   2   2   2   2   2
#     4  11  26  45  70 100 142 182 239 286 362 437
#     4  11  25  46  70 103 137 184 232 297 365 430
#     4  12  27  46  70 109 142 188 246 301 359 434
#     4  12  26  46  73 106 143 189 244 299 363 428
#     4  11  25  42  71 102 143 183 233 295 358 432
#     4  12  24  43  75 100 143 180 238 298 360 426
#     4  12  29  49  73 103 149 197 243 303 366 437
#     4  11  23  43  67 107 142 185 231 293 361 429
#
# _framework density 22.128423000000002
#
# number of rings (size 3 to 8) (size 9 to 14) (size 15 to 20)
#    0.000    0.500    2.500    4.875    5.250    6.000 
#    0.000    0.000    0.000    0.000    0.000    0.000 
#    0.000    0.000    0.000    0.000    0.000    0.000 
#
# Total GULP energy -198416.891809 kJ/mol
# GULP energy per Si atom -12401.055738 kJ/mol
# Density = 2.207806 g / cm^3
# Si number density = 22.128423 Si / 1000 Ang^3
#
#
#
# Elastic Constant Matrix: (Units=GPa)
#
#
# Indices 1 2 3 4 5 6 
#
# 1 121.8979 46.5196 17.3742 -5.0507 3.0407 -6.7230
# 2 46.5196 134.4899 49.7233 0.3767 0.0074 -3.0387
# 3 17.3742 49.7233 114.9510 -6.6185 4.6836 -5.7887
# 4 -5.0507 0.3767 -6.6185 33.7565 4.0035 2.7945
# 5 3.0407 0.0074 4.6836 4.0035 39.4219 -4.4621
# 6 -6.7230 -3.0387 -5.7887 2.7945 -4.4621 43.4918
#
#
#
# Elastic Compliance Matrix: (Units=1/GPa)
#
#
# Indices 1 2 3 4 5 6 
#
# 1 0.009606 -0.003369 0.000180 0.001513 -0.000791 0.001095
# 2 -0.003369 0.010071 -0.003976 -0.001485 0.000863 -0.000162
# 3 0.000180 -0.003976 0.010623 0.002248 -0.001404 0.000875
# 4 0.001513 -0.001485 0.002248 0.030912 -0.003743 -0.001941
# 5 -0.000791 0.000863 -0.001404 -0.003743 0.026279 0.002688
# 6 0.001095 -0.000162 0.000875 -0.001941 0.002688 0.023668
#
#
# Mechanical properties :
#
#
# Convention : Reuss Voigt Hill
#
# Bulk Modulus (GPa) = 62.61604 66.50811 64.56208
# Shear Modulus (GPa) = 38.22264 40.51550 39.36907
#
# Velocity S-wave (km/s) = 4.16060 4.28357 4.22253
# Velocity P-wave (km/s) = 7.17209 7.38824 7.28097
#
# Compressibility (1/GPa) = 0.01597035
#
# Stress axis : x y z
#
# Youngs Moduli (GPa) = 104.09713 99.29291 94.13685
#
# Poissons Ratio (x) = 0.33449 -0.01692
# Poissons Ratio (y) = 0.35068 0.37430
# Poissons Ratio (z) = -0.01871 0.39480
#
# Static dielectric constant tensor:
#      x y z
#    x 4.242120 -0.089240 0.027100 
#    y -0.089240 4.369960 -0.045360 
#    z 0.027100 -0.045360 4.052350 
# 
# 
# High freq. dielectric constant tensor:
#      x y z
#    x 1.891200 -0.003500 0.003360 
#    y -0.003500 1.884630 -0.000860 
#    z 0.003360 -0.000860 1.872760 
# 
# From -- ./inp_files/519850.got.cif
#   From: 2010.06.25/outbox.cif.g09.slc.cpg/sg2_260_cif.got.tgz:519850.got - 2010.06.27 13:26:56.
