data_PCOD8032678
_publ_section_title
;
Structure prediction by ZEFSAII (Michael W. Deem and Ramdas Pophale) SiO2 
 PCOD8032678
Probable space group: P -1
;
_chemical_formula_sum "Si O2"
_cell_formula_units_Z 16
_cell_length_a 15.007261
_cell_length_b 11.973963
_cell_length_c 7.301002
_cell_angle_alpha 106.253018
_cell_angle_beta 112.171466
_cell_angle_gamma 129.391835
_cell_volume 646.001497
_symmetry_space_group_name_H-M "P -1"
_symmetry_group_IT_number 2
_symmetry_cell_setting 'triclinic'
loop_
_space_group_symop_operation_xyz
x,y,z
-x,-y,-z
loop_
_atom_site_type_symbol
_atom_site_label
_atom_site_fract_x
_atom_site_fract_y
_atom_site_fract_z
Si Si1 0.406075 0.506820 0.034252
Si Si2 0.798974 0.799363 0.933709
Si Si3 0.237952 0.704970 0.295647
Si Si4 0.112884 0.690794 0.545841
Si Si5 0.045625 0.269681 0.969473
Si Si6 0.958233 0.785936 0.465951
Si Si7 0.618533 0.051187 0.842941
Si Si8 0.679884 0.884728 0.643371
O O1 0.554790 0.751723 0.307845
O O2 0.500000 0.500000 0.000000
O O3 0.342757 0.391024 0.123665
O O4 0.250774 0.411712 0.754198
O O5 0.878504 0.765078 0.872594
O O6 0.703633 0.781953 0.702024
O O7 0.944351 0.017904 0.255858
O O8 0.110359 0.654677 0.307956
O O9 0.247367 0.755751 0.114504
O O10 0.429546 0.918400 0.625266
O O11 0.178987 0.511037 0.168804
O O12 0.000000 0.500000 0.500000
O O13 0.037046 0.740670 0.556375
O O14 0.307196 0.865996 0.855581
O O15 0.010416 0.168039 0.704237
O O16 0.863858 0.128544 0.844698
O O17 0.592741 0.887886 0.713874
#
# Coordination Sequence:
#
# PCOD8032678 Si02
#       8
#     2   2   2   2   2   2   2   2
#     4  11  24  43  67 103 140 184 236 287 359 422
#     4  11  23  43  69  99 140 179 231 292 356 423
#     4  11  26  46  74 105 142 192 236 304 357 426
#     4  12  25  45  71 105 144 190 244 290 358 431
#     4  11  23  43  71  99 138 183 234 283 363 428
#     4  11  23  44  68  99 139 186 233 289 350 427
#     4  11  24  47  72 105 145 183 245 298 361 422
#     4  12  23  42  69 102 138 181 228 298 357 421
#
# _framework density 24.767745000000001
#
# number of rings (size 3 to 8) (size 9 to 14) (size 15 to 20)
#    0.000    0.750    1.250    7.875    0.000    2.500 
#    2.250    0.000    0.000    0.000    0.000    0.000 
#    0.000    0.000    0.000    0.000    0.000    0.000 
#
# Total GULP energy -198310.900928 kJ/mol
# GULP energy per Si atom -12394.431308 kJ/mol
# Density = 2.471137 g / cm^3
# Si number density = 24.767745 Si / 1000 Ang^3
#
#
#
# Elastic Constant Matrix: (Units=GPa)
#
#
# Indices 1 2 3 4 5 6 
#
# 1 93.1711 17.1682 16.0524 13.3072 1.7223 -3.4942
# 2 17.1682 84.5171 26.2965 10.3794 2.5057 -17.4814
# 3 16.0524 26.2965 79.7613 3.9780 -6.8893 -7.0624
# 4 13.3072 10.3794 3.9780 37.7923 -3.2157 -2.7291
# 5 1.7223 2.5057 -6.8893 -3.2157 41.4584 2.2962
# 6 -3.4942 -17.4814 -7.0624 -2.7291 2.2962 44.5749
#
#
#
# Elastic Compliance Matrix: (Units=1/GPa)
#
#
# Indices 1 2 3 4 5 6 
#
# 1 0.011845 -0.001365 -0.001842 -0.003692 -0.000998 -0.000073
# 2 -0.001365 0.014879 -0.004218 -0.002976 -0.002050 0.004983
# 3 -0.001842 -0.004218 0.014546 0.000540 0.002769 0.000396
# 4 -0.003692 -0.002976 0.000540 0.028764 0.002640 0.000254
# 5 -0.000998 -0.002050 0.002769 0.002640 0.025038 -0.001572
# 6 -0.000073 0.004983 0.000396 0.000254 -0.001572 0.024542
#
#
# Mechanical properties :
#
#
# Convention : Reuss Voigt Hill
#
# Bulk Modulus (GPa) = 37.85183 41.83152 39.84168
# Shear Modulus (GPa) = 34.89896 37.96061 36.42979
#
# Velocity S-wave (km/s) = 3.75780 3.91917 3.83933
# Velocity P-wave (km/s) = 5.84329 6.11605 5.98122
#
# Compressibility (1/GPa) = 0.02641880
#
# Stress axis : x y z
#
# Youngs Moduli (GPa) = 84.42433 67.21056 68.74673
#
# Poissons Ratio (x) = 0.09174 0.12666
# Poissons Ratio (y) = 0.11524 0.28998
# Poissons Ratio (z) = 0.15554 0.28350
#
# Static dielectric constant tensor:
#      x y z
#    x 4.365970 0.469060 0.157650 
#    y 0.469060 3.005400 -0.570270 
#    z 0.157650 -0.570270 4.315720 
# 
# 
# High freq. dielectric constant tensor:
#      x y z
#    x 2.000250 -0.013060 0.010300 
#    y -0.013060 1.974730 0.002510 
#    z 0.010300 0.002510 1.996540 
# 
# From -- ./inp_files/308344.got.cif
#   From: 2010.06.25/outbox.cif.g09.slc.cpg/sg2_155_cif.got.tgz:308344.got - 2010.06.27 13:26:56.
