data_PCOD8032333
_publ_section_title
;
Structure prediction by ZEFSAII (Michael W. Deem and Ramdas Pophale) SiO2 
 PCOD8032333
Probable space group: P -1
;
_chemical_formula_sum "Si O2"
_cell_formula_units_Z 14
_cell_length_a 25.065975
_cell_length_b 8.533973
_cell_length_c 9.160454
_cell_angle_alpha 130.382675
_cell_angle_beta 40.417397
_cell_angle_gamma 149.406621
_cell_volume 646.427668
_symmetry_space_group_name_H-M "P -1"
_symmetry_group_IT_number 2
_symmetry_cell_setting 'triclinic'
loop_
_space_group_symop_operation_xyz
x,y,z
-x,-y,-z
loop_
_atom_site_type_symbol
_atom_site_label
_atom_site_fract_x
_atom_site_fract_y
_atom_site_fract_z
Si Si1 0.697152 0.819545 0.007979
Si Si2 0.272074 0.983237 0.248058
Si Si3 0.176271 0.239414 0.661153
Si Si4 0.102225 0.307337 0.154701
Si Si5 0.723471 0.221575 0.406579
Si Si6 0.857117 0.731183 0.648618
Si Si7 0.541683 0.846136 0.802433
O O1 0.573971 0.518624 0.163068
O O2 0.763906 0.105311 0.150860
O O3 0.789884 0.805939 0.767026
O O4 0.661252 0.855283 0.949665
O O5 0.146222 0.625923 0.256984
O O6 0.236857 0.130202 0.488723
O O7 0.360717 0.024230 0.195991
O O8 0.273450 0.567695 0.573305
O O9 0.149619 0.277810 0.897959
O O10 0.045926 0.982301 0.691166
O O11 0.173079 0.328837 0.153324
O O12 0.815157 0.440657 0.482597
O O13 0.593461 0.928367 0.578185
O O14 0.000000 0.000000 0.500000
O O15 0.500000 0.000000 0.000000
#
# Coordination Sequence:
#
# PCOD8032333 Si02
#       7
#     2   2   2   2   2   2   2
#     4  12  26  45  68 102 137 178 230 276 338 402
#     4  12  23  44  70  98 133 178 226 278 339 396
#     4  11  24  43  66 102 138 177 223 278 336 407
#     4  11  23  42  67 100 141 177 221 276 341 396
#     4  12  24  45  67 100 139 176 228 275 335 398
#     4  12  24  45  71 100 140 178 222 281 337 402
#     4  12  25  48  71  95 136 181 228 283 336 396
#
# _framework density 21.657489000000002
#
# number of rings (size 3 to 8) (size 9 to 14) (size 15 to 20)
#    0.000    0.286    7.143    1.286    2.000    0.571 
#    2.571    1.429    0.000    0.000    0.000    0.000 
#    0.000    0.000    0.000    0.000    0.000    0.000 
#
# Total GULP energy -173555.838697 kJ/mol
# GULP energy per Si atom -12396.845621 kJ/mol
# Density = 2.160820 g / cm^3
# Si number density = 21.657489 Si / 1000 Ang^3
#
#
#
# Elastic Constant Matrix: (Units=GPa)
#
#
# Indices 1 2 3 4 5 6 
#
# 1 122.8843 40.1769 51.1967 4.8255 4.0550 -2.8391
# 2 40.1769 127.1835 54.3826 9.0835 -5.9294 -10.1543
# 3 51.1967 54.3826 117.5800 8.2933 3.3591 -0.5655
# 4 4.8255 9.0835 8.2933 41.0961 -0.2813 8.8231
# 5 4.0550 -5.9294 3.3591 -0.2813 29.6119 -1.3027
# 6 -2.8391 -10.1543 -0.5655 8.8231 -1.3027 34.4993
#
#
#
# Elastic Compliance Matrix: (Units=1/GPa)
#
#
# Indices 1 2 3 4 5 6 
#
# 1 0.010267 -0.001723 -0.003623 -0.000160 -0.001330 0.000269
# 2 -0.001723 0.010757 -0.004146 -0.002092 0.002999 0.003605
# 3 -0.003623 -0.004146 0.012105 -0.000863 -0.001767 -0.001166
# 4 -0.000160 -0.002092 -0.000863 0.026587 -0.000374 -0.007457
# 5 -0.001330 0.002999 -0.001767 -0.000374 0.034844 0.002156
# 6 0.000269 0.003605 -0.001166 -0.007457 0.002156 0.032039
#
#
# Mechanical properties :
#
#
# Convention : Reuss Voigt Hill
#
# Bulk Modulus (GPa) = 70.69263 73.24001 71.96632
# Shear Modulus (GPa) = 33.26738 35.83422 34.55080
#
# Velocity S-wave (km/s) = 3.92352 4.07208 3.99849
# Velocity P-wave (km/s) = 7.29640 7.48331 7.39044
#
# Compressibility (1/GPa) = 0.01414575
#
# Stress axis : x y z
#
# Youngs Moduli (GPa) = 97.40040 92.96590 82.60769
#
# Poissons Ratio (x) = 0.16020 0.29927
# Poissons Ratio (y) = 0.16785 0.34245
# Poissons Ratio (z) = 0.35286 0.38540
#
# Static dielectric constant tensor:
#      x y z
#    x 4.492580 -0.425410 0.449040 
#    y -0.425410 4.456660 -0.136720 
#    z 0.449040 -0.136720 3.929370 
# 
# 
# High freq. dielectric constant tensor:
#      x y z
#    x 1.849730 -0.015210 0.028450 
#    y -0.015210 1.864660 0.004980 
#    z 0.028450 0.004980 1.853910 
# 
# From -- ./inp_files/188979.got.cif
#   From: 2010.06.25/outbox.cif.g09.slc.cpg/sg2_95_cif.got.tgz:188979.got - 2010.06.27 13:26:56.
