data_PCOD8032770
_publ_section_title
;
Structure prediction by ZEFSAII (Michael W. Deem and Ramdas Pophale) SiO2 
 PCOD8032770
Probable space group: P -1
;
_chemical_formula_sum "Si O2"
_cell_formula_units_Z 16
_cell_length_a 9.663868
_cell_length_b 9.686479
_cell_length_c 11.169548
_cell_angle_alpha 69.346982
_cell_angle_beta 73.841442
_cell_angle_gamma 117.103613
_cell_volume 740.167263
_symmetry_space_group_name_H-M "P -1"
_symmetry_group_IT_number 2
_symmetry_cell_setting 'triclinic'
loop_
_space_group_symop_operation_xyz
x,y,z
-x,-y,-z
loop_
_atom_site_type_symbol
_atom_site_label
_atom_site_fract_x
_atom_site_fract_y
_atom_site_fract_z
Si Si1 0.242900 0.254325 0.107250
Si Si2 0.948475 0.106525 0.404244
Si Si3 0.200420 0.059503 0.948471
Si Si4 0.123972 0.492646 0.376367
Si Si5 0.425066 0.652573 0.865868
Si Si6 0.471645 0.151644 0.460927
Si Si7 0.522384 0.364009 0.608454
Si Si8 0.680278 0.178353 0.963230
O O1 0.379532 0.300047 0.168220
O O2 0.041811 0.149380 0.239688
O O3 0.262481 0.134781 0.045221
O O4 0.277544 0.431580 0.980909
O O5 0.000786 0.291678 0.401992
O O6 0.738999 0.953851 0.474588
O O7 0.000000 0.000000 0.500000
O O8 0.341541 0.223569 0.773120
O O9 0.201555 0.882526 0.991788
O O10 0.000000 0.000000 0.000000
O O11 0.296962 0.520900 0.387680
O O12 0.197832 0.655760 0.211856
O O13 0.000000 0.500000 0.500000
O O14 0.415582 0.699874 0.717545
O O15 0.378867 0.757097 0.932674
O O16 0.546285 0.251562 0.539782
O O17 0.500000 0.000000 0.500000
O O18 0.500000 0.500000 0.500000
O O19 0.500000 0.000000 0.000000
#
# Coordination Sequence:
#
# PCOD8032770 Si02
#       8
#     2   2   2   2   2   2   2   2
#     4  11  23  43  72 102 134 177 240 285 347 411
#     4  12  25  45  71 106 139 181 239 288 342 428
#     4  12  27  45  72 103 142 184 232 293 365 417
#     4  12  28  46  74 108 139 188 242 290 354 419
#     4  11  23  44  72 100 134 185 232 287 346 415
#     4  12  26  44  70  99 143 183 226 285 358 412
#     4  12  26  47  69 104 146 183 232 291 356 420
#     4  12  24  47  74 101 139 184 243 295 343 428
#
# _framework density 21.616737000000001
#
# number of rings (size 3 to 8) (size 9 to 14) (size 15 to 20)
#    0.000    0.250    5.000    3.750    7.000    0.000 
#    2.250    1.250    0.000    0.000    0.000    0.000 
#    0.000    0.000    0.000    0.000    0.000    0.000 
#
# Total GULP energy -198438.192160 kJ/mol
# GULP energy per Si atom -12402.387010 kJ/mol
# Density = 2.156754 g / cm^3
# Si number density = 21.616737 Si / 1000 Ang^3
#
#
#
# Elastic Constant Matrix: (Units=GPa)
#
#
# Indices 1 2 3 4 5 6 
#
# 1 89.6219 -9.3469 23.8387 -8.5468 4.7970 -18.6803
# 2 -9.3469 86.2060 17.7871 10.2561 -2.5400 -19.8985
# 3 23.8387 17.7871 145.1790 6.3150 -3.4260 -12.7756
# 4 -8.5468 10.2561 6.3150 41.4635 -8.3011 2.9609
# 5 4.7970 -2.5400 -3.4260 -8.3011 33.3920 1.2103
# 6 -18.6803 -19.8985 -12.7756 2.9609 1.2103 38.6969
#
#
#
# Elastic Compliance Matrix: (Units=1/GPa)
#
#
# Indices 1 2 3 4 5 6 
#
# 1 0.013957 0.003534 -0.002144 0.001393 -0.001892 0.007800
# 2 0.003534 0.014784 -0.001454 -0.003505 -0.000734 0.009119
# 3 -0.002144 -0.001454 0.007553 -0.001157 0.000656 0.000779
# 4 0.001393 -0.003505 -0.001157 0.026970 0.006256 -0.003771
# 5 -0.001892 -0.000734 0.000656 0.006256 0.031878 -0.002550
# 6 0.007800 0.009119 0.000779 -0.003771 -0.002550 0.034922
#
#
# Mechanical properties :
#
#
# Convention : Reuss Voigt Hill
#
# Bulk Modulus (GPa) = 27.64998 42.84051 35.24525
# Shear Modulus (GPa) = 35.15074 41.95899 38.55486
#
# Velocity S-wave (km/s) = 4.03685 4.41051 4.22781
# Velocity P-wave (km/s) = 5.87767 6.76742 6.33818
#
# Compressibility (1/GPa) = 0.03616639
#
# Stress axis : x y z
#
# Youngs Moduli (GPa) = 71.65029 67.64212 132.40587
#
# Poissons Ratio (x) = -0.23908 0.28383
# Poissons Ratio (y) = -0.25324 0.19252
# Poissons Ratio (z) = 0.15359 0.09835
#
# Static dielectric constant tensor:
#      x y z
#    x 3.913330 -0.160510 0.044990 
#    y -0.160510 4.007580 -0.053470 
#    z 0.044990 -0.053470 4.195220 
# 
# 
# High freq. dielectric constant tensor:
#      x y z
#    x 1.852650 -0.012860 -0.000090 
#    y -0.012860 1.861070 0.001380 
#    z -0.000090 0.001380 1.870780 
# 
# From -- ./inp_files/261714.got.cif
#   From: 2010.06.25/outbox.cif.g09.slc.cpg/sg2_131_cif.got.tgz:261714.got - 2010.06.27 13:26:56.
