data_PCOD8032174
_publ_section_title
;
Structure prediction by ZEFSAII (Michael W. Deem and Ramdas Pophale) SiO2 
 PCOD8032174
Probable space group: P -1
;
_chemical_formula_sum "Si O2"
_cell_formula_units_Z 16
_cell_length_a 14.392159
_cell_length_b 8.110721
_cell_length_c 6.640915
_cell_angle_alpha 72.734659
_cell_angle_beta 81.243557
_cell_angle_gamma 105.116594
_cell_volume 692.128227
_symmetry_space_group_name_H-M "P -1"
_symmetry_group_IT_number 2
_symmetry_cell_setting 'triclinic'
loop_
_space_group_symop_operation_xyz
x,y,z
-x,-y,-z
loop_
_atom_site_type_symbol
_atom_site_label
_atom_site_fract_x
_atom_site_fract_y
_atom_site_fract_z
Si Si1 0.977234 0.811730 0.968603
Si Si2 0.915746 0.350765 0.691674
Si Si3 0.316702 0.156724 0.288520
Si Si4 0.246266 0.690017 0.960350
Si Si5 0.856074 0.132899 0.399313
Si Si6 0.396400 0.479627 0.435793
Si Si7 0.258034 0.354243 0.891295
Si Si8 0.605481 0.121038 0.845185
O O1 0.032513 0.848192 0.719200
O O2 0.861179 0.703955 0.039581
O O3 0.031497 0.702774 0.119074
O O4 0.000000 0.000000 0.000000
O O5 0.861437 0.195721 0.606548
O O6 0.000000 0.500000 0.500000
O O7 0.832550 0.418739 0.801662
O O8 0.388181 0.341199 0.301575
O O9 0.216595 0.076829 0.486491
O O10 0.364365 0.993184 0.304065
O O11 0.293012 0.207032 0.052742
O O12 0.194839 0.756980 0.767760
O O13 0.300239 0.550943 0.913913
O O14 0.324498 0.858462 0.988639
O O15 0.500000 0.500000 0.500000
O O16 0.302566 0.378560 0.644926
O O17 0.393062 0.678805 0.301784
O O18 0.500000 0.000000 0.000000
#
# Coordination Sequence:
#
# PCOD8032174 Si02
#       8
#     2   2   2   2   2   2   2   2
#     4  11  25  40  65 103 144 192 244 294 353 425
#     4  11  23  41  68 100 145 191 243 291 357 426
#     4  12  27  48  78 106 150 192 238 301 360 434
#     4  11  25  45  70 108 144 188 244 296 361 433
#     4  11  24  43  69 103 146 197 242 293 359 425
#     4  12  30  51  76 112 143 188 241 301 370 433
#     4  12  26  46  74 107 149 189 243 302 357 429
#     4  12  28  50  79 107 144 190 242 302 367 435
#
# _framework density 23.117103
#
# number of rings (size 3 to 8) (size 9 to 14) (size 15 to 20)
#    0.000    0.500    2.500    4.500    8.750    7.500 
#    0.000    0.000    0.000    0.000    0.000    0.000 
#    0.000    0.000    0.000    0.000    0.000    0.000 
#
# Total GULP energy -198322.272174 kJ/mol
# GULP energy per Si atom -12395.142011 kJ/mol
# Density = 2.306449 g / cm^3
# Si number density = 23.117103 Si / 1000 Ang^3
#
#
#
# Elastic Constant Matrix: (Units=GPa)
#
#
# Indices 1 2 3 4 5 6 
#
# 1 103.6934 40.0379 36.4424 2.9994 -6.9677 14.1461
# 2 40.0379 135.4425 39.1564 4.0723 -1.7288 -5.2436
# 3 36.4424 39.1564 105.4455 -6.1876 -10.8600 8.4984
# 4 2.9994 4.0723 -6.1876 44.5811 6.0365 -4.2085
# 5 -6.9677 -1.7288 -10.8600 6.0365 37.2885 -2.4684
# 6 14.1461 -5.2436 8.4984 -4.2085 -2.4684 38.4206
#
#
#
# Elastic Compliance Matrix: (Units=1/GPa)
#
#
# Indices 1 2 3 4 5 6 
#
# 1 0.012539 -0.003004 -0.002810 -0.001565 0.001341 -0.004491
# 2 -0.003004 0.009174 -0.002701 -0.000657 -0.000628 0.002843
# 3 -0.002810 -0.002701 0.011937 0.001605 0.002458 -0.001641
# 4 -0.001565 -0.000657 0.001605 0.023527 -0.003500 0.002484
# 5 0.001341 -0.000628 0.002458 -0.003500 0.028343 0.000314
# 6 -0.004491 0.002843 -0.001641 0.002484 0.000314 0.028724
#
#
# Mechanical properties :
#
#
# Convention : Reuss Voigt Hill
#
# Bulk Modulus (GPa) = 60.16542 63.98385 62.07464
# Shear Modulus (GPa) = 36.54587 39.32102 37.93345
#
# Velocity S-wave (km/s) = 3.98037 4.12873 4.05523
# Velocity P-wave (km/s) = 6.87076 7.10400 6.98835
#
# Compressibility (1/GPa) = 0.01662084
#
# Stress axis : x y z
#
# Youngs Moduli (GPa) = 79.74963 109.00541 83.77215
#
# Poissons Ratio (x) = 0.32746 0.23538
# Poissons Ratio (y) = 0.23957 0.22625
# Poissons Ratio (z) = 0.22408 0.29440
#
# Static dielectric constant tensor:
#      x y z
#    x 4.392080 0.190390 0.002300 
#    y 0.190390 4.862090 -0.261250 
#    z 0.002300 -0.261250 0.684660 
# 
# 
# High freq. dielectric constant tensor:
#      x y z
#    x 1.915050 0.006900 -0.006390 
#    y 0.006900 1.923340 0.002420 
#    z -0.006390 0.002420 1.926450 
# 
# From -- ./inp_files/90084.got.cif
#   From: 2010.06.25/outbox.cif.g09.slc.cpg/sg2_46_cif.got.tgz:90084.got - 2010.06.27 13:26:56.
