data_PCOD8032215
_publ_section_title
;
Structure prediction by ZEFSAII (Michael W. Deem and Ramdas Pophale) SiO2 
 PCOD8032215
Probable space group: P -1
;
_chemical_formula_sum "Si O2"
_cell_formula_units_Z 16
_cell_length_a 11.207631
_cell_length_b 14.026315
_cell_length_c 9.459882
_cell_angle_alpha 97.787310
_cell_angle_beta 58.519664
_cell_angle_gamma 138.656994
_cell_volume 745.830560
_symmetry_space_group_name_H-M "P -1"
_symmetry_group_IT_number 2
_symmetry_cell_setting 'triclinic'
loop_
_space_group_symop_operation_xyz
x,y,z
-x,-y,-z
loop_
_atom_site_type_symbol
_atom_site_label
_atom_site_fract_x
_atom_site_fract_y
_atom_site_fract_z
Si Si1 0.254722 0.276574 0.159733
Si Si2 0.272746 0.569325 0.130803
Si Si3 0.789815 0.080669 0.946305
Si Si4 0.172633 0.414462 0.429040
Si Si5 0.734748 0.223171 0.802900
Si Si6 0.431443 0.568465 0.586949
Si Si7 0.935096 0.938403 0.369452
Si Si8 0.847465 0.650389 0.016265
O O1 0.232548 0.340216 0.318275
O O2 0.474871 0.328241 0.066610
O O3 0.296065 0.353395 0.997834
O O4 0.022351 0.079367 0.252678
O O5 0.274186 0.553940 0.294489
O O6 0.195503 0.633508 0.152162
O O7 0.071710 0.389481 0.148513
O O8 0.760743 0.166751 0.906681
O O9 0.923751 0.079705 0.763394
O O10 0.933971 0.171675 0.019837
O O11 0.529920 0.904164 0.114836
O O12 0.261561 0.496363 0.545611
O O13 0.889199 0.269350 0.586122
O O14 0.500000 0.500000 0.500000
O O15 0.654852 0.764906 0.490430
O O16 0.300060 0.488988 0.801691
O O17 0.000000 0.000000 0.500000
#
# Coordination Sequence:
#
# PCOD8032215 Si02
#       8
#     2   2   2   2   2   2   2   2
#     4  11  24  43  68 100 136 170 216 278 334 383
#     4  11  23  41  69  96 134 170 220 272 329 390
#     4  11  24  41  66  91 136 178 214 269 330 394
#     4  11  23  44  67  97 130 176 216 271 332 387
#     4  11  23  44  63  92 134 180 216 261 330 399
#     4  12  21  38  67  95 131 165 219 273 321 384
#     4  12  24  40  66 102 133 171 220 273 334 385
#     4  11  23  42  64 101 129 172 218 279 328 383
#
# _framework density 21.452593
#
# number of rings (size 3 to 8) (size 9 to 14) (size 15 to 20)
#    0.000    0.750    3.750    5.625    0.000    2.000 
#    0.000    2.500    0.000    0.000    0.000    0.000 
#    0.000    0.000    0.000    0.000    0.000    0.000 
#
# Total GULP energy -198228.639997 kJ/mol
# GULP energy per Si atom -12389.290000 kJ/mol
# Density = 2.140377 g / cm^3
# Si number density = 21.452593 Si / 1000 Ang^3
#
#
#
# Elastic Constant Matrix: (Units=GPa)
#
#
# Indices 1 2 3 4 5 6 
#
# 1 73.7836 27.2683 35.8998 20.2304 0.4513 -5.3342
# 2 27.2683 94.8768 24.8757 12.2714 11.4887 5.8102
# 3 35.8998 24.8757 94.5706 3.1102 3.5847 10.9136
# 4 20.2304 12.2714 3.1102 33.0769 0.3699 1.8585
# 5 0.4513 11.4887 3.5847 0.3699 35.4193 -2.3583
# 6 -5.3342 5.8102 10.9136 1.8585 -2.3583 42.6583
#
#
#
# Elastic Compliance Matrix: (Units=1/GPa)
#
#
# Indices 1 2 3 4 5 6 
#
# 1 0.022425 -0.003417 -0.007986 -0.012055 0.002154 0.005957
# 2 -0.003417 0.012867 -0.001638 -0.002378 -0.004065 -0.001882
# 3 -0.007986 -0.001638 0.014484 0.004410 -0.001195 -0.004739
# 4 -0.012055 -0.002378 0.004410 0.038300 -0.000187 -0.003991
# 5 0.002154 -0.004065 -0.001195 -0.000187 0.029832 0.002786
# 6 0.005957 -0.001882 -0.004739 -0.003991 0.002786 0.025984
#
#
# Mechanical properties :
#
#
# Convention : Reuss Voigt Hill
#
# Bulk Modulus (GPa) = 42.20788 48.81315 45.51051
# Shear Modulus (GPa) = 28.11019 33.91006 31.01013
#
# Velocity S-wave (km/s) = 3.62379 3.98011 3.80612
# Velocity P-wave (km/s) = 6.10138 6.62760 6.36992
#
# Compressibility (1/GPa) = 0.02369226
#
# Stress axis : x y z
#
# Youngs Moduli (GPa) = 44.59336 77.72073 69.04304
#
# Poissons Ratio (x) = 0.26561 0.55140
# Poissons Ratio (y) = 0.15240 0.11307
# Poissons Ratio (z) = 0.35614 0.12728
#
# Static dielectric constant tensor:
#      x y z
#    x 3.585570 -0.224840 -0.042570 
#    y -0.224840 3.998970 -0.145260 
#    z -0.042570 -0.145260 3.910990 
# 
# 
# High freq. dielectric constant tensor:
#      x y z
#    x 1.827240 -0.007440 0.005190 
#    y -0.007440 1.850920 -0.002770 
#    z 0.005190 -0.002770 1.844810 
# 
# From -- ./inp_files/273319.got.cif
#   From: 2010.06.25/outbox.cif.g09.slc.cpg/sg2_137_cif.got.tgz:273319.got - 2010.06.27 13:26:56.
