data_PCOD8032675
_publ_section_title
;
Structure prediction by ZEFSAII (Michael W. Deem and Ramdas Pophale) SiO2 
 PCOD8032675
Probable space group: P -1
;
_chemical_formula_sum "Si O2"
_cell_formula_units_Z 16
_cell_length_a 18.881458
_cell_length_b 28.855607
_cell_length_c 15.353849
_cell_angle_alpha 19.435794
_cell_angle_beta 160.106702
_cell_angle_gamma 162.600091
_cell_volume 760.460623
_symmetry_space_group_name_H-M "P -1"
_symmetry_group_IT_number 2
_symmetry_cell_setting 'triclinic'
loop_
_space_group_symop_operation_xyz
x,y,z
-x,-y,-z
loop_
_atom_site_type_symbol
_atom_site_label
_atom_site_fract_x
_atom_site_fract_y
_atom_site_fract_z
Si Si1 0.516259 0.644113 0.123127
Si Si2 0.505831 0.069781 0.477197
Si Si3 0.649685 0.484662 0.413582
Si Si4 0.976934 0.349570 0.068193
Si Si5 0.197773 0.902867 0.835608
Si Si6 0.043923 0.192265 0.930235
Si Si7 0.050896 0.892440 0.394502
Si Si8 0.147795 0.200310 0.228410
O O1 0.568112 0.534458 0.316295
O O2 0.272613 0.515021 0.132794
O O3 0.755395 0.775586 0.228842
O O4 0.445708 0.746247 0.799427
O O5 0.734796 0.089355 0.761998
O O6 0.500000 0.000000 0.500000
O O7 0.231593 0.934682 0.445737
O O8 0.845356 0.651461 0.285769
O O9 0.405024 0.344201 0.322107
O O10 0.785356 0.403083 0.753981
O O11 0.962384 0.272885 0.092884
O O12 0.890313 0.206797 0.294371
O O13 0.106330 0.846622 0.929827
O O14 0.120764 0.024383 0.498010
O O15 0.500000 0.000000 0.000000
O O16 0.156957 0.268624 0.021511
O O17 0.118190 0.067302 0.205870
#
# Coordination Sequence:
#
# PCOD8032675 Si02
#       8
#     2   2   2   2   2   2   2   2
#     4  12  25  47  69 102 143 180 231 287 350 407
#     4  12  25  46  74 102 138 187 231 280 351 411
#     4  12  25  46  70 100 144 182 224 290 353 405
#     4  12  26  45  70 104 141 184 229 286 350 409
#     4  11  23  43  69  98 139 186 225 284 347 410
#     4  12  25  44  72 104 138 180 238 286 336 418
#     4  12  27  44  74 103 138 182 237 286 336 422
#     4  11  25  42  70 102 137 182 232 282 346 410
#
# _framework density 21.039878999999999
#
# number of rings (size 3 to 8) (size 9 to 14) (size 15 to 20)
#    0.000    0.250    7.500    1.875    1.750    1.500 
#    0.000    1.250    0.000    0.000    0.000    0.000 
#    0.000    0.000    0.000    0.000    0.000    0.000 
#
# Total GULP energy -198492.930059 kJ/mol
# GULP energy per Si atom -12405.808129 kJ/mol
# Density = 2.099199 g / cm^3
# Si number density = 21.039879 Si / 1000 Ang^3
#
#
#
# Elastic Constant Matrix: (Units=GPa)
#
#
# Indices 1 2 3 4 5 6 
#
# 1 107.5255 30.8566 57.4857 2.6348 9.0520 2.1208
# 2 30.8566 94.6581 33.8309 5.6731 12.6762 11.5018
# 3 57.4857 33.8309 131.9336 -7.9861 2.7820 3.9903
# 4 2.6348 5.6731 -7.9861 37.4009 4.2884 4.1278
# 5 9.0520 12.6762 2.7820 4.2884 34.2191 -2.3217
# 6 2.1208 11.5018 3.9903 4.1278 -2.3217 35.2418
#
#
#
# Elastic Compliance Matrix: (Units=1/GPa)
#
#
# Indices 1 2 3 4 5 6 
#
# 1 0.012825 -0.002055 -0.005127 -0.001517 -0.001989 0.000526
# 2 -0.002055 0.013229 -0.002372 -0.001434 -0.004258 -0.004038
# 3 -0.005127 -0.002372 0.010589 0.002913 0.000982 -0.000393
# 4 -0.001517 -0.001434 0.002913 0.028402 -0.003088 -0.003301
# 5 -0.001989 -0.004258 0.000982 -0.003088 0.031896 0.003861
# 6 0.000526 -0.004038 -0.000393 -0.003301 0.003861 0.030347
#
#
# Mechanical properties :
#
#
# Convention : Reuss Voigt Hill
#
# Bulk Modulus (GPa) = 57.02668 64.27371 60.65020
# Shear Modulus (GPa) = 32.84284 35.50195 34.17240
#
# Velocity S-wave (km/s) = 3.95521 4.11221 4.03447
# Velocity P-wave (km/s) = 6.92973 7.29122 7.11277
#
# Compressibility (1/GPa) = 0.01753565
#
# Stress axis : x y z
#
# Youngs Moduli (GPa) = 77.97256 75.59317 94.43705
#
# Poissons Ratio (x) = 0.15535 0.48417
# Poissons Ratio (y) = 0.16024 0.22397
# Poissons Ratio (z) = 0.39976 0.17928
#
# Static dielectric constant tensor:
#      x y z
#    x 3.823910 0.016370 0.133190 
#    y 0.016370 3.938080 -0.035230 
#    z 0.133190 -0.035230 3.960410 
# 
# 
# High freq. dielectric constant tensor:
#      x y z
#    x 1.829020 0.003300 0.010530 
#    y 0.003300 1.835150 -0.002170 
#    z 0.010530 -0.002170 1.832160 
# 
# From -- ./inp_files/77609.got.cif
#   From: 2010.06.25/outbox.cif.g09.slc.cpg/sg2_39_cif.got.tgz:77609.got - 2010.06.27 13:26:56.
