data_PCOD8032073
_publ_section_title
;
Structure prediction by ZEFSAII (Michael W. Deem and Ramdas Pophale) SiO2 
 PCOD8032073
Probable space group: P -1
;
_chemical_formula_sum "Si O2"
_cell_formula_units_Z 16
_cell_length_a 11.916762
_cell_length_b 9.095866
_cell_length_c 14.726639
_cell_angle_alpha 109.597652
_cell_angle_beta 151.621863
_cell_angle_gamma 75.701122
_cell_volume 710.597650
_symmetry_space_group_name_H-M "P -1"
_symmetry_group_IT_number 2
_symmetry_cell_setting 'triclinic'
loop_
_space_group_symop_operation_xyz
x,y,z
-x,-y,-z
loop_
_atom_site_type_symbol
_atom_site_label
_atom_site_fract_x
_atom_site_fract_y
_atom_site_fract_z
Si Si1 0.926746 0.260324 0.894016
Si Si2 0.775117 0.519269 0.716718
Si Si3 0.782395 0.000664 0.026353
Si Si4 0.093565 0.508725 0.389207
Si Si5 0.637153 0.236511 0.258690
Si Si6 0.418643 0.757923 0.194580
Si Si7 0.969744 0.795390 0.602132
Si Si8 0.378712 0.441358 0.992579
O O1 0.871610 0.356660 0.784142
O O2 0.683804 0.234990 0.774475
O O3 0.142197 0.349589 0.123437
O O4 0.022141 0.098981 0.899168
O O5 0.500000 0.500000 0.500000
O O6 0.868085 0.577411 0.696209
O O7 0.739474 0.141285 0.958563
O O8 0.524534 0.906349 0.840670
O O9 0.894563 0.068810 0.213144
O O10 0.319558 0.624068 0.607491
O O11 0.017211 0.377836 0.383181
O O12 0.886017 0.617217 0.241200
O O13 0.492083 0.293078 0.081562
O O14 0.892949 0.195260 0.395126
O O15 0.695294 0.825929 0.402442
O O16 0.387434 0.578304 0.102500
O O17 0.500000 0.500000 0.000000
#
# Coordination Sequence:
#
# PCOD8032073 Si02
#       8
#     2   2   2   2   2   2   2   2
#     4  11  25  45  67 101 140 182 234 288 336 416
#     4  11  23  40  70 102 137 176 231 289 346 398
#     4  12  27  45  68 101 147 182 225 288 355 402
#     4  12  22  41  70 102 132 179 230 281 345 408
#     4  12  26  44  71 106 139 176 238 291 339 416
#     4  12  25  44  70  97 141 185 230 281 344 416
#     4  12  25  44  70 101 140 184 230 283 350 419
#     4  12  22  41  72 101 133 179 227 282 342 404
#
# _framework density 22.516255999999998
#
# number of rings (size 3 to 8) (size 9 to 14) (size 15 to 20)
#    0.000    0.250    5.000    4.125    1.750    4.000 
#    0.000    0.000    0.000    0.000    0.000    0.000 
#    0.000    0.000    0.000    0.000    0.000    0.000 
#
# Total GULP energy -198385.969711 kJ/mol
# GULP energy per Si atom -12399.123107 kJ/mol
# Density = 2.246501 g / cm^3
# Si number density = 22.516256 Si / 1000 Ang^3
#
#
#
# Elastic Constant Matrix: (Units=GPa)
#
#
# Indices 1 2 3 4 5 6 
#
# 1 105.2978 13.5956 9.8215 3.1419 7.7968 -6.7543
# 2 13.5956 65.1328 17.1024 -2.4260 -0.3687 -10.6209
# 3 9.8215 17.1024 115.4844 -4.0484 5.3805 -10.3455
# 4 3.1419 -2.4260 -4.0484 36.3523 -0.3040 0.9603
# 5 7.7968 -0.3687 5.3805 -0.3040 40.7279 -1.4515
# 6 -6.7543 -10.6209 -10.3455 0.9603 -1.4515 30.9997
#
#
#
# Elastic Compliance Matrix: (Units=1/GPa)
#
#
# Indices 1 2 3 4 5 6 
#
# 1 0.010026 -0.001811 -0.000414 -0.001085 -0.001840 0.001373
# 2 -0.001811 0.017070 -0.001953 0.000959 0.000938 0.004817
# 3 -0.000414 -0.001953 0.009266 0.000869 -0.001076 0.002256
# 4 -0.001085 0.000959 0.000869 0.027778 0.000292 -0.000465
# 5 -0.001840 0.000938 -0.001076 0.000292 0.025084 0.000727
# 6 0.001373 0.004817 0.002256 -0.000465 0.000727 0.035009
#
#
# Mechanical properties :
#
#
# Convention : Reuss Voigt Hill
#
# Bulk Modulus (GPa) = 35.70417 40.77265 38.23841
# Shear Modulus (GPa) = 35.23000 37.97568 36.60284
#
# Velocity S-wave (km/s) = 3.95985 4.11127 4.03627
# Velocity P-wave (km/s) = 6.06620 6.37841 6.22426
#
# Compressibility (1/GPa) = 0.02800793
#
# Stress axis : x y z
#
# Youngs Moduli (GPa) = 99.74033 58.58090 107.91900
#
# Poissons Ratio (x) = 0.10609 0.04465
# Poissons Ratio (y) = 0.18063 0.21072
# Poissons Ratio (z) = 0.04127 0.11438
#
# Static dielectric constant tensor:
#      x y z
#    x 3.793670 0.538040 -0.227030 
#    y 0.538040 3.392440 0.045830 
#    z -0.227030 0.045830 4.134490 
# 
# 
# High freq. dielectric constant tensor:
#      x y z
#    x 1.900080 0.000660 0.003990 
#    y 0.000660 1.870360 -0.011170 
#    z 0.003990 -0.011170 1.902920 
# 
# From -- ./inp_files/206201.got.cif
#   From: 2010.06.25/outbox.cif.g09.slc.cpg/sg2_104_cif.got.tgz:206201.got - 2010.06.27 13:26:56.
