data_PCOD8032548
_publ_section_title
;
Structure prediction by ZEFSAII (Michael W. Deem and Ramdas Pophale) SiO2 
 PCOD8032548
Probable space group: P -1
;
_chemical_formula_sum "Si O2"
_cell_formula_units_Z 14
_cell_length_a 14.050307
_cell_length_b 12.488937
_cell_length_c 11.459161
_cell_angle_alpha 118.947635
_cell_angle_beta 20.567111
_cell_angle_gamma 120.988708
_cell_volume 605.557483
_symmetry_space_group_name_H-M "P -1"
_symmetry_group_IT_number 2
_symmetry_cell_setting 'triclinic'
loop_
_space_group_symop_operation_xyz
x,y,z
-x,-y,-z
loop_
_atom_site_type_symbol
_atom_site_label
_atom_site_fract_x
_atom_site_fract_y
_atom_site_fract_z
Si Si1 0.255263 0.296651 0.531749
Si Si2 0.620617 0.914155 0.400854
Si Si3 0.912990 0.124194 0.327676
Si Si4 0.195448 0.014031 0.393306
Si Si5 0.058213 0.596517 0.590253
Si Si6 0.668614 0.328720 0.281021
Si Si7 0.440247 0.520542 0.308177
O O1 0.228011 0.150552 0.480149
O O2 0.423900 0.340973 0.479562
O O3 0.412645 0.370379 0.277046
O O4 0.954581 0.331095 0.889620
O O5 0.393336 0.797302 0.638426
O O6 0.500000 0.000000 0.500000
O O7 0.695039 0.000711 0.474741
O O8 0.852364 0.863838 0.034507
O O9 0.819312 0.258561 0.508207
O O10 0.962038 0.089866 0.388032
O O11 0.000000 0.000000 0.500000
O O12 0.500000 0.000000 0.000000
O O13 0.288513 0.553809 0.383969
O O14 0.000000 0.500000 0.500000
O O15 0.759021 0.590350 0.987749
O O16 0.710725 0.441713 0.383633
#
# Coordination Sequence:
#
# PCOD8032548 Si02
#       7
#     2   2   2   2   2   2   2
#     4  12  26  46  72 104 144 185 232 291 355 425
#     4  11  23  42  76 106 143 180 233 307 360 416
#     4  11  26  46  72 107 141 184 240 297 357 416
#     4  12  29  47  72 102 144 193 237 287 350 430
#     4  12  28  47  71 103 142 192 239 287 344 428
#     4  12  23  45  71 110 139 176 236 295 363 416
#     4  12  26  47  72 105 139 188 234 287 359 418
#
# _framework density 23.119192999999999
#
# number of rings (size 3 to 8) (size 9 to 14) (size 15 to 20)
#    0.000    0.286    2.857    5.571    8.000    0.000 
#    0.000    0.000    0.000    0.000    0.000    0.000 
#    0.000    0.000    0.000    0.000    0.000    0.000 
#
# Total GULP energy -173518.728740 kJ/mol
# GULP energy per Si atom -12394.194910 kJ/mol
# Density = 2.306657 g / cm^3
# Si number density = 23.119193 Si / 1000 Ang^3
#
#
#
# Elastic Constant Matrix: (Units=GPa)
#
#
# Indices 1 2 3 4 5 6 
#
# 1 131.7381 36.6387 15.1996 -2.8763 -4.9718 -15.9774
# 2 36.6387 134.8565 17.0837 -5.4731 12.3526 -24.1334
# 3 15.1996 17.0837 74.5043 0.0202 -8.3141 6.7030
# 4 -2.8763 -5.4731 0.0202 35.4924 4.2989 7.0435
# 5 -4.9718 12.3526 -8.3141 4.2989 37.6883 4.7249
# 6 -15.9774 -24.1334 6.7030 7.0435 4.7249 46.6571
#
#
#
# Elastic Compliance Matrix: (Units=1/GPa)
#
#
# Indices 1 2 3 4 5 6 
#
# 1 0.008569 -0.001908 -0.001358 -0.000152 0.001217 0.002042
# 2 -0.001908 0.009682 -0.002825 0.000907 -0.004792 0.005109
# 3 -0.001358 -0.002825 0.015284 -0.000219 0.004716 -0.004567
# 4 -0.000152 0.000907 -0.000219 0.029425 -0.003263 -0.003663
# 5 0.001217 -0.004792 0.004716 -0.003263 0.030344 -0.005320
# 6 0.002042 0.005109 -0.004567 -0.003663 -0.005320 0.026523
#
#
# Mechanical properties :
#
#
# Convention : Reuss Voigt Hill
#
# Bulk Modulus (GPa) = 46.83681 53.21589 50.02635
# Shear Modulus (GPa) = 35.93859 42.11268 39.02563
#
# Velocity S-wave (km/s) = 3.94698 4.27259 4.11301
# Velocity P-wave (km/s) = 6.40893 6.88535 6.65141
#
# Compressibility (1/GPa) = 0.02135073
#
# Stress axis : x y z
#
# Youngs Moduli (GPa) = 116.70631 103.28894 65.42694
#
# Poissons Ratio (x) = 0.19709 0.08887
# Poissons Ratio (y) = 0.22269 0.18485
# Poissons Ratio (z) = 0.15853 0.29182
#
# Static dielectric constant tensor:
#      x y z
#    x 4.040450 -0.051750 -0.083730 
#    y -0.051750 4.487330 -0.033690 
#    z -0.083730 -0.033690 4.167870 
# 
# 
# High freq. dielectric constant tensor:
#      x y z
#    x 1.919840 -0.007250 0.000100 
#    y -0.007250 1.943300 -0.002990 
#    z 0.000100 -0.002990 1.905980 
# 
# From -- ./inp_files/68198.got.cif
#   From: 2010.06.25/outbox.cif.g09.slc.cpg/sg2_35_cif.got.tgz:68198.got - 2010.06.27 13:26:56.
