data_PCOD8032126
_publ_section_title
;
Structure prediction by ZEFSAII (Michael W. Deem and Ramdas Pophale) SiO2 
 PCOD8032126
Probable space group: P -1
;
_chemical_formula_sum "Si O2"
_cell_formula_units_Z 16
_cell_length_a 17.198810
_cell_length_b 6.380355
_cell_length_c 18.097864
_cell_angle_alpha 130.781633
_cell_angle_beta 29.148384
_cell_angle_gamma 120.591954
_cell_volume 722.181474
_symmetry_space_group_name_H-M "P -1"
_symmetry_group_IT_number 2
_symmetry_cell_setting 'triclinic'
loop_
_space_group_symop_operation_xyz
x,y,z
-x,-y,-z
loop_
_atom_site_type_symbol
_atom_site_label
_atom_site_fract_x
_atom_site_fract_y
_atom_site_fract_z
Si Si1 0.938497 0.222395 0.665043
Si Si2 0.813637 0.361914 0.421194
Si Si3 0.627978 0.602333 0.969270
Si Si4 0.492233 0.395360 0.777421
Si Si5 0.775870 0.114961 0.918300
Si Si6 0.009517 0.267470 0.873527
Si Si7 0.721112 0.542899 0.385306
Si Si8 0.453391 0.935436 0.606904
O O1 0.922741 0.096549 0.731912
O O2 0.046017 0.469235 0.632322
O O3 0.754025 0.331493 0.823754
O O4 0.000000 0.000000 0.500000
O O5 0.684560 0.366252 0.595724
O O6 0.704909 0.524514 0.482918
O O7 0.891207 0.042652 0.258781
O O8 0.529530 0.733628 0.153398
O O9 0.500000 0.500000 0.000000
O O10 0.733183 0.808298 0.891326
O O11 0.395803 0.231428 0.761306
O O12 0.395682 0.709077 0.923708
O O13 0.837923 0.225544 0.970883
O O14 0.097604 0.413694 0.769797
O O15 0.000000 0.500000 0.000000
O O16 0.604293 0.792009 0.498731
O O17 0.688636 0.246714 0.311378
O O18 0.500000 0.000000 0.500000
#
# Coordination Sequence:
#
# PCOD8032126 Si02
#       8
#     2   2   2   2   2   2   2   2
#     4  11  27  48  76 103 139 186 240 303 357 430
#     4  12  25  48  70 111 141 187 252 290 356 435
#     4  11  28  49  70 104 144 185 236 297 373 424
#     4  11  27  42  73 102 144 185 237 301 348 431
#     4  11  27  47  68 108 146 183 240 293 361 434
#     4  12  27  43  70 102 149 195 232 294 357 424
#     4  11  24  40  68  97 144 185 242 288 347 413
#     4  11  23  41  65 104 138 185 240 286 342 423
#
# _framework density 22.155097000000001
#
# number of rings (size 3 to 8) (size 9 to 14) (size 15 to 20)
#    0.000    0.750    5.000    0.000   10.500    3.000 
#    0.000    0.000    0.000    0.000    0.000    0.000 
#    0.000    0.000    0.000    0.000    0.000    0.000 
#
# Total GULP energy -198276.124332 kJ/mol
# GULP energy per Si atom -12392.257771 kJ/mol
# Density = 2.210467 g / cm^3
# Si number density = 22.155097 Si / 1000 Ang^3
#
#
#
# Elastic Constant Matrix: (Units=GPa)
#
#
# Indices 1 2 3 4 5 6 
#
# 1 125.2721 51.4993 44.8256 -2.2224 8.5769 13.8760
# 2 51.4993 131.0795 48.7701 -12.8664 9.9490 12.9944
# 3 44.8256 48.7701 111.3164 -2.9423 16.6107 -0.0786
# 4 -2.2224 -12.8664 -2.9423 31.9881 4.8092 -3.6647
# 5 8.5769 9.9490 16.6107 4.8092 42.8421 -0.3427
# 6 13.8760 12.9944 -0.0786 -3.6647 -0.3427 45.0447
#
#
#
# Elastic Compliance Matrix: (Units=1/GPa)
#
#
# Indices 1 2 3 4 5 6 
#
# 1 0.010490 -0.002845 -0.002975 -0.000945 -0.000200 -0.002494
# 2 -0.002845 0.010582 -0.003235 0.003705 -0.001065 -0.001889
# 3 -0.002975 -0.003235 0.012112 0.000327 -0.003371 0.001872
# 4 -0.000945 0.003705 0.000327 0.033622 -0.004557 0.001924
# 5 -0.000200 -0.001065 -0.003371 -0.004557 0.025449 0.000186
# 6 -0.002494 -0.001889 0.001872 0.001924 0.000186 0.023675
#
#
# Mechanical properties :
#
#
# Convention : Reuss Voigt Hill
#
# Bulk Modulus (GPa) = 66.33872 73.09534 69.71703
# Shear Modulus (GPa) = 35.95508 38.81315 37.38412
#
# Velocity S-wave (km/s) = 4.03287 4.19009 4.11223
# Velocity P-wave (km/s) = 7.18980 7.51487 7.35413
#
# Compressibility (1/GPa) = 0.01507415
#
# Stress axis : x y z
#
# Youngs Moduli (GPa) = 95.33136 94.49978 82.56529
#
# Poissons Ratio (x) = 0.26883 0.24560
# Poissons Ratio (y) = 0.27120 0.26712
# Poissons Ratio (z) = 0.28357 0.30573
#
# Static dielectric constant tensor:
#      x y z
#    x 4.048370 -0.006590 0.061460 
#    y -0.006590 4.411870 -0.274040 
#    z 0.061460 -0.274040 3.997040 
# 
# 
# High freq. dielectric constant tensor:
#      x y z
#    x 1.878380 0.000890 -0.000430 
#    y 0.000890 1.891420 -0.009250 
#    z -0.000430 -0.009250 1.856890 
# 
# From -- ./inp_files/46765.got.cif
#   From: 2010.06.25/outbox.cif.g09.slc.cpg/sg2_24_cif.got.tgz:46765.got - 2010.06.27 13:26:56.
