data_PCOD8032965
_publ_section_title
;
Structure prediction by ZEFSAII (Michael W. Deem and Ramdas Pophale) SiO2 
 PCOD8032965
Probable space group: P -1
;
_chemical_formula_sum "Si O2"
_cell_formula_units_Z 12
_cell_length_a 8.366081
_cell_length_b 9.166552
_cell_length_c 11.603412
_cell_angle_alpha 82.068011
_cell_angle_beta 122.509913
_cell_angle_gamma 130.608440
_cell_volume 537.603963
_symmetry_space_group_name_H-M "P -1"
_symmetry_group_IT_number 2
_symmetry_cell_setting 'triclinic'
loop_
_space_group_symop_operation_xyz
x,y,z
-x,-y,-z
loop_
_atom_site_type_symbol
_atom_site_label
_atom_site_fract_x
_atom_site_fract_y
_atom_site_fract_z
Si Si1 0.940911 0.247988 0.547517
Si Si2 0.026015 0.588119 0.218346
Si Si3 0.495593 0.163944 0.027001
Si Si4 0.993710 0.994561 0.730864
Si Si5 0.787219 0.596276 0.596858
Si Si6 0.611096 0.960146 0.741701
O O1 0.037291 0.387451 0.681144
O O2 0.122126 0.399414 0.496756
O O3 0.993178 0.103807 0.609595
O O4 0.634408 0.110795 0.418366
O O5 0.207979 0.542246 0.303935
O O6 0.180491 0.795180 0.183729
O O7 0.759436 0.395454 0.072047
O O8 0.478562 0.150286 0.159661
O O9 0.500000 0.000000 0.000000
O O10 0.264321 0.141636 0.890365
O O11 0.981215 0.823339 0.696083
O O12 0.750976 0.904963 0.730059
O O13 0.500000 0.500000 0.500000
#
# Coordination Sequence:
#
# PCOD8032965 Si02
#       6
#     2   2   2   2   2   2
#     4  11  23  44  69  97 136 171 220 281 322 385
#     4  11  24  43  70  96 131 180 218 266 336 387
#     4  12  25  46  65  96 142 174 218 272 329 392
#     4  11  24  43  66  99 134 174 218 273 326 392
#     4  12  23  39  68 102 130 170 225 271 329 389
#     4  11  24  45  71  96 134 174 222 273 328 387
#
# _framework density 22.321263999999999
#
# number of rings (size 3 to 8) (size 9 to 14) (size 15 to 20)
#    0.000    0.667    3.333    5.500    2.333    4.667 
#    3.000    0.000    0.000    0.000    0.000    0.000 
#    0.000    0.000    0.000    0.000    0.000    0.000 
#
# Total GULP energy -148835.410226 kJ/mol
# GULP energy per Si atom -12402.950852 kJ/mol
# Density = 2.227046 g / cm^3
# Si number density = 22.321264 Si / 1000 Ang^3
#
#
#
# Elastic Constant Matrix: (Units=GPa)
#
#
# Indices 1 2 3 4 5 6 
#
# 1 64.1585 -7.5996 14.0165 2.6459 25.1465 2.4266
# 2 -7.5996 60.8284 2.4222 10.9828 7.1995 -4.2320
# 3 14.0165 2.4222 97.7014 6.8634 25.7522 4.7485
# 4 2.6459 10.9828 6.8634 41.3893 -2.3658 2.8602
# 5 25.1465 7.1995 25.7522 -2.3658 33.7936 2.0431
# 6 2.4266 -4.2320 4.7485 2.8602 2.0431 38.2934
#
#
#
# Elastic Compliance Matrix: (Units=1/GPa)
#
#
# Indices 1 2 3 4 5 6 
#
# 1 0.024604 0.006497 0.002413 -0.004976 -0.021903 0.000400
# 2 0.006497 0.019913 0.001859 -0.006828 -0.011132 0.002662
# 3 0.002413 0.001859 0.013462 -0.003557 -0.012658 -0.000676
# 4 -0.004976 -0.006828 -0.003557 0.027629 0.009959 -0.002593
# 5 -0.021903 -0.011132 -0.012658 0.009959 0.058735 -0.002150
# 6 0.000400 0.002662 -0.000676 -0.002593 -0.002150 0.026775
#
#
# Mechanical properties :
#
#
# Convention : Reuss Voigt Hill
#
# Bulk Modulus (GPa) = 12.57627 26.70739 19.64183
# Shear Modulus (GPa) = 28.39502 36.95188 32.67345
#
# Velocity S-wave (km/s) = 3.57053 4.07314 3.83009
# Velocity P-wave (km/s) = 4.75864 5.84052 5.32712
#
# Compressibility (1/GPa) = 0.07951482
#
# Stress axis : x y z
#
# Youngs Moduli (GPa) = 40.64407 50.21876 74.28190
#
# Poissons Ratio (x) = -0.32625 -0.17922
# Poissons Ratio (y) = -0.26405 -0.13807
# Poissons Ratio (z) = -0.09806 -0.09334
#
# Static dielectric constant tensor:
#      x y z
#    x 4.133330 -0.271330 -0.007970 
#    y -0.271330 4.425950 0.154210 
#    z -0.007970 0.154210 4.111430 
# 
# 
# High freq. dielectric constant tensor:
#      x y z
#    x 1.884730 -0.011020 0.010700 
#    y -0.011020 1.883410 0.006030 
#    z 0.010700 0.006030 1.882180 
# 
# From -- ./inp_files/150549.got.cif
#   From: 2010.06.25/outbox.cif.g09.slc.cpg/sg2_76_cif.got.tgz:150549.got - 2010.06.27 13:26:56.
