data_PCOD8032354
_publ_section_title
;
Structure prediction by ZEFSAII (Michael W. Deem and Ramdas Pophale) SiO2 
 PCOD8032354
Probable space group: P -1
;
_chemical_formula_sum "Si O2"
_cell_formula_units_Z 16
_cell_length_a 10.425234
_cell_length_b 11.818840
_cell_length_c 6.659401
_cell_angle_alpha 123.029020
_cell_angle_beta 91.129017
_cell_angle_gamma 92.687522
_cell_volume 686.169139
_symmetry_space_group_name_H-M "P -1"
_symmetry_group_IT_number 2
_symmetry_cell_setting 'triclinic'
loop_
_space_group_symop_operation_xyz
x,y,z
-x,-y,-z
loop_
_atom_site_type_symbol
_atom_site_label
_atom_site_fract_x
_atom_site_fract_y
_atom_site_fract_z
Si Si1 0.521227 0.813133 0.511598
Si Si2 0.172395 0.268995 0.082805
Si Si3 0.655478 0.093225 0.732747
Si Si4 0.325969 0.420634 0.568816
Si Si5 0.052581 0.751928 0.641237
Si Si6 0.678486 0.293729 0.282969
Si Si7 0.103997 0.407487 0.833934
Si Si8 0.873671 0.011356 0.373888
O O1 0.463953 0.841938 0.318583
O O2 0.589164 0.669981 0.372551
O O3 0.409988 0.798356 0.659538
O O4 0.617317 0.945625 0.688565
O O5 0.284294 0.317990 0.287569
O O6 0.032329 0.267324 0.180255
O O7 0.182312 0.368867 0.992984
O O8 0.195589 0.126226 0.845450
O O9 0.772058 0.084713 0.574886
O O10 0.702863 0.200979 0.004086
O O11 0.389954 0.565197 0.629225
O O12 0.206133 0.473593 0.742103
O O13 0.179401 0.666406 0.581782
O O14 0.096056 0.908079 0.754482
O O15 0.972322 0.715361 0.402021
O O16 0.000000 0.500000 0.000000
O O17 0.000000 0.000000 0.500000
#
# Coordination Sequence:
#
# PCOD8032354 Si02
#       8
#     2   2   2   2   2   2   2   2
#     4  11  26  49  66  98 136 180 234 281 334 398
#     4  11  24  42  65 101 140 175 220 280 339 407
#     4  11  27  46  72 100 136 179 227 285 345 395
#     4  11  27  43  72 102 134 183 230 274 340 407
#     4  11  24  40  65 105 135 177 223 273 343 408
#     4  12  25  45  71 101 134 179 230 282 337 404
#     4  11  23  42  67  97 144 177 213 278 344 404
#     4  12  23  42  71 102 137 178 224 278 344 405
#
# _framework density 23.317864
#
# number of rings (size 3 to 8) (size 9 to 14) (size 15 to 20)
#    0.000    0.750    2.500    4.125    5.250    6.500 
#    0.000    0.000    0.000    0.000    0.000    0.000 
#    0.000    0.000    0.000    0.000    0.000    0.000 
#
# Total GULP energy -198366.323298 kJ/mol
# GULP energy per Si atom -12397.895206 kJ/mol
# Density = 2.326479 g / cm^3
# Si number density = 23.317864 Si / 1000 Ang^3
#
#
#
# Elastic Constant Matrix: (Units=GPa)
#
#
# Indices 1 2 3 4 5 6 
#
# 1 64.2659 4.7306 15.0443 -1.1698 2.4014 -8.2494
# 2 4.7306 123.8959 14.7016 -2.6558 6.0134 -6.1974
# 3 15.0443 14.7016 94.4818 -5.1319 -13.9430 5.8135
# 4 -1.1698 -2.6558 -5.1319 30.1866 -4.3858 -0.8545
# 5 2.4014 6.0134 -13.9430 -4.3858 23.8523 1.4286
# 6 -8.2494 -6.1974 5.8135 -0.8545 1.4286 38.6422
#
#
#
# Elastic Compliance Matrix: (Units=1/GPa)
#
#
# Indices 1 2 3 4 5 6 
#
# 1 0.017123 0.000201 -0.003682 -0.000441 -0.004271 0.004390
# 2 0.000201 0.008559 -0.001988 -0.000027 -0.003456 0.001842
# 3 -0.003682 -0.001988 0.013250 0.003206 0.009409 -0.003375
# 4 -0.000441 -0.000027 0.003206 0.034862 0.008343 -0.000118
# 5 -0.004271 -0.003456 0.009409 0.008343 0.050534 -0.004565
# 6 0.004390 0.001842 -0.003375 -0.000118 -0.004565 0.027785
#
#
# Mechanical properties :
#
#
# Convention : Reuss Voigt Hill
#
# Bulk Modulus (GPa) = 35.72475 39.06630 37.39552
# Shear Modulus (GPa) = 29.00536 35.08069 32.04302
#
# Velocity S-wave (km/s) = 3.53074 3.88294 3.71102
# Velocity P-wave (km/s) = 5.65469 6.07397 5.86808
#
# Compressibility (1/GPa) = 0.02799180
#
# Stress axis : x y z
#
# Youngs Moduli (GPa) = 58.40258 116.83802 75.47099
#
# Poissons Ratio (x) = -0.02343 0.27788
# Poissons Ratio (y) = -0.01171 0.15007
# Poissons Ratio (z) = 0.21503 0.23233
#
# Static dielectric constant tensor:
#      x y z
#    x 2.997020 1.582710 -0.951760 
#    y 1.582710 2.273000 1.416110 
#    z -0.951760 1.416110 3.420190 
# 
# 
# High freq. dielectric constant tensor:
#      x y z
#    x 1.921550 0.000890 -0.004270 
#    y 0.000890 1.937190 -0.008360 
#    z -0.004270 -0.008360 1.916790 
# 
# From -- ./inp_files/72326.got.cif
#   From: 2010.06.25/outbox.cif.g09.slc.cpg/sg2_37_cif.got.tgz:72326.got - 2010.06.27 13:26:56.
