data_PCOD8032254
_publ_section_title
;
Structure prediction by ZEFSAII (Michael W. Deem and Ramdas Pophale) SiO2 
 PCOD8032254
Probable space group: P -1
;
_chemical_formula_sum "Si O2"
_cell_formula_units_Z 14
_cell_length_a 11.214201
_cell_length_b 6.422356
_cell_length_c 19.406068
_cell_angle_alpha 52.515452
_cell_angle_beta 31.611057
_cell_angle_gamma 61.017325
_cell_volume 579.403990
_symmetry_space_group_name_H-M "P -1"
_symmetry_group_IT_number 2
_symmetry_cell_setting 'triclinic'
loop_
_space_group_symop_operation_xyz
x,y,z
-x,-y,-z
loop_
_atom_site_type_symbol
_atom_site_label
_atom_site_fract_x
_atom_site_fract_y
_atom_site_fract_z
Si Si1 0.349954 0.234928 0.113317
Si Si2 0.930131 0.786263 0.869361
Si Si3 0.428868 0.261866 0.836505
Si Si4 0.070077 0.764268 0.595295
Si Si5 0.702132 0.743145 0.391314
Si Si6 0.177108 0.338096 0.403879
Si Si7 0.317783 0.455721 0.705073
O O1 0.304620 0.178197 0.065755
O O2 0.091694 0.282677 0.250263
O O3 0.446809 0.002074 0.156237
O O4 0.500000 0.500000 0.000000
O O5 0.065648 0.532478 0.835750
O O6 0.828610 0.758811 0.002368
O O7 0.103325 0.044216 0.722067
O O8 0.574642 0.508066 0.750145
O O9 0.425851 0.311740 0.745951
O O10 0.251608 0.552411 0.549082
O O11 0.906309 0.721194 0.619577
O O12 0.199956 0.052381 0.483202
O O13 0.459821 0.733865 0.554079
O O14 0.692255 0.753782 0.310831
O O15 0.000000 0.500000 0.500000
#
# Coordination Sequence:
#
# PCOD8032254 Si02
#       7
#     2   2   2   2   2   2   2
#     4  12  25  46  73 107 142 188 238 298 365 425
#     4  12  26  50  73 103 149 194 239 296 366 428
#     4  12  26  45  75 107 145 190 238 303 358 432
#     4  11  23  41  72 103 143 188 234 304 349 422
#     4  11  25  48  75 106 144 193 246 291 361 426
#     4  11  23  42  67 110 145 184 245 294 360 422
#     4  11  27  47  72 108 144 193 242 298 354 431
#
# _framework density 24.162762000000001
#
# number of rings (size 3 to 8) (size 9 to 14) (size 15 to 20)
#    0.000    0.571    2.857    4.714    4.000    2.857 
#    2.571    0.000    0.000    0.000    0.000    0.000 
#    0.000    0.000    0.000    0.000    0.000    0.000 
#
# Total GULP energy -173546.423775 kJ/mol
# GULP energy per Si atom -12396.173127 kJ/mol
# Density = 2.410777 g / cm^3
# Si number density = 24.162762 Si / 1000 Ang^3
#
#
#
# Elastic Constant Matrix: (Units=GPa)
#
#
# Indices 1 2 3 4 5 6 
#
# 1 130.5495 33.8272 27.4262 -20.6503 7.2297 3.8791
# 2 33.8272 73.8774 30.7902 -23.1945 -1.5989 -5.6727
# 3 27.4262 30.7902 121.5435 -12.1615 -1.3900 7.2457
# 4 -20.6503 -23.1945 -12.1615 52.9704 7.8930 -5.5402
# 5 7.2297 -1.5989 -1.3900 7.8930 38.6336 -0.1918
# 6 3.8791 -5.6727 7.2457 -5.5402 -0.1918 28.8160
#
#
#
# Elastic Compliance Matrix: (Units=1/GPa)
#
#
# Indices 1 2 3 4 5 6 
#
# 1 0.009225 -0.003283 -0.000987 0.002151 -0.002343 -0.001242
# 2 -0.003283 0.019348 -0.003852 0.007013 -0.000124 0.006567
# 3 -0.000987 -0.003852 0.009589 -0.000253 0.000407 -0.003082
# 4 0.002151 0.007013 -0.000253 0.024078 -0.005012 0.005750
# 5 -0.002343 -0.000124 0.000407 -0.005012 0.027353 -0.000593
# 6 -0.001242 0.006567 -0.003082 0.005750 -0.000593 0.038040
#
#
# Mechanical properties :
#
#
# Convention : Reuss Voigt Hill
#
# Bulk Modulus (GPa) = 45.62532 56.67307 51.14919
# Shear Modulus (GPa) = 33.07240 39.67911 36.37575
#
# Velocity S-wave (km/s) = 3.70365 4.05675 3.88422
# Velocity P-wave (km/s) = 6.10024 6.74156 6.42890
#
# Compressibility (1/GPa) = 0.02191765
#
# Stress axis : x y z
#
# Youngs Moduli (GPa) = 108.40048 51.68530 104.28447
#
# Poissons Ratio (x) = 0.16969 0.10297
# Poissons Ratio (y) = 0.35589 0.40167
# Poissons Ratio (z) = 0.10704 0.19908
#
# Static dielectric constant tensor:
#      x y z
#    x 4.458180 0.051000 0.141910 
#    y 0.051000 4.210520 0.055480 
#    z 0.141910 0.055480 4.496540 
# 
# 
# High freq. dielectric constant tensor:
#      x y z
#    x 1.968490 0.004190 0.003830 
#    y 0.004190 1.954000 0.009230 
#    z 0.003830 0.009230 1.972790 
# 
# From -- ./inp_files/592677.got.cif
#   From: 2010.06.25/outbox.cif.g09.slc.cpg/sg2_297_cif.got.tgz:592677.got - 2010.06.27 13:26:56.
