data_PCOD8032371
_publ_section_title
;
Structure prediction by ZEFSAII (Michael W. Deem and Ramdas Pophale) SiO2 
 PCOD8032371
Probable space group: P -1
;
_chemical_formula_sum "Si O2"
_cell_formula_units_Z 16
_cell_length_a 17.770037
_cell_length_b 11.241450
_cell_length_c 9.710252
_cell_angle_alpha 81.227196
_cell_angle_beta 36.847470
_cell_angle_gamma 53.190697
_cell_volume 682.030266
_symmetry_space_group_name_H-M "P -1"
_symmetry_group_IT_number 2
_symmetry_cell_setting 'triclinic'
loop_
_space_group_symop_operation_xyz
x,y,z
-x,-y,-z
loop_
_atom_site_type_symbol
_atom_site_label
_atom_site_fract_x
_atom_site_fract_y
_atom_site_fract_z
Si Si1 0.324894 0.957481 0.096344
Si Si2 0.780411 0.589717 0.372299
Si Si3 0.796993 0.372710 0.157615
Si Si4 0.519154 0.574792 0.280765
Si Si5 0.704792 0.300528 0.814086
Si Si6 0.290061 0.977110 0.448244
Si Si7 0.026178 0.238545 0.258470
Si Si8 0.679399 0.906617 0.356522
O O1 0.252705 0.873728 0.219615
O O2 0.331636 0.003936 0.233227
O O3 0.541172 0.807478 0.724934
O O4 0.150066 0.169197 0.231083
O O5 0.783100 0.480328 0.279351
O O6 0.889272 0.463062 0.378533
O O7 0.847594 0.667119 0.189867
O O8 0.668680 0.521305 0.186611
O O9 0.678949 0.342270 0.379339
O O10 0.040001 0.155577 0.807252
O O11 0.413823 0.755548 0.305085
O O12 0.676330 0.367252 0.000777
O O13 0.896168 0.216672 0.468693
O O14 0.500000 0.500000 0.000000
O O15 0.399819 0.975488 0.405019
O O16 0.188313 0.093511 0.918930
O O17 0.500000 0.000000 0.500000
#
# Coordination Sequence:
#
# PCOD8032371 Si02
#       8
#     2   2   2   2   2   2   2   2
#     4  12  26  45  73 107 147 183 236 291 367 427
#     4  12  24  49  73 100 142 195 241 288 355 422
#     4  11  24  41  71 105 142 187 236 287 357 422
#     4  11  23  42  68 106 150 182 227 296 355 429
#     4  12  22  44  71 105 148 189 223 288 369 435
#     4  12  26  43  70 107 143 180 240 299 353 416
#     4  12  25  44  75 102 138 193 237 287 354 424
#     4  12  27  49  76 102 139 193 251 295 346 420
#
# _framework density 23.45937
#
# number of rings (size 3 to 8) (size 9 to 14) (size 15 to 20)
#    0.000    0.250    6.250    2.625    0.000    1.500 
#    0.000    0.625    0.000    0.000    0.000    0.000 
#    0.000    0.000    0.000    0.000    0.000    0.000 
#
# Total GULP energy -198383.004091 kJ/mol
# GULP energy per Si atom -12398.937756 kJ/mol
# Density = 2.340598 g / cm^3
# Si number density = 23.459370 Si / 1000 Ang^3
#
#
#
# Elastic Constant Matrix: (Units=GPa)
#
#
# Indices 1 2 3 4 5 6 
#
# 1 130.4658 39.3402 35.0742 8.0018 16.0784 -29.9652
# 2 39.3402 102.0057 8.9600 6.0456 3.7922 -31.6035
# 3 35.0742 8.9600 68.2908 2.4409 15.1977 -8.6153
# 4 8.0018 6.0456 2.4409 30.5433 -5.9380 0.9029
# 5 16.0784 3.7922 15.1977 -5.9380 30.3221 -0.0506
# 6 -29.9652 -31.6035 -8.6153 0.9029 -0.0506 41.9398
#
#
#
# Elastic Compliance Matrix: (Units=1/GPa)
#
#
# Indices 1 2 3 4 5 6 
#
# 1 0.011374 -0.001807 -0.003690 -0.003403 -0.004612 0.006074
# 2 -0.001807 0.013477 0.000777 -0.002847 -0.001659 0.009083
# 3 -0.003690 0.000777 0.018487 -0.002242 -0.007842 0.001785
# 4 -0.003403 -0.002847 -0.002242 0.036576 0.010437 -0.005812
# 5 -0.004612 -0.001659 -0.007842 0.010437 0.041596 -0.006331
# 6 0.006074 0.009083 0.001785 -0.005812 -0.006331 0.035512
#
#
# Mechanical properties :
#
#
# Convention : Reuss Voigt Hill
#
# Bulk Modulus (GPa) = 29.50167 51.94568 40.72367
# Shear Modulus (GPa) = 28.12736 35.05355 31.59046
#
# Velocity S-wave (km/s) = 3.46639 3.86971 3.67359
# Velocity P-wave (km/s) = 5.35015 6.49285 5.94900
#
# Compressibility (1/GPa) = 0.03389639
#
# Stress axis : x y z
#
# Youngs Moduli (GPa) = 87.91838 74.20260 54.09116
#
# Poissons Ratio (x) = 0.13411 0.19961
# Poissons Ratio (y) = 0.15890 -0.04202
# Poissons Ratio (z) = 0.32445 -0.05764
#
# Static dielectric constant tensor:
#      x y z
#    x 4.311080 -0.331560 -0.088730 
#    y -0.331560 4.471650 -0.035030 
#    z -0.088730 -0.035030 11.519750 
# 
# 
# High freq. dielectric constant tensor:
#      x y z
#    x 1.924730 -0.028440 -0.007490 
#    y -0.028440 1.934160 -0.006760 
#    z -0.007490 -0.006760 1.942240 
# 
# From -- ./inp_files/333209.got.cif
#   From: 2010.06.25/outbox.cif.g09.slc.cpg/sg2_167_cif.got.tgz:333209.got - 2010.06.27 13:26:56.
