data_PCOD8032983
_publ_section_title
;
Structure prediction by ZEFSAII (Michael W. Deem and Ramdas Pophale) SiO2 
 PCOD8032983
Probable space group: P -1
;
_chemical_formula_sum "Si O2"
_cell_formula_units_Z 16
_cell_length_a 8.848973
_cell_length_b 22.117224
_cell_length_c 12.659966
_cell_angle_alpha 27.757731
_cell_angle_beta 143.664148
_cell_angle_gamma 136.147522
_cell_volume 683.439327
_symmetry_space_group_name_H-M "P -1"
_symmetry_group_IT_number 2
_symmetry_cell_setting 'triclinic'
loop_
_space_group_symop_operation_xyz
x,y,z
-x,-y,-z
loop_
_atom_site_type_symbol
_atom_site_label
_atom_site_fract_x
_atom_site_fract_y
_atom_site_fract_z
Si Si1 0.076149 0.408748 0.087632
Si Si2 0.358339 0.537533 0.654544
Si Si3 0.854458 0.147809 0.442363
Si Si4 0.605868 0.758957 0.830957
Si Si5 0.729152 0.985810 0.423967
Si Si6 0.019468 0.742837 0.251206
Si Si7 0.232356 0.471838 0.449158
Si Si8 0.668278 0.002210 0.985440
O O1 0.375827 0.384379 0.300707
O O2 0.934620 0.270720 0.227736
O O3 0.000000 0.500000 0.000000
O O4 0.995124 0.466402 0.840345
O O5 0.142336 0.611859 0.479299
O O6 0.270988 0.534707 0.488672
O O7 0.397601 0.395525 0.946558
O O8 0.664507 0.192034 0.357297
O O9 0.720897 0.048133 0.439298
O O10 0.096588 0.090908 0.726363
O O11 0.666572 0.831380 0.642516
O O12 0.827982 0.805481 0.964173
O O13 0.516655 0.050117 0.131141
O O14 0.000000 0.000000 0.500000
O O15 0.231949 0.854688 0.218912
O O16 0.849127 0.683314 0.345411
O O17 0.500000 0.500000 0.500000
O O18 0.500000 0.000000 0.000000
#
# Coordination Sequence:
#
# PCOD8032983 Si02
#       8
#     2   2   2   2   2   2   2   2
#     4  12  24  44  72 108 142 183 240 293 360 426
#     4  11  25  47  72 107 147 188 233 306 355 427
#     4  12  26  48  75 103 151 187 238 304 347 434
#     4  11  23  48  72 105 146 185 243 292 363 422
#     4  12  27  47  75 102 141 197 238 295 363 425
#     4  11  25  47  76 105 151 188 242 301 357 431
#     4  11  23  44  70 105 146 186 233 295 363 421
#     4  12  26  50  71 109 145 190 248 296 356 431
#
# _framework density 23.411003000000001
#
# number of rings (size 3 to 8) (size 9 to 14) (size 15 to 20)
#    0.000    0.500    5.000    3.375    1.750    5.000 
#    4.500    0.000    0.000    0.000    0.000    0.000 
#    0.000    0.000    0.000    0.000    0.000    0.000 
#
# Total GULP energy -198381.608436 kJ/mol
# GULP energy per Si atom -12398.850527 kJ/mol
# Density = 2.335772 g / cm^3
# Si number density = 23.411003 Si / 1000 Ang^3
#
#
#
# Elastic Constant Matrix: (Units=GPa)
#
#
# Indices 1 2 3 4 5 6 
#
# 1 109.6357 23.8542 51.1150 -5.2826 0.2467 33.5245
# 2 23.8542 81.2350 44.5161 15.4514 -2.3419 18.5068
# 3 51.1150 44.5161 148.1737 21.0175 3.0105 -0.6084
# 4 -5.2826 15.4514 21.0175 54.0507 8.1681 -0.9832
# 5 0.2467 -2.3419 3.0105 8.1681 47.0900 -3.3288
# 6 33.5245 18.5068 -0.6084 -0.9832 -3.3288 34.3875
#
#
#
# Elastic Compliance Matrix: (Units=1/GPa)
#
#
# Indices 1 2 3 4 5 6 
#
# 1 0.018221 0.002412 -0.007616 0.003934 -0.001531 -0.019232
# 2 0.002412 0.018271 -0.005960 -0.003034 0.000935 -0.012287
# 3 -0.007616 -0.005960 0.011693 -0.003445 0.000355 0.010776
# 4 0.003934 -0.003034 -0.003445 0.021637 -0.003847 -0.002017
# 5 -0.001531 0.000935 0.000355 -0.003847 0.022149 0.003029
# 6 -0.019232 -0.012287 0.010776 -0.002017 0.003029 0.054869
#
#
# Mechanical properties :
#
#
# Convention : Reuss Voigt Hill
#
# Bulk Modulus (GPa) = 38.67611 64.22391 51.45001
# Shear Modulus (GPa) = 28.12347 41.74291 34.93319
#
# Velocity S-wave (km/s) = 3.46973 4.22719 3.86705
# Velocity P-wave (km/s) = 5.71037 7.16368 6.47791
#
# Compressibility (1/GPa) = 0.02585575
#
# Stress axis : x y z
#
# Youngs Moduli (GPa) = 54.88137 54.73132 85.52463
#
# Poissons Ratio (x) = -0.13202 0.65138
# Poissons Ratio (y) = -0.13238 0.50976
# Poissons Ratio (z) = 0.41799 0.32622
#
# Static dielectric constant tensor:
#      x y z
#    x 4.364340 0.333110 -0.126820 
#    y 0.333110 4.522560 0.079310 
#    z -0.126820 0.079310 4.509190 
# 
# 
# High freq. dielectric constant tensor:
#      x y z
#    x 1.929890 0.030380 -0.007580 
#    y 0.030380 1.927940 0.009620 
#    z -0.007580 0.009620 1.939810 
# 
# From -- ./inp_files/405347.got.cif
#   From: 2010.06.25/outbox.cif.g09.slc.cpg/sg2_203_cif.got.tgz:405347.got - 2010.06.27 13:26:56.
