data_PCOD8032250
_publ_section_title
;
Structure prediction by ZEFSAII (Michael W. Deem and Ramdas Pophale) SiO2 
 PCOD8032250
Probable space group: P -1
;
_chemical_formula_sum "Si O2"
_cell_formula_units_Z 16
_cell_length_a 23.086262
_cell_length_b 19.548653
_cell_length_c 10.232991
_cell_angle_alpha 34.170580
_cell_angle_beta 146.971145
_cell_angle_gamma 162.663675
_cell_volume 739.593534
_symmetry_space_group_name_H-M "P -1"
_symmetry_group_IT_number 2
_symmetry_cell_setting 'triclinic'
loop_
_space_group_symop_operation_xyz
x,y,z
-x,-y,-z
loop_
_atom_site_type_symbol
_atom_site_label
_atom_site_fract_x
_atom_site_fract_y
_atom_site_fract_z
Si Si1 0.711062 0.505245 0.730369
Si Si2 0.978947 0.398263 0.493598
Si Si3 0.277912 0.239573 0.024723
Si Si4 0.713444 0.800506 0.605275
Si Si5 0.939287 0.783543 0.971184
Si Si6 0.099816 0.297818 0.506732
Si Si7 0.430866 0.907672 0.869689
Si Si8 0.836520 0.383935 0.769933
O O1 0.515959 0.398916 0.560469
O O2 0.893733 0.723602 0.826185
O O3 0.783539 0.597373 0.574738
O O4 0.661063 0.316246 0.962239
O O5 0.739117 0.158153 0.385454
O O6 0.000000 0.500000 0.500000
O O7 0.092489 0.574856 0.308038
O O8 0.080333 0.365298 0.757781
O O9 0.143049 0.228945 0.795752
O O10 0.500000 0.500000 0.000000
O O11 0.276162 0.165416 0.273630
O O12 0.173048 0.055291 0.003692
O O13 0.779059 0.725869 0.815579
O O14 0.856249 0.045462 0.422143
O O15 0.180322 0.489648 0.436952
O O16 0.621429 0.107698 0.817289
O O17 0.500000 0.000000 0.000000
O O18 0.000000 0.500000 0.000000
#
# Coordination Sequence:
#
# PCOD8032250 Si02
#       8
#     2   2   2   2   2   2   2   2
#     4  12  24  46  68 103 139 180 231 286 350 406
#     4  12  26  49  70 101 149 179 229 296 351 412
#     4  11  23  43  68  99 129 177 227 277 340 409
#     4  11  24  45  70  98 136 179 235 282 340 422
#     4  11  26  46  67 100 145 176 224 294 350 400
#     4  11  23  41  71  99 135 178 233 281 339 414
#     4  12  25  44  73 105 136 190 236 283 343 420
#     4  12  24  42  74 104 134 185 237 282 345 413
#
# _framework density 21.633505
#
# number of rings (size 3 to 8) (size 9 to 14) (size 15 to 20)
#    0.000    0.500    5.000    4.125    3.500    2.500 
#    2.250    0.000    0.000    0.000    0.000    0.000 
#    0.000    0.000    0.000    0.000    0.000    0.000 
#
# Total GULP energy -198370.179498 kJ/mol
# GULP energy per Si atom -12398.136219 kJ/mol
# Density = 2.158427 g / cm^3
# Si number density = 21.633505 Si / 1000 Ang^3
#
#
#
# Elastic Constant Matrix: (Units=GPa)
#
#
# Indices 1 2 3 4 5 6 
#
# 1 113.3040 53.2620 30.4104 0.5544 -11.7926 -3.4851
# 2 53.2620 133.4235 30.7893 1.6518 -11.5370 4.6240
# 3 30.4104 30.7893 83.4972 3.6208 1.2432 -2.5691
# 4 0.5544 1.6518 3.6208 38.9464 -2.0488 -4.8954
# 5 -11.7926 -11.5370 1.2432 -2.0488 35.5817 -4.4315
# 6 -3.4851 4.6240 -2.5691 -4.8954 -4.4315 48.0744
#
#
#
# Elastic Compliance Matrix: (Units=1/GPa)
#
#
# Indices 1 2 3 4 5 6 
#
# 1 0.011748 -0.003821 -0.002897 0.000596 0.002964 0.001398
# 2 -0.003821 0.009741 -0.002255 -0.000203 0.001811 -0.001188
# 3 -0.002897 -0.002255 0.013962 -0.001223 -0.002196 0.000426
# 4 0.000596 -0.000203 -0.001223 0.026257 0.002042 0.002859
# 5 0.002964 0.001811 -0.002196 0.002042 0.030232 0.002918
# 6 0.001398 -0.001188 0.000426 0.002859 0.002918 0.021600
#
#
# Mechanical properties :
#
#
# Convention : Reuss Voigt Hill
#
# Bulk Modulus (GPa) = 57.12488 62.12756 59.62622
# Shear Modulus (GPa) = 36.41139 38.90469 37.65804
#
# Velocity S-wave (km/s) = 4.10701 4.24530 4.17673
# Velocity P-wave (km/s) = 6.99665 7.26709 7.13316
#
# Compressibility (1/GPa) = 0.01750551
#
# Stress axis : x y z
#
# Youngs Moduli (GPa) = 85.12090 102.66027 71.62358
#
# Poissons Ratio (x) = 0.39224 0.20748
# Poissons Ratio (y) = 0.32523 0.16152
# Poissons Ratio (z) = 0.24658 0.23151
#
# Static dielectric constant tensor:
#      x y z
#    x 3.911040 -0.186570 0.037900 
#    y -0.186570 5.578650 0.315700 
#    z 0.037900 0.315700 4.174630 
# 
# 
# High freq. dielectric constant tensor:
#      x y z
#    x 1.843300 0.001040 0.004700 
#    y 0.001040 1.855110 0.004620 
#    z 0.004700 0.004620 1.861140 
# 
# From -- ./inp_files/271356.got.cif
#   From: 2010.06.25/outbox.cif.g09.slc.cpg/sg2_136_cif.got.tgz:271356.got - 2010.06.27 13:26:56.
