data_PCOD8032297
_publ_section_title
;
Structure prediction by ZEFSAII (Michael W. Deem and Ramdas Pophale) SiO2 
 PCOD8032297
Probable space group: P -1
;
_chemical_formula_sum "Si O2"
_cell_formula_units_Z 16
_cell_length_a 9.807044
_cell_length_b 8.856542
_cell_length_c 11.892073
_cell_angle_alpha 47.143849
_cell_angle_beta 81.077781
_cell_angle_gamma 86.455474
_cell_volume 746.661259
_symmetry_space_group_name_H-M "P -1"
_symmetry_group_IT_number 2
_symmetry_cell_setting 'triclinic'
loop_
_space_group_symop_operation_xyz
x,y,z
-x,-y,-z
loop_
_atom_site_type_symbol
_atom_site_label
_atom_site_fract_x
_atom_site_fract_y
_atom_site_fract_z
Si Si1 0.012579 0.221488 0.443551
Si Si2 0.619782 0.674638 0.909082
Si Si3 0.094529 0.507642 0.093921
Si Si4 0.484328 0.941022 0.403700
Si Si5 0.740014 0.287111 0.579160
Si Si6 0.352888 0.031419 0.053289
Si Si7 0.132691 0.972137 0.925518
Si Si8 0.232850 0.248266 0.584114
O O1 0.004994 0.398928 0.260592
O O2 0.160979 0.251139 0.470306
O O3 0.892656 0.243741 0.538991
O O4 0.000000 0.000000 0.500000
O O5 0.766429 0.611126 0.877540
O O6 0.567267 0.863762 0.751732
O O7 0.642094 0.745737 0.999212
O O8 0.500000 0.500000 0.000000
O O9 0.140670 0.740775 0.998734
O O10 0.000000 0.500000 0.000000
O O11 0.368302 0.756921 0.487166
O O12 0.630170 0.877229 0.371364
O O13 0.500000 0.000000 0.500000
O O14 0.702029 0.148228 0.763478
O O15 0.730291 0.521925 0.496167
O O16 0.260658 0.041281 0.950833
O O17 0.500000 0.000000 0.000000
O O18 0.127061 0.126969 0.743127
O O19 0.000000 0.000000 0.000000
#
# Coordination Sequence:
#
# PCOD8032297 Si02
#       8
#     2   2   2   2   2   2   2   2
#     4  12  24  43  68  97 133 173 214 271 327 385
#     4  11  24  43  65  94 129 167 214 266 320 382
#     4  12  25  44  68  98 130 171 218 269 326 387
#     4  11  24  42  64  93 127 167 212 263 318 381
#     4  11  24  43  64  95 131 173 219 267 324 386
#     4  11  23  42  64  92 129 172 215 266 320 379
#     4  12  24  41  64  95 128 167 215 266 319 384
#     4  12  24  42  66  96 131 172 216 266 323 386
#
# _framework density 21.428726999999999
#
# number of rings (size 3 to 8) (size 9 to 14) (size 15 to 20)
#    0.000    0.500    0.000   10.500    0.000    3.000 
#    0.000    0.000    0.000    0.000    0.000    0.000 
#    0.000    0.000    0.000    0.000    0.000    0.000 
#
# Total GULP energy -198464.776313 kJ/mol
# GULP energy per Si atom -12404.048520 kJ/mol
# Density = 2.137995 g / cm^3
# Si number density = 21.428727 Si / 1000 Ang^3
#
#
#
# Elastic Constant Matrix: (Units=GPa)
#
#
# Indices 1 2 3 4 5 6 
#
# 1 147.9317 55.8689 34.3742 2.3145 4.0356 -3.4478
# 2 55.8689 171.4451 49.0775 -11.2994 4.2601 17.2454
# 3 34.3742 49.0775 122.7417 -3.8658 -2.1650 5.3134
# 4 2.3145 -11.2994 -3.8658 34.8260 3.6495 -4.4073
# 5 4.0356 4.2601 -2.1650 3.6495 39.0677 10.2427
# 6 -3.4478 17.2454 5.3134 -4.4073 10.2427 56.9267
#
#
#
# Elastic Compliance Matrix: (Units=1/GPa)
#
#
# Indices 1 2 3 4 5 6 
#
# 1 0.008082 -0.002431 -0.001407 -0.001206 -0.000909 0.001428
# 2 -0.002431 0.007614 -0.002215 0.002171 -0.000377 -0.002011
# 3 -0.001407 -0.002215 0.009473 0.000263 0.001008 -0.000459
# 4 -0.001206 0.002171 0.000263 0.030174 -0.003496 0.002210
# 5 -0.000909 -0.000377 0.001008 -0.003496 0.027491 -0.005252
# 6 0.001428 -0.002011 -0.000459 0.002210 -0.005252 0.019421
#
#
# Mechanical properties :
#
#
# Convention : Reuss Voigt Hill
#
# Bulk Modulus (GPa) = 76.55589 80.08441 78.32015
# Shear Modulus (GPa) = 42.11775 46.35061 44.23418
#
# Velocity S-wave (km/s) = 4.43818 4.65587 4.54833
# Velocity P-wave (km/s) = 7.87824 8.14594 8.01321
#
# Compressibility (1/GPa) = 0.01306235
#
# Stress axis : x y z
#
# Youngs Moduli (GPa) = 123.73100 131.34013 105.56678
#
# Poissons Ratio (x) = 0.31934 0.14854
# Poissons Ratio (y) = 0.30084 0.23379
# Poissons Ratio (z) = 0.17409 0.29087
#
# Static dielectric constant tensor:
#      x y z
#    x 4.658920 -0.055250 -0.348670 
#    y -0.055250 3.887180 -0.189880 
#    z -0.348670 -0.189880 3.876880 
# 
# 
# High freq. dielectric constant tensor:
#      x y z
#    x 1.860280 0.004900 -0.001790 
#    y 0.004900 1.866210 0.002410 
#    z -0.001790 0.002410 1.844490 
# 
# From -- ./inp_files/243508.got.cif
#   From: 2010.06.25/outbox.cif.g09.slc.cpg/sg2_122_cif.got.tgz:243508.got - 2010.06.27 13:26:56.
