data_PCOD8032589
_publ_section_title
;
Structure prediction by ZEFSAII (Michael W. Deem and Ramdas Pophale) SiO2 
 PCOD8032589
Probable space group: P -1
;
_chemical_formula_sum "Si O2"
_cell_formula_units_Z 16
_cell_length_a 18.192561
_cell_length_b 12.351847
_cell_length_c 15.249263
_cell_angle_alpha 151.771407
_cell_angle_beta 148.557261
_cell_angle_gamma 49.751334
_cell_volume 764.150653
_symmetry_space_group_name_H-M "P -1"
_symmetry_group_IT_number 2
_symmetry_cell_setting 'triclinic'
loop_
_space_group_symop_operation_xyz
x,y,z
-x,-y,-z
loop_
_atom_site_type_symbol
_atom_site_label
_atom_site_fract_x
_atom_site_fract_y
_atom_site_fract_z
Si Si1 0.737121 0.259069 0.689718
Si Si2 0.098167 0.988131 0.212347
Si Si3 0.697845 0.065089 0.328998
Si Si4 0.365447 0.683336 0.708485
Si Si5 0.898193 0.792621 0.315524
Si Si6 0.440137 0.332484 0.407290
Si Si7 0.103179 0.902796 0.773280
Si Si8 0.867196 0.580381 0.563764
O O1 0.784742 0.246025 0.627933
O O2 0.559443 0.223130 0.486458
O O3 0.762481 0.042608 0.615958
O O4 0.858032 0.523011 0.040118
O O5 0.177988 0.258901 0.438703
O O6 0.959442 0.980016 0.129069
O O7 0.023373 0.764553 0.905518
O O8 0.742918 0.238969 0.411331
O O9 0.742530 0.830857 0.200069
O O10 0.511728 0.944882 0.071559
O O11 0.427107 0.504995 0.594293
O O12 0.274238 0.545821 0.603083
O O13 0.986225 0.823768 0.517475
O O14 0.000000 0.000000 0.500000
O O15 0.500000 0.500000 0.500000
O O16 0.272285 0.102663 0.054811
O O17 0.109297 0.641520 0.622911
#
# Coordination Sequence:
#
# PCOD8032589 Si02
#       8
#     2   2   2   2   2   2   2   2
#     4  12  24  45  65 100 138 174 222 281 328 397
#     4  11  25  45  70  96 133 181 230 283 329 388
#     4  11  24  40  67  96 140 172 218 274 342 405
#     4  11  23  43  67 100 136 183 216 273 346 405
#     4  12  25  37  64 101 137 171 221 274 337 400
#     4  12  24  42  68 102 139 179 217 268 342 413
#     4  12  24  44  70  99 131 180 225 273 339 401
#     4  11  24  45  69  97 134 177 232 278 332 396
#
# _framework density 20.938278
#
# number of rings (size 3 to 8) (size 9 to 14) (size 15 to 20)
#    0.000    0.500    6.250    2.625    1.750    0.500 
#    0.000    3.125    0.000    0.000    0.000    0.000 
#    0.000    0.000    0.000    0.000    0.000    0.000 
#
# Total GULP energy -198437.730365 kJ/mol
# GULP energy per Si atom -12402.358148 kJ/mol
# Density = 2.089062 g / cm^3
# Si number density = 20.938278 Si / 1000 Ang^3
#
#
#
# Elastic Constant Matrix: (Units=GPa)
#
#
# Indices 1 2 3 4 5 6 
#
# 1 66.4033 50.0594 28.0410 2.2102 1.7150 7.7908
# 2 50.0594 171.6947 54.0361 -2.0334 7.4083 5.0658
# 3 28.0410 54.0361 87.1334 2.0750 -2.5791 7.8940
# 4 2.2102 -2.0334 2.0750 32.3604 -1.4220 -2.3866
# 5 1.7150 7.4083 -2.5791 -1.4220 36.7778 7.4960
# 6 7.7908 5.0658 7.8940 -2.3866 7.4960 36.0288
#
#
#
# Elastic Compliance Matrix: (Units=1/GPa)
#
#
# Indices 1 2 3 4 5 6 
#
# 1 0.020557 -0.004924 -0.003215 -0.001729 0.000403 -0.003247
# 2 -0.004924 0.008555 -0.003915 0.001127 -0.001970 0.001204
# 3 -0.003215 -0.003915 0.015284 -0.001095 0.002518 -0.002700
# 4 -0.001729 0.001127 -0.001095 0.031362 0.000494 0.002430
# 5 0.000403 -0.001970 0.002518 0.000494 0.029064 -0.006376
# 6 -0.003247 0.001204 -0.002700 0.002430 -0.006376 0.030367
#
#
# Mechanical properties :
#
#
# Convention : Reuss Voigt Hill
#
# Bulk Modulus (GPa) = 49.28799 65.50050 57.39425
# Shear Modulus (GPa) = 30.10962 33.90636 32.00799
#
# Velocity S-wave (km/s) = 3.79623 4.02848 3.91408
# Velocity P-wave (km/s) = 6.54263 7.27934 6.92079
#
# Compressibility (1/GPa) = 0.02028892
#
# Stress axis : x y z
#
# Youngs Moduli (GPa) = 48.64483 116.89246 65.42660
#
# Poissons Ratio (x) = 0.57557 0.21033
# Poissons Ratio (y) = 0.23952 0.25614
# Poissons Ratio (z) = 0.15638 0.45763
#
# Static dielectric constant tensor:
#      x y z
#    x 3.949400 -0.808980 -0.193720 
#    y -0.808980 6.523090 0.121750 
#    z -0.193720 0.121750 3.773680 
# 
# 
# High freq. dielectric constant tensor:
#      x y z
#    x 1.817770 -0.013650 -0.019260 
#    y -0.013650 1.830580 0.003720 
#    z -0.019260 0.003720 1.819100 
# 
# From -- ./inp_files/208553.got.cif
#   From: 2010.06.25/outbox.cif.g09.slc.cpg/sg2_105_cif.got.tgz:208553.got - 2010.06.27 13:26:56.
