data_PCOD8032304
_publ_section_title
;
Structure prediction by ZEFSAII (Michael W. Deem and Ramdas Pophale) SiO2 
 PCOD8032304
Probable space group: P -1
;
_chemical_formula_sum "Si O2"
_cell_formula_units_Z 16
_cell_length_a 10.487005
_cell_length_b 21.254400
_cell_length_c 6.709051
_cell_angle_alpha 56.597302
_cell_angle_beta 113.072416
_cell_angle_gamma 143.654337
_cell_volume 735.850321
_symmetry_space_group_name_H-M "P -1"
_symmetry_group_IT_number 2
_symmetry_cell_setting 'triclinic'
loop_
_space_group_symop_operation_xyz
x,y,z
-x,-y,-z
loop_
_atom_site_type_symbol
_atom_site_label
_atom_site_fract_x
_atom_site_fract_y
_atom_site_fract_z
Si Si1 0.874788 0.271701 0.916182
Si Si2 0.446031 0.815339 0.459846
Si Si3 0.018532 0.121710 0.771795
Si Si4 0.518720 0.628406 0.292877
Si Si5 0.308662 0.946288 0.605922
Si Si6 0.362401 0.438705 0.826596
Si Si7 0.869523 0.962953 0.286058
Si Si8 0.793379 0.369900 0.011868
O O1 0.763479 0.248092 0.681608
O O2 0.112772 0.341026 0.899368
O O3 0.745395 0.145584 0.127120
O O4 0.871633 0.339661 0.953613
O O5 0.612949 0.838888 0.379765
O O6 0.353777 0.729958 0.735776
O O7 0.613946 0.950267 0.397897
O O8 0.251745 0.255444 0.681624
O O9 0.031075 0.048895 0.795298
O O10 0.879415 0.118689 0.554911
O O11 0.917383 0.065293 0.031917
O O12 0.404979 0.523254 0.553206
O O13 0.566748 0.611437 0.137301
O O14 0.362224 0.634825 0.177991
O O15 0.500000 0.000000 0.500000
O O16 0.500000 0.500000 0.000000
O O17 0.000000 0.000000 0.500000
O O18 0.000000 0.500000 0.000000
#
# Coordination Sequence:
#
# PCOD8032304 Si02
#       8
#     2   2   2   2   2   2   2   2
#     4  12  27  45  72 103 140 183 236 284 347 413
#     4  12  26  44  71 101 139 185 229 283 348 412
#     4  11  25  41  68  99 140 176 225 283 338 410
#     4  11  26  45  71 101 138 178 228 283 342 406
#     4  12  25  44  68 101 143 182 228 285 344 409
#     4  11  26  47  71 102 135 178 231 285 343 408
#     4  11  23  42  65 100 136 177 224 274 341 407
#     4  12  27  48  71 102 139 182 233 290 344 412
#
# _framework density 21.743552999999999
#
# number of rings (size 3 to 8) (size 9 to 14) (size 15 to 20)
#    0.000    0.500    2.500    4.875    5.250    9.000 
#    0.000    0.000    0.000    0.000    0.000    0.000 
#    0.000    0.000    0.000    0.000    0.000    0.000 
#
# Total GULP energy -198320.260406 kJ/mol
# GULP energy per Si atom -12395.016275 kJ/mol
# Density = 2.169406 g / cm^3
# Si number density = 21.743553 Si / 1000 Ang^3
#
#
#
# Elastic Constant Matrix: (Units=GPa)
#
#
# Indices 1 2 3 4 5 6 
#
# 1 88.1067 21.4894 30.9339 -4.0543 -3.2406 6.8572
# 2 21.4894 116.2554 13.3415 6.1000 2.1244 6.3686
# 3 30.9339 13.3415 65.9298 1.1614 -9.1467 -11.4139
# 4 -4.0543 6.1000 1.1614 44.6088 6.7074 -0.0347
# 5 -3.2406 2.1244 -9.1467 6.7074 30.4263 -10.2551
# 6 6.8572 6.3686 -11.4139 -0.0347 -10.2551 31.8088
#
#
#
# Elastic Compliance Matrix: (Units=1/GPa)
#
#
# Indices 1 2 3 4 5 6 
#
# 1 0.015332 -0.001476 -0.008768 0.002409 -0.003932 -0.007421
# 2 -0.001476 0.009362 -0.002004 -0.001035 -0.002190 -0.002983
# 3 -0.008768 -0.002004 0.023966 -0.002945 0.012038 0.014768
# 4 0.002409 -0.001035 -0.002945 0.023911 -0.007046 -0.003614
# 5 -0.003932 -0.002190 0.012038 -0.007046 0.044494 0.019943
# 6 -0.007421 -0.002983 0.014768 -0.003614 0.019943 0.045360
#
#
# Mechanical properties :
#
#
# Convention : Reuss Voigt Hill
#
# Bulk Modulus (GPa) = 41.38294 44.64683 43.01488
# Shear Modulus (GPa) = 25.64441 35.00392 30.32417
#
# Velocity S-wave (km/s) = 3.43797 4.01665 3.73852
# Velocity P-wave (km/s) = 5.90196 6.48762 6.20171
#
# Compressibility (1/GPa) = 0.02416455
#
# Stress axis : x y z
#
# Youngs Moduli (GPa) = 65.22362 106.81136 41.72664
#
# Poissons Ratio (x) = 0.15764 0.36584
# Poissons Ratio (y) = 0.09626 0.08362
# Poissons Ratio (z) = 0.57185 0.21406
#
# Static dielectric constant tensor:
#      x y z
#    x 4.470640 0.647660 0.508860 
#    y 0.647660 5.542960 1.206540 
#    z 0.508860 1.206540 5.028720 
# 
# 
# High freq. dielectric constant tensor:
#      x y z
#    x 1.869450 0.009930 -0.004630 
#    y 0.009930 1.864590 0.000410 
#    z -0.004630 0.000410 1.875920 
# 
# From -- ./inp_files/84235.got.cif
#   From: 2010.06.25/outbox.cif.g09.slc.cpg/sg2_43_cif.got.tgz:84235.got - 2010.06.27 13:26:56.
