data_PCOD8032241
_publ_section_title
;
Structure prediction by ZEFSAII (Michael W. Deem and Ramdas Pophale) SiO2 
 PCOD8032241
Probable space group: P -1
;
_chemical_formula_sum "Si O2"
_cell_formula_units_Z 16
_cell_length_a 19.881085
_cell_length_b 11.631099
_cell_length_c 9.067291
_cell_angle_alpha 142.063869
_cell_angle_beta 127.321172
_cell_angle_gamma 34.736256
_cell_volume 729.221991
_symmetry_space_group_name_H-M "P -1"
_symmetry_group_IT_number 2
_symmetry_cell_setting 'triclinic'
loop_
_space_group_symop_operation_xyz
x,y,z
-x,-y,-z
loop_
_atom_site_type_symbol
_atom_site_label
_atom_site_fract_x
_atom_site_fract_y
_atom_site_fract_z
Si Si1 0.490118 0.995443 0.745109
Si Si2 0.070278 0.568209 0.876299
Si Si3 0.722919 0.496355 0.426892
Si Si4 0.129576 0.786198 0.386694
Si Si5 0.799704 0.967401 0.953057
Si Si6 0.545395 0.219816 0.259801
Si Si7 0.808360 0.891229 0.221022
Si Si8 0.244059 0.294098 0.568081
O O1 0.589753 0.789046 0.547303
O O2 0.510735 0.814614 0.719619
O O3 0.360146 0.178508 0.691249
O O4 0.506158 0.183329 0.016351
O O5 0.086254 0.378279 0.825731
O O6 0.133057 0.430102 0.665258
O O7 0.930725 0.813203 0.911237
O O8 0.128740 0.665531 0.116565
O O9 0.785899 0.443435 0.612585
O O10 0.792640 0.489058 0.378764
O O11 0.721570 0.276144 0.174396
O O12 0.179596 0.908032 0.528710
O O13 0.000000 0.000000 0.500000
O O14 0.731712 0.937197 0.719843
O O15 0.811753 0.848054 0.007033
O O16 0.500000 0.500000 0.500000
O O17 0.687238 0.001207 0.240766
#
# Coordination Sequence:
#
# PCOD8032241 Si02
#       8
#     2   2   2   2   2   2   2   2
#     4  11  25  45  66 101 136 179 229 278 337 400
#     4  12  24  43  67 101 138 173 227 283 338 398
#     4  11  25  45  69  95 141 180 226 281 330 407
#     4  11  23  43  71 104 127 178 232 274 338 398
#     4  11  25  43  65 100 132 184 225 271 340 405
#     4  11  23  41  71 102 135 170 226 290 339 392
#     4  11  23  41  71  99 131 175 226 282 333 404
#     4  12  27  42  68  98 141 183 220 277 345 406
#
# _framework density 21.941192999999998
#
# number of rings (size 3 to 8) (size 9 to 14) (size 15 to 20)
#    0.000    0.750    3.750    4.875    5.250    3.000 
#    0.000    0.000    0.000    0.000    0.000    0.000 
#    0.000    0.000    0.000    0.000    0.000    0.000 
#
# Total GULP energy -198482.633452 kJ/mol
# GULP energy per Si atom -12405.164591 kJ/mol
# Density = 2.189125 g / cm^3
# Si number density = 21.941193 Si / 1000 Ang^3
#
#
#
# Elastic Constant Matrix: (Units=GPa)
#
#
# Indices 1 2 3 4 5 6 
#
# 1 88.3373 13.3608 38.4549 1.0145 -3.2264 0.2633
# 2 13.3608 66.1876 32.2787 3.5119 11.2255 -10.8959
# 3 38.4549 32.2787 137.8501 3.1885 15.1967 12.2085
# 4 1.0145 3.5119 3.1885 28.5952 -9.0340 -2.2424
# 5 -3.2264 11.2255 15.1967 -9.0340 36.9139 0.7906
# 6 0.2633 -10.8959 12.2085 -2.2424 0.7906 30.3815
#
#
#
# Elastic Compliance Matrix: (Units=1/GPa)
#
#
# Indices 1 2 3 4 5 6 
#
# 1 0.013328 -0.001266 -0.003922 0.001292 0.003459 0.001012
# 2 -0.001266 0.020071 -0.004492 -0.002881 -0.005262 0.008938
# 3 -0.003922 -0.004492 0.010361 -0.002064 -0.003623 -0.005798
# 4 0.001292 -0.002881 -0.002064 0.039300 0.011405 0.002389
# 5 0.003459 -0.005262 -0.003623 0.011405 0.033286 -0.000485
# 6 0.001012 0.008938 -0.005798 0.002389 -0.000485 0.038631
#
#
# Mechanical properties :
#
#
# Convention : Reuss Voigt Hill
#
# Bulk Modulus (GPa) = 40.98401 51.17374 46.07888
# Shear Modulus (GPa) = 27.40189 33.06349 30.23269
#
# Velocity S-wave (km/s) = 3.53778 3.88611 3.71603
# Velocity P-wave (km/s) = 5.95042 6.59618 6.28160
#
# Compressibility (1/GPa) = 0.02439976
#
# Stress axis : x y z
#
# Youngs Moduli (GPa) = 75.03175 49.82225 96.51724
#
# Poissons Ratio (x) = 0.06308 0.37857
# Poissons Ratio (y) = 0.09500 0.43352
# Poissons Ratio (z) = 0.29430 0.22378
#
# Static dielectric constant tensor:
#      x y z
#    x 4.081440 -0.078900 0.055820 
#    y -0.078900 3.803700 -0.047170 
#    z 0.055820 -0.047170 4.209580 
# 
# 
# High freq. dielectric constant tensor:
#      x y z
#    x 1.870880 -0.007720 0.003620 
#    y -0.007720 1.851340 0.000330 
#    z 0.003620 0.000330 1.873090 
# 
# From -- ./inp_files/282864.got.cif
#   From: 2010.06.25/outbox.cif.g09.slc.cpg/sg2_142_cif.got.tgz:282864.got - 2010.06.27 13:26:56.
