data_PCOD8032483
_publ_section_title
;
Structure prediction by ZEFSAII (Michael W. Deem and Ramdas Pophale) SiO2 
 PCOD8032483
Probable space group: P -1
;
_chemical_formula_sum "Si O2"
_cell_formula_units_Z 14
_cell_length_a 24.260229
_cell_length_b 8.799076
_cell_length_c 17.644656
_cell_angle_alpha 33.109039
_cell_angle_beta 160.665294
_cell_angle_gamma 146.955382
_cell_volume 656.903324
_symmetry_space_group_name_H-M "P -1"
_symmetry_group_IT_number 2
_symmetry_cell_setting 'triclinic'
loop_
_space_group_symop_operation_xyz
x,y,z
-x,-y,-z
loop_
_atom_site_type_symbol
_atom_site_label
_atom_site_fract_x
_atom_site_fract_y
_atom_site_fract_z
Si Si1 0.789144 0.590560 0.983537
Si Si2 0.000414 0.127451 0.104945
Si Si3 0.531130 0.862841 0.176335
Si Si4 0.068313 0.314870 0.426323
Si Si5 0.832231 0.609346 0.643595
Si Si6 0.657136 0.781199 0.590539
Si Si7 0.372659 0.701846 0.747229
O O1 0.650273 0.319315 0.950700
O O2 0.719362 0.800591 0.749788
O O3 0.912077 0.454321 0.148334
O O4 0.902765 0.790202 0.111950
O O5 0.028802 0.176465 0.211193
O O6 0.184246 0.217848 0.261357
O O7 0.865017 0.296580 0.827278
O O8 0.642714 0.629963 0.413310
O O9 0.625155 0.130166 0.240821
O O10 0.500000 0.000000 0.000000
O O11 0.158459 0.296572 0.471016
O O12 0.187050 0.498168 0.569693
O O13 0.000000 0.000000 0.500000
O O14 0.500000 0.500000 0.500000
O O15 0.579895 0.052920 0.359356
O O16 0.500000 0.500000 0.000000
#
# Coordination Sequence:
#
# PCOD8032483 Si02
#       7
#     2   2   2   2   2   2   2
#     4  12  23  44  71 101 133 187 240 282 344 412
#     4  11  23  42  72 100 136 175 229 297 341 412
#     4  12  26  46  66  99 145 184 227 289 351 414
#     4  12  25  42  71  99 136 187 237 287 343 416
#     4  11  23  44  66  99 139 176 225 288 354 405
#     4  12  22  43  73 102 138 179 231 290 339 413
#     4  12  25  45  68 103 139 183 232 285 347 416
#
# _framework density 21.312117000000001
#
# number of rings (size 3 to 8) (size 9 to 14) (size 15 to 20)
#    0.000    0.286    5.714    3.857    0.000    1.714 
#    0.000    8.571    0.000    0.000    0.000    0.000 
#    0.000    0.000    0.000    0.000    0.000    0.000 
#
# Total GULP energy -173531.948709 kJ/mol
# GULP energy per Si atom -12395.139193 kJ/mol
# Density = 2.126361 g / cm^3
# Si number density = 21.312117 Si / 1000 Ang^3
#
#
#
# Elastic Constant Matrix: (Units=GPa)
#
#
# Indices 1 2 3 4 5 6 
#
# 1 109.2114 51.9935 36.1666 11.0515 -13.5473 -11.6769
# 2 51.9935 151.4960 45.9797 10.2075 -6.6922 -10.5552
# 3 36.1666 45.9797 136.7242 -15.2178 3.6210 5.9069
# 4 11.0515 10.2075 -15.2178 42.5973 -2.3767 -4.1435
# 5 -13.5473 -6.6922 3.6210 -2.3767 46.8915 -1.0502
# 6 -11.6769 -10.5552 5.9069 -4.1435 -1.0502 24.0443
#
#
#
# Elastic Compliance Matrix: (Units=1/GPa)
#
#
# Indices 1 2 3 4 5 6 
#
# 1 0.012816 -0.002699 -0.003153 -0.003079 0.003527 0.005437
# 2 -0.002699 0.008659 -0.002556 -0.001981 0.000616 0.002804
# 3 -0.003153 -0.002556 0.009734 0.004376 -0.001904 -0.004374
# 4 -0.003079 -0.001981 0.004376 0.026412 -0.000147 0.001105
# 5 0.003527 0.000616 -0.001904 -0.000147 0.022649 0.003415
# 6 0.005437 0.002804 -0.004374 0.001105 0.003415 0.046875
#
#
# Mechanical properties :
#
#
# Convention : Reuss Voigt Hill
#
# Bulk Modulus (GPa) = 69.48213 73.96791 71.72502
# Shear Modulus (GPa) = 33.61115 40.25941 36.93528
#
# Velocity S-wave (km/s) = 3.97557 4.35102 4.16753
# Velocity P-wave (km/s) = 7.33120 7.74753 7.54224
#
# Compressibility (1/GPa) = 0.01439219
#
# Stress axis : x y z
#
# Youngs Moduli (GPa) = 78.02480 115.48733 102.73130
#
# Poissons Ratio (x) = 0.31175 0.32396
# Poissons Ratio (y) = 0.21062 0.26256
# Poissons Ratio (z) = 0.24605 0.29516
#
# Static dielectric constant tensor:
#      x y z
#    x 3.901730 -0.202630 -0.100830 
#    y -0.202630 3.850040 -0.006390 
#    z -0.100830 -0.006390 4.329520 
# 
# 
# High freq. dielectric constant tensor:
#      x y z
#    x 1.827750 -0.016420 -0.010700 
#    y -0.016420 1.835750 -0.003690 
#    z -0.010700 -0.003690 1.861420 
# 
# From -- ./inp_files/157330.got.cif
#   From: 2010.06.25/outbox.cif.g09.slc.cpg/sg2_79_cif.got.tgz:157330.got - 2010.06.27 13:26:56.
