data_PCOD8032553
_publ_section_title
;
Structure prediction by ZEFSAII (Michael W. Deem and Ramdas Pophale) SiO2 
 PCOD8032553
Probable space group: P -1
;
_chemical_formula_sum "Si O2"
_cell_formula_units_Z 14
_cell_length_a 6.688062
_cell_length_b 8.905572
_cell_length_c 22.273255
_cell_angle_alpha 51.943237
_cell_angle_beta 138.207416
_cell_angle_gamma 130.578706
_cell_volume 648.447809
_symmetry_space_group_name_H-M "P -1"
_symmetry_group_IT_number 2
_symmetry_cell_setting 'triclinic'
loop_
_space_group_symop_operation_xyz
x,y,z
-x,-y,-z
loop_
_atom_site_type_symbol
_atom_site_label
_atom_site_fract_x
_atom_site_fract_y
_atom_site_fract_z
Si Si1 0.377344 0.616560 0.617481
Si Si2 0.443969 0.738041 0.200646
Si Si3 0.273594 0.117391 0.898559
Si Si4 0.485565 0.088585 0.211984
Si Si5 0.644538 0.376276 0.520314
Si Si6 0.331195 0.967428 0.601097
Si Si7 0.714189 0.533853 0.097690
O O1 0.524289 0.464894 0.716786
O O2 0.537032 0.680686 0.571068
O O3 0.431067 0.809689 0.623461
O O4 0.001980 0.509131 0.552474
O O5 0.658791 0.817115 0.170999
O O6 0.067795 0.664355 0.120026
O O7 0.558116 0.922561 0.228177
O O8 0.370153 0.325313 0.907036
O O9 0.899487 0.968811 0.856011
O O10 0.500000 0.000000 0.000000
O O11 0.662469 0.088459 0.314395
O O12 0.663380 0.314416 0.169322
O O13 0.500000 0.500000 0.500000
O O14 0.625518 0.176824 0.602096
O O15 0.000000 0.000000 0.500000
O O16 0.500000 0.500000 0.000000
#
# Coordination Sequence:
#
# PCOD8032553 Si02
#       7
#     2   2   2   2   2   2   2
#     4  11  25  41  66  94 125 178 218 271 334 385
#     4  11  25  43  68  97 136 174 222 271 337 398
#     4  11  24  45  70  99 134 174 219 273 341 404
#     4  11  26  44  66  99 139 174 222 280 330 395
#     4  11  23  43  63  89 130 167 221 274 323 384
#     4  12  25  42  66  95 132 176 224 272 325 389
#     4  11  25  44  70 102 134 172 218 276 336 400
#
# _framework density 21.590018000000001
#
# number of rings (size 3 to 8) (size 9 to 14) (size 15 to 20)
#    0.000    0.857    1.429    4.714    4.000   11.429 
#    0.000    0.000    0.000    0.000    0.000    0.000 
#    0.000    0.000    0.000    0.000    0.000    0.000 
#
# Total GULP energy -173575.863218 kJ/mol
# GULP energy per Si atom -12398.275944 kJ/mol
# Density = 2.154088 g / cm^3
# Si number density = 21.590018 Si / 1000 Ang^3
#
#
#
# Elastic Constant Matrix: (Units=GPa)
#
#
# Indices 1 2 3 4 5 6 
#
# 1 110.0085 40.5083 29.1204 6.7853 -11.3588 -25.1532
# 2 40.5083 122.6662 25.0769 -14.6618 -7.5614 -28.5731
# 3 29.1204 25.0769 110.4306 -4.2980 -15.0712 -21.1823
# 4 6.7853 -14.6618 -4.2980 43.1735 -3.0939 -2.1354
# 5 -11.3588 -7.5614 -15.0712 -3.0939 44.4801 -5.2662
# 6 -25.1532 -28.5731 -21.1823 -2.1354 -5.2662 44.6770
#
#
#
# Elastic Compliance Matrix: (Units=1/GPa)
#
#
# Indices 1 2 3 4 5 6 
#
# 1 0.011907 -0.002766 -0.001432 -0.002561 0.002431 0.004420
# 2 -0.002766 0.011190 -0.000185 0.004668 0.002167 0.005990
# 3 -0.001432 -0.000185 0.011030 0.001790 0.004041 0.004867
# 4 -0.002561 0.004668 0.001790 0.025741 0.003008 0.003978
# 5 0.002431 0.002167 0.004041 0.003008 0.025982 0.007876
# 6 0.004420 0.005990 0.004867 0.003978 0.007876 0.032128
#
#
# Mechanical properties :
#
#
# Convention : Reuss Voigt Hill
#
# Bulk Modulus (GPa) = 39.43082 59.16850 49.29966
# Shear Modulus (GPa) = 36.98263 43.02609 40.00436
#
# Velocity S-wave (km/s) = 4.14327 4.46900 4.30921
# Velocity P-wave (km/s) = 6.41810 7.35488 6.90240
#
# Compressibility (1/GPa) = 0.02536087
#
# Stress axis : x y z
#
# Youngs Moduli (GPa) = 83.98174 89.36226 90.66356
#
# Poissons Ratio (x) = 0.24719 0.12982
# Poissons Ratio (y) = 0.23230 0.01680
# Poissons Ratio (z) = 0.12026 0.01656
#
# Static dielectric constant tensor:
#      x y z
#    x 3.967120 -0.026940 -0.115000 
#    y -0.026940 4.264240 -0.056790 
#    z -0.115000 -0.056790 4.024760 
# 
# 
# High freq. dielectric constant tensor:
#      x y z
#    x 1.865500 -0.004330 -0.007240 
#    y -0.004330 1.865040 -0.004980 
#    z -0.007240 -0.004980 1.856970 
# 
# From -- ./inp_files/91164.got.cif
#   From: 2010.06.25/outbox.cif.g09.slc.cpg/sg2_46_cif.got.tgz:91164.got - 2010.06.27 13:26:56.
