data_PCOD8032922
_publ_section_title
;
Structure prediction by ZEFSAII (Michael W. Deem and Ramdas Pophale) SiO2 
 PCOD8032922
Probable space group: P -1
;
_chemical_formula_sum "Si O2"
_cell_formula_units_Z 16
_cell_length_a 8.541798
_cell_length_b 20.115525
_cell_length_c 9.193512
_cell_angle_alpha 64.353435
_cell_angle_beta 115.672775
_cell_angle_gamma 148.684701
_cell_volume 733.313753
_symmetry_space_group_name_H-M "P -1"
_symmetry_group_IT_number 2
_symmetry_cell_setting 'triclinic'
loop_
_space_group_symop_operation_xyz
x,y,z
-x,-y,-z
loop_
_atom_site_type_symbol
_atom_site_label
_atom_site_fract_x
_atom_site_fract_y
_atom_site_fract_z
Si Si1 0.194765 0.140019 0.947281
Si Si2 0.696909 0.130105 0.533785
Si Si3 0.220528 0.872983 0.102904
Si Si4 0.624318 0.489050 0.681075
Si Si5 0.281411 0.585559 0.631618
Si Si6 0.684165 0.730173 0.395557
Si Si7 0.305851 0.718866 0.752937
Si Si8 0.749184 0.592398 0.133087
O O1 0.506799 0.231865 0.072041
O O2 0.237438 0.170266 0.762293
O O3 0.019079 0.144598 0.953276
O O4 0.000000 0.000000 0.000000
O O5 0.648179 0.109901 0.706702
O O6 0.578936 0.169117 0.395484
O O7 0.046663 0.236760 0.531481
O O8 0.500000 0.000000 0.500000
O O9 0.056702 0.746264 0.073410
O O10 0.500000 0.000000 0.000000
O O11 0.500000 0.500000 0.500000
O O12 0.610611 0.404100 0.681610
O O13 0.385435 0.406485 0.792070
O O14 0.961743 0.619284 0.754290
O O15 0.591973 0.709049 0.546865
O O16 0.313562 0.648819 0.723483
O O17 0.201916 0.474500 0.743980
O O18 0.000000 0.500000 0.500000
O O19 0.500000 0.500000 0.000000
#
# Coordination Sequence:
#
# PCOD8032922 Si02
#       8
#     2   2   2   2   2   2   2   2
#     4  11  26  46  65  97 137 179 227 279 334 398
#     4  11  23  44  72  93 126 188 233 262 331 419
#     4  11  25  48  68  91 139 185 225 275 334 410
#     4  12  20  44  71  95 131 180 219 278 336 412
#     4  12  24  39  65 104 135 164 215 288 344 387
#     4  11  23  44  68  91 137 177 224 269 337 408
#     4  12  24  41  71 106 136 170 225 287 346 392
#     4  12  25  43  67 101 135 175 227 276 336 413
#
# _framework density 21.818764999999999
#
# number of rings (size 3 to 8) (size 9 to 14) (size 15 to 20)
#    0.000    0.500    6.250    3.000    0.000    7.500 
#    0.000    1.875    0.000    0.000    0.000    0.000 
#    0.000    0.000    0.000    0.000    0.000    0.000 
#
# Total GULP energy -198265.343301 kJ/mol
# GULP energy per Si atom -12391.583956 kJ/mol
# Density = 2.176910 g / cm^3
# Si number density = 21.818765 Si / 1000 Ang^3
#
#
#
# Elastic Constant Matrix: (Units=GPa)
#
#
# Indices 1 2 3 4 5 6 
#
# 1 71.7523 37.5550 29.5372 -11.6245 15.2153 -9.1712
# 2 37.5550 149.5477 46.1524 -9.0968 7.8649 -17.8215
# 3 29.5372 46.1524 90.6644 -7.6304 26.3665 -1.5024
# 4 -11.6245 -9.0968 -7.6304 48.6678 -1.6738 2.3376
# 5 15.2153 7.8649 26.3665 -1.6738 31.7177 0.0455
# 6 -9.1712 -17.8215 -1.5024 2.3376 0.0455 40.9348
#
#
#
# Elastic Compliance Matrix: (Units=1/GPa)
#
#
# Indices 1 2 3 4 5 6 
#
# 1 0.018692 -0.003126 -0.002446 0.003168 -0.005995 0.002563
# 2 -0.003126 0.009042 -0.004354 0.000213 0.002884 0.003061
# 3 -0.002446 -0.004354 0.017709 0.001040 -0.012411 -0.001839
# 4 0.003168 0.000213 0.001040 0.021481 -0.001303 -0.000385
# 5 -0.005995 0.002884 -0.012411 -0.001303 0.043938 -0.000517
# 6 0.002563 0.003061 -0.001839 -0.000385 -0.000517 0.026291
#
#
# Mechanical properties :
#
#
# Convention : Reuss Voigt Hill
#
# Bulk Modulus (GPa) = 39.07660 59.82818 49.45239
# Shear Modulus (GPa) = 30.20517 37.51204 33.85861
#
# Velocity S-wave (km/s) = 3.72474 4.15089 3.94358
# Velocity P-wave (km/s) = 6.03712 7.10304 6.59166
#
# Compressibility (1/GPa) = 0.02559076
#
# Stress axis : x y z
#
# Youngs Moduli (GPa) = 53.49974 110.59951 56.46688
#
# Poissons Ratio (x) = 0.34570 0.13811
# Poissons Ratio (y) = 0.16722 0.24588
# Poissons Ratio (z) = 0.13086 0.48159
#
# Static dielectric constant tensor:
#      x y z
#    x 4.170290 0.360350 -0.165200 
#    y 0.360350 5.852720 0.210850 
#    z -0.165200 0.210850 4.448460 
# 
# 
# High freq. dielectric constant tensor:
#      x y z
#    x 1.848290 -0.006940 0.010510 
#    y -0.006940 1.872280 -0.004690 
#    z 0.010510 -0.004690 1.867240 
# 
# From -- ./inp_files/223486.got.cif
#   From: 2010.06.25/outbox.cif.g09.slc.cpg/sg2_112_cif.got.tgz:223486.got - 2010.06.27 13:26:56.
