data_PCOD8032435
_publ_section_title
;
Structure prediction by ZEFSAII (Michael W. Deem and Ramdas Pophale) SiO2 
 PCOD8032435
Probable space group: P -1
;
_chemical_formula_sum "Si O2"
_cell_formula_units_Z 12
_cell_length_a 9.698790
_cell_length_b 13.609854
_cell_length_c 8.642829
_cell_angle_alpha 59.723340
_cell_angle_beta 77.307692
_cell_angle_gamma 32.583568
_cell_volume 476.192521
_symmetry_space_group_name_H-M "P -1"
_symmetry_group_IT_number 2
_symmetry_cell_setting 'triclinic'
loop_
_space_group_symop_operation_xyz
x,y,z
-x,-y,-z
loop_
_atom_site_type_symbol
_atom_site_label
_atom_site_fract_x
_atom_site_fract_y
_atom_site_fract_z
Si Si1 0.600055 0.497229 0.824399
Si Si2 0.219785 0.865599 0.371727
Si Si3 0.608911 0.831046 0.989460
Si Si4 0.045881 0.132900 0.756186
Si Si5 0.769980 0.496320 0.332853
Si Si6 0.993130 0.277195 0.138909
O O1 0.329515 0.744482 0.609298
O O2 0.801168 0.284223 0.826780
O O3 0.500000 0.500000 0.000000
O O4 0.815745 0.437110 0.900588
O O5 0.466928 0.678477 0.334635
O O6 0.968318 0.960422 0.291088
O O7 0.134121 0.055859 0.254751
O O8 0.773045 0.785268 0.849666
O O9 0.362248 0.919844 0.916554
O O10 0.818217 0.597033 0.213446
O O11 0.500000 0.000000 0.000000
O O12 0.004669 0.283672 0.561977
O O13 0.792746 0.411167 0.232885
#
# Coordination Sequence:
#
# PCOD8032435 Si02
#       6
#     2   2   2   2   2   2
#     4  11  23  42  70 103 141 179 231 282 345 407
#     4  11  25  46  71 106 142 177 228 292 347 403
#     4  12  25  49  70 101 140 188 232 281 345 412
#     4  11  25  45  73 101 143 184 225 290 349 406
#     4  11  25  46  74 103 140 182 235 282 346 408
#     4  12  26  46  74 105 139 185 231 282 345 416
#
# _framework density 25.199891999999998
#
# number of rings (size 3 to 8) (size 9 to 14) (size 15 to 20)
#    0.000    0.667    3.333    4.500    0.000   12.000 
#    0.000    3.333    0.000    0.000    0.000    0.000 
#    0.000    0.000    0.000    0.000    0.000    0.000 
#
# Total GULP energy -148730.961668 kJ/mol
# GULP energy per Si atom -12394.246806 kJ/mol
# Density = 2.514254 g / cm^3
# Si number density = 25.199892 Si / 1000 Ang^3
#
#
#
# Elastic Constant Matrix: (Units=GPa)
#
#
# Indices 1 2 3 4 5 6 
#
# 1 117.7545 24.3699 59.5039 1.5995 -14.6258 -3.8494
# 2 24.3699 67.5087 39.8059 27.6408 -11.9801 14.4817
# 3 59.5039 39.8059 151.9519 17.4623 -15.1578 2.1556
# 4 1.5995 27.6408 17.4623 37.8922 6.6692 -0.7022
# 5 -14.6258 -11.9801 -15.1578 6.6692 45.8273 0.0949
# 6 -3.8494 14.4817 2.1556 -0.7022 0.0949 25.2387
#
#
#
# Elastic Compliance Matrix: (Units=1/GPa)
#
#
# Indices 1 2 3 4 5 6 
#
# 1 0.011611 -0.004952 -0.003845 0.004916 0.000413 0.005076
# 2 -0.004952 0.036097 -0.003015 -0.027048 0.010841 -0.022003
# 3 -0.003845 -0.003015 0.009253 -0.002136 0.001356 0.000289
# 4 0.004916 -0.027048 -0.002136 0.049599 -0.013464 0.017883
# 5 0.000413 0.010841 0.001356 -0.013464 0.027209 -0.006750
# 6 0.005076 -0.022003 0.000289 0.017883 -0.006750 0.053519
#
#
# Mechanical properties :
#
#
# Convention : Reuss Voigt Hill
#
# Bulk Modulus (GPa) = 29.99754 64.95273 47.47513
# Shear Modulus (GPa) = 22.52008 36.02735 29.27371
#
# Velocity S-wave (km/s) = 2.99265 3.78519 3.41201
# Velocity P-wave (km/s) = 4.88579 6.70332 5.86539
#
# Compressibility (1/GPa) = 0.03333607
#
# Stress axis : x y z
#
# Youngs Moduli (GPa) = 86.12782 27.70327 108.07190
#
# Poissons Ratio (x) = 0.13720 0.41554
# Poissons Ratio (y) = 0.42654 0.32581
# Poissons Ratio (z) = 0.33117 0.08352
#
# Static dielectric constant tensor:
#      x y z
#    x 4.899600 -0.319500 0.256050 
#    y -0.319500 4.787990 0.015450 
#    z 0.256050 0.015450 5.175040 
# 
# 
# High freq. dielectric constant tensor:
#      x y z
#    x 1.994660 0.000080 -0.006650 
#    y 0.000080 2.020710 0.009520 
#    z -0.006650 0.009520 2.013650 
# 
# From -- ./inp_files/167497.got.cif
#   From: 2010.06.25/outbox.cif.g09.slc.cpg/sg2_84_cif.got.tgz:167497.got - 2010.06.27 13:26:56.
