data_PCOD8032791
_publ_section_title
;
Structure prediction by ZEFSAII (Michael W. Deem and Ramdas Pophale) SiO2 
 PCOD8032791
Probable space group: P -1
;
_chemical_formula_sum "Si O2"
_cell_formula_units_Z 16
_cell_length_a 11.571323
_cell_length_b 16.089290
_cell_length_c 7.686706
_cell_angle_alpha 141.872509
_cell_angle_beta 113.987621
_cell_angle_gamma 54.526538
_cell_volume 715.995875
_symmetry_space_group_name_H-M "P -1"
_symmetry_group_IT_number 2
_symmetry_cell_setting 'triclinic'
loop_
_space_group_symop_operation_xyz
x,y,z
-x,-y,-z
loop_
_atom_site_type_symbol
_atom_site_label
_atom_site_fract_x
_atom_site_fract_y
_atom_site_fract_z
Si Si1 0.400194 0.173770 0.175925
Si Si2 0.447017 0.173964 0.799398
Si Si3 0.486506 0.418364 0.685357
Si Si4 0.688641 0.268636 0.029093
Si Si5 0.088076 0.332640 0.203611
Si Si6 0.781458 0.299911 0.487454
Si Si7 0.841368 0.575648 0.954297
Si Si8 0.908027 0.174709 0.718259
O O1 0.438619 0.291033 0.498253
O O2 0.235507 0.220748 0.209160
O O3 0.427485 0.197782 0.032257
O O4 0.500000 0.000000 0.000000
O O5 0.292571 0.287074 0.799255
O O6 0.500000 0.000000 0.500000
O O7 0.565129 0.219039 0.877966
O O8 0.373811 0.548806 0.705363
O O9 0.630242 0.339578 0.537838
O O10 0.500000 0.500000 0.000000
O O11 0.794289 0.206806 0.161688
O O12 0.763749 0.211631 0.794166
O O13 0.000000 0.500000 0.500000
O O14 0.151619 0.340724 0.073828
O O15 0.982029 0.260006 0.006612
O O16 0.893116 0.211271 0.563208
O O17 0.798506 0.444431 0.679142
O O18 0.000000 0.500000 0.000000
O O19 0.000000 0.000000 0.500000
#
# Coordination Sequence:
#
# PCOD8032791 Si02
#       8
#     2   2   2   2   2   2   2   2
#     4  11  27  45  72 108 145 185 243 308 365 435
#     4  11  26  43  71 106 142 191 238 302 372 424
#     4  12  24  43  76 108 141 190 244 302 364 431
#     4  12  25  47  75 105 146 187 250 302 357 440
#     4  11  25  47  69 102 144 189 240 292 365 435
#     4  12  24  45  73 106 140 187 246 294 362 435
#     4  11  23  43  72  99 138 184 242 295 350 435
#     4  12  29  46  74 105 149 192 239 301 371 437
#
# _framework density 22.346496999999999
#
# number of rings (size 3 to 8) (size 9 to 14) (size 15 to 20)
#    0.000    0.500    5.000    3.375    7.000    1.500 
#    0.000    0.000    0.000    0.000    0.000    0.000 
#    0.000    0.000    0.000    0.000    0.000    0.000 
#
# Total GULP energy -198254.512398 kJ/mol
# GULP energy per Si atom -12390.907025 kJ/mol
# Density = 2.229564 g / cm^3
# Si number density = 22.346497 Si / 1000 Ang^3
#
#
#
# Elastic Constant Matrix: (Units=GPa)
#
#
# Indices 1 2 3 4 5 6 
#
# 1 120.2584 36.6580 40.2538 10.8639 20.2782 -16.1083
# 2 36.6580 100.1625 53.8737 13.4567 13.1153 -23.8881
# 3 40.2538 53.8737 133.4345 17.1949 18.0037 -13.6112
# 4 10.8639 13.4567 17.1949 45.7196 2.1989 -8.1079
# 5 20.2782 13.1153 18.0037 2.1989 26.3625 -3.7252
# 6 -16.1083 -23.8881 -13.6112 -8.1079 -3.7252 39.6639
#
#
#
# Elastic Compliance Matrix: (Units=1/GPa)
#
#
# Indices 1 2 3 4 5 6 
#
# 1 0.010687 -0.001778 -0.001373 -0.000844 -0.006037 0.002059
# 2 -0.001778 0.014947 -0.004435 -0.001085 -0.002053 0.006344
# 3 -0.001373 -0.004435 0.010442 -0.002194 -0.003749 -0.000446
# 4 -0.000844 -0.001085 -0.002194 0.023731 0.001162 0.003210
# 5 -0.006037 -0.002053 -0.003749 0.001162 0.046002 -0.000417
# 6 0.002059 0.006344 -0.000446 0.003210 -0.000417 0.030333
#
#
# Mechanical properties :
#
#
# Convention : Reuss Voigt Hill
#
# Bulk Modulus (GPa) = 47.83397 68.38072 58.10734
# Shear Modulus (GPa) = 31.58926 37.22052 34.40489
#
# Velocity S-wave (km/s) = 3.76388 4.08561 3.92804
# Velocity P-wave (km/s) = 6.35147 7.27482 6.82877
#
# Compressibility (1/GPa) = 0.02090565
#
# Stress axis : x y z
#
# Youngs Moduli (GPa) = 93.57236 66.90196 95.76673
#
# Poissons Ratio (x) = 0.11895 0.13146
# Poissons Ratio (y) = 0.16637 0.42468
# Poissons Ratio (z) = 0.12845 0.29668
#
# Static dielectric constant tensor:
#      x y z
#    x 4.335170 -0.065500 -0.119180 
#    y -0.065500 5.703780 -0.771030 
#    z -0.119180 -0.771030 4.565600 
# 
# 
# High freq. dielectric constant tensor:
#      x y z
#    x 1.897550 -0.004490 0.006020 
#    y -0.004490 1.886880 0.002140 
#    z 0.006020 0.002140 1.872890 
# 
# From -- ./inp_files/280278.got.cif
#   From: 2010.06.25/outbox.cif.g09.slc.cpg/sg2_141_cif.got.tgz:280278.got - 2010.06.27 13:26:56.
