data_PCOD8032599
_publ_section_title
;
Structure prediction by ZEFSAII (Michael W. Deem and Ramdas Pophale) SiO2 
 PCOD8032599
Probable space group: P -1
;
_chemical_formula_sum "Si O2"
_cell_formula_units_Z 16
_cell_length_a 6.746255
_cell_length_b 27.295076
_cell_length_c 29.866738
_cell_angle_alpha 171.219912
_cell_angle_beta 123.241950
_cell_angle_gamma 56.782699
_cell_volume 701.317117
_symmetry_space_group_name_H-M "P -1"
_symmetry_group_IT_number 2
_symmetry_cell_setting 'triclinic'
loop_
_space_group_symop_operation_xyz
x,y,z
-x,-y,-z
loop_
_atom_site_type_symbol
_atom_site_label
_atom_site_fract_x
_atom_site_fract_y
_atom_site_fract_z
Si Si1 0.558622 0.322400 0.500252
Si Si2 0.839986 0.312981 0.267602
Si Si3 0.284472 0.730020 0.694809
Si Si4 0.798799 0.918642 0.087044
Si Si5 0.732033 0.291601 0.854211
Si Si6 0.003222 0.882085 0.444489
Si Si7 0.456462 0.203951 0.547541
Si Si8 0.332444 0.933209 0.194843
O O1 0.333879 0.575159 0.693361
O O2 0.633218 0.145635 0.303609
O O3 0.504883 0.047912 0.281018
O O4 0.757291 0.538479 0.742796
O O5 0.662018 0.197503 0.181111
O O6 0.022758 0.594791 0.548725
O O7 0.000000 0.000000 0.000000
O O8 0.500000 0.500000 0.500000
O O9 0.254223 0.009108 0.906615
O O10 0.065957 0.980414 0.187757
O O11 0.674988 0.014579 0.631221
O O12 0.500000 0.500000 0.000000
O O13 0.839887 0.131376 0.678012
O O14 0.912312 0.521746 0.109110
O O15 0.264765 0.882395 0.497240
O O16 0.000000 0.000000 0.500000
O O17 0.354114 0.153849 0.440337
O O18 0.405681 0.567691 0.885749
#
# Coordination Sequence:
#
# PCOD8032599 Si02
#       8
#     2   2   2   2   2   2   2   2
#     4  12  27  47  72 103 140 192 241 299 357 437
#     4  11  25  40  70 103 143 179 234 301 374 430
#     4  11  23  43  67 105 136 179 235 299 366 435
#     4  12  27  46  76 100 143 190 242 297 367 425
#     4  12  26  45  77 113 152 190 242 294 362 431
#     4  12  26  45  77 113 152 190 235 297 365 420
#     4  12  28  47  77 106 147 195 242 297 353 427
#     4  12  28  50  70 104 147 193 247 293 352 428
#
# _framework density 22.814215000000001
#
# number of rings (size 3 to 8) (size 9 to 14) (size 15 to 20)
#    0.000    0.250    3.750    4.500    5.250    8.000 
#    0.000    0.000    0.000    0.000    0.000    0.000 
#    0.000    0.000    0.000    0.000    0.000    0.000 
#
# Total GULP energy -198366.265914 kJ/mol
# GULP energy per Si atom -12397.891620 kJ/mol
# Density = 2.276229 g / cm^3
# Si number density = 22.814215 Si / 1000 Ang^3
#
#
#
# Elastic Constant Matrix: (Units=GPa)
#
#
# Indices 1 2 3 4 5 6 
#
# 1 128.6533 36.2223 43.7861 2.4685 0.3240 14.8716
# 2 36.2223 99.1992 21.6808 0.2956 7.4015 4.7113
# 3 43.7861 21.6808 122.9685 1.3087 4.7683 9.8694
# 4 2.4685 0.2956 1.3087 40.1241 6.1966 1.5604
# 5 0.3240 7.4015 4.7683 6.1966 46.3156 -3.8244
# 6 14.8716 4.7113 9.8694 1.5604 -3.8244 31.6037
#
#
#
# Elastic Compliance Matrix: (Units=1/GPa)
#
#
# Indices 1 2 3 4 5 6 
#
# 1 0.009918 -0.002893 -0.002771 -0.000442 0.000466 -0.003292
# 2 -0.002893 0.011483 -0.000904 0.000413 -0.001802 -0.000306
# 3 -0.002771 -0.000904 0.009445 0.000080 -0.000954 -0.001630
# 4 -0.000442 0.000413 0.000080 0.025565 -0.003622 -0.001579
# 5 0.000466 -0.001802 -0.000954 -0.003622 0.022729 0.003277
# 6 -0.003292 -0.000306 -0.001630 -0.001579 0.003277 0.034221
#
#
# Mechanical properties :
#
#
# Convention : Reuss Voigt Hill
#
# Bulk Modulus (GPa) = 56.46555 61.57772 59.02164
# Shear Modulus (GPa) = 37.76438 40.21748 38.99093
#
# Velocity S-wave (km/s) = 4.07295 4.20316 4.13857
# Velocity P-wave (km/s) = 6.85000 7.11371 6.98310
#
# Compressibility (1/GPa) = 0.01770991
#
# Stress axis : x y z
#
# Youngs Moduli (GPa) = 100.82408 87.08851 105.87447
#
# Poissons Ratio (x) = 0.25196 0.29334
# Poissons Ratio (y) = 0.29170 0.09574
# Poissons Ratio (z) = 0.27935 0.07875
#
# Static dielectric constant tensor:
#      x y z
#    x 4.260680 -0.038590 0.277490 
#    y -0.038590 4.229470 -0.058250 
#    z 0.277490 -0.058250 4.351800 
# 
# 
# High freq. dielectric constant tensor:
#      x y z
#    x 1.923220 -0.001100 0.011320 
#    y -0.001100 1.906030 -0.002590 
#    z 0.011320 -0.002590 1.909410 
# 
# From -- ./inp_files/581025.got.cif
#   From: 2010.06.25/outbox.cif.g09.slc.cpg/sg2_291_cif.got.tgz:581025.got - 2010.06.27 13:26:56.
