data_PCOD8032508
_publ_section_title
;
Structure prediction by ZEFSAII (Michael W. Deem and Ramdas Pophale) SiO2 
 PCOD8032508
Probable space group: P -1
;
_chemical_formula_sum "Si O2"
_cell_formula_units_Z 14
_cell_length_a 12.845733
_cell_length_b 11.708094
_cell_length_c 5.248237
_cell_angle_alpha 87.276987
_cell_angle_beta 48.573764
_cell_angle_gamma 83.510810
_cell_volume 587.660061
_symmetry_space_group_name_H-M "P -1"
_symmetry_group_IT_number 2
_symmetry_cell_setting 'triclinic'
loop_
_space_group_symop_operation_xyz
x,y,z
-x,-y,-z
loop_
_atom_site_type_symbol
_atom_site_label
_atom_site_fract_x
_atom_site_fract_y
_atom_site_fract_z
Si Si1 0.439109 0.564840 0.340603
Si Si2 0.882807 0.001437 0.982359
Si Si3 0.052485 0.802574 0.445129
Si Si4 0.391866 0.233968 0.046703
Si Si5 0.609759 0.903441 0.443390
Si Si6 0.895288 0.627096 0.426131
Si Si7 0.863111 0.390309 0.353403
O O1 0.500000 0.500000 0.500000
O O2 0.269680 0.573720 0.619210
O O3 0.500000 0.500000 0.000000
O O4 0.485565 0.691818 0.242264
O O5 0.936402 0.905052 0.700379
O O6 0.854507 0.133557 0.912007
O O7 0.740834 0.964820 0.329773
O O8 0.000000 0.000000 0.000000
O O9 0.158804 0.736164 0.482795
O O10 0.974053 0.693758 0.501728
O O11 0.448679 0.152438 0.200413
O O12 0.257610 0.307493 0.379622
O O13 0.347783 0.177605 0.859405
O O14 0.500000 0.000000 0.500000
O O15 0.873818 0.493258 0.534376
O O16 0.987064 0.628575 0.023434
#
# Coordination Sequence:
#
# PCOD8032508 Si02
#       7
#     2   2   2   2   2   2   2
#     4  12  28  50  73 111 152 200 244 307 381 455
#     4  11  25  45  70 104 149 193 253 316 381 436
#     4  11  23  42  73 102 144 192 244 314 376 442
#     4  12  26  50  78 105 156 198 248 312 389 446
#     4  12  28  48  77 110 147 202 258 311 378 462
#     4  11  24  45  72 111 145 194 248 310 377 450
#     4  11  26  43  75 109 149 192 258 305 375 461
#
# _framework density 23.823295999999999
#
# number of rings (size 3 to 8) (size 9 to 14) (size 15 to 20)
#    0.000    0.571    2.857    4.286    6.000    3.429 
#    0.000    0.000    0.000    0.000    0.000    0.000 
#    0.000    0.000    0.000    0.000    0.000    0.000 
#
# Total GULP energy -173469.687333 kJ/mol
# GULP energy per Si atom -12390.691952 kJ/mol
# Density = 2.376907 g / cm^3
# Si number density = 23.823296 Si / 1000 Ang^3
#
#
#
# Elastic Constant Matrix: (Units=GPa)
#
#
# Indices 1 2 3 4 5 6 
#
# 1 104.0115 61.0861 35.4836 -14.5281 3.7712 9.5113
# 2 61.0861 165.2049 41.7324 -31.8225 -2.1424 -12.7218
# 3 35.4836 41.7324 75.9314 -13.3439 1.8785 7.2464
# 4 -14.5281 -31.8225 -13.3439 41.9687 -6.3304 6.0318
# 5 3.7712 -2.1424 1.8785 -6.3304 42.5104 -10.8139
# 6 9.5113 -12.7218 7.2464 6.0318 -10.8139 39.7557
#
#
#
# Elastic Compliance Matrix: (Units=1/GPa)
#
#
# Indices 1 2 3 4 5 6 
#
# 1 0.014161 -0.004683 -0.003391 0.000617 -0.002536 -0.005052
# 2 -0.004683 0.009841 -0.002946 0.004648 0.002984 0.004913
# 3 -0.003391 -0.002946 0.017215 0.002449 -0.001257 -0.003983
# 4 0.000617 0.004648 0.002449 0.029277 0.003791 -0.002517
# 5 -0.002536 0.002984 -0.001257 0.003791 0.026674 0.008471
# 6 -0.005052 0.004913 -0.003983 -0.002517 0.008471 0.031346
#
#
# Mechanical properties :
#
#
# Convention : Reuss Voigt Hill
#
# Bulk Modulus (GPa) = 52.14323 69.08355 60.61339
# Shear Modulus (GPa) = 31.85771 38.63667 35.24719
#
# Velocity S-wave (km/s) = 3.66081 4.03153 3.85063
# Velocity P-wave (km/s) = 6.30902 7.12266 6.72815
#
# Compressibility (1/GPa) = 0.01917795
#
# Stress axis : x y z
#
# Youngs Moduli (GPa) = 70.61452 101.61323 58.08838
#
# Poissons Ratio (x) = 0.47584 0.19697
# Poissons Ratio (y) = 0.33068 0.17114
# Poissons Ratio (z) = 0.23944 0.29938
#
# Static dielectric constant tensor:
#      x y z
#    x 4.722450 1.424410 0.146470 
#    y 1.424410 9.124290 0.454350 
#    z 0.146470 0.454350 4.091020 
# 
# 
# High freq. dielectric constant tensor:
#      x y z
#    x 1.944410 0.004430 -0.003010 
#    y 0.004430 1.969200 -0.000840 
#    z -0.003010 -0.000840 1.930650 
# 
# From -- ./inp_files/70229.got.cif
#   From: 2010.06.25/outbox.cif.g09.slc.cpg/sg2_36_cif.got.tgz:70229.got - 2010.06.27 13:26:56.
