data_PCOD8032379
_publ_section_title
;
Structure prediction by ZEFSAII (Michael W. Deem and Ramdas Pophale) SiO2 
 PCOD8032379
Probable space group: P -1
;
_chemical_formula_sum "Si O2"
_cell_formula_units_Z 14
_cell_length_a 15.351071
_cell_length_b 11.184699
_cell_length_c 14.812092
_cell_angle_alpha 61.863708
_cell_angle_beta 160.864377
_cell_angle_gamma 108.670032
_cell_volume 662.383715
_symmetry_space_group_name_H-M "P -1"
_symmetry_group_IT_number 2
_symmetry_cell_setting 'triclinic'
loop_
_space_group_symop_operation_xyz
x,y,z
-x,-y,-z
loop_
_atom_site_type_symbol
_atom_site_label
_atom_site_fract_x
_atom_site_fract_y
_atom_site_fract_z
Si Si1 0.660265 0.795762 0.645108
Si Si2 0.827205 0.164977 0.505297
Si Si3 0.728154 0.330362 0.785605
Si Si4 0.253174 0.921817 0.351231
Si Si5 0.395845 0.169938 0.807555
Si Si6 0.212977 0.324876 0.760576
Si Si7 0.065978 0.837793 0.772599
O O1 0.436531 0.771036 0.367213
O O2 0.540684 0.792195 0.630536
O O3 0.641812 0.959177 0.545697
O O4 0.004194 0.679828 0.014074
O O5 0.852669 0.147257 0.645268
O O6 0.066377 0.221066 0.690631
O O7 0.504671 0.288326 0.117850
O O8 0.892990 0.009332 0.574810
O O9 0.500000 0.500000 0.500000
O O10 0.856434 0.277785 0.028223
O O11 0.000000 0.000000 0.000000
O O12 0.298631 0.285530 0.754261
O O13 0.128385 0.214155 0.461866
O O14 0.651916 0.188593 0.999430
O O15 0.500000 0.000000 0.000000
O O16 0.000000 0.500000 0.500000
#
# Coordination Sequence:
#
# PCOD8032379 Si02
#       7
#     2   2   2   2   2   2   2
#     4  11  23  42  68  94 143 178 227 277 341 392
#     4  12  24  43  77  96 133 185 225 281 350 403
#     4  12  26  46  66  99 149 182 224 286 346 411
#     4  11  24  42  72 106 137 170 237 294 324 411
#     4  12  23  44  72 100 131 171 233 293 330 406
#     4  12  28  48  67 102 142 176 225 292 354 405
#     4  12  23  42  74 103 124 178 239 273 336 407
#
# _framework density 21.135786
#
# number of rings (size 3 to 8) (size 9 to 14) (size 15 to 20)
#    0.000    0.286    5.714    3.000    6.000    0.000 
#    7.714    0.000    0.000    0.000    0.000    0.000 
#    0.000    0.000    0.000    0.000    0.000    0.000 
#
# Total GULP energy -173628.645354 kJ/mol
# GULP energy per Si atom -12402.046097 kJ/mol
# Density = 2.108768 g / cm^3
# Si number density = 21.135786 Si / 1000 Ang^3
#
#
#
# Elastic Constant Matrix: (Units=GPa)
#
#
# Indices 1 2 3 4 5 6 
#
# 1 144.6727 51.0538 75.4640 -7.3661 21.7830 -9.1135
# 2 51.0538 44.4820 38.5370 -0.0063 -9.3625 -8.4193
# 3 75.4640 38.5370 140.1385 6.9359 12.4208 -9.9534
# 4 -7.3661 -0.0063 6.9359 52.1776 -2.0837 7.0692
# 5 21.7830 -9.3625 12.4208 -2.0837 45.0187 6.1882
# 6 -9.1135 -8.4193 -9.9534 7.0692 6.1882 29.6706
#
#
#
# Elastic Compliance Matrix: (Units=1/GPa)
#
#
# Indices 1 2 3 4 5 6 
#
# 1 0.017259 -0.019569 -0.002953 0.002278 -0.011587 0.000631
# 2 -0.019569 0.055928 -0.006515 -0.001451 0.022369 0.003354
# 3 -0.002953 -0.006515 0.011093 -0.002330 -0.003401 0.002230
# 4 0.002278 -0.001451 -0.002330 0.020594 0.000962 -0.005601
# 5 -0.011587 0.022369 -0.003401 0.000962 0.034241 -0.005723
# 6 0.000631 0.003354 0.002230 -0.005601 -0.005723 0.038125
#
#
# Mechanical properties :
#
#
# Convention : Reuss Voigt Hill
#
# Bulk Modulus (GPa) = 38.15963 73.26697 55.71330
# Shear Modulus (GPa) = 20.48764 36.32260 28.40512
#
# Velocity S-wave (km/s) = 3.11679 4.15002 3.66995
# Velocity P-wave (km/s) = 5.57191 7.59629 6.66145
#
# Compressibility (1/GPa) = 0.02620570
#
# Stress axis : x y z
#
# Youngs Moduli (GPa) = 57.94096 17.88007 90.14884
#
# Poissons Ratio (x) = 0.34990 0.26625
# Poissons Ratio (y) = 1.13386 0.58728
# Poissons Ratio (z) = 0.17112 0.11648
#
# Static dielectric constant tensor:
#      x y z
#    x 4.381800 0.175060 0.454560 
#    y 0.175060 4.153390 0.429240 
#    z 0.454560 0.429240 4.134770 
# 
# 
# High freq. dielectric constant tensor:
#      x y z
#    x 1.844380 -0.007270 0.017330 
#    y -0.007270 1.817020 0.019820 
#    z 0.017330 0.019820 1.840280 
# 
# From -- ./inp_files/531772.got.cif
#   From: 2010.06.25/outbox.cif.g09.slc.cpg/sg2_266_cif.got.tgz:531772.got - 2010.06.27 13:26:56.
