data_PCOD8032142
_publ_section_title
;
Structure prediction by ZEFSAII (Michael W. Deem and Ramdas Pophale) SiO2 
 PCOD8032142
Probable space group: P -1
;
_chemical_formula_sum "Si O2"
_cell_formula_units_Z 14
_cell_length_a 6.991913
_cell_length_b 11.290084
_cell_length_c 19.694376
_cell_angle_alpha 29.014658
_cell_angle_beta 112.658706
_cell_angle_gamma 122.788231
_cell_volume 618.870912
_symmetry_space_group_name_H-M "P -1"
_symmetry_group_IT_number 2
_symmetry_cell_setting 'triclinic'
loop_
_space_group_symop_operation_xyz
x,y,z
-x,-y,-z
loop_
_atom_site_type_symbol
_atom_site_label
_atom_site_fract_x
_atom_site_fract_y
_atom_site_fract_z
Si Si1 0.191732 0.118879 0.157973
Si Si2 0.348653 0.708615 0.338598
Si Si3 0.423276 0.705191 0.201171
Si Si4 0.729045 0.839410 0.060272
Si Si5 0.352470 0.593139 0.840220
Si Si6 0.993416 0.806057 0.657499
Si Si7 0.149268 0.123582 0.650892
O O1 0.396892 0.205833 0.197227
O O2 0.214420 0.895354 0.223241
O O3 0.201012 0.369672 0.989115
O O4 0.953170 0.992757 0.230717
O O5 0.391925 0.595761 0.328553
O O6 0.189517 0.436687 0.495874
O O7 0.603369 0.883583 0.319223
O O8 0.673266 0.768152 0.169295
O O9 0.226380 0.489498 0.233022
O O10 0.402662 0.984591 0.065345
O O11 0.609919 0.558783 0.143184
O O12 0.000000 0.000000 0.000000
O O13 0.224680 0.765714 0.709903
O O14 0.000000 0.000000 0.500000
O O15 0.977533 0.940795 0.659265
#
# Coordination Sequence:
#
# PCOD8032142 Si02
#       7
#     2   2   2   2   2   2   2
#     4  11  24  44  71 101 134 177 230 282 336 396
#     4  11  23  44  66 103 133 175 229 276 335 407
#     4  11  24  40  70  96 137 178 218 279 340 399
#     4  11  23  41  65  99 132 172 224 275 337 399
#     4  11  24  44  67 100 140 175 229 285 329 407
#     4  12  24  46  67  99 140 183 225 276 339 407
#     4  11  25  43  71  97 138 180 222 280 338 401
#
# _framework density 22.621843999999999
#
# number of rings (size 3 to 8) (size 9 to 14) (size 15 to 20)
#    0.000    0.857    5.714    1.286    2.000    0.571 
#    0.000    5.714    0.000    0.000    0.000    0.000 
#    0.000    0.000    0.000    0.000    0.000    0.000 
#
# Total GULP energy -173606.427018 kJ/mol
# GULP energy per Si atom -12400.459073 kJ/mol
# Density = 2.257036 g / cm^3
# Si number density = 22.621844 Si / 1000 Ang^3
#
#
#
# Elastic Constant Matrix: (Units=GPa)
#
#
# Indices 1 2 3 4 5 6 
#
# 1 104.5673 26.9978 39.0998 1.1925 -4.1683 -21.0453
# 2 26.9978 92.1189 11.2942 1.8288 -1.5874 -19.7147
# 3 39.0998 11.2942 93.5181 8.9608 4.2363 -4.7843
# 4 1.1925 1.8288 8.9608 35.0137 -1.1950 -2.0363
# 5 -4.1683 -1.5874 4.2363 -1.1950 39.1682 11.1188
# 6 -21.0453 -19.7147 -4.7843 -2.0363 11.1188 29.7277
#
#
#
# Elastic Compliance Matrix: (Units=1/GPa)
#
#
# Indices 1 2 3 4 5 6 
#
# 1 0.013462 -0.001683 -0.005150 0.001391 -0.000242 0.007771
# 2 -0.001683 0.013108 -0.000363 -0.000126 -0.001928 0.008156
# 3 -0.005150 -0.000363 0.013217 -0.003325 -0.001711 -0.001347
# 4 0.001391 -0.000126 -0.003325 0.029519 0.000811 0.002085
# 5 -0.000242 -0.001928 -0.001711 0.000811 0.029212 -0.012596
# 6 0.007771 0.008156 -0.001347 0.002085 -0.012596 0.049186
#
#
# Mechanical properties :
#
#
# Convention : Reuss Voigt Hill
#
# Bulk Modulus (GPa) = 39.37598 49.44309 44.40954
# Shear Modulus (GPa) = 29.31502 34.96940 32.14221
#
# Velocity S-wave (km/s) = 3.60373 3.93596 3.77350
# Velocity P-wave (km/s) = 5.89574 6.52377 6.21769
#
# Compressibility (1/GPa) = 0.02539620
#
# Stress axis : x y z
#
# Youngs Moduli (GPa) = 74.28403 76.29021 75.65816
#
# Poissons Ratio (x) = 0.12836 0.38963
# Poissons Ratio (y) = 0.12499 0.02746
# Poissons Ratio (z) = 0.38256 0.02769
#
# Static dielectric constant tensor:
#      x y z
#    x 4.038740 -0.292470 -0.145720 
#    y -0.292470 4.276010 -0.050280 
#    z -0.145720 -0.050280 3.991500 
# 
# 
# High freq. dielectric constant tensor:
#      x y z
#    x 1.883200 -0.012140 -0.005780 
#    y -0.012140 1.904970 -0.004670 
#    z -0.005780 -0.004670 1.888950 
# 
# From -- ./inp_files/72409.got.cif
#   From: 2010.06.25/outbox.cif.g09.slc.cpg/sg2_37_cif.got.tgz:72409.got - 2010.06.27 13:26:56.
