data_PCOD8032219
_publ_section_title
;
Structure prediction by ZEFSAII (Michael W. Deem and Ramdas Pophale) SiO2 
 PCOD8032219
Probable space group: P -1
;
_chemical_formula_sum "Si O2"
_cell_formula_units_Z 16
_cell_length_a 8.591241
_cell_length_b 10.506465
_cell_length_c 11.747541
_cell_angle_alpha 124.183610
_cell_angle_beta 108.753677
_cell_angle_gamma 55.228624
_cell_volume 720.549733
_symmetry_space_group_name_H-M "P -1"
_symmetry_group_IT_number 2
_symmetry_cell_setting 'triclinic'
loop_
_space_group_symop_operation_xyz
x,y,z
-x,-y,-z
loop_
_atom_site_type_symbol
_atom_site_label
_atom_site_fract_x
_atom_site_fract_y
_atom_site_fract_z
Si Si1 0.269666 0.689563 0.711973
Si Si2 0.368130 0.979933 0.867093
Si Si3 0.017516 0.394300 0.288833
Si Si4 0.324638 0.574851 0.268687
Si Si5 0.653046 0.106276 0.612767
Si Si6 0.848304 0.637553 0.951204
Si Si7 0.983387 0.260361 0.532833
Si Si8 0.402998 0.131150 0.362943
O O1 0.279489 0.864496 0.838229
O O2 0.480285 0.521222 0.662380
O O3 0.165633 0.729143 0.588191
O O4 0.152216 0.648559 0.757734
O O5 0.476155 0.892206 0.732150
O O6 0.500000 0.000000 0.000000
O O7 0.208602 0.180215 0.905599
O O8 0.083928 0.349552 0.152373
O O9 0.943794 0.600118 0.404818
O O10 0.187169 0.278785 0.359499
O O11 0.316894 0.415707 0.120126
O O12 0.133434 0.680396 0.348935
O O13 0.317837 0.728842 0.263670
O O14 0.489192 0.183867 0.516628
O O15 0.838702 0.937470 0.517534
O O16 0.593216 0.049583 0.687080
O O17 0.000000 0.500000 0.000000
#
# Coordination Sequence:
#
# PCOD8032219 Si02
#       8
#     2   2   2   2   2   2   2   2
#     4  12  24  41  72  98 132 179 222 271 331 405
#     4  12  24  48  68  95 132 182 229 266 334 394
#     4  11  24  45  67 101 134 175 222 273 338 395
#     4  11  24  43  64  99 134 174 227 272 334 393
#     4  11  25  40  69 106 134 173 223 276 338 390
#     4  11  27  46  68  93 134 175 223 284 325 391
#     4  11  23  41  69  99 138 172 218 278 334 397
#     4  11  24  44  70  97 142 176 214 283 330 397
#
# _framework density 22.205269999999999
#
# number of rings (size 3 to 8) (size 9 to 14) (size 15 to 20)
#    0.000    0.750    3.750    3.375    8.750    0.500 
#    2.250    1.250    0.000    0.000    0.000    0.000 
#    0.000    0.000    0.000    0.000    0.000    0.000 
#
# Total GULP energy -198334.795644 kJ/mol
# GULP energy per Si atom -12395.924728 kJ/mol
# Density = 2.215473 g / cm^3
# Si number density = 22.205270 Si / 1000 Ang^3
#
#
#
# Elastic Constant Matrix: (Units=GPa)
#
#
# Indices 1 2 3 4 5 6 
#
# 1 120.0218 51.6060 27.0293 12.8948 22.3007 13.6726
# 2 51.6060 124.1865 26.8207 17.8972 17.1442 13.0294
# 3 27.0293 26.8207 50.7078 11.1088 14.8411 13.2930
# 4 12.8948 17.8972 11.1088 52.1474 6.4142 10.3566
# 5 22.3007 17.1442 14.8411 6.4142 28.5220 7.9920
# 6 13.6726 13.0294 13.2930 10.3566 7.9920 47.1380
#
#
#
# Elastic Compliance Matrix: (Units=1/GPa)
#
#
# Indices 1 2 3 4 5 6 
#
# 1 0.011451 -0.003354 -0.002500 -0.000349 -0.005360 -0.000704
# 2 -0.003354 0.010611 -0.002771 -0.001915 -0.001754 -0.000461
# 3 -0.002500 -0.002771 0.026581 -0.002233 -0.008571 -0.004061
# 4 -0.000349 -0.001915 -0.002233 0.021185 -0.001289 -0.003176
# 5 -0.005360 -0.001754 -0.008571 -0.001289 0.045909 -0.003044
# 6 -0.000704 -0.000461 -0.004061 -0.003176 -0.003044 0.023905
#
#
# Mechanical properties :
#
#
# Convention : Reuss Voigt Hill
#
# Bulk Modulus (GPa) = 31.85407 56.20312 44.02860
# Shear Modulus (GPa) = 29.87645 38.19215 34.03430
#
# Velocity S-wave (km/s) = 3.67204 4.15174 3.91923
# Velocity P-wave (km/s) = 5.68814 6.95329 6.35229
#
# Compressibility (1/GPa) = 0.03139316
#
# Stress axis : x y z
#
# Youngs Moduli (GPa) = 87.33100 94.24002 37.62055
#
# Poissons Ratio (x) = 0.31612 0.09404
# Poissons Ratio (y) = 0.29294 0.10424
# Poissons Ratio (z) = 0.21830 0.26113
#
# Static dielectric constant tensor:
#      x y z
#    x 4.012540 0.353920 1.116720 
#    y 0.353920 3.211150 -2.998340 
#    z 1.116720 -2.998340 -5.125910 
# 
# 
# High freq. dielectric constant tensor:
#      x y z
#    x 1.882160 0.003410 0.014830 
#    y 0.003410 1.897640 0.008170 
#    z 0.014830 0.008170 1.850200 
# 
# From -- ./inp_files/383318.got.cif
#   From: 2010.06.25/outbox.cif.g09.slc.cpg/sg2_192_cif.got.tgz:383318.got - 2010.06.27 13:26:56.
