data_PCOD8032210
_publ_section_title
;
Structure prediction by ZEFSAII (Michael W. Deem and Ramdas Pophale) SiO2 
 PCOD8032210
Probable space group: P -1
;
_chemical_formula_sum "Si O2"
_cell_formula_units_Z 16
_cell_length_a 8.713521
_cell_length_b 12.457574
_cell_length_c 13.512385
_cell_angle_alpha 114.892409
_cell_angle_beta 82.898395
_cell_angle_gamma 144.555252
_cell_volume 701.347036
_symmetry_space_group_name_H-M "P -1"
_symmetry_group_IT_number 2
_symmetry_cell_setting 'triclinic'
loop_
_space_group_symop_operation_xyz
x,y,z
-x,-y,-z
loop_
_atom_site_type_symbol
_atom_site_label
_atom_site_fract_x
_atom_site_fract_y
_atom_site_fract_z
Si Si1 0.175334 0.316509 0.263009
Si Si2 0.554406 0.270141 0.564621
Si Si3 0.953182 0.609005 0.057786
Si Si4 0.866400 0.120551 0.397951
Si Si5 0.520283 0.705334 0.865105
Si Si6 0.970059 0.592060 0.359731
Si Si7 0.802583 0.126387 0.041553
Si Si8 0.612065 0.022230 0.679690
O O1 0.413513 0.567997 0.376911
O O2 0.336272 0.323815 0.187938
O O3 0.040368 0.166159 0.313879
O O4 0.929093 0.221665 0.178751
O O5 0.439797 0.147744 0.418698
O O6 0.878404 0.426116 0.614871
O O7 0.327121 0.092298 0.602409
O O8 0.657728 0.437289 0.075353
O O9 0.219996 0.853682 0.182514
O O10 0.945896 0.659966 0.968636
O O11 0.000000 0.500000 0.000000
O O12 0.686240 0.099860 0.340772
O O13 0.095178 0.347594 0.531372
O O14 0.316641 0.626345 0.763518
O O15 0.763057 0.960777 0.963491
O O16 0.211050 0.802764 0.352779
O O17 0.500000 0.000000 0.000000
#
# Coordination Sequence:
#
# PCOD8032210 Si02
#       8
#     2   2   2   2   2   2   2   2
#     4  12  26  37  60  95 129 164 200 247 314 372
#     4   9  19  38  64  90 121 159 204 256 299 364
#     4  11  23  41  69  91 115 164 207 260 308 351
#     4   9  19  36  61  89 124 161 199 253 303 354
#     4  11  25  43  59  93 131 156 203 259 302 370
#     4   8  17  38  64  87 119 161 208 251 297 357
#     4  12  25  42  65  90 116 165 214 253 296 363
#     4   8  17  36  62  95 117 151 213 261 295 352
#
# _framework density 22.813244000000001
#
# number of rings (size 3 to 8) (size 9 to 14) (size 15 to 20)
#    0.000    2.000    1.250    3.375    3.500    5.000 
#    0.000    5.625    0.000    0.000    0.000    0.000 
#    0.000    0.000    0.000    0.000    0.000    0.000 
#
# Total GULP energy -198286.083297 kJ/mol
# GULP energy per Si atom -12392.880206 kJ/mol
# Density = 2.276132 g / cm^3
# Si number density = 22.813244 Si / 1000 Ang^3
#
#
#
# Elastic Constant Matrix: (Units=GPa)
#
#
# Indices 1 2 3 4 5 6 
#
# 1 49.6013 22.0924 19.1590 -1.0550 -24.4622 4.9138
# 2 22.0924 82.3068 40.1475 -5.2777 -2.3809 4.4964
# 3 19.1590 40.1475 117.8449 5.2972 -15.8875 -3.2597
# 4 -1.0550 -5.2777 5.2972 44.0113 -4.3345 -12.1632
# 5 -24.4622 -2.3809 -15.8875 -4.3345 27.8460 -2.5279
# 6 4.9138 4.4964 -3.2597 -12.1632 -2.5279 24.8152
#
#
#
# Elastic Compliance Matrix: (Units=1/GPa)
#
#
# Indices 1 2 3 4 5 6 
#
# 1 0.043887 -0.011284 0.001805 0.003066 0.039011 -0.000932
# 2 -0.011284 0.017948 -0.005994 0.000686 -0.011935 -0.002685
# 3 0.001805 -0.005994 0.011377 -0.000522 0.007733 0.002755
# 4 0.003066 0.000686 -0.000522 0.027443 0.007948 0.013461
# 5 0.039011 -0.011935 0.007733 0.007948 0.075450 0.007035
# 6 -0.000932 -0.002685 0.002755 0.013461 0.007035 0.048645
#
#
# Mechanical properties :
#
#
# Convention : Reuss Voigt Hill
#
# Bulk Modulus (GPa) = 23.66061 45.83899 34.74980
# Shear Modulus (GPa) = 18.53339 30.55811 24.54575
#
# Velocity S-wave (km/s) = 2.85335 3.66387 3.28372
# Velocity P-wave (km/s) = 4.60971 6.16728 5.44448
#
# Compressibility (1/GPa) = 0.04226433
#
# Stress axis : x y z
#
# Youngs Moduli (GPa) = 22.78601 55.71745 87.90044
#
# Poissons Ratio (x) = 0.62874 -0.15868
# Poissons Ratio (y) = 0.25713 0.52688
# Poissons Ratio (z) = -0.04113 0.33397
#
# Static dielectric constant tensor:
#      x y z
#    x 1.522620 -0.279270 -3.249680 
#    y -0.279270 3.984140 -0.639930 
#    z -3.249680 -0.639930 -0.523010 
# 
# 
# High freq. dielectric constant tensor:
#      x y z
#    x 1.855290 0.004380 -0.010340 
#    y 0.004380 1.902990 -0.004340 
#    z -0.010340 -0.004340 1.919490 
# 
# From -- ./inp_files/500703.got.cif
#   From: 2010.06.25/outbox.cif.g09.slc.cpg/sg2_251_cif.got.tgz:500703.got - 2010.06.27 13:26:56.
