data_PCOD8032411
_publ_section_title
;
Structure prediction by ZEFSAII (Michael W. Deem and Ramdas Pophale) SiO2 
 PCOD8032411
Probable space group: P -1
;
_chemical_formula_sum "Si O2"
_cell_formula_units_Z 14
_cell_length_a 15.623594
_cell_length_b 10.300931
_cell_length_c 11.852267
_cell_angle_alpha 56.326761
_cell_angle_beta 48.369029
_cell_angle_gamma 28.664321
_cell_volume 681.728355
_symmetry_space_group_name_H-M "P -1"
_symmetry_group_IT_number 2
_symmetry_cell_setting 'triclinic'
loop_
_space_group_symop_operation_xyz
x,y,z
-x,-y,-z
loop_
_atom_site_type_symbol
_atom_site_label
_atom_site_fract_x
_atom_site_fract_y
_atom_site_fract_z
Si Si1 0.675359 0.269580 0.370040
Si Si2 0.145249 0.220962 0.444695
Si Si3 0.134227 0.637279 0.791102
Si Si4 0.521299 0.955338 0.134770
Si Si5 0.893059 0.283447 0.476200
Si Si6 0.529930 0.532424 0.778008
Si Si7 0.690667 0.086987 0.002094
O O1 0.500000 0.500000 0.500000
O O2 0.855925 0.188624 0.274042
O O3 0.596558 0.381556 0.259415
O O4 0.756607 0.004022 0.441226
O O5 0.000000 0.500000 0.500000
O O6 0.033925 0.244861 0.436428
O O7 0.310616 0.138935 0.278986
O O8 0.313191 0.358455 0.835475
O O9 0.159984 0.579288 0.663122
O O10 0.927467 0.797051 0.939760
O O11 0.500000 0.000000 0.000000
O O12 0.579693 0.049589 0.098699
O O13 0.689595 0.486121 0.626298
O O14 0.000000 0.000000 0.500000
O O15 0.645587 0.253256 0.858306
O O16 0.378215 0.767590 0.888984
#
# Coordination Sequence:
#
# PCOD8032411 Si02
#       7
#     2   2   2   2   2   2   2
#     4  12  22  43  72  99 127 177 237 277 325 395
#     4  12  26  43  68 103 135 171 223 288 342 382
#     4  12  24  41  71  95 126 180 236 264 327 410
#     4  12  26  43  64  94 141 175 219 274 336 406
#     4  12  21  42  74  95 125 176 234 276 320 401
#     4  11  23  42  69  95 135 170 222 285 331 398
#     4  11  25  42  62 100 136 175 214 273 352 393
#
# _framework density 20.536038000000001
#
# number of rings (size 3 to 8) (size 9 to 14) (size 15 to 20)
#    0.000    0.286    5.714    3.000    0.000    4.000 
#    0.000    2.857    0.000    0.000    0.000    0.000 
#    0.000    0.000    0.000    0.000    0.000    0.000 
#
# Total GULP energy -173713.235473 kJ/mol
# GULP energy per Si atom -12408.088248 kJ/mol
# Density = 2.048930 g / cm^3
# Si number density = 20.536038 Si / 1000 Ang^3
#
#
#
# Elastic Constant Matrix: (Units=GPa)
#
#
# Indices 1 2 3 4 5 6 
#
# 1 147.5980 40.8554 68.0388 7.3586 -11.0508 -1.3769
# 2 40.8554 123.3427 57.6195 7.6238 7.5901 0.3826
# 3 68.0388 57.6195 138.9298 12.7596 -5.6817 -11.0773
# 4 7.3586 7.6238 12.7596 25.3547 -6.5377 -3.1050
# 5 -11.0508 7.5901 -5.6817 -6.5377 49.1652 -5.2015
# 6 -1.3769 0.3826 -11.0773 -3.1050 -5.2015 34.7708
#
#
#
# Elastic Compliance Matrix: (Units=1/GPa)
#
#
# Indices 1 2 3 4 5 6 
#
# 1 0.009039 -0.001294 -0.003875 0.000090 0.001733 -0.000595
# 2 -0.001294 0.010648 -0.003888 -0.001846 -0.002841 -0.001997
# 3 -0.003875 -0.003888 0.011268 -0.002695 0.001032 0.003393
# 4 0.000090 -0.001846 -0.002695 0.043407 0.006185 0.003967
# 5 0.001733 -0.002841 0.001032 0.006185 0.022570 0.004357
# 6 -0.000595 -0.001997 0.003393 0.003967 0.004357 0.030845
#
#
# Mechanical properties :
#
#
# Convention : Reuss Voigt Hill
#
# Bulk Modulus (GPa) = 77.87556 82.54420 80.20988
# Shear Modulus (GPa) = 33.29514 38.08193 35.68853
#
# Velocity S-wave (km/s) = 4.03091 4.31094 4.17327
# Velocity P-wave (km/s) = 7.72451 8.06604 7.89712
#
# Compressibility (1/GPa) = 0.01284100
#
# Stress axis : x y z
#
# Youngs Moduli (GPa) = 110.62716 93.91806 88.74452
#
# Poissons Ratio (x) = 0.12156 0.34388
# Poissons Ratio (y) = 0.14319 0.34503
# Poissons Ratio (z) = 0.42867 0.36514
#
# Static dielectric constant tensor:
#      x y z
#    x 3.825390 -0.065290 -0.114210 
#    y -0.065290 3.776720 -0.154550 
#    z -0.114210 -0.154550 3.987260 
# 
# 
# High freq. dielectric constant tensor:
#      x y z
#    x 1.818950 -0.008730 -0.004830 
#    y -0.008730 1.800140 -0.002660 
#    z -0.004830 -0.002660 1.817590 
# 
# From -- ./inp_files/184471.got.cif
#   From: 2010.06.25/outbox.cif.g09.slc.cpg/sg2_93_cif.got.tgz:184471.got - 2010.06.27 13:26:56.
