data_PCOD8032255
_publ_section_title
;
Structure prediction by ZEFSAII (Michael W. Deem and Ramdas Pophale) SiO2 
 PCOD8032255
Probable space group: P -1
;
_chemical_formula_sum "Si O2"
_cell_formula_units_Z 12
_cell_length_a 9.776265
_cell_length_b 9.602515
_cell_length_c 8.416050
_cell_angle_alpha 74.698330
_cell_angle_beta 83.683340
_cell_angle_gamma 44.039386
_cell_volume 525.995864
_symmetry_space_group_name_H-M "P -1"
_symmetry_group_IT_number 2
_symmetry_cell_setting 'triclinic'
loop_
_space_group_symop_operation_xyz
x,y,z
-x,-y,-z
loop_
_atom_site_type_symbol
_atom_site_label
_atom_site_fract_x
_atom_site_fract_y
_atom_site_fract_z
Si Si1 0.266945 0.044094 0.898283
Si Si2 0.091086 0.171833 0.202271
Si Si3 0.486103 0.096050 0.636653
Si Si4 0.431211 0.634116 0.121079
Si Si5 0.057040 0.865614 0.281163
Si Si6 0.245106 0.542731 0.625951
O O1 0.408176 0.058457 0.803633
O O2 0.139315 0.071001 0.764850
O O3 0.124648 0.210367 0.008602
O O4 0.409904 0.819315 0.030344
O O5 0.921701 0.392441 0.248368
O O6 0.295221 0.013966 0.320757
O O7 0.006471 0.072419 0.239460
O O8 0.334728 0.345445 0.567134
O O9 0.500000 0.000000 0.500000
O O10 0.223101 0.719832 0.168813
O O11 0.582041 0.505104 0.286900
O O12 0.500000 0.500000 0.000000
O O13 0.134860 0.743293 0.472561
#
# Coordination Sequence:
#
# PCOD8032255 Si02
#       6
#     2   2   2   2   2   2
#     4  11  24  46  69 100 143 178 227 286 339 405
#     4  11  24  46  72 100 139 178 232 288 339 403
#     4  12  28  46  67 100 145 186 228 278 341 412
#     4  11  23  41  72 105 133 177 232 282 345 404
#     4  11  23  43  72 103 140 173 230 288 340 405
#     4  12  25  44  72 103 138 183 228 280 348 402
#
# _framework density 22.813866999999998
#
# number of rings (size 3 to 8) (size 9 to 14) (size 15 to 20)
#    0.000    0.667    3.333    6.500    2.333    3.333 
#    0.000    0.000    0.000    0.000    0.000    0.000 
#    0.000    0.000    0.000    0.000    0.000    0.000 
#
# Total GULP energy -148836.678117 kJ/mol
# GULP energy per Si atom -12403.056510 kJ/mol
# Density = 2.276194 g / cm^3
# Si number density = 22.813867 Si / 1000 Ang^3
#
#
#
# Elastic Constant Matrix: (Units=GPa)
#
#
# Indices 1 2 3 4 5 6 
#
# 1 58.1182 21.1958 -6.7777 0.6333 5.5278 -6.6866
# 2 21.1958 100.3238 15.9269 37.3187 6.6506 -11.2244
# 3 -6.7777 15.9269 79.1777 6.6693 8.6940 9.4485
# 4 0.6333 37.3187 6.6693 42.6741 -5.8095 8.9580
# 5 5.5278 6.6506 8.6940 -5.8095 42.9059 2.2187
# 6 -6.6866 -11.2244 9.4485 8.9580 2.2187 25.4945
#
#
#
# Elastic Compliance Matrix: (Units=1/GPa)
#
#
# Indices 1 2 3 4 5 6 
#
# 1 0.019888 -0.006193 0.002737 0.004473 -0.001553 0.000038
# 2 -0.006193 0.024289 -0.004995 -0.025544 -0.006472 0.020459
# 3 0.002737 -0.004995 0.014716 0.003482 -0.001674 -0.008013
# 4 0.004473 -0.025544 0.003482 0.053249 0.011494 -0.031074
# 5 -0.001553 -0.006472 -0.001674 0.011494 0.026872 -0.009013
# 6 0.000038 0.020459 -0.008013 -0.031074 -0.009013 0.062914
#
#
# Mechanical properties :
#
#
# Convention : Reuss Voigt Hill
#
# Bulk Modulus (GPa) = 23.81490 33.14552 28.48021
# Shear Modulus (GPa) = 21.47523 36.03322 28.75422
#
# Velocity S-wave (km/s) = 3.07143 3.97853 3.55404
# Velocity P-wave (km/s) = 4.79997 5.97203 5.41779
#
# Compressibility (1/GPa) = 0.04199051
#
# Stress axis : x y z
#
# Youngs Moduli (GPa) = 50.28270 41.17052 67.95467
#
# Poissons Ratio (x) = 0.25497 -0.18601
# Poissons Ratio (y) = 0.31140 0.33945
# Poissons Ratio (z) = -0.13764 0.20566
#
# Static dielectric constant tensor:
#      x y z
#    x 4.137550 -0.112130 0.119620 
#    y -0.112130 4.517380 0.627730 
#    z 0.119620 0.627730 4.736120 
# 
# 
# High freq. dielectric constant tensor:
#      x y z
#    x 1.900250 -0.015120 0.007530 
#    y -0.015120 1.901240 0.017570 
#    z 0.007530 0.017570 1.908400 
# 
# From -- ./inp_files/148768.got.cif
#   From: 2010.06.25/outbox.cif.g09.slc.cpg/sg2_75_cif.got.tgz:148768.got - 2010.06.27 13:26:56.
