data_PCOD8032940
_publ_section_title
;
Structure prediction by ZEFSAII (Michael W. Deem and Ramdas Pophale) SiO2 
 PCOD8032940
Probable space group: P -1
;
_chemical_formula_sum "Si O2"
_cell_formula_units_Z 16
_cell_length_a 14.375173
_cell_length_b 14.175981
_cell_length_c 14.337218
_cell_angle_alpha 148.301071
_cell_angle_beta 147.448275
_cell_angle_gamma 30.731842
_cell_volume 713.599914
_symmetry_space_group_name_H-M "P -1"
_symmetry_group_IT_number 2
_symmetry_cell_setting 'triclinic'
loop_
_space_group_symop_operation_xyz
x,y,z
-x,-y,-z
loop_
_atom_site_type_symbol
_atom_site_label
_atom_site_fract_x
_atom_site_fract_y
_atom_site_fract_z
Si Si1 0.520480 0.874675 0.503445
Si Si2 0.358061 0.463564 0.283914
Si Si3 0.164622 0.181945 0.589165
Si Si4 0.026400 0.914482 0.347551
Si Si5 0.443257 0.234824 0.977133
Si Si6 0.039119 0.370463 0.243979
Si Si7 0.609788 0.440377 0.944267
Si Si8 0.771256 0.798837 0.927164
O O1 0.753873 0.769348 0.643191
O O2 0.441666 0.715464 0.284265
O O3 0.500000 0.000000 0.500000
O O4 0.372340 0.038072 0.590880
O O5 0.500000 0.500000 0.500000
O O6 0.205620 0.681500 0.292705
O O7 0.258397 0.372154 0.189927
O O8 0.472075 0.311494 0.166470
O O9 0.221972 0.265104 0.801471
O O10 0.017860 0.390481 0.582418
O O11 0.051212 0.060613 0.417211
O O12 0.000000 0.000000 0.500000
O O13 0.829493 0.913455 0.150715
O O14 0.579422 0.986024 0.873724
O O15 0.480159 0.355019 0.024903
O O16 0.065333 0.321031 0.114652
O O17 0.849069 0.341730 0.085286
O O18 0.500000 0.500000 0.000000
#
# Coordination Sequence:
#
# PCOD8032940 Si02
#       8
#     2   2   2   2   2   2   2   2
#     4  12  26  47  76 106 142 189 243 303 369 432
#     4  12  25  41  67  99 142 190 236 292 359 428
#     4  11  23  45  70 102 143 184 237 299 360 428
#     4  12  24  41  66 101 140 187 242 292 359 434
#     4  11  23  44  69 100 142 185 237 298 357 428
#     4  11  26  47  74 107 146 190 243 299 365 436
#     4  11  27  49  75 107 148 189 243 305 364 434
#     4  12  24  42  68 103 141 189 239 294 360 431
#
# _framework density 22.421526
#
# number of rings (size 3 to 8) (size 9 to 14) (size 15 to 20)
#    0.000    0.500    1.250    8.250    3.500    2.500 
#    0.000    0.000    0.000    0.000    0.000    0.000 
#    0.000    0.000    0.000    0.000    0.000    0.000 
#
# Total GULP energy -198321.832753 kJ/mol
# GULP energy per Si atom -12395.114547 kJ/mol
# Density = 2.237049 g / cm^3
# Si number density = 22.421526 Si / 1000 Ang^3
#
#
#
# Elastic Constant Matrix: (Units=GPa)
#
#
# Indices 1 2 3 4 5 6 
#
# 1 116.8392 21.0876 43.1004 -7.0282 -0.1843 -6.8734
# 2 21.0876 112.0294 27.4482 -2.9021 -1.0968 -4.5224
# 3 43.1004 27.4482 136.2200 -6.3847 9.2867 5.3573
# 4 -7.0282 -2.9021 -6.3847 38.3534 0.5533 0.1456
# 5 -0.1843 -1.0968 9.2867 0.5533 39.9138 6.1767
# 6 -6.8734 -4.5224 5.3573 0.1456 6.1767 37.2137
#
#
#
# Elastic Compliance Matrix: (Units=1/GPa)
#
#
# Indices 1 2 3 4 5 6 
#
# 1 0.010060 -0.001032 -0.003025 0.001248 0.000380 0.002100
# 2 -0.001032 0.009586 -0.001670 0.000247 0.000468 0.001136
# 3 -0.003025 -0.001670 0.008869 0.000829 -0.001867 -0.001732
# 4 0.001248 0.000247 0.000829 0.026466 -0.000568 0.000132
# 5 0.000380 0.000468 -0.001867 -0.000568 0.026120 -0.003937
# 6 0.002100 0.001136 -0.001732 0.000132 -0.003937 0.028300
#
#
# Mechanical properties :
#
#
# Convention : Reuss Voigt Hill
#
# Bulk Modulus (GPa) = 58.61118 60.92902 59.77010
# Shear Modulus (GPa) = 39.51199 41.32633 40.41916
#
# Velocity S-wave (km/s) = 4.20245 4.29785 4.25042
# Velocity P-wave (km/s) = 7.05300 7.20153 7.12765
#
# Compressibility (1/GPa) = 0.01706159
#
# Stress axis : x y z
#
# Youngs Moduli (GPa) = 99.40203 104.31336 112.75161
#
# Poissons Ratio (x) = 0.10761 0.34109
# Poissons Ratio (y) = 0.10254 0.18833
# Poissons Ratio (z) = 0.30071 0.17423
#
# Static dielectric constant tensor:
#      x y z
#    x 3.952900 -0.002040 0.016830 
#    y -0.002040 4.236060 0.238480 
#    z 0.016830 0.238480 4.394120 
# 
# 
# High freq. dielectric constant tensor:
#      x y z
#    x 1.880990 0.002130 -0.002910 
#    y 0.002130 1.899160 0.008090 
#    z -0.002910 0.008090 1.902350 
# 
# From -- ./inp_files/534634.got.cif
#   From: 2010.06.25/outbox.cif.g09.slc.cpg/sg2_268_cif.got.tgz:534634.got - 2010.06.27 13:26:56.
