data_PCOD8032375
_publ_section_title
;
Structure prediction by ZEFSAII (Michael W. Deem and Ramdas Pophale) SiO2 
 PCOD8032375
Probable space group: P -1
;
_chemical_formula_sum "Si O2"
_cell_formula_units_Z 16
_cell_length_a 6.777518
_cell_length_b 14.946218
_cell_length_c 15.615943
_cell_angle_alpha 134.450248
_cell_angle_beta 135.133844
_cell_angle_gamma 73.393096
_cell_volume 723.665094
_symmetry_space_group_name_H-M "P -1"
_symmetry_group_IT_number 2
_symmetry_cell_setting 'triclinic'
loop_
_space_group_symop_operation_xyz
x,y,z
-x,-y,-z
loop_
_atom_site_type_symbol
_atom_site_label
_atom_site_fract_x
_atom_site_fract_y
_atom_site_fract_z
Si Si1 0.234941 0.401373 0.914732
Si Si2 0.210365 0.097487 0.705251
Si Si3 0.772987 0.517809 0.845837
Si Si4 0.856573 0.550410 0.620416
Si Si5 0.907120 0.258898 0.028047
Si Si6 0.880502 0.636454 0.504978
Si Si7 0.862214 0.069515 0.259330
Si Si8 0.790695 0.927980 0.966251
O O1 0.184579 0.242877 0.792662
O O2 0.907547 0.403823 0.793942
O O3 0.500000 0.500000 0.000000
O O4 0.328433 0.474073 0.083745
O O5 0.099282 0.017509 0.707568
O O6 0.572349 0.130795 0.830935
O O7 0.000000 0.000000 0.500000
O O8 0.468215 0.476602 0.668868
O O9 0.022744 0.667168 0.992756
O O10 0.500000 0.500000 0.500000
O O11 0.981997 0.657490 0.650269
O O12 0.081883 0.630239 0.821842
O O13 0.910500 0.415341 0.523120
O O14 0.181268 0.215761 0.109397
O O15 0.881222 0.773501 0.553005
O O16 0.915153 0.005752 0.145573
O O17 0.546424 0.088301 0.171144
O O18 0.000000 0.000000 0.000000
#
# Coordination Sequence:
#
# PCOD8032375 Si02
#       8
#     2   2   2   2   2   2   2   2
#     4  11  25  48  73  97 134 187 250 297 349 413
#     4  12  28  47  72 103 144 197 242 296 357 422
#     4  11  25  43  74 103 134 186 237 297 357 417
#     4  11  23  42  68 108 145 180 232 289 355 428
#     4  12  23  45  72 102 144 182 237 292 359 425
#     4  11  25  40  67 107 143 180 229 291 357 429
#     4  11  26  44  68 102 147 183 235 292 358 435
#     4  11  23  44  71 101 136 189 229 286 367 431
#
# _framework density 22.109673000000001
#
# number of rings (size 3 to 8) (size 9 to 14) (size 15 to 20)
#    0.000    0.750    3.750    3.000    5.250    1.000 
#    2.250    1.875    0.000    0.000    0.000    0.000 
#    0.000    0.000    0.000    0.000    0.000    0.000 
#
# Total GULP energy -198345.668493 kJ/mol
# GULP energy per Si atom -12396.604281 kJ/mol
# Density = 2.205935 g / cm^3
# Si number density = 22.109673 Si / 1000 Ang^3
#
#
#
# Elastic Constant Matrix: (Units=GPa)
#
#
# Indices 1 2 3 4 5 6 
#
# 1 137.8509 60.0649 48.7449 0.9415 -14.4925 13.4886
# 2 60.0649 160.1804 32.5449 18.1236 -10.1118 10.8901
# 3 48.7449 32.5449 104.0277 -1.2392 -0.8450 9.9829
# 4 0.9415 18.1236 -1.2392 37.1809 2.3103 -0.1353
# 5 -14.4925 -10.1118 -0.8450 2.3103 24.1032 -1.3759
# 6 13.4886 10.8901 9.9829 -0.1353 -1.3759 44.5341
#
#
#
# Elastic Compliance Matrix: (Units=1/GPa)
#
#
# Indices 1 2 3 4 5 6 
#
# 1 0.010493 -0.002824 -0.003844 0.000677 0.004840 -0.001474
# 2 -0.002824 0.008192 -0.001192 -0.004091 0.002042 -0.000830
# 3 -0.003844 -0.001192 0.011904 0.001231 -0.002586 -0.001289
# 4 0.000677 -0.004091 0.001231 0.029166 -0.004034 0.000484
# 5 0.004840 0.002042 -0.002586 -0.004034 0.045552 0.000009
# 6 -0.001474 -0.000830 -0.001289 0.000484 0.000009 0.023395
#
#
# Mechanical properties :
#
#
# Convention : Reuss Voigt Hill
#
# Bulk Modulus (GPa) = 67.25696 76.08535 71.67116
# Shear Modulus (GPa) = 33.47180 38.54394 36.00787
#
# Velocity S-wave (km/s) = 3.89511 4.17982 4.03997
# Velocity P-wave (km/s) = 7.12144 7.60144 7.36535
#
# Compressibility (1/GPa) = 0.01486835
#
# Stress axis : x y z
#
# Youngs Moduli (GPa) = 95.30505 122.06309 84.00254
#
# Poissons Ratio (x) = 0.34474 0.32292
# Poissons Ratio (y) = 0.26917 0.10014
# Poissons Ratio (z) = 0.36637 0.14551
#
# Static dielectric constant tensor:
#      x y z
#    x 4.385450 0.020530 0.190860 
#    y 0.020530 4.075450 0.002930 
#    z 0.190860 0.002930 4.046470 
# 
# 
# High freq. dielectric constant tensor:
#      x y z
#    x 1.887590 0.003520 -0.000470 
#    y 0.003520 1.885130 -0.000870 
#    z -0.000470 -0.000870 1.853790 
# 
# From -- ./inp_files/484410.got.cif
#   From: 2010.06.25/outbox.cif.g09.slc.cpg/sg2_243_cif.got.tgz:484410.got - 2010.06.27 13:26:56.
