data_PCOD8032672
_publ_section_title
;
Structure prediction by ZEFSAII (Michael W. Deem and Ramdas Pophale) SiO2 
 PCOD8032672
Probable space group: P -1
;
_chemical_formula_sum "Si O2"
_cell_formula_units_Z 16
_cell_length_a 23.494456
_cell_length_b 6.772417
_cell_length_c 12.032410
_cell_angle_alpha 131.286683
_cell_angle_beta 30.272634
_cell_angle_gamma 117.412115
_cell_volume 694.285011
_symmetry_space_group_name_H-M "P -1"
_symmetry_group_IT_number 2
_symmetry_cell_setting 'triclinic'
loop_
_space_group_symop_operation_xyz
x,y,z
-x,-y,-z
loop_
_atom_site_type_symbol
_atom_site_label
_atom_site_fract_x
_atom_site_fract_y
_atom_site_fract_z
Si Si1 0.840789 0.926061 0.170697
Si Si2 0.529200 0.274336 0.660088
Si Si3 0.585593 0.196924 0.029866
Si Si4 0.051015 0.600069 0.842815
Si Si5 0.689576 0.883093 0.091799
Si Si6 0.585441 0.162766 0.765479
Si Si7 0.120204 0.509250 0.249840
Si Si8 0.814642 0.973195 0.704167
O O1 0.857487 0.223422 0.217287
O O2 0.712177 0.955181 0.447710
O O3 0.856394 0.707480 0.967391
O O4 0.937613 0.801413 0.053032
O O5 0.427517 0.122933 0.779250
O O6 0.547958 0.361368 0.791288
O O7 0.653631 0.069312 0.332879
O O8 0.497557 0.495647 0.692523
O O9 0.603274 0.278755 0.899623
O O10 0.710701 0.092189 0.836157
O O11 0.513757 0.987768 0.101253
O O12 0.115264 0.339050 0.560322
O O13 0.000000 0.500000 0.000000
O O14 0.770477 0.583926 0.882637
O O15 0.765618 0.002534 0.922434
O O16 0.000000 0.500000 0.500000
O O17 0.103025 0.824388 0.361225
#
# Coordination Sequence:
#
# PCOD8032672 Si02
#       8
#     2   2   2   2   2   2   2   2
#     4  11  26  46  73 102 142 183 237 289 351 418
#     4  11  23  43  69  97 141 184 234 283 353 416
#     4  11  25  42  69 104 141 184 233 293 352 420
#     4  11  26  48  73 102 140 189 234 294 352 415
#     4  11  25  42  69 101 140 190 228 289 352 419
#     4  11  24  43  68 105 138 184 235 295 345 425
#     4  12  26  47  71 104 141 186 238 296 349 420
#     4  12  26  45  74 104 146 183 238 289 358 424
#
# _framework density 23.045292
#
# number of rings (size 3 to 8) (size 9 to 14) (size 15 to 20)
#    0.000    0.750    3.750    2.625    3.500    8.500 
#    0.000    0.000    0.000    0.000    0.000    0.000 
#    0.000    0.000    0.000    0.000    0.000    0.000 
#
# Total GULP energy -198238.212398 kJ/mol
# GULP energy per Si atom -12389.888275 kJ/mol
# Density = 2.299284 g / cm^3
# Si number density = 23.045292 Si / 1000 Ang^3
#
#
#
# Elastic Constant Matrix: (Units=GPa)
#
#
# Indices 1 2 3 4 5 6 
#
# 1 57.1995 -7.3894 -15.4759 -14.8939 24.3581 -6.1754
# 2 -7.3894 69.2731 -33.6074 -9.4624 41.3184 0.8437
# 3 -15.4759 -33.6074 22.4077 -25.2553 28.1842 -5.3458
# 4 -14.8939 -9.4624 -25.2553 30.9246 -6.9402 1.2182
# 5 24.3581 41.3184 28.1842 -6.9402 13.7947 8.9473
# 6 -6.1754 0.8437 -5.3458 1.2182 8.9473 42.3863
#
#
#
# Elastic Compliance Matrix: (Units=1/GPa)
#
#
# Indices 1 2 3 4 5 6 
#
# 1 0.012683 -0.005255 -0.006074 0.000976 0.006366 -0.000185
# 2 -0.005255 0.006298 -0.007729 -0.005643 0.005182 -0.002797
# 3 -0.006074 -0.007729 0.009332 0.007258 0.021210 -0.004240
# 4 0.000976 -0.005643 0.007258 0.042941 0.025484 -0.005444
# 5 0.006366 0.005182 0.021210 0.025484 0.015549 -0.000515
# 6 -0.000185 -0.002797 -0.004240 -0.005444 -0.000515 0.023352
#
#
# Mechanical properties :
#
#
# Convention : Reuss Voigt Hill
#
# Bulk Modulus (GPa) = -102.01047 3.99277 -49.00885
# Shear Modulus (GPa) = 34.48193 31.11131 32.79662
#
# Velocity S-wave (km/s) = 3.87236 3.67823 3.77654
# Velocity P-wave (km/s) = 4.93637 4.44697 1.51530
#
# Compressibility (1/GPa) = -0.00980292
#
# Stress axis : x y z
#
# Youngs Moduli (GPa) = 78.84288 158.77952 107.16287
#
# Poissons Ratio (x) = 0.83445 0.65089
# Poissons Ratio (y) = 0.41435 0.82823
# Poissons Ratio (z) = 0.47888 1.22716
#
# Static dielectric constant tensor:
#      x y z
#    x 4.404360 -0.597990 -0.401760 
#    y -0.597990 6.651120 1.973440 
#    z -0.401760 1.973440 5.737310 
# 
# 
# High freq. dielectric constant tensor:
#      x y z
#    x 1.916650 -0.009750 -0.005980 
#    y -0.009750 1.914800 0.005540 
#    z -0.005980 0.005540 1.928310 
# 
# From -- ./inp_files/473469.got.cif
#   From: 2010.06.25/outbox.cif.g09.slc.cpg/sg2_237_cif.got.tgz:473469.got - 2010.06.27 13:26:56.
