data_PCOD8032855
_publ_section_title
;
Structure prediction by ZEFSAII (Michael W. Deem and Ramdas Pophale) SiO2 
 PCOD8032855
Probable space group: P -1
;
_chemical_formula_sum "Si O2"
_cell_formula_units_Z 16
_cell_length_a 7.663367
_cell_length_b 18.410586
_cell_length_c 9.997284
_cell_angle_alpha 42.674408
_cell_angle_beta 121.886140
_cell_angle_gamma 140.262852
_cell_volume 608.936306
_symmetry_space_group_name_H-M "P -1"
_symmetry_group_IT_number 2
_symmetry_cell_setting 'triclinic'
loop_
_space_group_symop_operation_xyz
x,y,z
-x,-y,-z
loop_
_atom_site_type_symbol
_atom_site_label
_atom_site_fract_x
_atom_site_fract_y
_atom_site_fract_z
Si Si1 0.084192 0.736737 0.510265
Si Si2 0.321239 0.322002 0.900504
Si Si3 0.269850 0.572480 0.321101
Si Si4 0.187830 0.778911 0.050670
Si Si5 0.413887 0.123548 0.287143
Si Si6 0.583670 0.623000 0.633630
Si Si7 0.991467 0.875242 0.619733
Si Si8 0.260984 0.010729 0.098835
O O1 0.320419 0.779534 0.646370
O O2 0.174172 0.857616 0.276214
O O3 0.966421 0.594408 0.575953
O O4 0.860811 0.712209 0.544483
O O5 0.464191 0.354936 0.767757
O O6 0.489711 0.471676 0.847527
O O7 0.300650 0.206966 0.135597
O O8 0.005037 0.256632 0.851610
O O9 0.357085 0.594424 0.481971
O O10 0.127146 0.638523 0.159623
O O11 0.110991 0.835033 0.827931
O O12 0.517895 0.899624 0.055143
O O13 0.458040 0.113656 0.162483
O O14 0.205169 0.956584 0.471514
O O15 0.678259 0.733260 0.644192
O O16 0.000000 0.000000 0.500000
O O17 0.000000 0.000000 0.000000
#
# Coordination Sequence:
#
# PCOD8032855 Si02
#       8
#     2   2   2   2   2   2   2   2
#     4  11  23  43  76 108 150 203 254 312 380 445
#     4  11  26  46  78 112 154 199 257 311 379 453
#     4  11  27  50  78 112 155 204 257 312 381 457
#     4  12  26  48  77 111 153 199 256 313 381 455
#     4  12  24  44  74 110 151 199 260 311 378 453
#     4  11  26  48  78 107 158 202 254 315 380 455
#     4  12  26  48  74 115 155 199 255 320 380 450
#     4  12  25  44  76 112 150 203 259 312 380 457
#
# _framework density 26.275326
#
# number of rings (size 3 to 8) (size 9 to 14) (size 15 to 20)
#    0.000    0.500    5.000    3.375    3.500    3.000 
#    0.000    3.750    0.000    0.000    0.000    0.000 
#    0.000    0.000    0.000    0.000    0.000    0.000 
#
# Total GULP energy -198228.778513 kJ/mol
# GULP energy per Si atom -12389.298657 kJ/mol
# Density = 2.621552 g / cm^3
# Si number density = 26.275326 Si / 1000 Ang^3
#
#
#
# Elastic Constant Matrix: (Units=GPa)
#
#
# Indices 1 2 3 4 5 6 
#
# 1 201.1356 52.2546 88.4565 -29.7594 9.9197 68.1380
# 2 52.2546 156.3709 70.6303 -11.3185 13.3327 15.9907
# 3 88.4565 70.6303 162.7707 -44.2452 24.6147 16.6110
# 4 -29.7594 -11.3185 -44.2452 50.4568 1.1507 -15.6739
# 5 9.9197 13.3327 24.6147 1.1507 40.7941 -18.9260
# 6 68.1380 15.9907 16.6110 -15.6739 -18.9260 67.0696
#
#
#
# Elastic Compliance Matrix: (Units=1/GPa)
#
#
# Indices 1 2 3 4 5 6 
#
# 1 0.010990 -0.000224 -0.003965 -0.000606 -0.005701 -0.011880
# 2 -0.000224 0.008238 -0.003651 -0.001960 -0.001125 -0.001607
# 3 -0.003965 -0.003651 0.012744 0.008906 -0.004613 0.002522
# 4 -0.000606 -0.001960 0.008906 0.028328 -0.003262 0.004577
# 5 -0.005701 -0.001125 -0.004613 -0.003262 0.036971 0.016873
# 6 -0.011880 -0.001607 0.002522 0.004577 0.016873 0.032568
#
#
# Mechanical properties :
#
#
# Convention : Reuss Voigt Hill
#
# Bulk Modulus (GPa) = 61.38806 104.77331 83.08069
# Shear Modulus (GPa) = 33.12372 52.25982 42.69177
#
# Velocity S-wave (km/s) = 3.55440 4.46458 4.03524
# Velocity P-wave (km/s) = 6.34501 8.15711 7.30745
#
# Compressibility (1/GPa) = 0.01628981
#
# Stress axis : x y z
#
# Youngs Moduli (GPa) = 90.99295 121.39418 78.46887
#
# Poissons Ratio (x) = 0.02724 0.31115
# Poissons Ratio (y) = 0.02042 0.28650
# Poissons Ratio (z) = 0.36081 0.44322
#
# Static dielectric constant tensor:
#      x y z
#    x 5.446790 0.834790 -0.322360 
#    y 0.834790 7.757830 -0.631340 
#    z -0.322360 -0.631340 5.560430 
# 
# 
# High freq. dielectric constant tensor:
#      x y z
#    x 2.058770 0.002020 0.008540 
#    y 0.002020 2.054100 -0.025360 
#    z 0.008540 -0.025360 2.064730 
# 
# From -- ./inp_files/405437.got.cif
#   From: 2010.06.25/outbox.cif.g09.slc.cpg/sg2_203_cif.got.tgz:405437.got - 2010.06.27 13:26:56.
