data_PCOD8032697
_publ_section_title
;
Structure prediction by ZEFSAII (Michael W. Deem and Ramdas Pophale) SiO2 
 PCOD8032697
Probable space group: P -1
;
_chemical_formula_sum "Si O2"
_cell_formula_units_Z 16
_cell_length_a 9.154705
_cell_length_b 20.597079
_cell_length_c 12.276453
_cell_angle_alpha 132.447637
_cell_angle_beta 51.522227
_cell_angle_gamma 90.034687
_cell_volume 919.697334
_symmetry_space_group_name_H-M "P -1"
_symmetry_group_IT_number 2
_symmetry_cell_setting 'triclinic'
loop_
_space_group_symop_operation_xyz
x,y,z
-x,-y,-z
loop_
_atom_site_type_symbol
_atom_site_label
_atom_site_fract_x
_atom_site_fract_y
_atom_site_fract_z
Si Si1 0.165107 0.442591 0.010674
Si Si2 0.449852 0.449758 0.286684
Si Si3 0.106802 0.150439 0.439092
Si Si4 0.301222 0.355076 0.388935
Si Si5 0.135197 0.317745 0.225794
Si Si6 0.375000 0.137515 0.093598
Si Si7 0.516111 0.300089 0.892548
Si Si8 0.931491 0.379733 0.907147
O O1 0.870597 0.550366 0.324653
O O2 0.211947 0.514666 0.001511
O O3 0.158310 0.359277 0.841740
O O4 0.407393 0.353120 0.881850
O O5 0.506484 0.360457 0.257222
O O6 0.152166 0.596792 0.605059
O O7 0.463461 0.403335 0.107514
O O8 0.691254 0.437481 0.168760
O O9 0.841613 0.178782 0.593631
O O10 0.076788 0.244624 0.637837
O O11 0.349806 0.009905 0.216263
O O12 0.172435 0.158898 0.295384
O O13 0.104926 0.405913 0.431319
O O14 0.447185 0.212259 0.188455
O O15 0.226903 0.197472 0.111891
O O16 0.372927 0.262490 0.967303
#
# Coordination Sequence:
#
# PCOD8032697 Si02
#       8
#     2   2   2   2   2   2   2   2
#     4  11  19  34  49  74 105 131 151 206 255 292
#     4  10  17  31  51  80  96 124 167 203 245 290
#     4  10  20  34  50  77  95 131 171 200 236 293
#     4   9  16  31  52  74  99 126 157 205 249 281
#     4   9  16  30  50  78 100 123 156 213 242 279
#     4   9  19  32  53  74  99 126 165 214 239 273
#     4  10  18  30  53  73  97 126 168 203 244 284
#     4  10  23  31  48  75 107 130 157 196 252 300
#
# _framework density 17.397027000000001
#
# number of rings (size 3 to 8) (size 9 to 14) (size 15 to 20)
#    0.750    1.500    3.750    0.750    1.750    2.000 
#    0.000    0.000    0.000    5.250    0.000    0.000 
#    0.000    0.000    0.000    0.000    0.000    0.000 
#
# Total GULP energy -198264.063380 kJ/mol
# GULP energy per Si atom -12391.503961 kJ/mol
# Density = 1.735743 g / cm^3
# Si number density = 17.397027 Si / 1000 Ang^3
#
#
#
# Elastic Constant Matrix: (Units=GPa)
#
#
# Indices 1 2 3 4 5 6 
#
# 1 30.9985 10.0765 24.3430 6.1045 -1.2260 3.1273
# 2 10.0765 91.7057 41.3863 -1.7929 -9.6778 8.0913
# 3 24.3430 41.3863 97.4469 1.2683 -14.9944 14.2516
# 4 6.1045 -1.7929 1.2683 27.3961 3.7314 -3.8120
# 5 -1.2260 -9.6778 -14.9944 3.7314 18.6876 -4.2587
# 6 3.1273 8.0913 14.2516 -3.8120 -4.2587 12.4651
#
#
#
# Elastic Compliance Matrix: (Units=1/GPa)
#
#
# Indices 1 2 3 4 5 6 
#
# 1 0.042595 -0.000271 -0.010794 -0.008696 -0.004835 -0.002482
# 2 -0.000271 0.013670 -0.005083 0.000585 0.002412 -0.001991
# 3 -0.010794 -0.005083 0.018323 -0.001714 0.008870 -0.012435
# 4 -0.008696 0.000585 -0.001714 0.041437 -0.006693 0.014147
# 5 -0.004835 0.002412 0.008870 -0.006693 0.065108 0.009703
# 6 -0.002482 -0.001991 -0.012435 0.014147 0.009703 0.103998
#
#
# Mechanical properties :
#
#
# Convention : Reuss Voigt Hill
#
# Bulk Modulus (GPa) = 23.64450 41.30698 32.47574
# Shear Modulus (GPa) = 15.08186 21.33280 18.20733
#
# Velocity S-wave (km/s) = 2.94755 3.50556 3.23859
# Velocity P-wave (km/s) = 5.02043 6.33881 5.71774
#
# Compressibility (1/GPa) = 0.04229314
#
# Stress axis : x y z
#
# Youngs Moduli (GPa) = 23.47671 73.15330 54.57593
#
# Poissons Ratio (x) = 0.01979 0.58908
# Poissons Ratio (y) = 0.00635 0.27743
# Poissons Ratio (z) = 0.25340 0.37187
#
# Static dielectric constant tensor:
#      x y z
#    x 2.857960 0.066580 -0.074710 
#    y 0.066580 3.376880 -0.228830 
#    z -0.074710 -0.228830 3.086350 
# 
# 
# High freq. dielectric constant tensor:
#      x y z
#    x 1.631880 0.001040 -0.006680 
#    y 0.001040 1.683550 -0.022900 
#    z -0.006680 -0.022900 1.654350 
# 
# From -- ./inp_files/284228.got.cif
#   From: 2010.06.25/outbox.cif.g09.slc.cpg/sg2_143_cif.got.tgz:284228.got - 2010.06.27 13:26:56.
