data_PCOD8032332
_publ_section_title
;
Structure prediction by ZEFSAII (Michael W. Deem and Ramdas Pophale) SiO2 
 PCOD8032332
Probable space group: P -1
;
_chemical_formula_sum "Si O2"
_cell_formula_units_Z 16
_cell_length_a 11.184423
_cell_length_b 12.127091
_cell_length_c 8.744501
_cell_angle_alpha 131.486442
_cell_angle_beta 80.272071
_cell_angle_gamma 121.709160
_cell_volume 725.359250
_symmetry_space_group_name_H-M "P -1"
_symmetry_group_IT_number 2
_symmetry_cell_setting 'triclinic'
loop_
_space_group_symop_operation_xyz
x,y,z
-x,-y,-z
loop_
_atom_site_type_symbol
_atom_site_label
_atom_site_fract_x
_atom_site_fract_y
_atom_site_fract_z
Si Si1 0.355291 0.497124 0.040059
Si Si2 0.883054 0.694897 0.335546
Si Si3 0.798908 0.815228 0.995058
Si Si4 0.313850 0.960774 0.651394
Si Si5 0.868918 0.949080 0.786323
Si Si6 0.965167 0.420222 0.600088
Si Si7 0.098155 0.737440 0.072153
Si Si8 0.372737 0.822416 0.234197
O O1 0.266945 0.425836 0.834232
O O2 0.269719 0.380783 0.101693
O O3 0.500000 0.500000 0.000000
O O4 0.390088 0.693936 0.227220
O O5 0.874770 0.854587 0.547145
O O6 0.910270 0.611447 0.402472
O O7 0.023374 0.761296 0.257860
O O8 0.747571 0.917908 0.202125
O O9 0.763206 0.814511 0.820990
O O10 0.970475 0.914717 0.059318
O O11 0.195981 0.759846 0.545283
O O12 0.348808 0.955010 0.459792
O O13 0.475509 0.058801 0.787728
O O14 0.817989 0.079273 0.873285
O O15 0.000000 0.500000 0.500000
O O16 0.971195 0.561583 0.847564
O O17 0.225949 0.706477 0.056969
#
# Coordination Sequence:
#
# PCOD8032332 Si02
#       8
#     2   2   2   2   2   2   2   2
#     4  12  25  44  71  99 137 184 230 285 341 411
#     4  12  24  41  70 102 135 181 241 282 331 413
#     4  11  23  43  66  97 139 178 223 284 345 408
#     4  11  23  42  67 100 137 176 227 279 345 403
#     4  11  25  40  67 102 135 178 225 287 350 395
#     4  12  25  42  68 103 144 178 225 286 348 409
#     4  12  23  43  69 104 140 178 238 285 334 413
#     4  11  24  41  70 103 133 179 230 284 339 406
#
# _framework density 22.058036000000001
#
# number of rings (size 3 to 8) (size 9 to 14) (size 15 to 20)
#    0.000    0.500    6.250    2.250    3.500    0.000 
#    0.000    4.375    0.000    0.000    0.000    0.000 
#    0.000    0.000    0.000    0.000    0.000    0.000 
#
# Total GULP energy -198284.669892 kJ/mol
# GULP energy per Si atom -12392.791868 kJ/mol
# Density = 2.200783 g / cm^3
# Si number density = 22.058036 Si / 1000 Ang^3
#
#
#
# Elastic Constant Matrix: (Units=GPa)
#
#
# Indices 1 2 3 4 5 6 
#
# 1 126.4151 65.8911 27.2000 3.0656 4.8547 -5.7329
# 2 65.8911 137.7330 50.2274 3.9643 3.6889 -2.4253
# 3 27.2000 50.2274 78.6615 13.8398 -5.6330 -7.0652
# 4 3.0656 3.9643 13.8398 27.9477 -3.8123 3.3442
# 5 4.8547 3.6889 -5.6330 -3.8123 33.7519 10.3294
# 6 -5.7329 -2.4253 -7.0652 3.3442 10.3294 30.1638
#
#
#
# Elastic Compliance Matrix: (Units=1/GPa)
#
#
# Indices 1 2 3 4 5 6 
#
# 1 0.010732 -0.004883 -0.000375 -0.000827 -0.001867 0.002290
# 2 -0.004883 0.011900 -0.006471 0.002076 -0.001026 -0.001366
# 3 -0.000375 -0.006471 0.019014 -0.008744 0.001640 0.004270
# 4 -0.000827 0.002076 -0.008744 0.041733 0.005794 -0.008649
# 5 -0.001867 -0.001026 0.001640 0.005794 0.034796 -0.012611
# 6 0.002290 -0.001366 0.004270 -0.008649 -0.012611 0.039755
#
#
# Mechanical properties :
#
#
# Convention : Reuss Voigt Hill
#
# Bulk Modulus (GPa) = 54.98627 69.93849 62.46238
# Shear Modulus (GPa) = 26.67345 31.67211 29.17278
#
# Velocity S-wave (km/s) = 3.48118 3.79338 3.64063
# Velocity P-wave (km/s) = 6.41407 7.13875 6.78609
#
# Compressibility (1/GPa) = 0.01818636
#
# Stress axis : x y z
#
# Youngs Moduli (GPa) = 93.17867 84.03281 52.59279
#
# Poissons Ratio (x) = 0.41034 0.01974
# Poissons Ratio (y) = 0.45501 0.34035
# Poissons Ratio (z) = 0.03498 0.54381
#
# Static dielectric constant tensor:
#      x y z
#    x 4.316610 -0.122320 0.068000 
#    y -0.122320 4.657590 -0.030600 
#    z 0.068000 -0.030600 4.075800 
# 
# 
# High freq. dielectric constant tensor:
#      x y z
#    x 1.870410 -0.007350 -0.009470 
#    y -0.007350 1.859960 0.017720 
#    z -0.009470 0.017720 1.861040 
# 
# From -- ./inp_files/260619.got.cif
#   From: 2010.06.25/outbox.cif.g09.slc.cpg/sg2_131_cif.got.tgz:260619.got - 2010.06.27 13:26:56.
