data_PCOD8032868
_publ_section_title
;
Structure prediction by ZEFSAII (Michael W. Deem and Ramdas Pophale) SiO2 
 PCOD8032868
Probable space group: P -1
;
_chemical_formula_sum "Si O2"
_cell_formula_units_Z 14
_cell_length_a 15.608275
_cell_length_b 30.563158
_cell_length_c 25.075363
_cell_angle_alpha 169.688746
_cell_angle_beta 162.328365
_cell_angle_gamma 18.540460
_cell_volume 637.295405
_symmetry_space_group_name_H-M "P -1"
_symmetry_group_IT_number 2
_symmetry_cell_setting 'triclinic'
loop_
_space_group_symop_operation_xyz
x,y,z
-x,-y,-z
loop_
_atom_site_type_symbol
_atom_site_label
_atom_site_fract_x
_atom_site_fract_y
_atom_site_fract_z
Si Si1 0.216003 0.238865 0.316346
Si Si2 0.726422 0.676569 0.286476
Si Si3 0.029198 0.754246 0.350664
Si Si4 0.030009 0.222740 0.341998
Si Si5 0.689378 0.727921 0.707444
Si Si6 0.598332 0.190564 0.578241
Si Si7 0.875261 0.977788 0.638188
O O1 0.288459 0.163417 0.208275
O O2 0.503214 0.269349 0.555627
O O3 0.000000 0.500000 0.500000
O O4 0.094754 0.024837 0.018992
O O5 0.936582 0.645713 0.424354
O O6 0.412739 0.813142 0.283480
O O7 0.867724 0.816796 0.493180
O O8 0.714327 0.406759 0.935510
O O9 0.356195 0.772608 0.577509
O O10 0.864879 0.959903 0.458949
O O11 0.883648 0.802607 0.380934
O O12 0.000000 0.500000 0.000000
O O13 0.328381 0.127268 0.374324
O O14 0.822548 0.431245 0.433560
O O15 0.853322 0.884497 0.032404
#
# Coordination Sequence:
#
# PCOD8032868 Si02
#       7
#     2   2   2   2   2   2   2
#     4  12  26  42  72 110 143 184 241 303 353 418
#     4  11  23  43  80 110 134 183 251 304 345 411
#     4  12  29  47  71 103 151 195 231 290 369 436
#     4  12  23  46  75 105 138 185 249 293 356 416
#     4  12  26  48  72 104 146 191 238 294 360 423
#     4  12  25  45  74 105 146 187 239 302 353 425
#     4  11  23  47  74 108 144 184 240 301 355 419
#
# _framework density 21.967835000000001
#
# number of rings (size 3 to 8) (size 9 to 14) (size 15 to 20)
#    0.000    0.286    5.714    3.000    6.000    0.571 
#    2.571    1.429    0.000    0.000    0.000    0.000 
#    0.000    0.000    0.000    0.000    0.000    0.000 
#
# Total GULP energy -173615.857645 kJ/mol
# GULP energy per Si atom -12401.132689 kJ/mol
# Density = 2.191784 g / cm^3
# Si number density = 21.967835 Si / 1000 Ang^3
#
#
#
# Elastic Constant Matrix: (Units=GPa)
#
#
# Indices 1 2 3 4 5 6 
#
# 1 125.5710 -0.4866 43.8778 14.6756 2.4272 11.0873
# 2 -0.4866 141.7339 57.5681 2.0410 -1.8061 5.7720
# 3 43.8778 57.5681 146.2921 10.3290 -16.0491 1.1801
# 4 14.6756 2.0410 10.3290 36.7311 6.0964 -4.3237
# 5 2.4272 -1.8061 -16.0491 6.0964 44.0491 -7.6425
# 6 11.0873 5.7720 1.1801 -4.3237 -7.6425 36.2088
#
#
#
# Elastic Compliance Matrix: (Units=1/GPa)
#
#
# Indices 1 2 3 4 5 6 
#
# 1 0.010012 0.001696 -0.003638 -0.003204 -0.002065 -0.004036
# 2 0.001696 0.008807 -0.004135 0.000012 -0.001609 -0.002127
# 3 -0.003638 -0.004135 0.010125 -0.001627 0.004320 0.002161
# 4 -0.003204 0.000012 -0.001627 0.030059 -0.003917 0.003795
# 5 -0.002065 -0.001609 0.004320 -0.003917 0.025862 0.005739
# 6 -0.004036 -0.002127 0.002161 0.003795 0.005739 0.030786
#
#
# Mechanical properties :
#
#
# Convention : Reuss Voigt Hill
#
# Bulk Modulus (GPa) = 59.55584 68.39063 63.97324
# Shear Modulus (GPa) = 37.48113 44.24030 40.86071
#
# Velocity S-wave (km/s) = 4.13508 4.49248 4.31748
# Velocity P-wave (km/s) = 7.06879 7.62297 7.35110
#
# Compressibility (1/GPa) = 0.01679096
#
# Stress axis : x y z
#
# Youngs Moduli (GPa) = 99.87831 113.55168 98.76316
#
# Poissons Ratio (x) = -0.19262 0.35932
# Poissons Ratio (y) = -0.16942 0.40834
# Poissons Ratio (z) = 0.36338 0.46949
#
# Static dielectric constant tensor:
#      x y z
#    x 4.382230 0.065180 -0.055390 
#    y 0.065180 4.284810 -0.160990 
#    z -0.055390 -0.160990 4.052620 
# 
# 
# High freq. dielectric constant tensor:
#      x y z
#    x 1.869310 0.022140 -0.008700 
#    y 0.022140 1.863080 -0.006090 
#    z -0.008700 -0.006090 1.876430 
# 
# From -- ./inp_files/238750.got.cif
#   From: 2010.06.25/outbox.cif.g09.slc.cpg/sg2_120_cif.got.tgz:238750.got - 2010.06.27 13:26:56.
