data_PCOD8032729
_publ_section_title
;
Structure prediction by ZEFSAII (Michael W. Deem and Ramdas Pophale) SiO2 
 PCOD8032729
Probable space group: P -1
;
_chemical_formula_sum "Si O2"
_cell_formula_units_Z 12
_cell_length_a 12.355166
_cell_length_b 8.441535
_cell_length_c 10.452451
_cell_angle_alpha 90.493921
_cell_angle_beta 35.479264
_cell_angle_gamma 108.498232
_cell_volume 534.720885
_symmetry_space_group_name_H-M "P -1"
_symmetry_group_IT_number 2
_symmetry_cell_setting 'triclinic'
loop_
_space_group_symop_operation_xyz
x,y,z
-x,-y,-z
loop_
_atom_site_type_symbol
_atom_site_label
_atom_site_fract_x
_atom_site_fract_y
_atom_site_fract_z
Si Si1 0.685391 0.220751 0.482946
Si Si2 0.993787 0.361083 0.740557
Si Si3 0.030492 0.827243 0.973286
Si Si4 0.501083 0.905609 0.868533
Si Si5 0.591744 0.608365 0.282425
Si Si6 0.370565 0.376740 0.245406
O O1 0.893492 0.420549 0.330936
O O2 0.743785 0.147240 0.297730
O O3 0.472239 0.233971 0.661278
O O4 0.616577 0.064714 0.653709
O O5 0.127898 0.344043 0.492273
O O6 0.014735 0.254925 0.841474
O O7 0.741951 0.265112 0.939388
O O8 0.850491 0.690929 0.040835
O O9 0.000000 0.000000 0.000000
O O10 0.654193 0.822700 0.743392
O O11 0.500000 0.000000 0.000000
O O12 0.500000 0.500000 0.500000
O O13 0.505011 0.476303 0.243903
O O14 0.500000 0.500000 0.000000
#
# Coordination Sequence:
#
# PCOD8032729 Si02
#       6
#     2   2   2   2   2   2
#     4  11  25  42  70 102 137 180 229 283 344 408
#     4  11  25  45  68  99 138 180 228 285 344 404
#     4  12  24  40  68 103 139 179 229 284 347 405
#     4  12  27  45  70 101 138 182 233 283 342 415
#     4  11  23  43  70  99 137 181 228 279 343 404
#     4  11  25  46  73  99 139 184 229 283 345 411
#
# _framework density 22.441614000000001
#
# number of rings (size 3 to 8) (size 9 to 14) (size 15 to 20)
#    0.000    0.667    3.333    5.500    2.333    6.000 
#    0.000    0.000    0.000    0.000    0.000    0.000 
#    0.000    0.000    0.000    0.000    0.000    0.000 
#
# Total GULP energy -148776.545336 kJ/mol
# GULP energy per Si atom -12398.045445 kJ/mol
# Density = 2.239054 g / cm^3
# Si number density = 22.441614 Si / 1000 Ang^3
#
#
#
# Elastic Constant Matrix: (Units=GPa)
#
#
# Indices 1 2 3 4 5 6 
#
# 1 61.9217 17.3716 25.9364 -4.6499 12.6983 -3.3837
# 2 17.3716 86.8573 50.1366 20.6036 17.4035 -37.3926
# 3 25.9364 50.1366 138.0538 6.2542 29.2212 -15.1334
# 4 -4.6499 20.6036 6.2542 47.9373 -3.7319 3.8285
# 5 12.6983 17.4035 29.2212 -3.7319 50.5728 -7.1011
# 6 -3.3837 -37.3926 -15.1334 3.8285 -7.1011 43.5227
#
#
#
# Elastic Compliance Matrix: (Units=1/GPa)
#
#
# Indices 1 2 3 4 5 6 
#
# 1 0.018955 -0.005265 -0.001888 0.004537 -0.002147 -0.004456
# 2 -0.005265 0.031330 -0.006194 -0.015448 -0.003490 0.025143
# 3 -0.001888 -0.006194 0.010283 0.001061 -0.003620 -0.002577
# 4 0.004537 -0.015448 0.001061 0.029248 0.003683 -0.014522
# 5 -0.002147 -0.003490 -0.003620 0.003683 0.023754 -0.000872
# 6 -0.004456 0.025143 -0.002577 -0.014522 -0.000872 0.044471
#
#
# Mechanical properties :
#
#
# Convention : Reuss Voigt Hill
#
# Bulk Modulus (GPa) = 29.52234 52.63578 41.07906
# Shear Modulus (GPa) = 25.50654 41.29911 33.40282
#
# Velocity S-wave (km/s) = 3.37497 4.29452 3.86221
# Velocity P-wave (km/s) = 5.32644 6.93512 6.18332
#
# Compressibility (1/GPa) = 0.03387266
#
# Stress axis : x y z
#
# Youngs Moduli (GPa) = 52.75631 31.91871 97.24426
#
# Poissons Ratio (x) = 0.16806 0.18364
# Poissons Ratio (y) = 0.27778 0.60233
# Poissons Ratio (z) = 0.09963 0.19770
#
# Static dielectric constant tensor:
#      x y z
#    x 3.747710 -0.167420 -0.100030 
#    y -0.167420 4.093960 0.044070 
#    z -0.100030 0.044070 4.404250 
# 
# 
# High freq. dielectric constant tensor:
#      x y z
#    x 1.884050 -0.008410 -0.001430 
#    y -0.008410 1.897940 0.005600 
#    z -0.001430 0.005600 1.899040 
# 
# From -- ./inp_files/160236.got.cif
#   From: 2010.06.25/outbox.cif.g09.slc.cpg/sg2_81_cif.got.tgz:160236.got - 2010.06.27 13:26:56.
