data_PCOD8032864
_publ_section_title
;
Structure prediction by ZEFSAII (Michael W. Deem and Ramdas Pophale) SiO2 
 PCOD8032864
Probable space group: P -1
;
_chemical_formula_sum "Si O2"
_cell_formula_units_Z 14
_cell_length_a 5.227292
_cell_length_b 9.109522
_cell_length_c 17.186375
_cell_angle_alpha 130.591531
_cell_angle_beta 113.483337
_cell_angle_gamma 75.023074
_cell_volume 569.981809
_symmetry_space_group_name_H-M "P -1"
_symmetry_group_IT_number 2
_symmetry_cell_setting 'triclinic'
loop_
_space_group_symop_operation_xyz
x,y,z
-x,-y,-z
loop_
_atom_site_type_symbol
_atom_site_label
_atom_site_fract_x
_atom_site_fract_y
_atom_site_fract_z
Si Si1 0.647778 0.970607 0.089748
Si Si2 0.157328 0.571797 0.158407
Si Si3 0.593312 0.059349 0.448736
Si Si4 0.622186 0.403625 0.252129
Si Si5 0.311073 0.421267 0.516803
Si Si6 0.211795 0.738665 0.061090
Si Si7 0.049087 0.269005 0.661793
O O1 0.467489 0.838853 0.081508
O O2 0.949652 0.881018 0.082697
O O3 0.695923 0.183158 0.205698
O O4 0.500000 0.000000 0.000000
O O5 0.360566 0.410483 0.164062
O O6 0.298852 0.678492 0.138538
O O7 0.099465 0.734404 0.273234
O O8 0.873195 0.460024 0.061712
O O9 0.339358 0.188199 0.427668
O O10 0.868361 0.193457 0.540694
O O11 0.500000 0.000000 0.500000
O O12 0.675876 0.869308 0.343542
O O13 0.556753 0.518974 0.363500
O O14 0.873327 0.510605 0.274282
O O15 0.500000 0.500000 0.500000
O O16 0.000000 0.500000 0.500000
#
# Coordination Sequence:
#
# PCOD8032864 Si02
#       7
#     2   2   2   2   2   2   2
#     4  12  26  49  75 110 153 198 246 301 379 449
#     4  11  25  46  78 105 151 192 254 309 369 445
#     4  11  23  46  75 102 142 196 254 311 366 451
#     4  12  26  47  75 103 146 207 242 303 382 448
#     4  12  28  49  70 108 151 190 245 311 374 439
#     4  11  28  47  74 116 149 194 248 316 362 441
#     4  11  23  43  78 106 140 196 262 295 382 437
#
# _framework density 24.562187000000002
#
# number of rings (size 3 to 8) (size 9 to 14) (size 15 to 20)
#    0.000    0.571    4.286    2.143    6.000    2.286 
#    5.143    0.000    0.000    0.000    0.000    0.000 
#    0.000    0.000    0.000    0.000    0.000    0.000 
#
# Total GULP energy -173578.573322 kJ/mol
# GULP energy per Si atom -12398.469523 kJ/mol
# Density = 2.450628 g / cm^3
# Si number density = 24.562187 Si / 1000 Ang^3
#
#
#
# Elastic Constant Matrix: (Units=GPa)
#
#
# Indices 1 2 3 4 5 6 
#
# 1 100.4899 36.0826 1.5650 -1.1543 -11.4032 5.6655
# 2 36.0826 139.9461 18.3941 4.7999 -11.8907 -0.6078
# 3 1.5650 18.3941 63.2873 -6.5040 -7.4874 9.9981
# 4 -1.1543 4.7999 -6.5040 46.4971 3.5345 -5.3433
# 5 -11.4032 -11.8907 -7.4874 3.5345 37.1356 3.6358
# 6 5.6655 -0.6078 9.9981 -5.3433 3.6358 56.0232
#
#
#
# Elastic Compliance Matrix: (Units=1/GPa)
#
#
# Indices 1 2 3 4 5 6 
#
# 1 0.011384 -0.002859 0.001177 0.000341 0.002937 -0.001550
# 2 -0.002859 0.008366 -0.002427 -0.001310 0.001378 0.000599
# 3 0.001177 -0.002427 0.017600 0.002116 0.003254 -0.003296
# 4 0.000341 -0.001310 0.002116 0.022325 -0.002194 0.001845
# 5 0.002937 0.001378 0.003254 -0.002194 0.029428 -0.002982
# 6 -0.001550 0.000599 -0.003296 0.001845 -0.002982 0.018971
#
#
# Mechanical properties :
#
#
# Convention : Reuss Voigt Hill
#
# Bulk Modulus (GPa) = 34.32594 46.20075 40.26334
# Shear Modulus (GPa) = 39.68138 44.44329 42.06233
#
# Velocity S-wave (km/s) = 4.02375 4.25834 4.14271
# Velocity P-wave (km/s) = 5.96597 6.55961 6.26982
#
# Compressibility (1/GPa) = 0.02913249
#
# Stress axis : x y z
#
# Youngs Moduli (GPa) = 87.84274 119.52733 56.81701
#
# Poissons Ratio (x) = 0.34169 -0.06686
# Poissons Ratio (y) = 0.25112 0.13790
# Poissons Ratio (z) = -0.10337 0.29011
#
# Static dielectric constant tensor:
#      x y z
#    x 5.031270 0.187370 1.775000 
#    y 0.187370 4.811660 0.772160 
#    z 1.775000 0.772160 9.687090 
# 
# 
# High freq. dielectric constant tensor:
#      x y z
#    x 1.983970 -0.001050 -0.008650 
#    y -0.001050 1.986940 0.008030 
#    z -0.008650 0.008030 1.972460 
# 
# From -- ./inp_files/131602.got.cif
#   From: 2010.06.25/outbox.cif.g09.slc.cpg/sg2_66_cif.got.tgz:131602.got - 2010.06.27 13:26:56.
