data_PCOD8032659
_publ_section_title
;
Structure prediction by ZEFSAII (Michael W. Deem and Ramdas Pophale) SiO2 
 PCOD8032659
Probable space group: P -1
;
_chemical_formula_sum "Si O2"
_cell_formula_units_Z 16
_cell_length_a 9.080481
_cell_length_b 8.783030
_cell_length_c 15.543713
_cell_angle_alpha 101.701800
_cell_angle_beta 38.775786
_cell_angle_gamma 109.441834
_cell_volume 728.729095
_symmetry_space_group_name_H-M "P -1"
_symmetry_group_IT_number 2
_symmetry_cell_setting 'triclinic'
loop_
_space_group_symop_operation_xyz
x,y,z
-x,-y,-z
loop_
_atom_site_type_symbol
_atom_site_label
_atom_site_fract_x
_atom_site_fract_y
_atom_site_fract_z
Si Si1 0.237678 0.891489 0.135862
Si Si2 0.418296 0.630528 0.110499
Si Si3 0.633076 0.360222 0.220124
Si Si4 0.758222 0.853146 0.100838
Si Si5 0.003384 0.325948 0.915193
Si Si6 0.588561 0.059834 0.330190
Si Si7 0.166030 0.419260 0.359431
Si Si8 0.891453 0.082977 0.363141
O O1 0.239207 0.714712 0.151383
O O2 0.055976 0.837851 0.131723
O O3 0.109400 0.996836 0.265502
O O4 0.500000 0.000000 0.000000
O O5 0.637486 0.791348 0.056347
O O6 0.294753 0.546417 0.243077
O O7 0.500000 0.500000 0.000000
O O8 0.827737 0.516319 0.193506
O O9 0.620168 0.214819 0.273692
O O10 0.363087 0.377365 0.328610
O O11 0.747299 0.341906 0.071992
O O12 0.824113 0.695730 0.087661
O O13 0.576802 0.907636 0.255595
O O14 0.000000 0.000000 0.000000
O O15 0.810129 0.093106 0.302212
O O16 0.332766 0.023900 0.491718
O O17 0.000000 0.500000 0.500000
O O18 0.992317 0.261944 0.374812
#
# Coordination Sequence:
#
# PCOD8032659 Si02
#       8
#     2   2   2   2   2   2   2   2
#     4  12  26  44  71 107 139 183 234 298 354 419
#     4  12  28  45  72 107 147 188 238 293 359 422
#     4  11  25  43  72 102 139 185 233 289 353 422
#     4  12  23  43  72 102 140 184 234 290 353 415
#     4  11  23  43  69 105 139 176 235 294 348 421
#     4  11  26  46  72 104 138 189 236 292 352 423
#     4  12  28  49  70 102 147 190 235 294 360 434
#     4  11  27  48  70 103 143 183 241 293 352 427
#
# _framework density 21.956033999999999
#
# number of rings (size 3 to 8) (size 9 to 14) (size 15 to 20)
#    0.000    0.500    3.750    3.750    8.750    0.500 
#    0.000    1.250    0.000    0.000    0.000    0.000 
#    0.000    0.000    0.000    0.000    0.000    0.000 
#
# Total GULP energy -198361.966370 kJ/mol
# GULP energy per Si atom -12397.622898 kJ/mol
# Density = 2.190606 g / cm^3
# Si number density = 21.956034 Si / 1000 Ang^3
#
#
#
# Elastic Constant Matrix: (Units=GPa)
#
#
# Indices 1 2 3 4 5 6 
#
# 1 94.5441 56.3877 46.5773 7.6258 -6.2899 2.3692
# 2 56.3877 147.1517 58.3984 11.6468 -3.4830 8.7847
# 3 46.5773 58.3984 122.0194 16.6333 -10.6208 -2.2591
# 4 7.6258 11.6468 16.6333 50.2100 -3.6938 -0.7689
# 5 -6.2899 -3.4830 -10.6208 -3.6938 29.3935 4.3200
# 6 2.3692 8.7847 -2.2591 -0.7689 4.3200 52.4780
#
#
#
# Elastic Compliance Matrix: (Units=1/GPa)
#
#
# Indices 1 2 3 4 5 6 
#
# 1 0.014982 -0.004286 -0.003545 -0.000004 0.001451 -0.000231
# 2 -0.004286 0.009772 -0.003038 -0.000686 -0.000719 -0.001524
# 3 -0.003545 -0.003038 0.011574 -0.002383 0.002629 0.000916
# 4 -0.000004 -0.000686 -0.002383 0.020991 0.001668 0.000183
# 5 0.001451 -0.000719 0.002629 0.001668 0.035811 -0.002755
# 6 -0.000231 -0.001524 0.000916 0.000183 -0.002755 0.019590
#
#
# Mechanical properties :
#
#
# Convention : Reuss Voigt Hill
#
# Bulk Modulus (GPa) = 68.54440 76.27132 72.40786
# Shear Modulus (GPa) = 35.88814 39.90641 37.89727
#
# Velocity S-wave (km/s) = 4.04734 4.26791 4.15909
# Velocity P-wave (km/s) = 7.28889 7.68768 7.49094
#
# Compressibility (1/GPa) = 0.01458908
#
# Stress axis : x y z
#
# Youngs Moduli (GPa) = 66.74493 102.33379 86.40359
#
# Poissons Ratio (x) = 0.43857 0.30634
# Poissons Ratio (y) = 0.28605 0.26252
# Poissons Ratio (z) = 0.23664 0.31092
#
# Static dielectric constant tensor:
#      x y z
#    x 2.833790 -0.383590 -0.501530 
#    y -0.383590 4.158580 -0.057820 
#    z -0.501530 -0.057820 3.867060 
# 
# 
# High freq. dielectric constant tensor:
#      x y z
#    x 1.870810 -0.000900 -0.007640 
#    y -0.000900 1.887250 0.000300 
#    z -0.007640 0.000300 1.858260 
# 
# From -- ./inp_files/495120.got.cif
#   From: 2010.06.25/outbox.cif.g09.slc.cpg/sg2_248_cif.got.tgz:495120.got - 2010.06.27 13:26:56.
