data_PCOD8032430
_publ_section_title
;
Structure prediction by ZEFSAII (Michael W. Deem and Ramdas Pophale) SiO2 
 PCOD8032430
Probable space group: P -1
;
_chemical_formula_sum "Si O2"
_cell_formula_units_Z 14
_cell_length_a 20.445803
_cell_length_b 8.656134
_cell_length_c 17.614885
_cell_angle_alpha 40.374314
_cell_angle_beta 160.122732
_cell_angle_gamma 129.844477
_cell_volume 644.757404
_symmetry_space_group_name_H-M "P -1"
_symmetry_group_IT_number 2
_symmetry_cell_setting 'triclinic'
loop_
_space_group_symop_operation_xyz
x,y,z
-x,-y,-z
loop_
_atom_site_type_symbol
_atom_site_label
_atom_site_fract_x
_atom_site_fract_y
_atom_site_fract_z
Si Si1 0.508437 0.953364 0.822308
Si Si2 0.199841 0.190174 0.189385
Si Si3 0.395577 0.261431 0.830708
Si Si4 0.983299 0.652465 0.222145
Si Si5 0.671808 0.365296 0.797797
Si Si6 0.933252 0.918181 0.761436
Si Si7 0.562709 0.702153 0.816890
O O1 0.597618 0.793463 0.904240
O O2 0.595198 0.185643 0.835866
O O3 0.262171 0.059569 0.511875
O O4 0.583510 0.772253 0.043665
O O5 0.285774 0.421821 0.184116
O O6 0.068237 0.246315 0.102876
O O7 0.387063 0.924469 0.497846
O O8 0.056674 0.195707 0.958604
O O9 0.504269 0.452828 0.849089
O O10 0.154170 0.373609 0.504093
O O11 0.500000 0.000000 0.000000
O O12 0.773999 0.627821 0.031000
O O13 0.077972 0.803290 0.327441
O O14 0.500000 0.500000 0.500000
O O15 0.869135 0.202565 0.027418
#
# Coordination Sequence:
#
# PCOD8032430 Si02
#       7
#     2   2   2   2   2   2   2
#     4  11  25  47  69  98 137 182 233 278 332 414
#     4  11  24  43  71 108 142 173 223 290 349 404
#     4  12  30  47  68  99 140 187 233 283 338 409
#     4  12  25  45  72 102 141 182 225 287 348 402
#     4  12  23  42  69 107 138 175 232 282 340 408
#     4  11  23  42  70 102 136 184 224 277 347 404
#     4  11  24  48  71 101 137 180 233 280 344 410
#
# _framework density 21.713594000000001
#
# number of rings (size 3 to 8) (size 9 to 14) (size 15 to 20)
#    0.000    0.571    7.143    1.714    4.000    2.286 
#    0.000    0.000    0.000    0.000    0.000    0.000 
#    0.000    0.000    0.000    0.000    0.000    0.000 
#
# Total GULP energy -173665.885255 kJ/mol
# GULP energy per Si atom -12404.706090 kJ/mol
# Density = 2.166417 g / cm^3
# Si number density = 21.713594 Si / 1000 Ang^3
#
#
#
# Elastic Constant Matrix: (Units=GPa)
#
#
# Indices 1 2 3 4 5 6 
#
# 1 91.6631 27.7738 83.8112 -1.6677 -9.8960 17.1700
# 2 27.7738 121.4982 46.8082 -21.8169 2.1811 21.0432
# 3 83.8112 46.8082 154.7977 -11.5673 -0.8634 20.3533
# 4 -1.6677 -21.8169 -11.5673 26.7784 -1.2514 13.9304
# 5 -9.8960 2.1811 -0.8634 -1.2514 35.1512 8.0937
# 6 17.1700 21.0432 20.3533 13.9304 8.0937 18.5191
#
#
#
# Elastic Compliance Matrix: (Units=1/GPa)
#
#
# Indices 1 2 3 4 5 6 
#
# 1 0.020236 -0.010216 -0.014521 -0.030665 -0.002732 0.033068
# 2 -0.010216 -0.012986 -0.007164 -0.062282 -0.025176 0.089954
# 3 -0.014521 -0.007164 0.012880 -0.012089 -0.008413 0.020219
# 4 -0.030665 -0.062282 -0.012089 -0.162344 -0.072122 0.266128
# 5 -0.002732 -0.025176 -0.008413 -0.072122 0.005200 0.092366
# 6 0.033068 0.089954 0.020219 0.266128 0.092366 -0.341653
#
#
# Mechanical properties :
#
#
# Convention : Reuss Voigt Hill
#
# Bulk Modulus (GPa) = -22.89726 76.08281 26.59278
# Shear Modulus (GPa) = -11.64356 30.06079 9.20862
#
# Velocity S-wave (km/s) = -2.31818 3.72482 2.06159
# Velocity P-wave (km/s) = 4.21109 7.32218 4.23563
#
# Compressibility (1/GPa) = -0.04367335
#
# Stress axis : x y z
#
# Youngs Moduli (GPa) = 49.41800 -77.00762 77.64056
#
# Poissons Ratio (x) = -0.78670 1.12745
# Poissons Ratio (y) = 0.50485 0.55623
# Poissons Ratio (z) = 0.71762 -0.55170
#
# Static dielectric constant tensor:
#      x y z
#    x 3.893320 0.202860 0.031160 
#    y 0.202860 4.058780 0.101260 
#    z 0.031160 0.101260 3.983690 
# 
# 
# High freq. dielectric constant tensor:
#      x y z
#    x 1.851760 0.008590 0.006010 
#    y 0.008590 1.864990 0.005330 
#    z 0.006010 0.005330 1.854550 
# 
# From -- ./inp_files/282707.got.cif
#   From: 2010.06.25/outbox.cif.g09.slc.cpg/sg2_142_cif.got.tgz:282707.got - 2010.06.27 13:26:56.
