data_PCOD8032165
_publ_section_title
;
Structure prediction by ZEFSAII (Michael W. Deem and Ramdas Pophale) SiO2 
 PCOD8032165
Probable space group: P -1
;
_chemical_formula_sum "Si O2"
_cell_formula_units_Z 12
_cell_length_a 6.172626
_cell_length_b 15.243143
_cell_length_c 9.284985
_cell_angle_alpha 37.890135
_cell_angle_beta 82.644343
_cell_angle_gamma 95.806504
_cell_volume 501.942995
_symmetry_space_group_name_H-M "P -1"
_symmetry_group_IT_number 2
_symmetry_cell_setting 'triclinic'
loop_
_space_group_symop_operation_xyz
x,y,z
-x,-y,-z
loop_
_atom_site_type_symbol
_atom_site_label
_atom_site_fract_x
_atom_site_fract_y
_atom_site_fract_z
Si Si1 0.781709 0.455365 0.370233
Si Si2 0.845768 0.977363 0.183400
Si Si3 0.977526 0.133524 0.422301
Si Si4 0.560951 0.644442 0.987661
Si Si5 0.777806 0.287229 0.876483
Si Si6 0.376972 0.742002 0.608335
O O1 0.711361 0.351145 0.651267
O O2 0.819293 0.354577 0.363032
O O3 0.011028 0.593549 0.209593
O O4 0.555698 0.497413 0.275156
O O5 0.586037 0.857812 0.347796
O O6 0.980544 0.901017 0.373970
O O7 0.838452 0.136443 0.038885
O O8 0.000000 0.000000 0.000000
O O9 0.730791 0.159364 0.406272
O O10 0.165589 0.281271 0.150969
O O11 0.000000 0.000000 0.500000
O O12 0.451439 0.627265 0.857456
O O13 0.447559 0.746487 0.959810
#
# Coordination Sequence:
#
# PCOD8032165 Si02
#       6
#     2   2   2   2   2   2
#     4  11  25  43  66  96 133 174 216 265 325 384
#     4  11  25  44  67  96 129 170 218 267 323 385
#     4  11  23  41  67  97 131 172 216 266 324 383
#     4  11  23  41  67  96 132 172 216 265 323 386
#     4  11  25  44  67  96 133 173 216 267 323 386
#     4  11  25  43  68  99 131 169 217 271 323 382
#
# _framework density 23.907095000000002
#
# number of rings (size 3 to 8) (size 9 to 14) (size 15 to 20)
#    0.000    1.000    0.000    6.000    0.000   16.000 
#    0.000    0.000    0.000    0.000    0.000    0.000 
#    0.000    0.000    0.000    0.000    0.000    0.000 
#
# Total GULP energy -148670.381178 kJ/mol
# GULP energy per Si atom -12389.198431 kJ/mol
# Density = 2.385268 g / cm^3
# Si number density = 23.907095 Si / 1000 Ang^3
#
#
#
# Elastic Constant Matrix: (Units=GPa)
#
#
# Indices 1 2 3 4 5 6 
#
# 1 111.3818 51.3950 55.1182 11.7424 4.4026 -9.4018
# 2 51.3950 117.6689 38.2749 2.6706 3.7290 2.1657
# 3 55.1182 38.2749 117.5483 9.3293 14.7139 -1.8803
# 4 11.7424 2.6706 9.3293 41.5154 -2.5113 -0.3077
# 5 4.4026 3.7290 14.7139 -2.5113 31.7707 11.9315
# 6 -9.4018 2.1657 -1.8803 -0.3077 11.9315 46.4579
#
#
#
# Elastic Compliance Matrix: (Units=1/GPa)
#
#
# Indices 1 2 3 4 5 6 
#
# 1 0.013967 -0.004533 -0.004754 -0.002600 -0.000519 0.002962
# 2 -0.004533 0.011003 -0.001666 0.000986 0.000826 -0.001703
# 3 -0.004754 -0.001666 0.012071 -0.001569 -0.005210 0.000932
# 4 -0.002600 0.000986 -0.001569 0.025313 0.003484 -0.001363
# 5 -0.000519 0.000826 -0.005210 0.003484 0.037921 -0.010070
# 6 0.002962 -0.001703 0.000932 -0.001363 -0.010070 0.024819
#
#
# Mechanical properties :
#
#
# Convention : Reuss Voigt Hill
#
# Bulk Modulus (GPa) = 66.07808 70.68613 68.38210
# Shear Modulus (GPa) = 32.88515 37.40285 35.14400
#
# Velocity S-wave (km/s) = 3.71285 3.95968 3.83825
# Velocity P-wave (km/s) = 6.78822 7.10891 6.95041
#
# Compressibility (1/GPa) = 0.01513361
#
# Stress axis : x y z
#
# Youngs Moduli (GPa) = 71.59610 90.88362 82.84651
#
# Poissons Ratio (x) = 0.41198 0.39389
# Poissons Ratio (y) = 0.32455 0.13803
# Poissons Ratio (z) = 0.34040 0.15142
#
# Static dielectric constant tensor:
#      x y z
#    x 4.840590 0.326810 0.321490 
#    y 0.326810 4.453880 0.225300 
#    z 0.321490 0.225300 4.550940 
# 
# 
# High freq. dielectric constant tensor:
#      x y z
#    x 1.945640 -0.006590 0.022700 
#    y -0.006590 1.953040 0.012480 
#    z 0.022700 0.012480 1.965460 
# 
# From -- ./inp_files/21484.got.cif
#   From: 2010.06.25/outbox.cif.g09.slc.cpg/sg2_11_cif.got.tgz:21484.got - 2010.06.27 13:26:56.
