data_PCOD8032002
_publ_section_title
;
Structure prediction by ZEFSAII (Michael W. Deem and Ramdas Pophale) SiO2 
 PCOD8032002
Probable space group: P -1
;
_chemical_formula_sum "Si O2"
_cell_formula_units_Z 12
_cell_length_a 9.217045
_cell_length_b 11.940488
_cell_length_c 8.815513
_cell_angle_alpha 56.342426
_cell_angle_beta 131.247929
_cell_angle_gamma 125.607081
_cell_volume 569.574381
_symmetry_space_group_name_H-M "P -1"
_symmetry_group_IT_number 2
_symmetry_cell_setting 'triclinic'
loop_
_space_group_symop_operation_xyz
x,y,z
-x,-y,-z
loop_
_atom_site_type_symbol
_atom_site_label
_atom_site_fract_x
_atom_site_fract_y
_atom_site_fract_z
Si Si1 0.446789 0.186023 0.723748
Si Si2 0.658388 0.123667 0.205203
Si Si3 0.114699 0.322603 0.349354
Si Si4 0.406034 0.674694 0.763687
Si Si5 0.768733 0.601535 0.963588
Si Si6 0.175716 0.603992 0.353262
O O1 0.259026 0.242074 0.576092
O O2 0.631036 0.307047 0.679334
O O3 0.376781 0.044286 0.676520
O O4 0.504484 0.147583 0.957683
O O5 0.603779 0.176565 0.290314
O O6 0.891101 0.207463 0.252268
O O7 0.099278 0.438428 0.373406
O O8 0.797186 0.597187 0.806647
O O9 0.358436 0.561422 0.953834
O O10 0.232666 0.613116 0.562157
O O11 0.634455 0.701313 0.835751
O O12 0.988556 0.663359 0.153456
#
# Coordination Sequence:
#
# PCOD8032002 Si02
#       6
#     2   2   2   2   2   2
#     4  11  25  42  67  93 125 171 212 252 314 377
#     4  11  25  45  64  91 132 166 209 259 311 377
#     4  12  23  42  69  94 123 168 215 256 307 377
#     4  11  25  40  64  97 129 163 205 267 317 363
#     4  11  23  40  64  96 128 161 209 260 314 364
#     4  12  23  40  68  98 124 163 213 261 313 367
#
# _framework density 21.068360999999999
#
# number of rings (size 3 to 8) (size 9 to 14) (size 15 to 20)
#    0.000    0.667    5.000    3.000    4.667    0.667 
#    0.000    0.833    0.000    0.000    0.000    0.000 
#    0.000    0.000    0.000    0.000    0.000    0.000 
#
# Total GULP energy -148887.321335 kJ/mol
# GULP energy per Si atom -12407.276778 kJ/mol
# Density = 2.102041 g / cm^3
# Si number density = 21.068361 Si / 1000 Ang^3
#
#
#
# Elastic Constant Matrix: (Units=GPa)
#
#
# Indices 1 2 3 4 5 6 
#
# 1 83.2482 16.8681 32.2237 16.8107 23.1728 -9.8355
# 2 16.8681 87.3621 24.2110 12.7826 14.0808 -8.2032
# 3 32.2237 24.2110 112.2017 16.5208 22.9761 -2.7065
# 4 16.8107 12.7826 16.5208 24.2982 3.7929 -5.6403
# 5 23.1728 14.0808 22.9761 3.7929 36.1179 5.3185
# 6 -9.8355 -8.2032 -2.7065 -5.6403 5.3185 14.6482
#
#
#
# Elastic Compliance Matrix: (Units=1/GPa)
#
#
# Indices 1 2 3 4 5 6 
#
# 1 0.019460 0.001425 -0.001673 -0.007338 -0.013509 0.015635
# 2 0.001425 0.014080 -0.001244 -0.004371 -0.006522 0.009297
# 3 -0.001673 -0.001244 0.011498 -0.005132 -0.005252 0.000236
# 4 -0.007338 -0.004371 -0.005132 0.054419 0.002221 0.011825
# 5 -0.013509 -0.006522 -0.005252 0.002221 0.046375 -0.029676
# 6 0.015635 0.009297 0.000236 0.011825 -0.029676 0.099344
#
#
# Mechanical properties :
#
#
# Convention : Reuss Voigt Hill
#
# Bulk Modulus (GPa) = 23.77815 47.71308 35.74562
# Shear Modulus (GPa) = 19.07111 28.98015 24.02563
#
# Velocity S-wave (km/s) = 3.01192 3.71284 3.38059
# Velocity P-wave (km/s) = 4.83800 6.40907 5.67813
#
# Compressibility (1/GPa) = 0.04205541
#
# Stress axis : x y z
#
# Youngs Moduli (GPa) = 51.38692 71.02298 86.97100
#
# Poissons Ratio (x) = -0.10122 0.14546
# Poissons Ratio (y) = -0.07324 0.10820
# Poissons Ratio (z) = 0.08595 0.08836
#
# Static dielectric constant tensor:
#      x y z
#    x 3.893060 -0.065120 0.227890 
#    y -0.065120 3.733490 0.047350 
#    z 0.227890 0.047350 3.978080 
# 
# 
# High freq. dielectric constant tensor:
#      x y z
#    x 1.836180 -0.001060 0.011650 
#    y -0.001060 1.809880 0.008290 
#    z 0.011650 0.008290 1.835770 
# 
# From -- ./inp_files/185540.got.cif
#   From: 2010.06.25/outbox.cif.g09.slc.cpg/sg2_93_cif.got.tgz:185540.got - 2010.06.27 13:26:56.
