data_PCOD8032567
_publ_section_title
;
Structure prediction by ZEFSAII (Michael W. Deem and Ramdas Pophale) SiO2 
 PCOD8032567
Probable space group: P -1
;
_chemical_formula_sum "Si O2"
_cell_formula_units_Z 14
_cell_length_a 9.103406
_cell_length_b 6.596107
_cell_length_c 17.585458
_cell_angle_alpha 110.329148
_cell_angle_beta 76.002165
_cell_angle_gamma 53.185378
_cell_volume 634.461631
_symmetry_space_group_name_H-M "P -1"
_symmetry_group_IT_number 2
_symmetry_cell_setting 'triclinic'
loop_
_space_group_symop_operation_xyz
x,y,z
-x,-y,-z
loop_
_atom_site_type_symbol
_atom_site_label
_atom_site_fract_x
_atom_site_fract_y
_atom_site_fract_z
Si Si1 0.937702 0.925876 0.860362
Si Si2 0.219920 0.205334 0.750860
Si Si3 0.365566 0.157469 0.456975
Si Si4 0.145741 0.136452 0.911826
Si Si5 0.913335 0.151157 0.748865
Si Si6 0.051624 0.105287 0.439283
Si Si7 0.467869 0.785036 0.963645
O O1 0.078042 0.575336 0.831954
O O2 0.020060 0.848503 0.750459
O O3 0.989468 0.092237 0.919533
O O4 0.666741 0.168635 0.940762
O O5 0.277042 0.040701 0.803718
O O6 0.074257 0.185816 0.717744
O O7 0.455797 0.999544 0.652901
O O8 0.228402 0.085699 0.448781
O O9 0.180697 0.549623 0.524700
O O10 0.500000 0.000000 0.500000
O O11 0.333471 0.880129 0.916295
O O12 0.000000 0.500000 0.000000
O O13 0.717006 0.420399 0.870248
O O14 0.828506 0.152362 0.678831
O O15 0.000000 0.000000 0.500000
O O16 0.500000 0.000000 0.000000
#
# Coordination Sequence:
#
# PCOD8032567 Si02
#       7
#     2   2   2   2   2   2   2
#     4  11  23  43  65  95 137 178 224 275 343 404
#     4  11  24  43  68  95 132 177 223 277 345 406
#     4  11  26  48  73 101 140 180 231 294 353 412
#     4  11  24  41  63  97 133 177 230 272 333 412
#     4  11  25  42  67 100 133 177 227 278 342 408
#     4  11  27  47  72 106 137 179 237 289 351 419
#     4  12  23  42  64  96 138 176 220 280 332 399
#
# _framework density 22.065953
#
# number of rings (size 3 to 8) (size 9 to 14) (size 15 to 20)
#    0.000    0.857    2.857    3.429    4.000    5.714 
#    0.000    0.000    0.000    0.000    0.000    0.000 
#    0.000    0.000    0.000    0.000    0.000    0.000 
#
# Total GULP energy -173547.617951 kJ/mol
# GULP energy per Si atom -12396.258425 kJ/mol
# Density = 2.201573 g / cm^3
# Si number density = 22.065953 Si / 1000 Ang^3
#
#
#
# Elastic Constant Matrix: (Units=GPa)
#
#
# Indices 1 2 3 4 5 6 
#
# 1 139.0765 56.0747 49.9454 -13.5859 -2.8903 13.4231
# 2 56.0747 90.1486 29.4441 -18.7367 2.1722 9.6551
# 3 49.9454 29.4441 110.5555 -16.0230 -8.0076 11.3450
# 4 -13.5859 -18.7367 -16.0230 37.8928 -3.0967 -1.2432
# 5 -2.8903 2.1722 -8.0076 -3.0967 46.8216 -5.3684
# 6 13.4231 9.6551 11.3450 -1.2432 -5.3684 42.6410
#
#
#
# Elastic Compliance Matrix: (Units=1/GPa)
#
#
# Indices 1 2 3 4 5 6 
#
# 1 0.010676 -0.005512 -0.003258 -0.000300 0.000197 -0.001230
# 2 -0.005512 0.016168 -0.000929 0.005483 -0.001076 -0.001654
# 3 -0.003258 -0.000929 0.011540 0.003355 0.001865 -0.001502
# 4 -0.000300 0.005483 0.003355 0.030566 0.002223 -0.000869
# 5 0.000197 -0.001076 0.001865 0.002223 0.022177 0.002542
# 6 -0.001230 -0.001654 -0.001502 -0.000869 0.002542 0.024908
#
#
# Mechanical properties :
#
#
# Convention : Reuss Voigt Hill
#
# Bulk Modulus (GPa) = 52.67314 67.85656 60.26485
# Shear Modulus (GPa) = 35.27035 39.09218 37.18126
#
# Velocity S-wave (km/s) = 4.00234 4.21361 4.10934
# Velocity P-wave (km/s) = 6.72911 7.38181 7.06301
#
# Compressibility (1/GPa) = 0.01898501
#
# Stress axis : x y z
#
# Youngs Moduli (GPa) = 93.66543 61.85201 86.65400
#
# Poissons Ratio (x) = 0.34093 0.28233
# Poissons Ratio (y) = 0.51629 0.08053
# Poissons Ratio (z) = 0.30518 0.05748
#
# Static dielectric constant tensor:
#      x y z
#    x 4.217140 -0.122130 -0.005580 
#    y -0.122130 4.410840 -0.103660 
#    z -0.005580 -0.103660 4.003740 
# 
# 
# High freq. dielectric constant tensor:
#      x y z
#    x 1.875680 0.011430 -0.000950 
#    y 0.011430 1.885600 -0.012420 
#    z -0.000950 -0.012420 1.871230 
# 
# From -- ./inp_files/46997.got.cif
#   From: 2010.06.25/outbox.cif.g09.slc.cpg/sg2_24_cif.got.tgz:46997.got - 2010.06.27 13:26:56.
