data_PCOD8032926
_publ_section_title
;
Structure prediction by ZEFSAII (Michael W. Deem and Ramdas Pophale) SiO2 
 PCOD8032926
Probable space group: P -1
;
_chemical_formula_sum "Si O2"
_cell_formula_units_Z 12
_cell_length_a 12.023592
_cell_length_b 9.295356
_cell_length_c 9.995878
_cell_angle_alpha 120.730350
_cell_angle_beta 114.193937
_cell_angle_gamma 37.347068
_cell_volume 582.546085
_symmetry_space_group_name_H-M "P -1"
_symmetry_group_IT_number 2
_symmetry_cell_setting 'triclinic'
loop_
_space_group_symop_operation_xyz
x,y,z
-x,-y,-z
loop_
_atom_site_type_symbol
_atom_site_label
_atom_site_fract_x
_atom_site_fract_y
_atom_site_fract_z
Si Si1 0.876495 0.759058 0.783066
Si Si2 0.473240 0.091716 0.679335
Si Si3 0.437880 0.496192 0.825423
Si Si4 0.182100 0.921301 0.320216
Si Si5 0.897600 0.931891 0.143725
Si Si6 0.836751 0.815588 0.328347
O O1 0.000453 0.528477 0.321368
O O2 0.666489 0.915325 0.765677
O O3 0.902310 0.861813 0.723688
O O4 0.939149 0.786060 0.961598
O O5 0.369192 0.376425 0.755147
O O6 0.355632 0.082630 0.702483
O O7 0.500000 0.000000 0.500000
O O8 0.605228 0.331380 0.725398
O O9 0.274553 0.770179 0.814687
O O10 0.500000 0.500000 0.000000
O O11 0.077323 0.853498 0.230495
O O12 0.162036 0.017400 0.503950
O O13 0.859146 0.838470 0.196107
#
# Coordination Sequence:
#
# PCOD8032926 Si02
#       6
#     2   2   2   2   2   2
#     4  11  24  43  68  94 125 174 218 254 317 385
#     4  11  23  44  68  95 125 170 221 258 312 384
#     4  11  23  44  68  95 125 170 221 258 312 384
#     4  11  24  43  68  94 125 174 218 254 317 385
#     4  12  26  42  65  99 132 166 209 271 324 369
#     4  12  26  42  65  99 132 166 209 271 324 369
#
# _framework density 20.599229999999999
#
# number of rings (size 3 to 8) (size 9 to 14) (size 15 to 20)
#    0.000    0.667    6.667    3.000    4.667    2.667 
#    0.000    0.000    0.000    0.000    0.000    0.000 
#    0.000    0.000    0.000    0.000    0.000    0.000 
#
# Total GULP energy -148884.647291 kJ/mol
# GULP energy per Si atom -12407.053941 kJ/mol
# Density = 2.055234 g / cm^3
# Si number density = 20.599230 Si / 1000 Ang^3
#
#
#
# Elastic Constant Matrix: (Units=GPa)
#
#
# Indices 1 2 3 4 5 6 
#
# 1 106.9945 5.4665 9.0583 -9.1718 18.4669 3.5329
# 2 5.4665 34.2149 1.5876 11.7543 2.2186 -7.3113
# 3 9.0583 1.5876 87.7359 14.0381 13.1933 3.2935
# 4 -9.1718 11.7543 14.0381 29.7722 1.3224 -4.4633
# 5 18.4669 2.2186 13.1933 1.3224 36.3757 -3.0481
# 6 3.5329 -7.3113 3.2935 -4.4633 -3.0481 24.9718
#
#
#
# Elastic Compliance Matrix: (Units=1/GPa)
#
#
# Indices 1 2 3 4 5 6 
#
# 1 0.011075 -0.003646 -0.001019 0.005239 -0.005407 -0.002224
# 2 -0.003646 0.036727 0.001805 -0.015235 0.000209 0.008333
# 3 -0.001019 0.001805 0.013475 -0.007634 -0.004455 -0.003013
# 4 0.005239 -0.015235 -0.007634 0.045412 -0.000287 0.003887
# 5 -0.005407 0.000209 -0.004455 -0.000287 0.032294 0.005304
# 6 -0.002224 0.008333 -0.003013 0.003887 0.005304 0.044539
#
#
# Mechanical properties :
#
#
# Convention : Reuss Voigt Hill
#
# Bulk Modulus (GPa) = 17.99983 29.01888 23.50935
# Shear Modulus (GPa) = 24.06621 32.41280 28.23951
#
# Velocity S-wave (km/s) = 3.42176 3.97103 3.70658
# Velocity P-wave (km/s) = 4.93643 5.92819 5.45489
#
# Compressibility (1/GPa) = 0.05555609
#
# Stress axis : x y z
#
# Youngs Moduli (GPa) = 90.29693 27.22806 74.21209
#
# Poissons Ratio (x) = 0.09928 0.07563
# Poissons Ratio (y) = 0.32926 -0.13398
# Poissons Ratio (z) = 0.09202 -0.04916
#
# Static dielectric constant tensor:
#      x y z
#    x 3.909800 -0.111750 0.167910 
#    y -0.111750 3.794950 0.166330 
#    z 0.167910 0.166330 3.835660 
# 
# 
# High freq. dielectric constant tensor:
#      x y z
#    x 1.811120 -0.005860 0.007980 
#    y -0.005860 1.804050 0.013040 
#    z 0.007980 0.013040 1.819810 
# 
# From -- ./inp_files/236031.got.cif
#   From: 2010.06.25/outbox.cif.g09.slc.cpg/sg2_119_cif.got.tgz:236031.got - 2010.06.27 13:26:56.
