data_PCOD8032743
_publ_section_title
;
Structure prediction by ZEFSAII (Michael W. Deem and Ramdas Pophale) SiO2 
 PCOD8032743
Probable space group: P -1
;
_chemical_formula_sum "Si O2"
_cell_formula_units_Z 14
_cell_length_a 10.992272
_cell_length_b 6.505770
_cell_length_c 16.533538
_cell_angle_alpha 77.310024
_cell_angle_beta 30.648983
_cell_angle_gamma 80.472660
_cell_volume 587.364770
_symmetry_space_group_name_H-M "P -1"
_symmetry_group_IT_number 2
_symmetry_cell_setting 'triclinic'
loop_
_space_group_symop_operation_xyz
x,y,z
-x,-y,-z
loop_
_atom_site_type_symbol
_atom_site_label
_atom_site_fract_x
_atom_site_fract_y
_atom_site_fract_z
Si Si1 0.588999 0.844566 0.031849
Si Si2 0.690240 0.148704 0.276634
Si Si3 0.986960 0.546408 0.844264
Si Si4 0.141117 0.220847 0.394941
Si Si5 0.083308 0.640773 0.334785
Si Si6 0.329077 0.859522 0.898433
Si Si7 0.763353 0.745393 0.377381
O O1 0.349237 0.709756 0.207299
O O2 0.716099 0.951652 0.029314
O O3 0.789141 0.685399 0.899616
O O4 0.500000 0.000000 0.000000
O O5 0.674601 0.073395 0.199283
O O6 0.451558 0.254846 0.435684
O O7 0.902477 0.323800 0.154373
O O8 0.746282 0.938904 0.310658
O O9 0.209073 0.479868 0.665226
O O10 0.864852 0.329384 0.964015
O O11 0.053767 0.385265 0.362680
O O12 0.412532 0.203891 0.217509
O O13 0.118865 0.318962 0.487280
O O14 0.000000 0.000000 0.500000
O O15 0.014865 0.766149 0.281900
#
# Coordination Sequence:
#
# PCOD8032743 Si02
#       7
#     2   2   2   2   2   2   2
#     4  12  27  44  73 109 149 185 230 298 368 430
#     4  11  26  50  72 103 142 193 249 289 353 419
#     4  12  26  46  70 104 145 192 239 294 355 425
#     4  11  23  43  71 105 141 184 235 298 354 420
#     4  11  23  44  71 108 139 180 239 288 365 426
#     4  12  25  46  73 105 143 191 239 299 349 428
#     4  11  26  48  74 104 145 188 240 300 352 427
#
# _framework density 23.835273999999998
#
# number of rings (size 3 to 8) (size 9 to 14) (size 15 to 20)
#    0.000    0.571    4.286    3.429    2.000    5.714 
#    2.571    0.000    0.000    0.000    0.000    0.000 
#    0.000    0.000    0.000    0.000    0.000    0.000 
#
# Total GULP energy -173461.570394 kJ/mol
# GULP energy per Si atom -12390.112171 kJ/mol
# Density = 2.378102 g / cm^3
# Si number density = 23.835274 Si / 1000 Ang^3
#
#
#
# Elastic Constant Matrix: (Units=GPa)
#
#
# Indices 1 2 3 4 5 6 
#
# 1 131.6174 56.8218 29.1146 4.0092 9.2828 -5.6668
# 2 56.8218 132.4494 50.8107 8.3601 -1.4969 -10.8214
# 3 29.1146 50.8107 95.4928 17.6585 -0.6142 -6.9788
# 4 4.0092 8.3601 17.6585 45.3975 0.7368 -6.0214
# 5 9.2828 -1.4969 -0.6142 0.7368 36.6600 -2.5943
# 6 -5.6668 -10.8214 -6.9788 -6.0214 -2.5943 38.2600
#
#
#
# Elastic Compliance Matrix: (Units=1/GPa)
#
#
# Indices 1 2 3 4 5 6 
#
# 1 0.009633 -0.003800 -0.000980 0.000278 -0.002614 0.000040
# 2 -0.003800 0.011123 -0.004674 0.000331 0.001465 0.001882
# 3 -0.000980 -0.004674 0.014123 -0.004496 0.000415 0.000430
# 4 0.000278 0.000331 -0.004496 0.024106 -0.000399 0.003082
# 5 -0.002614 0.001465 0.000415 -0.000399 0.028152 0.001949
# 6 0.000040 0.001882 0.000430 0.003082 0.001949 0.027371
#
#
# Mechanical properties :
#
#
# Convention : Reuss Voigt Hill
#
# Bulk Modulus (GPa) = 62.61732 70.33930 66.47831
# Shear Modulus (GPa) = 36.03851 38.91764 37.47807
#
# Velocity S-wave (km/s) = 3.89264 4.04514 3.96962
# Velocity P-wave (km/s) = 6.82139 7.16884 6.99727
#
# Compressibility (1/GPa) = 0.01597002
#
# Stress axis : x y z
#
# Youngs Moduli (GPa) = 103.81115 89.90438 70.80514
#
# Poissons Ratio (x) = 0.34168 0.06940
# Poissons Ratio (y) = 0.39453 0.33094
# Poissons Ratio (z) = 0.10175 0.42021
#
# Static dielectric constant tensor:
#      x y z
#    x 4.098830 0.099280 0.054710 
#    y 0.099280 4.739160 0.427580 
#    z 0.054710 0.427580 4.410470 
# 
# 
# High freq. dielectric constant tensor:
#      x y z
#    x 1.934240 -0.004990 -0.006710 
#    y -0.004990 1.953920 0.017430 
#    z -0.006710 0.017430 1.958910 
# 
# From -- ./inp_files/118877.got.cif
#   From: 2010.06.25/outbox.cif.g09.slc.cpg/sg2_60_cif.got.tgz:118877.got - 2010.06.27 13:26:56.
