data_PCOD8032634
_publ_section_title
;
Structure prediction by ZEFSAII (Michael W. Deem and Ramdas Pophale) SiO2 
 PCOD8032634
Probable space group: P -1
;
_chemical_formula_sum "Si O2"
_cell_formula_units_Z 12
_cell_length_a 18.056625
_cell_length_b 7.845241
_cell_length_c 11.088488
_cell_angle_alpha 113.924462
_cell_angle_beta 142.507458
_cell_angle_gamma 39.741299
_cell_volume 519.955359
_symmetry_space_group_name_H-M "P -1"
_symmetry_group_IT_number 2
_symmetry_cell_setting 'triclinic'
loop_
_space_group_symop_operation_xyz
x,y,z
-x,-y,-z
loop_
_atom_site_type_symbol
_atom_site_label
_atom_site_fract_x
_atom_site_fract_y
_atom_site_fract_z
Si Si1 0.645058 0.205168 0.873698
Si Si2 0.743165 0.508181 0.500868
Si Si3 0.185236 0.349436 0.774004
Si Si4 0.958749 0.923494 0.038330
Si Si5 0.594825 0.614842 0.083603
Si Si6 0.990935 0.492665 0.162365
O O1 0.471770 0.264149 0.642944
O O2 0.717168 0.227624 0.851663
O O3 0.570395 0.436829 0.948679
O O4 0.848657 0.848155 0.072801
O O5 0.729312 0.441876 0.329251
O O6 0.786152 0.678866 0.592373
O O7 0.904285 0.193578 0.701481
O O8 0.282021 0.416073 0.863778
O O9 0.078311 0.535136 0.816027
O O10 0.000000 0.500000 0.500000
O O11 0.367616 0.974260 0.919017
O O12 0.016764 0.638160 0.997109
O O13 0.000000 0.000000 0.000000
#
# Coordination Sequence:
#
# PCOD8032634 Si02
#       6
#     2   2   2   2   2   2
#     4  11  24  44  68  97 137 171 227 274 321 407
#     4  11  23  43  68  98 131 181 215 272 333 389
#     4  11  23  43  68  98 139 171 214 281 326 393
#     4  11  27  47  65  98 133 176 228 274 331 391
#     4  11  24  42  67 105 131 177 224 262 341 390
#     4  11  24  43  68  99 133 177 224 270 330 392
#
# _framework density 23.078904000000001
#
# number of rings (size 3 to 8) (size 9 to 14) (size 15 to 20)
#    0.000    1.000    3.333    3.500    0.000   10.000 
#    0.000    0.000    0.000    0.000    0.000    0.000 
#    0.000    0.000    0.000    0.000    0.000    0.000 
#
# Total GULP energy -148717.494526 kJ/mol
# GULP energy per Si atom -12393.124544 kJ/mol
# Density = 2.302638 g / cm^3
# Si number density = 23.078904 Si / 1000 Ang^3
#
#
#
# Elastic Constant Matrix: (Units=GPa)
#
#
# Indices 1 2 3 4 5 6 
#
# 1 169.9520 20.5106 66.3835 -1.2369 13.7012 -16.2193
# 2 20.5106 84.4196 40.3049 11.1653 -0.7953 -5.1473
# 3 66.3835 40.3049 120.4965 -0.9666 16.2850 -4.5973
# 4 -1.2369 11.1653 -0.9666 18.7386 4.0172 2.0249
# 5 13.7012 -0.7953 16.2850 4.0172 41.2152 -3.4826
# 6 -16.2193 -5.1473 -4.5973 2.0249 -3.4826 35.3682
#
#
#
# Elastic Compliance Matrix: (Units=1/GPa)
#
#
# Indices 1 2 3 4 5 6 
#
# 1 0.007835 0.000290 -0.004207 -0.000055 -0.000676 0.003025
# 2 0.000290 0.016414 -0.006174 -0.011232 0.003987 0.002755
# 3 -0.004207 -0.006174 0.013281 0.005282 -0.004640 -0.001861
# 4 -0.000055 -0.011232 0.005282 0.062817 -0.008868 -0.005443
# 5 -0.000676 0.003987 -0.004640 -0.008868 0.027506 0.002883
# 6 0.003025 0.002755 -0.001861 -0.005443 0.002883 0.030416
#
#
# Mechanical properties :
#
#
# Convention : Reuss Voigt Hill
#
# Bulk Modulus (GPa) = 57.64543 69.91845 63.78194
# Shear Modulus (GPa) = 27.13966 35.57568 31.35767
#
# Velocity S-wave (km/s) = 3.43293 3.93043 3.69008
# Velocity P-wave (km/s) = 6.38319 7.13855 6.77141
#
# Compressibility (1/GPa) = 0.01734743
#
# Stress axis : x y z
#
# Youngs Moduli (GPa) = 127.63035 60.92418 75.29805
#
# Poissons Ratio (x) = -0.01770 0.31681
# Poissons Ratio (y) = -0.03707 0.46490
# Poissons Ratio (z) = 0.53699 0.37616
#
# Static dielectric constant tensor:
#      x y z
#    x 5.188800 -0.252110 0.385930 
#    y -0.252110 3.855200 -0.007640 
#    z 0.385930 -0.007640 4.124460 
# 
# 
# High freq. dielectric constant tensor:
#      x y z
#    x 1.958420 -0.008300 0.019000 
#    y -0.008300 1.881770 0.011870 
#    z 0.019000 0.011870 1.903410 
# 
# From -- ./inp_files/470093.got.cif
#   From: 2010.06.25/outbox.cif.g09.slc.cpg/sg2_236_cif.got.tgz:470093.got - 2010.06.27 13:26:56.
