data_PCOD8032268
_publ_section_title
;
Structure prediction by ZEFSAII (Michael W. Deem and Ramdas Pophale) SiO2 
 PCOD8032268
Probable space group: P -1
;
_chemical_formula_sum "Si O2"
_cell_formula_units_Z 16
_cell_length_a 14.974915
_cell_length_b 8.306204
_cell_length_c 14.536471
_cell_angle_alpha 100.700617
_cell_angle_beta 150.390502
_cell_angle_gamma 96.728620
_cell_volume 718.912274
_symmetry_space_group_name_H-M "P -1"
_symmetry_group_IT_number 2
_symmetry_cell_setting 'triclinic'
loop_
_space_group_symop_operation_xyz
x,y,z
-x,-y,-z
loop_
_atom_site_type_symbol
_atom_site_label
_atom_site_fract_x
_atom_site_fract_y
_atom_site_fract_z
Si Si1 0.656200 0.342669 0.991018
Si Si2 0.672141 0.431545 0.570529
Si Si3 0.694907 0.634062 0.423281
Si Si4 0.096434 0.679195 0.346883
Si Si5 0.187135 0.207768 0.145293
Si Si6 0.250499 0.574435 0.721831
Si Si7 0.509967 0.904750 0.866181
Si Si8 0.081643 0.079561 0.835128
O O1 0.669775 0.454242 0.110300
O O2 0.897569 0.456577 0.174450
O O3 0.496065 0.335570 0.770436
O O4 0.590082 0.125986 0.938039
O O5 0.628615 0.500395 0.440824
O O6 0.816388 0.340653 0.676528
O O7 0.433769 0.258865 0.381535
O O8 0.809468 0.614042 0.784014
O O9 0.733585 0.551779 0.356624
O O10 0.916592 0.843457 0.671521
O O11 0.299594 0.747661 0.601263
O O12 0.028125 0.832446 0.312960
O O13 0.131258 0.195041 0.987270
O O14 0.000000 0.000000 0.000000
O O15 0.413660 0.816067 0.872640
O O16 0.000000 0.500000 0.500000
O O17 0.697153 0.866571 0.009837
#
# Coordination Sequence:
#
# PCOD8032268 Si02
#       8
#     2   2   2   2   2   2   2   2
#     4  12  26  43  71 101 137 181 231 282 337 405
#     4  11  23  44  70 100 137 179 222 282 339 400
#     4  12  24  44  70 102 138 185 225 277 349 404
#     4  12  24  46  72  99 138 179 230 276 342 405
#     4  11  23  41  73  99 135 176 225 278 339 404
#     4  12  23  44  67  99 138 179 232 284 333 399
#     4  12  24  46  71  99 137 182 225 282 344 400
#     4  12  25  46  72 102 137 183 225 280 345 406
#
# _framework density 22.255845999999998
#
# number of rings (size 3 to 8) (size 9 to 14) (size 15 to 20)
#    0.000    0.250    6.250    3.750    0.000    0.500 
#    0.000    2.500    0.000    0.000    0.000    0.000 
#    0.000    0.000    0.000    0.000    0.000    0.000 
#
# Total GULP energy -198300.591796 kJ/mol
# GULP energy per Si atom -12393.786987 kJ/mol
# Density = 2.220519 g / cm^3
# Si number density = 22.255846 Si / 1000 Ang^3
#
#
#
# Elastic Constant Matrix: (Units=GPa)
#
#
# Indices 1 2 3 4 5 6 
#
# 1 85.9052 13.4438 28.5326 1.8891 18.1919 -4.0596
# 2 13.4438 82.3823 25.3981 1.0410 24.5174 -5.6811
# 3 28.5326 25.3981 115.4474 14.8257 23.1077 -1.9924
# 4 1.8891 1.0410 14.8257 31.4306 7.8157 12.1391
# 5 18.1919 24.5174 23.1077 7.8157 48.5956 -0.9641
# 6 -4.0596 -5.6811 -1.9924 12.1391 -0.9641 27.8913
#
#
#
# Elastic Compliance Matrix: (Units=1/GPa)
#
#
# Indices 1 2 3 4 5 6 
#
# 1 0.013375 -0.000178 -0.002602 0.000913 -0.003803 0.001196
# 2 -0.000178 0.014902 -0.002039 0.001343 -0.006658 0.002049
# 3 -0.002602 -0.002039 0.010920 -0.005188 -0.002313 0.002164
# 4 0.000913 0.001343 -0.005188 0.042884 -0.005823 -0.018830
# 5 -0.003803 -0.006658 -0.002313 -0.005823 0.027425 0.001408
# 6 0.001196 0.002049 0.002164 -0.018830 0.001408 0.044843
#
#
# Mechanical properties :
#
#
# Convention : Reuss Voigt Hill
#
# Bulk Modulus (GPa) = 33.83029 46.49822 40.16426
# Shear Modulus (GPa) = 28.76229 36.00753 32.38491
#
# Velocity S-wave (km/s) = 3.59882 4.02667 3.81874
# Velocity P-wave (km/s) = 5.70108 6.52355 6.12613
#
# Compressibility (1/GPa) = 0.02955931
#
# Stress axis : x y z
#
# Youngs Moduli (GPa) = 74.76913 67.10603 91.57516
#
# Poissons Ratio (x) = 0.01192 0.23826
# Poissons Ratio (y) = 0.01329 0.18672
# Poissons Ratio (z) = 0.19454 0.13683
#
# Static dielectric constant tensor:
#      x y z
#    x 4.442930 0.039300 0.095950 
#    y 0.039300 3.860890 0.113540 
#    z 0.095950 0.113540 4.380760 
# 
# 
# High freq. dielectric constant tensor:
#      x y z
#    x 1.886890 -0.001920 0.006400 
#    y -0.001920 1.862060 0.014520 
#    z 0.006400 0.014520 1.896790 
# 
# From -- ./inp_files/529937.got.cif
#   From: 2010.06.25/outbox.cif.g09.slc.cpg/sg2_265_cif.got.tgz:529937.got - 2010.06.27 13:26:56.
