data_PCOD8032377
_publ_section_title
;
Structure prediction by ZEFSAII (Michael W. Deem and Ramdas Pophale) SiO2 
 PCOD8032377
Probable space group: P -1
;
_chemical_formula_sum "Si O2"
_cell_formula_units_Z 16
_cell_length_a 24.977753
_cell_length_b 13.745546
_cell_length_c 8.460459
_cell_angle_alpha 131.936327
_cell_angle_beta 131.352918
_cell_angle_gamma 21.203453
_cell_volume 773.840637
_symmetry_space_group_name_H-M "P -1"
_symmetry_group_IT_number 2
_symmetry_cell_setting 'triclinic'
loop_
_space_group_symop_operation_xyz
x,y,z
-x,-y,-z
loop_
_atom_site_type_symbol
_atom_site_label
_atom_site_fract_x
_atom_site_fract_y
_atom_site_fract_z
Si Si1 0.299120 0.038252 0.411460
Si Si2 0.855418 0.209700 0.337139
Si Si3 0.180640 0.279454 0.786145
Si Si4 0.326576 0.292036 0.015445
Si Si5 0.157362 0.521005 0.612350
Si Si6 0.649638 0.491191 0.518368
Si Si7 0.887595 0.873853 0.987679
Si Si8 0.149037 0.068957 0.655244
O O1 0.206679 0.193758 0.563510
O O2 0.250867 0.242594 0.433867
O O3 0.265656 0.956827 0.166556
O O4 0.473553 0.765072 0.487037
O O5 0.819486 0.392202 0.359764
O O6 0.705297 0.424447 0.376695
O O7 0.000000 0.000000 0.500000
O O8 0.881683 0.035170 0.095539
O O9 0.216720 0.100656 0.777567
O O10 0.011177 0.596784 0.829769
O O11 0.286728 0.232085 0.984515
O O12 0.287626 0.489489 0.237650
O O13 0.217424 0.462797 0.838028
O O14 0.500000 0.000000 0.000000
O O15 0.983611 0.759328 0.535941
O O16 0.717635 0.247998 0.453931
O O17 0.916052 0.825380 0.179045
#
# Coordination Sequence:
#
# PCOD8032377 Si02
#       8
#     2   2   2   2   2   2   2   2
#     4  11  25  43  65  97 136 173 219 278 330 392
#     4  11  23  44  67 100 134 174 218 279 331 386
#     4  11  23  42  68  94 131 176 222 266 326 396
#     4  11  24  45  65  97 135 174 218 272 331 394
#     4  11  23  44  66  99 130 173 231 260 335 396
#     4  11  24  47  64  97 144 166 221 286 322 394
#     4  11  23  42  68  98 134 171 224 273 329 392
#     4  11  25  41  68 100 129 173 225 277 323 393
#
# _framework density 20.676092000000001
#
# number of rings (size 3 to 8) (size 9 to 14) (size 15 to 20)
#    0.000    1.000    6.250    1.500    1.750    4.500 
#    4.500    0.000    0.000    0.000    0.000    0.000 
#    0.000    0.000    0.000    0.000    0.000    0.000 
#
# Total GULP energy -198367.684558 kJ/mol
# GULP energy per Si atom -12397.980285 kJ/mol
# Density = 2.062903 g / cm^3
# Si number density = 20.676092 Si / 1000 Ang^3
#
#
#
# Elastic Constant Matrix: (Units=GPa)
#
#
# Indices 1 2 3 4 5 6 
#
# 1 128.7947 65.6604 47.4906 4.1463 25.7613 9.1483
# 2 65.6604 124.4342 51.1667 3.5323 12.7229 15.3480
# 3 47.4906 51.1667 109.3050 5.0806 32.0142 3.5900
# 4 4.1463 3.5323 5.0806 34.9736 -1.2221 6.4740
# 5 25.7613 12.7229 32.0142 -1.2221 39.3135 6.4855
# 6 9.1483 15.3480 3.5900 6.4740 6.4855 24.9973
#
#
#
# Elastic Compliance Matrix: (Units=1/GPa)
#
#
# Indices 1 2 3 4 5 6 
#
# 1 0.011961 -0.005380 -0.001081 -0.001043 -0.005372 0.000745
# 2 -0.005380 0.013322 -0.005070 0.001493 0.004552 -0.007050
# 3 -0.001081 -0.005070 0.015151 -0.002847 -0.010885 0.004894
# 4 -0.001043 0.001493 -0.002847 0.030902 0.005036 -0.009436
# 5 -0.005372 0.004552 -0.010885 0.005036 0.038234 -0.010490
# 6 0.000745 -0.007050 0.004894 -0.009436 -0.010490 0.048523
#
#
# Mechanical properties :
#
#
# Convention : Reuss Voigt Hill
#
# Bulk Modulus (GPa) = 57.56204 76.79660 67.17932
# Shear Modulus (GPa) = 26.74600 33.07130 29.90865
#
# Velocity S-wave (km/s) = 3.60053 4.00371 3.80746
# Velocity P-wave (km/s) = 6.72201 7.65482 7.20353
#
# Compressibility (1/GPa) = 0.01737256
#
# Stress axis : x y z
#
# Youngs Moduli (GPa) = 83.60753 75.06659 66.00169
#
# Poissons Ratio (x) = 0.40385 0.07135
# Poissons Ratio (y) = 0.44980 0.33460
# Poissons Ratio (z) = 0.09038 0.38055
#
# Static dielectric constant tensor:
#      x y z
#    x 4.109530 0.152870 0.394100 
#    y 0.152870 3.668510 0.175960 
#    z 0.394100 0.175960 3.948150 
# 
# 
# High freq. dielectric constant tensor:
#      x y z
#    x 1.815190 0.000360 0.026620 
#    y 0.000360 1.803050 0.009630 
#    z 0.026620 0.009630 1.814520 
# 
# From -- ./inp_files/357345.got.cif
#   From: 2010.06.25/outbox.cif.g09.slc.cpg/sg2_179_cif.got.tgz:357345.got - 2010.06.27 13:26:56.
