data_PCOD8032351
_publ_section_title
;
Structure prediction by ZEFSAII (Michael W. Deem and Ramdas Pophale) SiO2 
 PCOD8032351
Probable space group: P -1
;
_chemical_formula_sum "Si O2"
_cell_formula_units_Z 16
_cell_length_a 15.412139
_cell_length_b 15.453942
_cell_length_c 9.994821
_cell_angle_alpha 134.470905
_cell_angle_beta 45.191791
_cell_angle_gamma 151.071813
_cell_volume 792.259603
_symmetry_space_group_name_H-M "P -1"
_symmetry_group_IT_number 2
_symmetry_cell_setting 'triclinic'
loop_
_space_group_symop_operation_xyz
x,y,z
-x,-y,-z
loop_
_atom_site_type_symbol
_atom_site_label
_atom_site_fract_x
_atom_site_fract_y
_atom_site_fract_z
Si Si1 0.400789 0.016360 0.227991
Si Si2 0.885945 0.500302 0.527631
Si Si3 0.987800 0.994350 0.216698
Si Si4 0.621740 0.719418 0.466524
Si Si5 0.489319 0.104935 0.527628
Si Si6 0.914505 0.112705 0.198702
Si Si7 0.993821 0.608711 0.224444
Si Si8 0.758955 0.663602 0.501136
O O1 0.189525 0.819294 0.259864
O O2 0.412631 0.165626 0.326411
O O3 0.496726 0.071318 0.327815
O O4 0.500000 0.000000 0.000000
O O5 0.665862 0.322306 0.599119
O O6 0.000000 0.500000 0.500000
O O7 0.951369 0.675632 0.700977
O O8 0.927262 0.512713 0.338287
O O9 0.768405 0.826938 0.304196
O O10 0.016940 0.097674 0.168744
O O11 0.109843 0.141526 0.360217
O O12 0.067558 0.921124 0.010960
O O13 0.705663 0.693556 0.458072
O O14 0.427354 0.513887 0.407067
O O15 0.500000 0.000000 0.500000
O O16 0.299863 0.032560 0.687142
O O17 0.862582 0.613603 0.307277
O O18 0.000000 0.500000 0.000000
#
# Coordination Sequence:
#
# PCOD8032351 Si02
#       8
#     2   2   2   2   2   2   2   2
#     4  12  24  43  68  99 133 172 220 273 332 393
#     4  12  23  43  68  95 134 172 215 275 327 390
#     4  11  23  42  68  88 137 171 212 268 318 390
#     4  11  23  42  67  95 132 171 216 269 326 389
#     4  12  23  43  68  95 134 172 215 275 327 390
#     4  11  24  42  64 100 124 175 219 258 330 390
#     4  12  24  43  68  99 133 172 220 273 332 393
#     4  11  23  42  67  95 132 171 216 269 326 389
#
# _framework density 20.195399999999999
#
# number of rings (size 3 to 8) (size 9 to 14) (size 15 to 20)
#    0.000    0.500    6.250    2.625    0.000    3.000 
#    0.000    5.000    0.000    0.000    0.000    0.000 
#    0.000    0.000    0.000    0.000    0.000    0.000 
#
# Total GULP energy -198284.920987 kJ/mol
# GULP energy per Si atom -12392.807562 kJ/mol
# Density = 2.014943 g / cm^3
# Si number density = 20.195400 Si / 1000 Ang^3
#
#
#
# Elastic Constant Matrix: (Units=GPa)
#
#
# Indices 1 2 3 4 5 6 
#
# 1 119.3612 33.1596 46.8731 4.4073 -2.4631 -9.3069
# 2 33.1596 159.1691 43.8404 6.6620 -10.1399 11.6676
# 3 46.8731 43.8404 140.8130 5.7859 -18.5923 -4.3650
# 4 4.4073 6.6620 5.7859 25.3090 5.2782 -1.0089
# 5 -2.4631 -10.1399 -18.5923 5.2782 11.2947 -2.3873
# 6 -9.3069 11.6676 -4.3650 -1.0089 -2.3873 38.8281
#
#
#
# Elastic Compliance Matrix: (Units=1/GPa)
#
#
# Indices 1 2 3 4 5 6 
#
# 1 0.010269 -0.001675 -0.003474 0.000528 -0.004744 0.002296
# 2 -0.001675 0.007564 -0.001049 -0.002691 0.005421 -0.002529
# 3 -0.003474 -0.001049 0.011613 -0.005998 0.020621 0.001900
# 4 0.000528 -0.002691 -0.005998 0.048797 -0.035112 -0.000630
# 5 -0.004744 0.005421 0.020621 -0.035112 0.144310 0.007513
# 6 0.002296 -0.002529 0.001900 -0.000630 0.007513 0.027724
#
#
# Mechanical properties :
#
#
# Convention : Reuss Voigt Hill
#
# Bulk Modulus (GPa) = 58.65330 74.12105 66.38717
# Shear Modulus (GPa) = 18.63191 34.78436 26.70814
#
# Velocity S-wave (km/s) = 3.04070 4.15467 3.64055
# Velocity P-wave (km/s) = 6.43691 7.73283 7.11444
#
# Compressibility (1/GPa) = 0.01704934
#
# Stress axis : x y z
#
# Youngs Moduli (GPa) = 97.37968 132.20503 86.11260
#
# Poissons Ratio (x) = 0.22147 0.29912
# Poissons Ratio (y) = 0.16313 0.09037
# Poissons Ratio (z) = 0.33826 0.13874
#
# Static dielectric constant tensor:
#      x y z
#    x 2.938080 -0.058220 0.161890 
#    y -0.058220 4.114860 -0.007430 
#    z 0.161890 -0.007430 3.800840 
# 
# 
# High freq. dielectric constant tensor:
#      x y z
#    x 1.800740 0.001430 -0.005970 
#    y 0.001430 1.816090 0.003030 
#    z -0.005970 0.003030 1.777090 
# 
# From -- ./inp_files/315816.got.cif
#   From: 2010.06.25/outbox.cif.g09.slc.cpg/sg2_158_cif.got.tgz:315816.got - 2010.06.27 13:26:56.
