data_PCOD8032381
_publ_section_title
;
Structure prediction by ZEFSAII (Michael W. Deem and Ramdas Pophale) SiO2 
 PCOD8032381
Probable space group: P -1
;
_chemical_formula_sum "Si O2"
_cell_formula_units_Z 14
_cell_length_a 15.647947
_cell_length_b 27.460238
_cell_length_c 16.113382
_cell_angle_alpha 160.980100
_cell_angle_beta 18.181026
_cell_angle_gamma 159.112991
_cell_volume 658.255973
_symmetry_space_group_name_H-M "P -1"
_symmetry_group_IT_number 2
_symmetry_cell_setting 'triclinic'
loop_
_space_group_symop_operation_xyz
x,y,z
-x,-y,-z
loop_
_atom_site_type_symbol
_atom_site_label
_atom_site_fract_x
_atom_site_fract_y
_atom_site_fract_z
Si Si1 0.221760 0.941887 0.753397
Si Si2 0.691269 0.549850 0.486091
Si Si3 0.840173 0.810673 0.342877
Si Si4 0.017250 0.299866 0.281410
Si Si5 0.571859 0.682405 0.213298
Si Si6 0.341265 0.750852 0.194699
Si Si7 0.709935 0.371360 0.341283
O O1 0.039473 0.855206 0.860113
O O2 0.335466 0.815677 0.397512
O O3 0.511632 0.097071 0.757453
O O4 0.000000 0.000000 0.000000
O O5 0.500000 0.500000 0.500000
O O6 0.712090 0.409483 0.301411
O O7 0.007848 0.649661 0.315749
O O8 0.551086 0.647558 0.832819
O O9 0.661264 0.776491 0.367687
O O10 0.612605 0.747607 0.527234
O O11 0.000000 0.000000 0.500000
O O12 0.066655 0.718573 0.991278
O O13 0.708020 0.295764 0.530716
O O14 0.200185 0.466002 0.425644
O O15 0.171865 0.257084 0.991659
O O16 0.500000 0.500000 0.000000
#
# Coordination Sequence:
#
# PCOD8032381 Si02
#       7
#     2   2   2   2   2   2   2
#     4  11  24  42  69 102 145 173 220 285 345 415
#     4  12  26  46  69 100 140 182 239 280 325 421
#     4  12  27  48  69  98 141 178 227 285 352 407
#     4  12  24  40  75 102 132 176 229 277 348 396
#     4  12  24  44  70 104 132 169 231 299 326 405
#     4  11  23  42  68  95 140 181 218 276 348 385
#     4  12  23  45  76  95 130 186 228 275 349 408
#
# _framework density 21.268322999999999
#
# number of rings (size 3 to 8) (size 9 to 14) (size 15 to 20)
#    0.000    0.286    5.714    3.000    6.000    0.000 
#    7.714    0.000    0.000    0.000    0.000    0.000 
#    0.000    0.000    0.000    0.000    0.000    0.000 
#
# Total GULP energy -173560.696386 kJ/mol
# GULP energy per Si atom -12397.192599 kJ/mol
# Density = 2.121992 g / cm^3
# Si number density = 21.268323 Si / 1000 Ang^3
#
#
#
# Elastic Constant Matrix: (Units=GPa)
#
#
# Indices 1 2 3 4 5 6 
#
# 1 117.0835 55.3085 13.0609 5.5751 -4.9782 -10.9892
# 2 55.3085 179.0461 22.2972 -13.0554 -0.9607 -16.9810
# 3 13.0609 22.2972 71.3836 -16.9007 -12.1372 -13.3370
# 4 5.5751 -13.0554 -16.9007 40.1371 1.3245 4.1350
# 5 -4.9782 -0.9607 -12.1372 1.3245 31.7805 -4.1440
# 6 -10.9892 -16.9810 -13.3370 4.1350 -4.1440 35.1618
#
#
#
# Elastic Compliance Matrix: (Units=1/GPa)
#
#
# Indices 1 2 3 4 5 6 
#
# 1 0.010556 -0.003170 -0.001082 -0.003200 0.001528 0.001914
# 2 -0.003170 0.006993 -0.000835 0.002198 -0.000467 0.001756
# 3 -0.001082 -0.000835 0.018524 0.006778 0.007427 0.006363
# 4 -0.003200 0.002198 0.006778 0.028969 0.000858 -0.000674
# 5 0.001528 -0.000467 0.007427 0.000858 0.035423 0.007143
# 6 0.001914 0.001756 0.006363 -0.000674 0.007143 0.033221
#
#
# Mechanical properties :
#
#
# Convention : Reuss Voigt Hill
#
# Bulk Modulus (GPa) = 38.61075 60.98293 49.79684
# Shear Modulus (GPa) = 32.78870 39.87232 36.33051
#
# Velocity S-wave (km/s) = 3.93067 4.33451 4.13752
# Velocity P-wave (km/s) = 6.22846 7.33389 6.80367
#
# Compressibility (1/GPa) = 0.02589952
#
# Stress axis : x y z
#
# Youngs Moduli (GPa) = 94.73365 143.00857 53.98423
#
# Poissons Ratio (x) = 0.45329 0.05839
# Poissons Ratio (y) = 0.30028 0.04509
# Poissons Ratio (z) = 0.10246 0.11944
#
# Static dielectric constant tensor:
#      x y z
#    x 3.687400 -0.173820 -0.060000 
#    y -0.173820 4.312930 -0.254810 
#    z -0.060000 -0.254810 3.903230 
# 
# 
# High freq. dielectric constant tensor:
#      x y z
#    x 1.823240 -0.010180 -0.011620 
#    y -0.010180 1.852780 -0.018370 
#    z -0.011620 -0.018370 1.843670 
# 
# From -- ./inp_files/453888.got.cif
#   From: 2010.06.25/outbox.cif.g09.slc.cpg/sg2_227_cif.got.tgz:453888.got - 2010.06.27 13:26:56.
