data_PCOD8032445
_publ_section_title
;
Structure prediction by ZEFSAII (Michael W. Deem and Ramdas Pophale) SiO2 
 PCOD8032445
Probable space group: P -1
;
_chemical_formula_sum "Si O2"
_cell_formula_units_Z 16
_cell_length_a 9.703670
_cell_length_b 16.398759
_cell_length_c 11.671445
_cell_angle_alpha 142.798349
_cell_angle_beta 60.840408
_cell_angle_gamma 139.554781
_cell_volume 694.182117
_symmetry_space_group_name_H-M "P -1"
_symmetry_group_IT_number 2
_symmetry_cell_setting 'triclinic'
loop_
_space_group_symop_operation_xyz
x,y,z
-x,-y,-z
loop_
_atom_site_type_symbol
_atom_site_label
_atom_site_fract_x
_atom_site_fract_y
_atom_site_fract_z
Si Si1 0.046703 0.253898 0.271937
Si Si2 0.193078 0.283574 0.866648
Si Si3 0.026817 0.773388 0.335424
Si Si4 0.869140 0.531387 0.743794
Si Si5 0.152213 0.504886 0.722362
Si Si6 0.579491 0.823631 0.449062
Si Si7 0.801748 0.883380 0.651827
Si Si8 0.333017 0.176505 0.104152
O O1 0.059969 0.378728 0.310180
O O2 0.112068 0.363656 0.487018
O O3 0.225719 0.243397 0.161917
O O4 0.799049 0.035881 0.126620
O O5 0.352597 0.250676 0.754796
O O6 0.141030 0.322794 0.810898
O O7 0.279740 0.444764 0.103113
O O8 0.962083 0.107099 0.824598
O O9 0.003499 0.618825 0.240932
O O10 0.946386 0.835432 0.529582
O O11 0.279555 0.957302 0.395800
O O12 0.683321 0.298455 0.567214
O O13 0.084691 0.608903 0.812549
O O14 0.403259 0.668937 0.853679
O O15 0.627017 0.787488 0.512963
O O16 0.680017 0.817038 0.747018
#
# Coordination Sequence:
#
# PCOD8032445 Si02
#       8
#     2   2   2   2   2   2   2   2
#     4  11  25  43  66  96 124 162 223 258 300 379
#     4   9  19  38  63  90 119 158 214 259 298 375
#     4   9  20  39  62  90 122 161 212 253 311 374
#     4  12  24  40  60  96 129 163 205 260 321 371
#     4  12  26  42  62  95 135 167 200 257 325 376
#     4   9  20  36  66  92 117 168 210 261 310 359
#     4   9  16  38  65  89 117 159 213 260 309 354
#     4  11  23  42  70  93 120 172 211 261 312 358
#
# _framework density 23.048708999999999
#
# number of rings (size 3 to 8) (size 9 to 14) (size 15 to 20)
#    0.000    1.750    2.500    3.375    3.500    1.500 
#    6.750    0.000    0.000    0.000    0.000    0.000 
#    0.000    0.000    0.000    0.000    0.000    0.000 
#
# Total GULP energy -198210.428955 kJ/mol
# GULP energy per Si atom -12388.151810 kJ/mol
# Density = 2.299625 g / cm^3
# Si number density = 23.048709 Si / 1000 Ang^3
#
#
#
# Elastic Constant Matrix: (Units=GPa)
#
#
# Indices 1 2 3 4 5 6 
#
# 1 85.9308 41.7895 -0.6957 25.4136 9.5447 -8.7380
# 2 41.7895 100.7700 13.2994 23.8611 6.2720 -20.6144
# 3 -0.6957 13.2994 58.1734 11.1725 11.9928 11.4693
# 4 25.4136 23.8611 11.1725 24.9346 4.4720 6.4113
# 5 9.5447 6.2720 11.9928 4.4720 20.2030 9.7978
# 6 -8.7380 -20.6144 11.4693 6.4113 9.7978 36.1673
#
#
#
# Elastic Compliance Matrix: (Units=1/GPa)
#
#
# Indices 1 2 3 4 5 6 
#
# 1 0.021998 -0.001081 0.005815 -0.024373 -0.013348 0.010791
# 2 -0.001081 0.019201 -0.002431 -0.019120 -0.008029 0.017018
# 3 0.005815 -0.002431 0.022846 -0.011157 -0.012134 -0.001960
# 4 -0.024373 -0.019120 -0.011157 0.093668 0.020512 -0.035409
# 5 -0.013348 -0.008029 -0.012134 0.020512 0.074416 -0.027748
# 6 0.010791 0.017018 -0.001960 -0.035409 -0.027748 0.054372
#
#
# Mechanical properties :
#
#
# Convention : Reuss Voigt Hill
#
# Bulk Modulus (GPa) = 14.56603 39.29562 26.93083
# Shear Modulus (GPa) = 16.40548 28.95969 22.68258
#
# Velocity S-wave (km/s) = 2.67080 3.54850 3.14046
# Velocity P-wave (km/s) = 3.98049 5.82023 4.98595
#
# Compressibility (1/GPa) = 0.06865289
#
# Stress axis : x y z
#
# Youngs Moduli (GPa) = 45.45889 52.08113 43.77116
#
# Poissons Ratio (x) = 0.05628 -0.25454
# Poissons Ratio (y) = 0.04912 0.10639
# Poissons Ratio (z) = -0.26435 0.12659
#
# Static dielectric constant tensor:
#      x y z
#    x 3.901100 -0.099080 0.160730 
#    y -0.099080 4.136860 0.200790 
#    z 0.160730 0.200790 4.161660 
# 
# 
# High freq. dielectric constant tensor:
#      x y z
#    x 1.889170 -0.010690 0.015260 
#    y -0.010690 1.916180 0.011400 
#    z 0.015260 0.011400 1.903710 
# 
# From -- ./inp_files/181358.got.cif
#   From: 2010.06.25/outbox.cif.g09.slc.cpg/sg2_91_cif.got.tgz:181358.got - 2010.06.27 13:26:56.
