data_PCOD8032213
_publ_section_title
;
Structure prediction by ZEFSAII (Michael W. Deem and Ramdas Pophale) SiO2 
 PCOD8032213
Probable space group: P -1
;
_chemical_formula_sum "Si O2"
_cell_formula_units_Z 16
_cell_length_a 11.043343
_cell_length_b 5.109053
_cell_length_c 12.804072
_cell_angle_alpha 93.331417
_cell_angle_beta 70.732756
_cell_angle_gamma 91.241353
_cell_volume 680.801193
_symmetry_space_group_name_H-M "P -1"
_symmetry_group_IT_number 2
_symmetry_cell_setting 'triclinic'
loop_
_space_group_symop_operation_xyz
x,y,z
-x,-y,-z
loop_
_atom_site_type_symbol
_atom_site_label
_atom_site_fract_x
_atom_site_fract_y
_atom_site_fract_z
Si Si1 0.068785 0.096045 0.100107
Si Si2 0.156057 0.637182 0.742053
Si Si3 0.225482 0.920710 0.244716
Si Si4 0.019172 0.322638 0.591839
Si Si5 0.412078 0.745466 0.032318
Si Si6 0.635498 0.360209 0.475692
Si Si7 0.735441 0.876554 0.551848
Si Si8 0.826458 0.400542 0.033840
O O1 0.929577 0.108214 0.196965
O O2 0.172317 0.062045 0.161299
O O3 0.110286 0.375049 0.047972
O O4 0.075323 0.850971 0.010410
O O5 0.075315 0.463743 0.681388
O O6 0.294174 0.710872 0.655011
O O7 0.184555 0.496837 0.841890
O O8 0.341345 0.742912 0.164908
O O9 0.121417 0.761024 0.335829
O O10 0.282543 0.122016 0.318317
O O11 0.115552 0.078481 0.528255
O O12 0.000000 0.500000 0.500000
O O13 0.500000 0.500000 0.000000
O O14 0.310448 0.708787 0.966692
O O15 0.500000 0.000000 0.000000
O O16 0.500000 0.500000 0.500000
O O17 0.715903 0.574439 0.520431
O O18 0.635829 0.085757 0.533661
#
# Coordination Sequence:
#
# PCOD8032213 Si02
#       8
#     2   2   2   2   2   2   2   2
#     4  11  23  42  66 102 133 167 217 272 337 411
#     4  11  23  41  69  95 134 176 212 276 342 391
#     4  11  23  42  70  97 136 177 214 280 344 390
#     4  11  23  43  71 108 139 172 225 282 346 419
#     4  11  25  44  64  94 130 174 228 270 315 392
#     4  11  26  45  64  95 133 175 230 277 327 404
#     4  11  24  43  69  99 129 172 224 278 339 409
#     4  11  25  42  66  98 133 171 223 275 332 404
#
# _framework density 23.501721
#
# number of rings (size 3 to 8) (size 9 to 14) (size 15 to 20)
#    0.000    1.000    0.000    7.500    0.000   10.000 
#    0.000    0.000    0.000    0.000    0.000    0.000 
#    0.000    0.000    0.000    0.000    0.000    0.000 
#
# Total GULP energy -198300.200646 kJ/mol
# GULP energy per Si atom -12393.762540 kJ/mol
# Density = 2.344823 g / cm^3
# Si number density = 23.501721 Si / 1000 Ang^3
#
#
#
# Elastic Constant Matrix: (Units=GPa)
#
#
# Indices 1 2 3 4 5 6 
#
# 1 104.2696 32.0153 61.2010 13.1761 -13.5623 -7.7765
# 2 32.0153 120.0489 45.3749 6.8492 -1.6407 -14.2800
# 3 61.2010 45.3749 189.5744 25.2012 11.7384 -6.2309
# 4 13.1761 6.8492 25.2012 33.1078 -7.0444 -7.2569
# 5 -13.5623 -1.6407 11.7384 -7.0444 46.9002 8.3429
# 6 -7.7765 -14.2800 -6.2309 -7.2569 8.3429 35.9356
#
#
#
# Elastic Compliance Matrix: (Units=1/GPa)
#
#
# Indices 1 2 3 4 5 6 
#
# 1 0.013227 -0.001888 -0.003988 -0.000818 0.004601 0.000187
# 2 -0.001888 0.009842 -0.001711 0.000707 -0.000274 0.003412
# 3 -0.003988 -0.001711 0.007857 -0.004924 -0.003870 -0.000276
# 4 -0.000818 0.000707 -0.004924 0.036480 0.005552 0.005328
# 5 0.004601 -0.000274 -0.003870 0.005552 0.025250 -0.004525
# 6 0.000187 0.003412 -0.000276 0.005328 -0.004525 0.031303
#
#
# Mechanical properties :
#
#
# Convention : Reuss Voigt Hill
#
# Bulk Modulus (GPa) = 63.48750 76.78616 70.13683
# Shear Modulus (GPa) = 34.62979 41.54218 38.08598
#
# Velocity S-wave (km/s) = 3.84278 4.20887 4.02999
# Velocity P-wave (km/s) = 6.83827 7.50753 7.18070
#
# Compressibility (1/GPa) = 0.01575113
#
# Stress axis : x y z
#
# Youngs Moduli (GPa) = 75.60375 101.60542 127.27372
#
# Poissons Ratio (x) = 0.19185 0.50759
# Poissons Ratio (y) = 0.14276 0.21777
# Poissons Ratio (z) = 0.30152 0.17385
#
# Static dielectric constant tensor:
#      x y z
#    x 4.667990 -0.104590 -0.017120 
#    y -0.104590 4.118680 0.289580 
#    z -0.017120 0.289580 4.727960 
# 
# 
# High freq. dielectric constant tensor:
#      x y z
#    x 1.940670 -0.009770 0.008990 
#    y -0.009770 1.919840 0.016890 
#    z 0.008990 0.016890 1.951510 
# 
# From -- ./inp_files/410725.got.cif
#   From: 2010.06.25/outbox.cif.g09.slc.cpg/sg2_206_cif.got.tgz:410725.got - 2010.06.27 13:26:56.
