data_PCOD8032392
_publ_section_title
;
Structure prediction by ZEFSAII (Michael W. Deem and Ramdas Pophale) SiO2 
 PCOD8032392
Probable space group: P -1
;
_chemical_formula_sum "Si O2"
_cell_formula_units_Z 14
_cell_length_a 12.070870
_cell_length_b 20.150521
_cell_length_c 11.935382
_cell_angle_alpha 20.415797
_cell_angle_beta 129.169654
_cell_angle_gamma 138.886564
_cell_volume 629.826731
_symmetry_space_group_name_H-M "P -1"
_symmetry_group_IT_number 2
_symmetry_cell_setting 'triclinic'
loop_
_space_group_symop_operation_xyz
x,y,z
-x,-y,-z
loop_
_atom_site_type_symbol
_atom_site_label
_atom_site_fract_x
_atom_site_fract_y
_atom_site_fract_z
Si Si1 0.801441 0.832429 0.598283
Si Si2 0.971590 0.245993 0.692951
Si Si3 0.716187 0.365607 0.371269
Si Si4 0.716047 0.756882 0.413316
Si Si5 0.637999 0.064975 0.218249
Si Si6 0.666680 0.407883 0.525768
Si Si7 0.130919 0.498144 0.170199
O O1 0.785733 0.879540 0.384597
O O2 0.694631 0.890952 0.516942
O O3 0.732451 0.563739 0.992109
O O4 0.000000 0.000000 0.500000
O O5 0.900341 0.396261 0.451344
O O6 0.151134 0.334277 0.736711
O O7 0.015294 0.298319 0.506660
O O8 0.823166 0.966302 0.058898
O O9 0.641437 0.368845 0.439193
O O10 0.575544 0.111692 0.622931
O O11 0.503490 0.620941 0.483088
O O12 0.751793 0.562978 0.723895
O O13 0.686417 0.215781 0.897141
O O14 0.733188 0.238470 0.109666
O O15 0.000000 0.500000 0.000000
#
# Coordination Sequence:
#
# PCOD8032392 Si02
#       7
#     2   2   2   2   2   2   2
#     4  12  24  41  69  99 138 179 227 282 338 399
#     4  11  24  43  72 100 136 181 226 280 338 405
#     4  12  22  43  69 105 137 175 230 279 343 398
#     4  12  24  46  71  99 138 178 228 282 334 409
#     4  11  23  42  68  98 137 176 223 282 333 404
#     4  11  23  42  71 103 139 173 227 282 340 398
#     4  11  26  49  68  98 139 181 228 278 342 406
#
# _framework density 22.228335000000001
#
# number of rings (size 3 to 8) (size 9 to 14) (size 15 to 20)
#    0.000    0.571    2.857    6.857    0.000    2.286 
#    2.571    1.429    0.000    0.000    0.000    0.000 
#    0.000    0.000    0.000    0.000    0.000    0.000 
#
# Total GULP energy -173659.818668 kJ/mol
# GULP energy per Si atom -12404.272762 kJ/mol
# Density = 2.217774 g / cm^3
# Si number density = 22.228335 Si / 1000 Ang^3
#
#
#
# Elastic Constant Matrix: (Units=GPa)
#
#
# Indices 1 2 3 4 5 6 
#
# 1 125.3323 58.1190 32.5394 -10.9357 14.1562 18.3345
# 2 58.1190 142.3239 42.9042 -4.3945 -6.1119 9.5817
# 3 32.5394 42.9042 79.9939 -5.0984 6.1992 3.2836
# 4 -10.9357 -4.3945 -5.0984 28.6873 5.9111 -0.7403
# 5 14.1562 -6.1119 6.1992 5.9111 37.6039 -1.3436
# 6 18.3345 9.5817 3.2836 -0.7403 -1.3436 40.5486
#
#
#
# Elastic Compliance Matrix: (Units=1/GPa)
#
#
# Indices 1 2 3 4 5 6 
#
# 1 0.012119 -0.004238 -0.001715 0.004762 -0.005876 -0.004447
# 2 -0.004238 0.010136 -0.004141 -0.001662 0.004185 -0.000035
# 3 -0.001715 -0.004141 0.015767 0.002132 -0.002947 0.000419
# 4 0.004762 -0.001662 0.002132 0.038515 -0.008523 -0.001512
# 5 -0.005876 0.004185 -0.002947 -0.008523 0.031410 0.002792
# 6 -0.004447 -0.000035 0.000419 -0.001512 0.002792 0.026712
#
#
# Mechanical properties :
#
#
# Convention : Reuss Voigt Hill
#
# Bulk Modulus (GPa) = 56.07625 68.30836 62.19231
# Shear Modulus (GPa) = 31.09593 35.64045 33.36819
#
# Velocity S-wave (km/s) = 3.74429 4.00857 3.87868
# Velocity P-wave (km/s) = 6.63137 7.22647 6.93530
#
# Compressibility (1/GPa) = 0.01783286
#
# Stress axis : x y z
#
# Youngs Moduli (GPa) = 82.51560 98.65890 63.42353
#
# Poissons Ratio (x) = 0.41808 0.10880
# Poissons Ratio (y) = 0.34967 0.26266
# Poissons Ratio (z) = 0.14155 0.40859
#
# Static dielectric constant tensor:
#      x y z
#    x 3.978080 0.185880 -0.163520 
#    y 0.185880 3.918300 -0.282780 
#    z -0.163520 -0.282780 3.682270 
# 
# 
# High freq. dielectric constant tensor:
#      x y z
#    x 1.874470 0.018970 0.000140 
#    y 0.018970 1.882590 0.000930 
#    z 0.000140 0.000930 1.875500 
# 
# From -- ./inp_files/154663.got.cif
#   From: 2010.06.25/outbox.cif.g09.slc.cpg/sg2_78_cif.got.tgz:154663.got - 2010.06.27 13:26:56.
