data_PCOD8032752
_publ_section_title
;
Structure prediction by ZEFSAII (Michael W. Deem and Ramdas Pophale) SiO2 
 PCOD8032752
Probable space group: P -1
;
_chemical_formula_sum "Si O2"
_cell_formula_units_Z 16
_cell_length_a 14.542830
_cell_length_b 14.571151
_cell_length_c 13.435278
_cell_angle_alpha 42.858106
_cell_angle_beta 139.711143
_cell_angle_gamma 159.927143
_cell_volume 630.091399
_symmetry_space_group_name_H-M "P -1"
_symmetry_group_IT_number 2
_symmetry_cell_setting 'triclinic'
loop_
_space_group_symop_operation_xyz
x,y,z
-x,-y,-z
loop_
_atom_site_type_symbol
_atom_site_label
_atom_site_fract_x
_atom_site_fract_y
_atom_site_fract_z
Si Si1 0.150457 0.251619 0.212867
Si Si2 0.781886 0.712893 0.398070
Si Si3 0.666650 0.124409 0.725038
Si Si4 0.644447 0.381953 0.401103
Si Si5 0.258412 0.559765 0.776765
Si Si6 0.866438 0.611298 0.722229
Si Si7 0.207759 0.234612 0.064682
Si Si8 0.467468 0.039192 0.836137
O O1 0.490353 0.545849 0.260190
O O2 0.039302 0.278776 0.172965
O O3 0.042965 0.172027 0.072648
O O4 0.051375 0.027136 0.352412
O O5 0.823214 0.611344 0.447246
O O6 0.770372 0.668119 0.541099
O O7 0.539087 0.156988 0.545079
O O8 0.612881 0.076339 0.837290
O O9 0.001145 0.392733 0.767123
O O10 0.523536 0.875556 0.757817
O O11 0.839105 0.509118 0.364625
O O12 0.388051 0.263104 0.240864
O O13 0.368304 0.494500 0.939350
O O14 0.601637 0.296250 0.750288
O O15 0.132073 0.770801 0.753371
O O16 0.000000 0.000000 0.000000
O O17 0.500000 0.000000 0.000000
#
# Coordination Sequence:
#
# PCOD8032752 Si02
#       8
#     2   2   2   2   2   2   2   2
#     4  11  25  41  72 107 145 190 244 304 365 452
#     4  11  23  43  71 107 147 183 245 306 375 437
#     4  12  28  49  77 110 148 197 255 308 370 443
#     4  11  25  49  77 111 152 199 252 309 377 446
#     4  12  27  47  76 109 152 193 252 309 372 444
#     4  12  24  46  73 103 143 190 251 302 379 433
#     4  11  26  48  76 111 156 197 248 305 389 443
#     4  12  28  47  75 101 149 198 249 308 377 445
#
# _framework density 25.393141
#
# number of rings (size 3 to 8) (size 9 to 14) (size 15 to 20)
#    0.000    0.500    1.250    6.000    5.250    5.000 
#    0.000    0.000    0.000    0.000    0.000    0.000 
#    0.000    0.000    0.000    0.000    0.000    0.000 
#
# Total GULP energy -198367.482470 kJ/mol
# GULP energy per Si atom -12397.967654 kJ/mol
# Density = 2.533534 g / cm^3
# Si number density = 25.393141 Si / 1000 Ang^3
#
#
#
# Elastic Constant Matrix: (Units=GPa)
#
#
# Indices 1 2 3 4 5 6 
#
# 1 128.7996 0.6116 3.7153 8.0718 -20.1715 -3.3235
# 2 0.6116 56.0395 13.6246 -4.3262 3.1007 -2.2226
# 3 3.7153 13.6246 96.1076 -14.3685 -8.8389 -2.0923
# 4 8.0718 -4.3262 -14.3685 41.2563 -4.1130 2.9298
# 5 -20.1715 3.1007 -8.8389 -4.1130 44.0469 -7.3942
# 6 -3.3235 -2.2226 -2.0923 2.9298 -7.3942 40.0013
#
#
#
# Elastic Compliance Matrix: (Units=1/GPa)
#
#
# Indices 1 2 3 4 5 6 
#
# 1 0.008530 -0.000344 -0.000092 -0.001444 0.004035 0.001536
# 2 -0.000344 0.018685 -0.002663 0.000882 -0.001847 0.000464
# 3 -0.000092 -0.002663 0.011683 0.004055 0.002988 0.000711
# 4 -0.001444 0.000882 0.004055 0.026354 0.002323 -0.001360
# 5 0.004035 -0.001847 0.002988 0.002323 0.026352 0.005090
# 6 0.001536 0.000464 0.000711 -0.001360 0.005090 0.026230
#
#
# Mechanical properties :
#
#
# Convention : Reuss Voigt Hill
#
# Bulk Modulus (GPa) = 30.58357 35.20553 32.89455
# Shear Modulus (GPa) = 37.05536 42.59393 39.82464
#
# Velocity S-wave (km/s) = 3.82418 4.10003 3.96450
# Velocity P-wave (km/s) = 5.61866 6.02560 5.82568
#
# Compressibility (1/GPa) = 0.03269729
#
# Stress axis : x y z
#
# Youngs Moduli (GPa) = 117.22740 53.52013 85.59744
#
# Poissons Ratio (x) = 0.01844 0.00790
# Poissons Ratio (y) = 0.04038 0.22798
# Poissons Ratio (z) = 0.01081 0.14255
#
# Static dielectric constant tensor:
#      x y z
#    x 5.225260 -0.228580 -0.348310 
#    y -0.228580 3.981310 -0.234340 
#    z -0.348310 -0.234340 4.706440 
# 
# 
# High freq. dielectric constant tensor:
#      x y z
#    x 2.038310 -0.005100 -0.016830 
#    y -0.005100 2.004240 -0.013960 
#    z -0.016830 -0.013960 2.014470 
# 
# From -- ./inp_files/534275.got.cif
#   From: 2010.06.25/outbox.cif.g09.slc.cpg/sg2_268_cif.got.tgz:534275.got - 2010.06.27 13:26:56.
