data_PCOD8032957
_publ_section_title
;
Structure prediction by ZEFSAII (Michael W. Deem and Ramdas Pophale) SiO2 
 PCOD8032957
Probable space group: P -1
;
_chemical_formula_sum "Si O2"
_cell_formula_units_Z 14
_cell_length_a 19.246697
_cell_length_b 10.231815
_cell_length_c 16.466502
_cell_angle_alpha 43.045969
_cell_angle_beta 20.629111
_cell_angle_gamma 34.502485
_cell_volume 633.706333
_symmetry_space_group_name_H-M "P -1"
_symmetry_group_IT_number 2
_symmetry_cell_setting 'triclinic'
loop_
_space_group_symop_operation_xyz
x,y,z
-x,-y,-z
loop_
_atom_site_type_symbol
_atom_site_label
_atom_site_fract_x
_atom_site_fract_y
_atom_site_fract_z
Si Si1 0.085819 0.750674 0.557292
Si Si2 0.168616 0.133664 0.893269
Si Si3 0.626624 0.384190 0.132071
Si Si4 0.958915 0.946733 0.771776
Si Si5 0.459081 0.068424 0.748618
Si Si6 0.794815 0.563894 0.003289
Si Si7 0.993145 0.701616 0.372196
O O1 0.124020 0.754629 0.610754
O O2 0.885948 0.693835 0.789509
O O3 0.350162 0.544484 0.328771
O O4 0.000000 0.000000 0.500000
O O5 0.360350 0.158754 0.722967
O O6 0.039569 0.335543 0.876284
O O7 0.973839 0.161443 0.160563
O O8 0.296628 0.881464 0.822577
O O9 0.657192 0.482955 0.137608
O O10 0.785875 0.404453 0.882663
O O11 0.985553 0.159180 0.640694
O O12 0.676149 0.048623 0.018544
O O13 0.743557 0.874905 0.518452
O O14 0.388208 0.275588 0.796201
O O15 0.000000 0.500000 0.500000
#
# Coordination Sequence:
#
# PCOD8032957 Si02
#       7
#     2   2   2   2   2   2   2
#     4  11  26  42  65  95 132 168 210 264 319 380
#     4   9  21  45  66  96 127 162 220 262 312 375
#     4  11  26  41  62 101 129 161 215 265 324 368
#     4   8  21  42  61  92 126 160 219 250 312 372
#     4   9  21  41  64  93 120 168 215 253 313 374
#     4  11  23  44  69  93 128 171 209 263 321 375
#     4  11  24  39  65  90 129 174 213 257 315 377
#
# _framework density 22.092251999999998
#
# number of rings (size 3 to 8) (size 9 to 14) (size 15 to 20)
#    0.857    1.143    0.000    1.714    8.000    1.714 
#    5.143    3.571    0.000    0.000    0.000    0.000 
#    0.000    0.000    0.000    0.000    0.000    0.000 
#
# Total GULP energy -173457.369533 kJ/mol
# GULP energy per Si atom -12389.812109 kJ/mol
# Density = 2.204197 g / cm^3
# Si number density = 22.092252 Si / 1000 Ang^3
#
#
#
# Elastic Constant Matrix: (Units=GPa)
#
#
# Indices 1 2 3 4 5 6 
#
# 1 70.6166 8.8915 3.7249 -1.5015 -11.1418 17.5778
# 2 8.8915 89.9228 12.7460 0.8903 3.6214 -1.2588
# 3 3.7249 12.7460 78.1999 15.0613 4.3035 -3.8298
# 4 -1.5015 0.8903 15.0613 27.4061 -2.0663 -9.5176
# 5 -11.1418 3.6214 4.3035 -2.0663 18.5672 -4.3086
# 6 17.5778 -1.2588 -3.8298 -9.5176 -4.3086 28.9645
#
#
#
# Elastic Compliance Matrix: (Units=1/GPa)
#
#
# Indices 1 2 3 4 5 6 
#
# 1 0.018568 -0.002157 -0.001343 -0.001128 0.009306 -0.010526
# 2 -0.002157 0.011702 -0.001724 0.000733 -0.002766 0.001419
# 3 -0.001343 -0.001724 0.015118 -0.009073 -0.005220 -0.001019
# 4 -0.001128 0.000733 -0.009073 0.048043 0.010545 0.016872
# 5 0.009306 -0.002766 -0.005220 0.010545 0.063876 0.006509
# 6 -0.010526 0.001419 -0.001019 0.016872 0.006509 0.047352
#
#
# Mechanical properties :
#
#
# Convention : Reuss Voigt Hill
#
# Bulk Modulus (GPa) = 28.62081 32.16269 30.39175
# Shear Modulus (GPa) = 22.05036 29.21268 25.63152
#
# Velocity S-wave (km/s) = 3.16271 3.64030 3.40987
# Velocity P-wave (km/s) = 5.13032 5.67970 5.41198
#
# Compressibility (1/GPa) = 0.03493961
#
# Stress axis : x y z
#
# Youngs Moduli (GPa) = 53.85671 85.45349 66.14825
#
# Poissons Ratio (x) = 0.18428 0.08885
# Poissons Ratio (y) = 0.11614 0.11405
# Poissons Ratio (z) = 0.07234 0.14734
#
# Static dielectric constant tensor:
#      x y z
#    x 3.640130 0.545500 0.213020 
#    y 0.545500 3.723510 -0.212370 
#    z 0.213020 -0.212370 3.774720 
# 
# 
# High freq. dielectric constant tensor:
#      x y z
#    x 1.866720 0.026540 -0.000110 
#    y 0.026540 1.855990 -0.003670 
#    z -0.000110 -0.003670 1.865700 
# 
# From -- ./inp_files/577948.got.cif
#   From: 2010.06.25/outbox.cif.g09.slc.cpg/sg2_289_cif.got.tgz:577948.got - 2010.06.27 13:26:56.
