data_PCOD8032175
_publ_section_title
;
Structure prediction by ZEFSAII (Michael W. Deem and Ramdas Pophale) SiO2 
 PCOD8032175
Probable space group: P -1
;
_chemical_formula_sum "Si O2"
_cell_formula_units_Z 14
_cell_length_a 13.133490
_cell_length_b 9.110202
_cell_length_c 9.255565
_cell_angle_alpha 134.465314
_cell_angle_beta 111.069906
_cell_angle_gamma 60.784252
_cell_volume 689.519547
_symmetry_space_group_name_H-M "P -1"
_symmetry_group_IT_number 2
_symmetry_cell_setting 'triclinic'
loop_
_space_group_symop_operation_xyz
x,y,z
-x,-y,-z
loop_
_atom_site_type_symbol
_atom_site_label
_atom_site_fract_x
_atom_site_fract_y
_atom_site_fract_z
Si Si1 0.125139 0.885345 0.418326
Si Si2 0.449091 0.938665 0.787172
Si Si3 0.721245 0.269028 0.350503
Si Si4 0.329287 0.251832 0.426466
Si Si5 0.892490 0.287532 0.013515
Si Si6 0.741168 0.788682 0.328466
Si Si7 0.157125 0.058270 0.057455
O O1 0.206917 0.719834 0.462551
O O2 0.115961 0.736656 0.178107
O O3 0.176063 0.069671 0.523228
O O4 0.000000 0.000000 0.500000
O O5 0.402013 0.744860 0.672135
O O6 0.545917 0.858721 0.658855
O O7 0.343893 0.145574 0.808840
O O8 0.500000 0.000000 0.000000
O O9 0.701583 0.486942 0.399542
O O10 0.792839 0.053112 0.146268
O O11 0.335665 0.164217 0.532356
O O12 0.232095 0.198798 0.248088
O O13 0.835046 0.131085 0.954617
O O14 0.822846 0.536505 0.191392
O O15 0.025863 0.226712 0.088472
#
# Coordination Sequence:
#
# PCOD8032175 Si02
#       7
#     2   2   2   2   2   2   2
#     4  11  24  41  63  97 138 167 214 271 323 391
#     4  11  25  46  67  97 133 167 225 283 320 381
#     4  11  24  43  66  99 131 172 216 272 334 376
#     4  12  24  45  70  93 131 181 219 265 330 386
#     4  11  24  42  67 100 136 170 218 268 326 392
#     4  11  26  44  68  96 131 179 219 262 333 391
#     4  11  23  41  68 102 134 169 219 269 317 403
#
# _framework density 20.303992000000001
#
# number of rings (size 3 to 8) (size 9 to 14) (size 15 to 20)
#    0.000    0.857    5.714    0.857    4.000    1.143 
#    0.000    1.429    0.000    0.000    0.000    0.000 
#    0.000    0.000    0.000    0.000    0.000    0.000 
#
# Total GULP energy -173662.328395 kJ/mol
# GULP energy per Si atom -12404.452028 kJ/mol
# Density = 2.025778 g / cm^3
# Si number density = 20.303992 Si / 1000 Ang^3
#
#
#
# Elastic Constant Matrix: (Units=GPa)
#
#
# Indices 1 2 3 4 5 6 
#
# 1 125.0174 32.1013 19.7700 7.4001 -4.2200 8.5303
# 2 32.1013 93.3685 26.9671 2.6184 6.6402 5.5124
# 3 19.7700 26.9671 75.1927 -3.4659 -8.8862 -0.1322
# 4 7.4001 2.6184 -3.4659 32.4369 -1.0964 -8.9975
# 5 -4.2200 6.6402 -8.8862 -1.0964 38.8459 -4.8808
# 6 8.5303 5.5124 -0.1322 -8.9975 -4.8808 28.1659
#
#
#
# Elastic Compliance Matrix: (Units=1/GPa)
#
#
# Indices 1 2 3 4 5 6 
#
# 1 0.009310 -0.002503 -0.001623 -0.002958 0.000585 -0.003181
# 2 -0.002503 0.013497 -0.004774 -0.002081 -0.004143 -0.003288
# 3 -0.001623 -0.004774 0.016188 0.003623 0.004886 0.003506
# 4 -0.002958 -0.002081 0.003623 0.035897 0.003560 0.013404
# 5 0.000585 -0.004143 0.004886 0.003560 0.028580 0.006747
# 6 -0.003181 -0.003288 0.003506 0.013404 0.006747 0.042578
#
#
# Mechanical properties :
#
#
# Convention : Reuss Voigt Hill
#
# Bulk Modulus (GPa) = 47.17882 50.13949 48.65915
# Shear Modulus (GPa) = 29.25415 34.20576 31.72996
#
# Velocity S-wave (km/s) = 3.79992 4.10894 3.95745
# Velocity P-wave (km/s) = 6.52220 6.87453 6.70068
#
# Compressibility (1/GPa) = 0.02119595
#
# Stress axis : x y z
#
# Youngs Moduli (GPa) = 107.40982 74.09225 61.77249
#
# Poissons Ratio (x) = 0.18545 0.10026
# Poissons Ratio (y) = 0.26885 0.29488
# Poissons Ratio (z) = 0.17433 0.35369
#
# Static dielectric constant tensor:
#      x y z
#    x 3.925680 0.123110 -0.082760 
#    y 0.123110 3.617030 -0.134690 
#    z -0.082760 -0.134690 3.699550 
# 
# 
# High freq. dielectric constant tensor:
#      x y z
#    x 1.814080 0.007210 -0.004400 
#    y 0.007210 1.793200 -0.011130 
#    z -0.004400 -0.011130 1.796660 
# 
# From -- ./inp_files/26711.got.cif
#   From: 2010.06.25/outbox.cif.g09.slc.cpg/sg2_14_cif.got.tgz:26711.got - 2010.06.27 13:26:56.
