data_PCOD8032296
_publ_section_title
;
Structure prediction by ZEFSAII (Michael W. Deem and Ramdas Pophale) SiO2 
 PCOD8032296
Probable space group: P -1
;
_chemical_formula_sum "Si O2"
_cell_formula_units_Z 12
_cell_length_a 11.598307
_cell_length_b 12.399577
_cell_length_c 10.861078
_cell_angle_alpha 103.219466
_cell_angle_beta 154.769338
_cell_angle_gamma 64.980703
_cell_volume 553.383406
_symmetry_space_group_name_H-M "P -1"
_symmetry_group_IT_number 2
_symmetry_cell_setting 'triclinic'
loop_
_space_group_symop_operation_xyz
x,y,z
-x,-y,-z
loop_
_atom_site_type_symbol
_atom_site_label
_atom_site_fract_x
_atom_site_fract_y
_atom_site_fract_z
Si Si1 0.628865 0.029570 0.866405
Si Si2 0.867735 0.737246 0.400821
Si Si3 0.484183 0.757836 0.373790
Si Si4 0.655559 0.144192 0.470734
Si Si5 0.838542 0.381899 0.091521
Si Si6 0.535766 0.322816 0.176744
O O1 0.397240 0.119208 0.774320
O O2 0.575571 0.110393 0.711791
O O3 0.565085 0.915684 0.744166
O O4 0.986500 0.968062 0.243051
O O5 0.063980 0.644244 0.678593
O O6 0.103444 0.751095 0.540910
O O7 0.698540 0.671594 0.152841
O O8 0.353431 0.785177 0.392734
O O9 0.858147 0.651821 0.707472
O O10 0.297995 0.707238 0.101784
O O11 0.512567 0.250005 0.253491
O O12 0.570894 0.531001 0.851391
#
# Coordination Sequence:
#
# PCOD8032296 Si02
#       6
#     2   2   2   2   2   2
#     4  11  23  42  64  90 123 163 209 251 299 362
#     4  11  23  42  64  90 123 163 209 251 299 362
#     4  11  23  42  67  91 120 162 210 255 299 358
#     4  12  25  40  63  94 128 162 198 252 313 366
#     4  11  23  42  67  91 120 162 210 255 299 358
#     4  12  25  40  63  94 128 162 198 252 313 366
#
# _framework density 21.684785000000002
#
# number of rings (size 3 to 8) (size 9 to 14) (size 15 to 20)
#    0.000    0.667    0.000   10.000    0.000    5.333 
#    0.000    0.000    0.000    0.000    0.000    0.000 
#    0.000    0.000    0.000    0.000    0.000    0.000 
#
# Total GULP energy -148918.049554 kJ/mol
# GULP energy per Si atom -12409.837463 kJ/mol
# Density = 2.163543 g / cm^3
# Si number density = 21.684785 Si / 1000 Ang^3
#
#
#
# Elastic Constant Matrix: (Units=GPa)
#
#
# Indices 1 2 3 4 5 6 
#
# 1 96.0930 54.4491 38.8480 -13.1946 8.6122 -4.6732
# 2 54.4491 88.9777 25.8081 3.4739 -8.7634 -3.9091
# 3 38.8480 25.8081 79.8174 4.3906 21.1880 3.9590
# 4 -13.1946 3.4739 4.3906 39.3802 6.2625 2.7422
# 5 8.6122 -8.7634 21.1880 6.2625 26.9454 2.1243
# 6 -4.6732 -3.9091 3.9590 2.7422 2.1243 12.3583
#
#
#
# Elastic Compliance Matrix: (Units=1/GPa)
#
#
# Indices 1 2 3 4 5 6 
#
# 1 0.022930 -0.014045 -0.004470 0.010858 -0.011315 0.005196
# 2 -0.014045 0.023656 -0.005294 -0.009305 0.018289 0.002789
# 3 -0.004470 -0.005294 0.021106 -0.000294 -0.016248 -0.007268
# 4 0.010858 -0.009305 -0.000294 0.032279 -0.013485 -0.003588
# 5 -0.011315 0.018289 -0.016248 -0.013485 0.062671 -0.001069
# 6 0.005196 0.002789 -0.007268 -0.003588 -0.001069 0.087073
#
#
# Mechanical properties :
#
#
# Convention : Reuss Voigt Hill
#
# Bulk Modulus (GPa) = 49.81935 55.89983 52.85959
# Shear Modulus (GPa) = 16.44600 25.45565 20.95082
#
# Velocity S-wave (km/s) = 2.75692 3.42993 3.11167
# Velocity P-wave (km/s) = 5.75833 6.44362 6.11059
#
# Compressibility (1/GPa) = 0.02007252
#
# Stress axis : x y z
#
# Youngs Moduli (GPa) = 43.61145 42.27220 47.37973
#
# Poissons Ratio (x) = 0.59371 0.21180
# Poissons Ratio (y) = 0.61252 0.25085
# Poissons Ratio (z) = 0.19496 0.22381
#
# Static dielectric constant tensor:
#      x y z
#    x 3.920580 -0.088560 0.214490 
#    y -0.088560 3.795010 0.051910 
#    z 0.214490 0.051910 4.013100 
# 
# 
# High freq. dielectric constant tensor:
#      x y z
#    x 1.852600 -0.004100 0.012170 
#    y -0.004100 1.853450 0.007980 
#    z 0.012170 0.007980 1.864740 
# 
# From -- ./inp_files/62849.got.cif
#   From: 2010.06.25/outbox.cif.g09.slc.cpg/sg2_32_cif.got.tgz:62849.got - 2010.06.27 13:26:56.
