data_PCOD8032572
_publ_section_title
;
Structure prediction by ZEFSAII (Michael W. Deem and Ramdas Pophale) SiO2 
 PCOD8032572
Probable space group: P -1
;
_chemical_formula_sum "Si O2"
_cell_formula_units_Z 16
_cell_length_a 15.423713
_cell_length_b 12.996756
_cell_length_c 8.710694
_cell_angle_alpha 69.882643
_cell_angle_beta 107.646643
_cell_angle_gamma 46.979916
_cell_volume 745.053067
_symmetry_space_group_name_H-M "P -1"
_symmetry_group_IT_number 2
_symmetry_cell_setting 'triclinic'
loop_
_space_group_symop_operation_xyz
x,y,z
-x,-y,-z
loop_
_atom_site_type_symbol
_atom_site_label
_atom_site_fract_x
_atom_site_fract_y
_atom_site_fract_z
Si Si1 0.520354 0.353960 0.899313
Si Si2 0.763109 0.259737 0.891589
Si Si3 0.649708 0.627067 0.693898
Si Si4 0.200701 0.834925 0.380444
Si Si5 0.801559 0.673561 0.233366
Si Si6 0.956775 0.443623 0.113696
Si Si7 0.542380 0.799638 0.219756
Si Si8 0.315083 0.924948 0.565817
O O1 0.676104 0.275414 0.966925
O O2 0.317551 0.630983 0.661601
O O3 0.503295 0.276116 0.806984
O O4 0.580097 0.246412 0.151369
O O5 0.677092 0.471014 0.751506
O O6 0.712977 0.265441 0.693467
O O7 0.986080 0.021505 0.167602
O O8 0.607624 0.740096 0.460443
O O9 0.471781 0.830426 0.608441
O O10 0.840305 0.474526 0.945845
O O11 0.217399 0.941896 0.389791
O O12 0.832208 0.615132 0.101931
O O13 0.716879 0.656313 0.280920
O O14 0.000000 0.500000 0.500000
O O15 0.651302 0.928996 0.047497
O O16 0.155030 0.178444 0.411490
O O17 0.000000 0.500000 0.000000
#
# Coordination Sequence:
#
# PCOD8032572 Si02
#       8
#     2   2   2   2   2   2   2   2
#     4  12  24  42  67 101 139 178 219 275 335 401
#     4  11  24  42  68  96 137 181 225 269 329 400
#     4  12  24  45  69  97 135 179 225 278 333 398
#     4  11  23  43  65  99 134 178 225 269 328 402
#     4  11  25  48  70  99 135 172 229 284 340 396
#     4  12  27  47  70 101 135 177 227 281 338 401
#     4  11  25  44  73 100 130 179 227 280 337 397
#     4  12  26  42  68 102 140 177 222 275 341 398
#
# _framework density 21.474979999999999
#
# number of rings (size 3 to 8) (size 9 to 14) (size 15 to 20)
#    0.000    0.500    3.750    4.500    0.000    7.500 
#    0.000    0.000    0.000    0.000    0.000    0.000 
#    0.000    0.000    0.000    0.000    0.000    0.000 
#
# Total GULP energy -198515.530173 kJ/mol
# GULP energy per Si atom -12407.220636 kJ/mol
# Density = 2.142610 g / cm^3
# Si number density = 21.474980 Si / 1000 Ang^3
#
#
#
# Elastic Constant Matrix: (Units=GPa)
#
#
# Indices 1 2 3 4 5 6 
#
# 1 120.2189 38.2051 46.9200 0.3358 -6.5871 -14.0257
# 2 38.2051 77.2424 23.0508 -1.2177 6.4056 -11.3028
# 3 46.9200 23.0508 101.7599 -1.3091 2.9704 -16.4586
# 4 0.3358 -1.2177 -1.3091 40.2448 -2.9857 -4.9054
# 5 -6.5871 6.4056 2.9704 -2.9857 29.5522 5.4474
# 6 -14.0257 -11.3028 -16.4586 -4.9054 5.4474 37.4664
#
#
#
# Elastic Compliance Matrix: (Units=1/GPa)
#
#
# Indices 1 2 3 4 5 6 
#
# 1 0.011845 -0.004810 -0.004417 -0.000033 0.004040 0.000451
# 2 -0.004810 0.016535 -0.000773 0.000578 -0.005198 0.003679
# 3 -0.004417 -0.000773 0.012818 0.000740 -0.002814 0.004250
# 4 -0.000033 0.000578 0.000740 0.025452 0.001706 0.003571
# 5 0.004040 -0.005198 -0.002814 0.001706 0.037524 -0.006524
# 6 0.000451 0.003679 0.004250 0.003571 -0.006524 0.031252
#
#
# Mechanical properties :
#
#
# Convention : Reuss Voigt Hill
#
# Bulk Modulus (GPa) = 47.17850 57.28588 52.23219
# Shear Modulus (GPa) = 30.77071 34.18903 32.47987
#
# Velocity S-wave (km/s) = 3.78942 3.99437 3.89324
# Velocity P-wave (km/s) = 6.41584 6.92870 6.67720
#
# Compressibility (1/GPa) = 0.02119609
#
# Stress axis : x y z
#
# Youngs Moduli (GPa) = 84.42470 60.47885 78.01488
#
# Poissons Ratio (x) = 0.29090 0.34462
# Poissons Ratio (y) = 0.40608 0.06034
# Poissons Ratio (z) = 0.37294 0.04677
#
# Static dielectric constant tensor:
#      x y z
#    x 4.156400 -0.040620 -0.010070 
#    y -0.040620 4.031370 -0.011190 
#    z -0.010070 -0.011190 3.984720 
# 
# 
# High freq. dielectric constant tensor:
#      x y z
#    x 1.851500 0.000720 0.006280 
#    y 0.000720 1.852230 -0.001440 
#    z 0.006280 -0.001440 1.857950 
# 
# From -- ./inp_files/273347.got.cif
#   From: 2010.06.25/outbox.cif.g09.slc.cpg/sg2_137_cif.got.tgz:273347.got - 2010.06.27 13:26:56.
