data_PCOD8032688
_publ_section_title
;
Structure prediction by ZEFSAII (Michael W. Deem and Ramdas Pophale) SiO2 
 PCOD8032688
Probable space group: P -1
;
_chemical_formula_sum "Si O2"
_cell_formula_units_Z 16
_cell_length_a 9.210603
_cell_length_b 22.856831
_cell_length_c 9.706645
_cell_angle_alpha 48.777453
_cell_angle_beta 29.863662
_cell_angle_gamma 47.050787
_cell_volume 731.670635
_symmetry_space_group_name_H-M "P -1"
_symmetry_group_IT_number 2
_symmetry_cell_setting 'triclinic'
loop_
_space_group_symop_operation_xyz
x,y,z
-x,-y,-z
loop_
_atom_site_type_symbol
_atom_site_label
_atom_site_fract_x
_atom_site_fract_y
_atom_site_fract_z
Si Si1 0.978569 0.069938 0.300291
Si Si2 0.065268 0.289903 0.661385
Si Si3 0.477554 0.282484 0.065258
Si Si4 0.563717 0.832305 0.248117
Si Si5 0.284305 0.530225 0.254951
Si Si6 0.781654 0.962346 0.426464
Si Si7 0.352204 0.465715 0.795563
Si Si8 0.557897 0.145372 0.997201
O O1 0.731417 0.148790 0.440824
O O2 0.875289 0.038813 0.290877
O O3 0.000000 0.000000 0.500000
O O4 0.289353 0.092894 0.981748
O O5 0.274634 0.296354 0.349245
O O6 0.230345 0.250122 0.725980
O O7 0.845952 0.374695 0.761774
O O8 0.831666 0.241763 0.877740
O O9 0.432661 0.367949 0.891219
O O10 0.414195 0.217562 0.112033
O O11 0.478926 0.817577 0.184148
O O12 0.512771 0.495384 0.247823
O O13 0.000000 0.500000 0.500000
O O14 0.500000 0.500000 0.000000
O O15 0.083988 0.902746 0.196506
O O16 0.500000 0.000000 0.500000
O O17 0.656305 0.914073 0.722617
O O18 0.500000 0.500000 0.500000
O O19 0.000000 0.500000 0.000000
#
# Coordination Sequence:
#
# PCOD8032688 Si02
#       8
#     2   2   2   2   2   2   2   2
#     4  12  23  44  66  91 132 171 219 281 334 380
#     4  11  25  45  67  99 134 178 220 265 339 395
#     4  11  25  45  67  96 140 175 216 277 325 396
#     4  12  25  42  69  96 128 176 221 272 337 397
#     4  11  23  43  70 101 138 174 222 280 325 395
#     4  12  27  42  65  96 129 172 225 277 329 394
#     4  11  23  43  70 101 135 181 223 266 336 400
#     4  12  25  45  64  98 132 170 223 277 329 392
#
# _framework density 21.867761999999999
#
# number of rings (size 3 to 8) (size 9 to 14) (size 15 to 20)
#    0.000    0.500    2.500    6.750    5.250    2.000 
#    0.000    0.000    0.000    0.000    0.000    0.000 
#    0.000    0.000    0.000    0.000    0.000    0.000 
#
# Total GULP energy -198265.735682 kJ/mol
# GULP energy per Si atom -12391.608480 kJ/mol
# Density = 2.181799 g / cm^3
# Si number density = 21.867762 Si / 1000 Ang^3
#
#
#
# Elastic Constant Matrix: (Units=GPa)
#
#
# Indices 1 2 3 4 5 6 
#
# 1 154.3025 51.0627 36.3823 6.7036 -1.3140 -3.5949
# 2 51.0627 86.4249 38.9563 14.9287 15.0267 -4.6922
# 3 36.3823 38.9563 133.7475 13.8993 3.8750 -0.0961
# 4 6.7036 14.9287 13.8993 32.5547 -0.2206 -2.1853
# 5 -1.3140 15.0267 3.8750 -0.2206 45.8398 4.2320
# 6 -3.5949 -4.6922 -0.0961 -2.1853 4.2320 39.7824
#
#
#
# Elastic Compliance Matrix: (Units=1/GPa)
#
#
# Indices 1 2 3 4 5 6 
#
# 1 0.008339 -0.005004 -0.000973 0.001007 0.001966 0.000007
# 2 -0.005004 0.018102 -0.003128 -0.005842 -0.006025 0.001995
# 3 -0.000973 -0.003128 0.008871 -0.002190 0.000291 -0.000587
# 4 0.001007 -0.005842 -0.002190 0.034209 0.002198 0.001042
# 5 0.001966 -0.006025 0.000291 0.002198 0.024107 -0.002976
# 6 0.000007 0.001995 -0.000587 0.001042 -0.002976 0.025745
#
#
# Mechanical properties :
#
#
# Convention : Reuss Voigt Hill
#
# Bulk Modulus (GPa) = 58.46827 69.69751 64.08289
# Shear Modulus (GPa) = 34.89536 40.17361 37.53449
#
# Velocity S-wave (km/s) = 3.99901 4.29081 4.14748
# Velocity P-wave (km/s) = 6.93672 7.51595 7.23213
#
# Compressibility (1/GPa) = 0.01710330
#
# Stress axis : x y z
#
# Youngs Moduli (GPa) = 119.91550 55.24099 112.72374
#
# Poissons Ratio (x) = 0.27642 0.10962
# Poissons Ratio (y) = 0.60006 0.35264
# Poissons Ratio (z) = 0.11662 0.17281
#
# Static dielectric constant tensor:
#      x y z
#    x 4.694420 -0.013810 -0.310970 
#    y -0.013810 3.747670 -0.057820 
#    z -0.310970 -0.057820 4.127510 
# 
# 
# High freq. dielectric constant tensor:
#      x y z
#    x 1.877900 -0.005790 -0.007740 
#    y -0.005790 1.850150 0.009100 
#    z -0.007740 0.009100 1.878680 
# 
# From -- ./inp_files/223357.got.cif
#   From: 2010.06.25/outbox.cif.g09.slc.cpg/sg2_112_cif.got.tgz:223357.got - 2010.06.27 13:26:56.
