data_PCOD8032036
_publ_section_title
;
Structure prediction by ZEFSAII (Michael W. Deem and Ramdas Pophale) SiO2 
 PCOD8032036
Probable space group: P -1
;
_chemical_formula_sum "Si O2"
_cell_formula_units_Z 16
_cell_length_a 8.931776
_cell_length_b 9.682035
_cell_length_c 24.683828
_cell_angle_alpha 135.614897
_cell_angle_beta 148.217219
_cell_angle_gamma 45.182056
_cell_volume 758.460008
_symmetry_space_group_name_H-M "P -1"
_symmetry_group_IT_number 2
_symmetry_cell_setting 'triclinic'
loop_
_space_group_symop_operation_xyz
x,y,z
-x,-y,-z
loop_
_atom_site_type_symbol
_atom_site_label
_atom_site_fract_x
_atom_site_fract_y
_atom_site_fract_z
Si Si1 0.331662 0.485507 0.998779
Si Si2 0.174983 0.622673 0.696174
Si Si3 0.232847 0.665607 0.214990
Si Si4 0.150834 0.020408 0.631312
Si Si5 0.298609 0.846104 0.901322
Si Si6 0.264233 0.834946 0.155043
Si Si7 0.189502 0.023935 0.382886
Si Si8 0.203063 0.667442 0.470131
O O1 0.549587 0.345579 0.069295
O O2 0.217034 0.708711 0.052466
O O3 0.500000 0.500000 0.000000
O O4 0.058211 0.397455 0.875447
O O5 0.483901 0.516576 0.732012
O O6 0.231677 0.776574 0.801922
O O7 0.056756 0.442689 0.635209
O O8 0.939246 0.746483 0.614970
O O9 0.239627 0.702009 0.163094
O O10 0.239772 0.870914 0.305279
O O11 0.235454 0.788705 0.569133
O O12 0.425770 0.113732 0.738021
O O13 0.050276 0.020919 0.662414
O O14 0.876088 0.164514 0.554647
O O15 0.992299 0.956139 0.866588
O O16 0.500000 0.000000 0.000000
O O17 0.500000 0.000000 0.500000
O O18 0.500000 0.500000 0.500000
#
# Coordination Sequence:
#
# PCOD8032036 Si02
#       8
#     2   2   2   2   2   2   2   2
#     4  12  26  44  70 107 138 170 223 284 335 398
#     4  12  24  42  69  99 131 184 228 270 337 409
#     4  12  24  44  71  98 137 180 222 276 337 404
#     4  11  25  42  63  97 132 170 222 285 328 389
#     4  12  23  41  71 100 134 180 225 268 338 411
#     4  12  23  43  72  96 136 178 225 271 334 406
#     4  12  27  44  67 100 141 174 227 288 338 383
#     4  11  23  40  67  92 129 175 227 270 338 397
#
# _framework density 21.095378
#
# number of rings (size 3 to 8) (size 9 to 14) (size 15 to 20)
#    0.000    0.250    5.000    4.125    1.750    4.500 
#    0.000    0.000    0.000    0.000    0.000    0.000 
#    0.000    0.000    0.000    0.000    0.000    0.000 
#
# Total GULP energy -198523.656300 kJ/mol
# GULP energy per Si atom -12407.728519 kJ/mol
# Density = 2.104736 g / cm^3
# Si number density = 21.095378 Si / 1000 Ang^3
#
#
#
# Elastic Constant Matrix: (Units=GPa)
#
#
# Indices 1 2 3 4 5 6 
#
# 1 119.7586 34.0101 24.5559 0.4438 6.5385 -3.2730
# 2 34.0101 113.1075 25.6434 -13.7991 0.7964 -19.1575
# 3 24.5559 25.6434 93.0352 5.5570 12.3626 0.4793
# 4 0.4438 -13.7991 5.5570 45.7428 -5.3176 5.4455
# 5 6.5385 0.7964 12.3626 -5.3176 37.8638 1.2474
# 6 -3.2730 -19.1575 0.4793 5.4455 1.2474 39.2337
#
#
#
# Elastic Compliance Matrix: (Units=1/GPa)
#
#
# Indices 1 2 3 4 5 6 
#
# 1 0.009479 -0.002639 -0.001570 -0.000794 -0.001169 -0.000331
# 2 -0.002639 0.011539 -0.002913 0.003447 0.001486 0.004924
# 3 -0.001570 -0.002913 0.012688 -0.002746 -0.004157 -0.001195
# 4 -0.000794 0.003447 -0.002746 0.023969 0.004387 -0.001816
# 5 -0.001169 0.001486 -0.004157 0.004387 0.028582 -0.000839
# 6 -0.000331 0.004924 -0.001195 -0.001816 -0.000839 0.028158
#
#
# Mechanical properties :
#
#
# Convention : Reuss Voigt Hill
#
# Bulk Modulus (GPa) = 51.37923 54.92447 53.15185
# Shear Modulus (GPa) = 36.99672 40.68086 38.83879
#
# Velocity S-wave (km/s) = 4.19236 4.39615 4.29546
# Velocity P-wave (km/s) = 6.91687 7.20145 7.06060
#
# Compressibility (1/GPa) = 0.01946312
#
# Stress axis : x y z
#
# Youngs Moduli (GPa) = 105.49346 86.66159 78.81246
#
# Poissons Ratio (x) = 0.22871 0.12374
# Poissons Ratio (y) = 0.27841 0.22956
# Poissons Ratio (z) = 0.16563 0.25242
#
# Static dielectric constant tensor:
#      x y z
#    x 3.650650 -0.426770 0.163670 
#    y -0.426770 3.859830 0.051460 
#    z 0.163670 0.051460 3.838920 
# 
# 
# High freq. dielectric constant tensor:
#      x y z
#    x 1.829640 -0.014750 0.006510 
#    y -0.014750 1.839550 0.003100 
#    z 0.006510 0.003100 1.837440 
# 
# From -- ./inp_files/307721.got.cif
#   From: 2010.06.25/outbox.cif.g09.slc.cpg/sg2_154_cif.got.tgz:307721.got - 2010.06.27 13:26:56.
