data_PCOD8032650
_publ_section_title
;
Structure prediction by ZEFSAII (Michael W. Deem and Ramdas Pophale) SiO2 
 PCOD8032650
Probable space group: P -1
;
_chemical_formula_sum "Si O2"
_cell_formula_units_Z 16
_cell_length_a 26.330221
_cell_length_b 26.420202
_cell_length_c 9.071833
_cell_angle_alpha 37.700758
_cell_angle_beta 140.656845
_cell_angle_gamma 169.332948
_cell_volume 713.875565
_symmetry_space_group_name_H-M "P -1"
_symmetry_group_IT_number 2
_symmetry_cell_setting 'triclinic'
loop_
_space_group_symop_operation_xyz
x,y,z
-x,-y,-z
loop_
_atom_site_type_symbol
_atom_site_label
_atom_site_fract_x
_atom_site_fract_y
_atom_site_fract_z
Si Si1 0.883561 0.656476 0.415957
Si Si2 0.846052 0.019791 0.008110
Si Si3 0.640290 0.945247 0.264131
Si Si4 0.638464 0.573497 0.755273
Si Si5 0.770339 0.255577 0.929850
Si Si6 0.765967 0.726658 0.009117
Si Si7 0.626176 0.937383 0.909153
Si Si8 0.117363 0.539320 0.581472
O O1 0.651578 0.356481 0.612454
O O2 0.757289 0.619848 0.255846
O O3 0.138222 0.899297 0.536752
O O4 0.998587 0.767132 0.251582
O O5 0.090796 0.208154 0.203629
O O6 0.618070 0.739564 0.055229
O O7 0.653390 0.878789 0.015700
O O8 0.770489 0.164240 0.074067
O O9 0.612347 0.899508 0.135045
O O10 0.500000 0.500000 0.500000
O O11 0.761756 0.741612 0.789226
O O12 0.789037 0.339720 0.647407
O O13 0.000000 0.500000 0.000000
O O14 0.500000 0.000000 0.000000
O O15 0.500000 0.500000 0.000000
O O16 0.000000 0.000000 0.000000
O O17 0.885327 0.242782 0.729614
O O18 0.367095 0.740116 0.757130
O O19 0.000000 0.500000 0.500000
#
# Coordination Sequence:
#
# PCOD8032650 Si02
#       8
#     2   2   2   2   2   2   2   2
#     4  11  25  44  69 100 142 181 224 288 342 408
#     4  11  25  46  69 105 144 184 236 280 361 418
#     4  12  26  45  69 101 140 178 233 287 341 415
#     4  11  24  45  72 107 143 183 233 296 342 416
#     4  12  28  45  69 105 133 179 238 284 345 411
#     4  11  23  43  69 101 136 183 229 273 347 415
#     4  12  27  45  72 100 137 185 229 283 356 411
#     4  12  26  48  70  97 139 181 227 294 346 407
#
# _framework density 22.412870000000002
#
# number of rings (size 3 to 8) (size 9 to 14) (size 15 to 20)
#    0.000    0.500    1.250    7.500    7.000    3.000 
#    0.000    0.000    0.000    0.000    0.000    0.000 
#    0.000    0.000    0.000    0.000    0.000    0.000 
#
# Total GULP energy -198323.689772 kJ/mol
# GULP energy per Si atom -12395.230611 kJ/mol
# Density = 2.236186 g / cm^3
# Si number density = 22.412870 Si / 1000 Ang^3
#
#
#
# Elastic Constant Matrix: (Units=GPa)
#
#
# Indices 1 2 3 4 5 6 
#
# 1 127.1012 45.0415 46.9906 21.1056 -6.9288 7.7918
# 2 45.0415 162.9259 46.0082 18.0938 -7.8692 2.4012
# 3 46.9906 46.0082 120.6935 26.3384 -21.8511 1.4155
# 4 21.1056 18.0938 26.3384 56.9509 3.6325 7.4665
# 5 -6.9288 -7.8692 -21.8511 3.6325 35.6414 5.9818
# 6 7.7918 2.4012 1.4155 7.4665 5.9818 48.2264
#
#
#
# Elastic Compliance Matrix: (Units=1/GPa)
#
#
# Indices 1 2 3 4 5 6 
#
# 1 0.009867 -0.001733 -0.002760 -0.001687 0.000216 -0.001192
# 2 -0.001733 0.007245 -0.001878 -0.000813 0.000181 0.000078
# 3 -0.002760 -0.001878 0.012350 -0.004544 0.007083 0.000002
# 4 -0.001687 -0.000813 -0.004544 0.021156 -0.005081 -0.002199
# 5 0.000216 0.000181 0.007083 -0.005081 0.033609 -0.003634
# 6 -0.001192 0.000078 0.000002 -0.002199 -0.003634 0.021715
#
#
# Mechanical properties :
#
#
# Convention : Reuss Voigt Hill
#
# Bulk Modulus (GPa) = 59.80619 76.31124 68.05872
# Shear Modulus (GPa) = 40.23878 46.34242 43.29060
#
# Velocity S-wave (km/s) = 4.24174 4.55210 4.39966
# Velocity P-wave (km/s) = 7.12262 7.85816 7.49941
#
# Compressibility (1/GPa) = 0.01672068
#
# Stress axis : x y z
#
# Youngs Moduli (GPa) = 101.34492 138.02580 80.97349
#
# Poissons Ratio (x) = 0.23922 0.22347
# Poissons Ratio (y) = 0.17565 0.15204
# Poissons Ratio (z) = 0.27969 0.25917
#
# Static dielectric constant tensor:
#      x y z
#    x 4.108910 -0.068250 0.193860 
#    y -0.068250 4.315590 0.019450 
#    z 0.193860 0.019450 4.407050 
# 
# 
# High freq. dielectric constant tensor:
#      x y z
#    x 1.884540 0.005720 0.002230 
#    y 0.005720 1.909540 0.007200 
#    z 0.002230 0.007200 1.889180 
# 
# From -- ./inp_files/357983.got.cif
#   From: 2010.06.25/outbox.cif.g09.slc.cpg/sg2_179_cif.got.tgz:357983.got - 2010.06.27 13:26:56.
