data_PCOD8032323
_publ_section_title
;
Structure prediction by ZEFSAII (Michael W. Deem and Ramdas Pophale) SiO2 
 PCOD8032323
Probable space group: P -1
;
_chemical_formula_sum "Si O2"
_cell_formula_units_Z 14
_cell_length_a 16.582266
_cell_length_b 9.231115
_cell_length_c 6.581051
_cell_angle_alpha 128.891408
_cell_angle_beta 61.236369
_cell_angle_gamma 125.467327
_cell_volume 627.640780
_symmetry_space_group_name_H-M "P -1"
_symmetry_group_IT_number 2
_symmetry_cell_setting 'triclinic'
loop_
_space_group_symop_operation_xyz
x,y,z
-x,-y,-z
loop_
_atom_site_type_symbol
_atom_site_label
_atom_site_fract_x
_atom_site_fract_y
_atom_site_fract_z
Si Si1 0.968152 0.047173 0.362930
Si Si2 0.861093 0.644954 0.787930
Si Si3 0.747515 0.711554 0.298919
Si Si4 0.444802 0.255347 0.328064
Si Si5 0.079065 0.586744 0.158871
Si Si6 0.442118 0.958649 0.740960
Si Si7 0.239976 0.597608 0.689154
O O1 0.935390 0.232511 0.554629
O O2 0.066099 0.118828 0.156628
O O3 0.867474 0.853286 0.260483
O O4 0.000000 0.000000 0.500000
O O5 0.926498 0.576825 0.807409
O O6 0.836435 0.506069 0.493758
O O7 0.749292 0.608925 0.986195
O O8 0.667989 0.815117 0.500280
O O9 0.722597 0.564954 0.396278
O O10 0.500000 0.500000 0.500000
O O11 0.506047 0.149863 0.275933
O O12 0.439312 0.165279 0.026013
O O13 0.187716 0.672654 0.995955
O O14 0.000000 0.500000 0.000000
O O15 0.330468 0.799600 0.681671
O O16 0.500000 0.000000 0.500000
#
# Coordination Sequence:
#
# PCOD8032323 Si02
#       7
#     2   2   2   2   2   2   2
#     4  12  22  42  64  98 139 175 229 282 346 408
#     4  11  24  42  68  97 138 186 225 282 351 418
#     4  11  24  42  68  99 136 182 228 290 347 413
#     4  11  25  49  74 100 143 182 231 299 356 415
#     4  11  23  42  66  94 135 185 228 282 343 415
#     4  11  27  46  74 107 136 183 240 292 356 425
#     4  11  23  44  67  98 139 178 231 286 349 417
#
# _framework density 22.305751999999998
#
# number of rings (size 3 to 8) (size 9 to 14) (size 15 to 20)
#    0.000    0.857    4.286    2.571    2.000    4.000 
#    2.571    0.000    0.000    0.000    0.000    0.000 
#    0.000    0.000    0.000    0.000    0.000    0.000 
#
# Total GULP energy -173440.304497 kJ/mol
# GULP energy per Si atom -12388.593178 kJ/mol
# Density = 2.225498 g / cm^3
# Si number density = 22.305752 Si / 1000 Ang^3
#
#
#
# Elastic Constant Matrix: (Units=GPa)
#
#
# Indices 1 2 3 4 5 6 
#
# 1 71.0491 27.5937 21.8793 -5.4852 -6.9343 5.8251
# 2 27.5937 132.6013 50.9827 -9.1628 4.4536 13.8469
# 3 21.8793 50.9827 123.4497 -7.3512 -10.5628 3.1867
# 4 -5.4852 -9.1628 -7.3512 45.1071 -1.2346 -1.8326
# 5 -6.9343 4.4536 -10.5628 -1.2346 39.7955 0.9605
# 6 5.8251 13.8469 3.1867 -1.8326 0.9605 35.6536
#
#
#
# Elastic Compliance Matrix: (Units=1/GPa)
#
#
# Indices 1 2 3 4 5 6 
#
# 1 0.016021 -0.002654 -0.001395 0.001198 0.002791 -0.001476
# 2 -0.002654 0.009989 -0.003735 0.000908 -0.002471 -0.002999
# 3 -0.001395 -0.003735 0.010168 0.000837 0.002882 0.000735
# 4 0.001198 0.000908 0.000837 0.022685 0.001021 0.000515
# 5 0.002791 -0.002471 0.002882 0.001021 0.026698 -0.000421
# 6 -0.001476 -0.002999 0.000735 0.000515 -0.000421 0.029425
#
#
# Mechanical properties :
#
#
# Convention : Reuss Voigt Hill
#
# Bulk Modulus (GPa) = 48.52208 58.66796 53.59502
# Shear Modulus (GPa) = 36.38389 39.22088 37.80238
#
# Velocity S-wave (km/s) = 4.04312 4.19779 4.12118
# Velocity P-wave (km/s) = 6.60274 7.06074 6.83558
#
# Compressibility (1/GPa) = 0.02060917
#
# Stress axis : x y z
#
# Youngs Moduli (GPa) = 62.41740 100.11477 98.35248
#
# Poissons Ratio (x) = 0.26575 0.13720
# Poissons Ratio (y) = 0.16568 0.36731
# Poissons Ratio (z) = 0.08707 0.37389
#
# Static dielectric constant tensor:
#      x y z
#    x 4.035790 0.116900 -0.223340 
#    y 0.116900 3.993390 0.170730 
#    z -0.223340 0.170730 4.760110 
# 
# 
# High freq. dielectric constant tensor:
#      x y z
#    x 1.873020 0.006540 -0.006580 
#    y 0.006540 1.873930 -0.007770 
#    z -0.006580 -0.007770 1.901820 
# 
# From -- ./inp_files/107513.got.cif
#   From: 2010.06.25/outbox.cif.g09.slc.cpg/sg2_54_cif.got.tgz:107513.got - 2010.06.27 13:26:56.
