data_PCOD8032220
_publ_section_title
;
Structure prediction by ZEFSAII (Michael W. Deem and Ramdas Pophale) SiO2 
 PCOD8032220
Probable space group: P -1
;
_chemical_formula_sum "Si O2"
_cell_formula_units_Z 16
_cell_length_a 8.244869
_cell_length_b 22.273330
_cell_length_c 13.955519
_cell_angle_alpha 28.775756
_cell_angle_beta 75.875036
_cell_angle_gamma 53.326964
_cell_volume 682.757196
_symmetry_space_group_name_H-M "P -1"
_symmetry_group_IT_number 2
_symmetry_cell_setting 'triclinic'
loop_
_space_group_symop_operation_xyz
x,y,z
-x,-y,-z
loop_
_atom_site_type_symbol
_atom_site_label
_atom_site_fract_x
_atom_site_fract_y
_atom_site_fract_z
Si Si1 0.185960 0.652453 0.574016
Si Si2 0.760914 0.642889 0.915294
Si Si3 0.789919 0.213225 0.434174
Si Si4 0.329373 0.945809 0.041287
Si Si5 0.227268 0.137904 0.976798
Si Si6 0.108006 0.650063 0.926712
Si Si7 0.219318 0.026655 0.322558
Si Si8 0.442592 0.458848 0.470535
O O1 0.227114 0.493309 0.838899
O O2 0.122565 0.799919 0.453960
O O3 0.484831 0.496196 0.692187
O O4 0.918784 0.821414 0.301832
O O5 0.855392 0.698336 0.893087
O O6 0.445309 0.853045 0.617469
O O7 0.000000 0.500000 0.000000
O O8 0.924771 0.000919 0.675962
O O9 0.931860 0.229100 0.322680
O O10 0.440609 0.400863 0.216124
O O11 0.343527 0.793239 0.219397
O O12 0.271218 0.995397 0.094979
O O13 0.636898 0.821052 0.144783
O O14 0.367081 0.020669 0.225561
O O15 0.892052 0.376308 0.713724
O O16 0.060609 0.740353 0.911153
O O17 0.500000 0.500000 0.500000
#
# Coordination Sequence:
#
# PCOD8032220 Si02
#       8
#     2   2   2   2   2   2   2   2
#     4  12  25  46  78 105 145 198 233 296 368 421
#     4  12  23  47  71 102 151 186 239 288 356 435
#     4  11  23  41  69  99 146 186 231 293 348 427
#     4  11  26  50  76 103 143 193 242 297 364 424
#     4  11  26  48  75 105 143 193 240 297 364 422
#     4  11  24  44  67 100 145 191 234 288 352 420
#     4  12  25  43  72 106 144 186 236 292 354 434
#     4  12  26  47  72 109 145 181 244 305 352 422
#
# _framework density 23.434391000000002
#
# number of rings (size 3 to 8) (size 9 to 14) (size 15 to 20)
#    0.000    0.500    3.750    4.500    1.750    2.000 
#    2.250    0.000    0.000    0.000    0.000    0.000 
#    0.000    0.000    0.000    0.000    0.000    0.000 
#
# Total GULP energy -198356.649107 kJ/mol
# GULP energy per Si atom -12397.290569 kJ/mol
# Density = 2.338105 g / cm^3
# Si number density = 23.434391 Si / 1000 Ang^3
#
#
#
# Elastic Constant Matrix: (Units=GPa)
#
#
# Indices 1 2 3 4 5 6 
#
# 1 105.3153 51.4063 25.6615 6.3345 -6.8381 10.7041
# 2 51.4063 168.9657 41.6683 12.7966 -10.1540 10.5609
# 3 25.6615 41.6683 81.4756 15.6087 -6.5498 -7.1149
# 4 6.3345 12.7966 15.6087 31.4433 2.4821 -0.7527
# 5 -6.8381 -10.1540 -6.5498 2.4821 34.3020 -2.5967
# 6 10.7041 10.5609 -7.1149 -0.7527 -2.5967 48.7707
#
#
#
# Elastic Compliance Matrix: (Units=1/GPa)
#
#
# Indices 1 2 3 4 5 6 
#
# 1 0.011727 -0.002774 -0.002365 -0.000186 0.000906 -0.002273
# 2 -0.002774 0.007726 -0.002862 -0.001292 0.001172 -0.001439
# 3 -0.002365 -0.002862 0.016247 -0.006539 0.002525 0.003542
# 4 -0.000186 -0.001292 -0.006539 0.035944 -0.004292 -0.000307
# 5 0.000906 0.001172 0.002525 -0.004292 0.030585 0.001478
# 6 -0.002273 -0.001439 0.003542 -0.000307 0.001478 0.021905
#
#
# Mechanical properties :
#
#
# Convention : Reuss Voigt Hill
#
# Bulk Modulus (GPa) = 50.76404 65.91432 58.33918
# Shear Modulus (GPa) = 34.08299 38.70457 36.39378
#
# Velocity S-wave (km/s) = 3.81780 4.06841 3.94510
# Velocity P-wave (km/s) = 6.41431 7.08926 6.76021
#
# Compressibility (1/GPa) = 0.01969898
#
# Stress axis : x y z
#
# Youngs Moduli (GPa) = 85.27686 129.42872 61.55033
#
# Poissons Ratio (x) = 0.35903 0.14555
# Poissons Ratio (y) = 0.23655 0.17613
# Poissons Ratio (z) = 0.20166 0.37038
#
# Static dielectric constant tensor:
#      x y z
#    x 4.011170 0.039390 0.246610 
#    y 0.039390 4.514030 0.041380 
#    z 0.246610 0.041380 4.261360 
# 
# 
# High freq. dielectric constant tensor:
#      x y z
#    x 1.931550 0.000820 -0.000180 
#    y 0.000820 1.951920 0.003850 
#    z -0.000180 0.003850 1.913440 
# 
# From -- ./inp_files/405406.got.cif
#   From: 2010.06.25/outbox.cif.g09.slc.cpg/sg2_203_cif.got.tgz:405406.got - 2010.06.27 13:26:56.
