data_PCOD8032907
_publ_section_title
;
Structure prediction by ZEFSAII (Michael W. Deem and Ramdas Pophale) SiO2 
 PCOD8032907
Probable space group: P -1
;
_chemical_formula_sum "Si O2"
_cell_formula_units_Z 16
_cell_length_a 8.813881
_cell_length_b 25.413889
_cell_length_c 12.180825
_cell_angle_alpha 30.909558
_cell_angle_beta 32.292568
_cell_angle_gamma 40.962961
_cell_volume 744.328063
_symmetry_space_group_name_H-M "P -1"
_symmetry_group_IT_number 2
_symmetry_cell_setting 'triclinic'
loop_
_space_group_symop_operation_xyz
x,y,z
-x,-y,-z
loop_
_atom_site_type_symbol
_atom_site_label
_atom_site_fract_x
_atom_site_fract_y
_atom_site_fract_z
Si Si1 0.728433 0.702353 0.459778
Si Si2 0.941980 0.213611 0.501745
Si Si3 0.921211 0.312244 0.123904
Si Si4 0.013913 0.177306 0.100338
Si Si5 0.628840 0.843410 0.467812
Si Si6 0.240725 0.565853 0.686667
Si Si7 0.533474 0.037686 0.035601
Si Si8 0.835752 0.477463 0.431811
O O1 0.415019 0.677994 0.661198
O O2 0.723417 0.743752 0.513716
O O3 0.942718 0.599000 0.497881
O O4 0.830443 0.788800 0.164214
O O5 0.078012 0.241050 0.251876
O O6 0.779086 0.319564 0.458421
O O7 0.191303 0.164687 0.516310
O O8 0.722806 0.131455 0.760732
O O9 0.998191 0.265918 0.041759
O O10 0.018555 0.423989 0.870990
O O11 0.702071 0.150022 0.308153
O O12 0.212721 0.077178 0.202947
O O13 0.676787 0.946444 0.187825
O O14 0.554289 0.505615 0.628994
O O15 0.234417 0.579922 0.534293
O O16 0.000000 0.500000 0.000000
O O17 0.500000 0.000000 0.000000
#
# Coordination Sequence:
#
# PCOD8032907 Si02
#       8
#     2   2   2   2   2   2   2   2
#     4  11  23  44  68 100 139 180 233 285 336 413
#     4  12  24  46  71 100 142 178 227 289 342 404
#     4  11  24  43  67 103 136 186 226 281 347 411
#     4  11  24  45  70  97 140 182 225 283 352 407
#     4  11  25  43  71 102 134 178 233 287 339 411
#     4  11  24  42  66  99 142 180 221 285 345 407
#     4  12  23  48  74  98 137 181 228 288 352 400
#     4  11  24  39  70  99 135 184 232 275 348 404
#
# _framework density 21.495898
#
# number of rings (size 3 to 8) (size 9 to 14) (size 15 to 20)
#    0.000    0.750    5.000    2.625    1.750    0.500 
#    2.250    1.250    0.000    0.000    0.000    0.000 
#    0.000    0.000    0.000    0.000    0.000    0.000 
#
# Total GULP energy -198424.492489 kJ/mol
# GULP energy per Si atom -12401.530781 kJ/mol
# Density = 2.144697 g / cm^3
# Si number density = 21.495898 Si / 1000 Ang^3
#
#
#
# Elastic Constant Matrix: (Units=GPa)
#
#
# Indices 1 2 3 4 5 6 
#
# 1 117.8334 42.4107 34.8819 -10.3787 -5.9465 -7.9547
# 2 42.4107 107.7830 47.2723 -5.7920 -15.2601 -20.4879
# 3 34.8819 47.2723 117.7583 -8.4006 -13.8280 -2.6379
# 4 -10.3787 -5.7920 -8.4006 33.9960 3.0201 1.4365
# 5 -5.9465 -15.2601 -13.8280 3.0201 29.4099 -11.2223
# 6 -7.9547 -20.4879 -2.6379 1.4365 -11.2223 37.3566
#
#
#
# Elastic Compliance Matrix: (Units=1/GPa)
#
#
# Indices 1 2 3 4 5 6 
#
# 1 0.010331 -0.003317 -0.001645 0.002240 -0.000641 -0.000014
# 2 -0.003317 0.015666 -0.003980 -0.000631 0.009672 0.010534
# 3 -0.001645 -0.003980 0.010900 0.001373 0.002138 -0.001174
# 4 0.002240 -0.000631 0.001373 0.030686 -0.003099 -0.001883
# 5 -0.000641 0.009672 0.002138 -0.003099 0.047765 0.019787
# 6 -0.000014 0.010534 -0.001174 -0.001883 0.019787 0.038477
#
#
# Mechanical properties :
#
#
# Convention : Reuss Voigt Hill
#
# Bulk Modulus (GPa) = 52.59110 65.83384 59.21247
# Shear Modulus (GPa) = 28.08263 34.73981 31.41122
#
# Velocity S-wave (km/s) = 3.61836 4.02445 3.82680
# Velocity P-wave (km/s) = 6.47885 7.23102 6.86524
#
# Compressibility (1/GPa) = 0.01901462
#
# Stress axis : x y z
#
# Youngs Moduli (GPa) = 96.79399 63.83088 91.74727
#
# Poissons Ratio (x) = 0.21172 0.15088
# Poissons Ratio (y) = 0.32105 0.36514
# Poissons Ratio (z) = 0.15918 0.25404
#
# Static dielectric constant tensor:
#      x y z
#    x 3.929590 -0.085050 -0.014380 
#    y -0.085050 4.066190 0.026540 
#    z -0.014380 0.026540 3.828930 
# 
# 
# High freq. dielectric constant tensor:
#      x y z
#    x 1.848480 -0.000560 -0.002490 
#    y -0.000560 1.853020 -0.002370 
#    z -0.002490 -0.002370 1.845990 
# 
# From -- ./inp_files/109509.got.cif
#   From: 2010.06.25/outbox.cif.g09.slc.cpg/sg2_55_cif.got.tgz:109509.got - 2010.06.27 13:26:56.
