data_PCOD8032826
_publ_section_title
;
Structure prediction by ZEFSAII (Michael W. Deem and Ramdas Pophale) SiO2 
 PCOD8032826
Probable space group: P -1
;
_chemical_formula_sum "Si O2"
_cell_formula_units_Z 16
_cell_length_a 11.438934
_cell_length_b 6.511109
_cell_length_c 22.962343
_cell_angle_alpha 124.324442
_cell_angle_beta 30.525654
_cell_angle_gamma 111.802827
_cell_volume 690.246876
_symmetry_space_group_name_H-M "P -1"
_symmetry_group_IT_number 2
_symmetry_cell_setting 'triclinic'
loop_
_space_group_symop_operation_xyz
x,y,z
-x,-y,-z
loop_
_atom_site_type_symbol
_atom_site_label
_atom_site_fract_x
_atom_site_fract_y
_atom_site_fract_z
Si Si1 0.977061 0.690540 0.112516
Si Si2 0.308745 0.054643 0.014081
Si Si3 0.205191 0.136547 0.940672
Si Si4 0.810717 0.051340 0.417880
Si Si5 0.698240 0.623001 0.328747
Si Si6 0.174057 0.262190 0.225667
Si Si7 0.423764 0.887044 0.703229
Si Si8 0.951512 0.837211 0.440547
O O1 0.913110 0.644429 0.198948
O O2 0.728411 0.842012 0.214496
O O3 0.182685 0.830659 0.041101
O O4 0.103901 0.400988 0.989242
O O5 0.202734 0.269516 0.143966
O O6 0.268265 0.181285 0.987547
O O7 0.590460 0.930162 0.879457
O O8 0.431929 0.947119 0.778922
O O9 0.000000 0.000000 0.000000
O O10 0.565352 0.272283 0.569577
O O11 0.955303 0.145828 0.319280
O O12 0.731561 0.788507 0.397082
O O13 0.967281 0.000595 0.401634
O O14 0.721381 0.322518 0.284752
O O15 0.136912 0.552743 0.312595
O O16 0.687850 0.796806 0.550314
O O17 0.000000 0.000000 0.500000
#
# Coordination Sequence:
#
# PCOD8032826 Si02
#       8
#     2   2   2   2   2   2   2   2
#     4  12  23  43  70 107 143 184 236 296 361 408
#     4  11  27  47  72 103 142 193 242 291 351 429
#     4  12  26  41  70 107 143 186 235 297 353 424
#     4  11  25  45  74 105 140 184 238 303 353 421
#     4  11  23  43  74 107 137 183 241 300 358 408
#     4  11  27  50  71 102 145 193 241 292 351 430
#     4  12  26  45  70 110 149 185 236 297 361 430
#     4  12  30  46  71 106 146 195 233 288 366 436
#
# _framework density 23.180112999999999
#
# number of rings (size 3 to 8) (size 9 to 14) (size 15 to 20)
#    0.000    0.500    6.250    0.375    7.000    2.000 
#    0.000    2.500    0.000    0.000    0.000    0.000 
#    0.000    0.000    0.000    0.000    0.000    0.000 
#
# Total GULP energy -198349.840243 kJ/mol
# GULP energy per Si atom -12396.865015 kJ/mol
# Density = 2.312735 g / cm^3
# Si number density = 23.180113 Si / 1000 Ang^3
#
#
#
# Elastic Constant Matrix: (Units=GPa)
#
#
# Indices 1 2 3 4 5 6 
#
# 1 102.4925 24.9737 12.0651 17.6489 15.6676 -5.2326
# 2 24.9737 97.9335 27.9284 21.7417 7.7898 4.0464
# 3 12.0651 27.9284 104.0898 12.8074 11.0408 1.0275
# 4 17.6489 21.7417 12.8074 42.8495 6.3653 4.4585
# 5 15.6676 7.7898 11.0408 6.3653 34.2982 -1.0763
# 6 -5.2326 4.0464 1.0275 4.4585 -1.0763 32.3213
#
#
#
# Elastic Compliance Matrix: (Units=1/GPa)
#
#
# Indices 1 2 3 4 5 6 
#
# 1 0.011581 -0.001973 0.000022 -0.003416 -0.004138 0.002455
# 2 -0.001973 0.012533 -0.002520 -0.004624 -0.000313 -0.001181
# 3 0.000022 -0.002520 0.010749 -0.001567 -0.002604 0.000107
# 4 -0.003416 -0.004624 -0.001567 0.028301 -0.002260 -0.003904
# 5 -0.004138 -0.000313 -0.002604 -0.002260 0.032401 0.000843
# 6 0.002455 -0.001181 0.000107 -0.003904 0.000843 0.032048
#
#
# Mechanical properties :
#
#
# Convention : Reuss Voigt Hill
#
# Bulk Modulus (GPa) = 38.58050 48.27226 43.42638
# Shear Modulus (GPa) = 34.43615 37.86371 36.14993
#
# Velocity S-wave (km/s) = 3.85852 4.04599 3.95336
# Velocity P-wave (km/s) = 6.04407 6.53428 6.29395
#
# Compressibility (1/GPa) = 0.02591983
#
# Stress axis : x y z
#
# Youngs Moduli (GPa) = 86.34674 79.78824 93.03450
#
# Poissons Ratio (x) = 0.15746 -0.00206
# Poissons Ratio (y) = 0.17040 0.23447
# Poissons Ratio (z) = -0.00191 0.20109
#
# Static dielectric constant tensor:
#      x y z
#    x 3.373980 -0.000160 -0.442910 
#    y -0.000160 4.160930 0.208150 
#    z -0.442910 0.208150 3.857470 
# 
# 
# High freq. dielectric constant tensor:
#      x y z
#    x 1.903260 -0.005340 0.012160 
#    y -0.005340 1.913770 0.005950 
#    z 0.012160 0.005950 1.939650 
# 
# From -- ./inp_files/365211.got.cif
#   From: 2010.06.25/outbox.cif.g09.slc.cpg/sg2_183_cif.got.tgz:365211.got - 2010.06.27 13:26:56.
