data_PCOD8032968
_publ_section_title
;
Structure prediction by ZEFSAII (Michael W. Deem and Ramdas Pophale) SiO2 
 PCOD8032968
Probable space group: P -1
;
_chemical_formula_sum "Si O2"
_cell_formula_units_Z 16
_cell_length_a 9.666419
_cell_length_b 13.212804
_cell_length_c 22.050748
_cell_angle_alpha 144.072191
_cell_angle_beta 28.251805
_cell_angle_gamma 136.532571
_cell_volume 781.430393
_symmetry_space_group_name_H-M "P -1"
_symmetry_group_IT_number 2
_symmetry_cell_setting 'triclinic'
loop_
_space_group_symop_operation_xyz
x,y,z
-x,-y,-z
loop_
_atom_site_type_symbol
_atom_site_label
_atom_site_fract_x
_atom_site_fract_y
_atom_site_fract_z
Si Si1 0.692094 0.030516 0.163124
Si Si2 0.827807 0.003374 0.857591
Si Si3 0.397257 0.090803 0.521703
Si Si4 0.423590 0.476710 0.088583
Si Si5 0.763932 0.138839 0.819175
Si Si6 0.360452 0.157958 0.789734
Si Si7 0.204294 0.595496 0.648613
Si Si8 0.112972 0.649107 0.573111
O O1 0.703120 0.206446 0.280576
O O2 0.445739 0.020776 0.201148
O O3 0.592735 0.880151 0.175753
O O4 0.000000 0.000000 0.000000
O O5 0.897440 0.804561 0.729775
O O6 0.877889 0.102610 0.824191
O O7 0.020032 0.110768 0.884738
O O8 0.500000 0.000000 0.000000
O O9 0.572794 0.273133 0.532318
O O10 0.064925 0.145482 0.669075
O O11 0.500000 0.000000 0.500000
O O12 0.444372 0.957141 0.384381
O O13 0.552390 0.641150 0.156579
O O14 0.071631 0.460064 0.228374
O O15 0.500000 0.500000 0.000000
O O16 0.584297 0.311754 0.971593
O O17 0.500000 0.500000 0.500000
O O18 0.116270 0.567668 0.599329
O O19 0.000000 0.500000 0.500000
#
# Coordination Sequence:
#
# PCOD8032968 Si02
#       8
#     2   2   2   2   2   2   2   2
#     4  12  23  47  69  97 138 182 225 281 340 407
#     4  11  23  44  69  99 131 181 230 276 347 405
#     4  11  24  47  69 102 137 177 233 277 346 409
#     4  12  27  46  67 107 141 176 232 285 340 406
#     4  12  25  41  75  97 137 183 226 283 341 406
#     4  11  24  45  70  94 142 179 221 289 336 406
#     4  12  28  45  70 104 138 181 233 280 342 409
#     4  11  26  46  67 100 139 174 227 291 332 406
#
# _framework density 20.475272
#
# number of rings (size 3 to 8) (size 9 to 14) (size 15 to 20)
#    0.000    0.500    7.500    1.500    7.000    2.000 
#    0.000    0.000    0.000    0.000    0.000    0.000 
#    0.000    0.000    0.000    0.000    0.000    0.000 
#
# Total GULP energy -198382.098289 kJ/mol
# GULP energy per Si atom -12398.881143 kJ/mol
# Density = 2.042867 g / cm^3
# Si number density = 20.475272 Si / 1000 Ang^3
#
#
#
# Elastic Constant Matrix: (Units=GPa)
#
#
# Indices 1 2 3 4 5 6 
#
# 1 81.6581 47.2994 52.6495 12.5298 3.4846 1.1406
# 2 47.2994 107.5270 57.3660 -6.0849 2.8665 17.7901
# 3 52.6495 57.3660 151.0489 -21.5632 -22.0710 12.8391
# 4 12.5298 -6.0849 -21.5632 42.7975 5.4245 4.1295
# 5 3.4846 2.8665 -22.0710 5.4245 37.1879 -1.1466
# 6 1.1406 17.7901 12.8391 4.1295 -1.1466 52.6130
#
#
#
# Elastic Compliance Matrix: (Units=1/GPa)
#
#
# Indices 1 2 3 4 5 6 
#
# 1 0.023945 -0.007446 -0.008357 -0.012155 -0.004706 0.004889
# 2 -0.007446 0.014990 -0.002549 0.003813 -0.002670 -0.004643
# 3 -0.008357 -0.002549 0.012933 0.007908 0.007423 -0.002572
# 4 -0.012155 0.003813 0.007908 0.031885 0.000720 -0.005443
# 5 -0.004706 -0.002670 0.007423 0.000720 0.031832 -0.000169
# 6 0.004889 -0.004643 -0.002572 -0.005443 -0.000169 0.021522
#
#
# Mechanical properties :
#
#
# Convention : Reuss Voigt Hill
#
# Bulk Modulus (GPa) = 65.93931 72.76262 69.35097
# Shear Modulus (GPa) = 27.95408 38.71428 33.33418
#
# Velocity S-wave (km/s) = 3.69895 4.35303 4.03925
# Velocity P-wave (km/s) = 7.10755 7.80251 7.46312
#
# Compressibility (1/GPa) = 0.01516546
#
# Stress axis : x y z
#
# Youngs Moduli (GPa) = 41.76303 66.71018 77.32003
#
# Poissons Ratio (x) = 0.49671 0.64613
# Poissons Ratio (y) = 0.31096 0.19708
# Poissons Ratio (z) = 0.34900 0.17003
#
# Static dielectric constant tensor:
#      x y z
#    x 4.006500 -0.124900 0.131010 
#    y -0.124900 3.815220 -0.406190 
#    z 0.131010 -0.406190 3.824010 
# 
# 
# High freq. dielectric constant tensor:
#      x y z
#    x 1.809620 0.003490 0.004230 
#    y 0.003490 1.808970 -0.008790 
#    z 0.004230 -0.008790 1.810620 
# 
# From -- ./inp_files/279254.got.cif
#   From: 2010.06.25/outbox.cif.g09.slc.cpg/sg2_140_cif.got.tgz:279254.got - 2010.06.27 13:26:56.
