data_PCOD8032222
_publ_section_title
;
Structure prediction by ZEFSAII (Michael W. Deem and Ramdas Pophale) SiO2 
 PCOD8032222
Probable space group: P -1
;
_chemical_formula_sum "Si O2"
_cell_formula_units_Z 16
_cell_length_a 8.709559
_cell_length_b 21.041365
_cell_length_c 8.999531
_cell_angle_alpha 57.457332
_cell_angle_beta 96.081787
_cell_angle_gamma 48.508976
_cell_volume 709.344219
_symmetry_space_group_name_H-M "P -1"
_symmetry_group_IT_number 2
_symmetry_cell_setting 'triclinic'
loop_
_space_group_symop_operation_xyz
x,y,z
-x,-y,-z
loop_
_atom_site_type_symbol
_atom_site_label
_atom_site_fract_x
_atom_site_fract_y
_atom_site_fract_z
Si Si1 0.071024 0.855142 0.017542
Si Si2 0.854960 0.340840 0.767600
Si Si3 0.677118 0.347497 0.206557
Si Si4 0.214355 0.169535 0.311758
Si Si5 0.649732 0.224918 0.158936
Si Si6 0.068343 0.405437 0.736734
Si Si7 0.435578 0.840643 0.514609
Si Si8 0.470547 0.332274 0.455311
O O1 0.035399 0.781615 0.147141
O O2 0.331467 0.779517 0.243084
O O3 0.123640 0.844420 0.859059
O O4 0.762314 0.029580 0.788475
O O5 0.500000 0.500000 0.500000
O O6 0.033233 0.340132 0.727953
O O7 0.949624 0.291758 0.010864
O O8 0.529946 0.352364 0.063106
O O9 0.656306 0.317795 0.403284
O O10 0.035573 0.206695 0.384908
O O11 0.500000 0.500000 0.000000
O O12 0.327974 0.204478 0.323808
O O13 0.500000 0.000000 0.500000
O O14 0.774480 0.117068 0.438771
O O15 0.394976 0.280066 0.991771
O O16 0.000000 0.500000 0.500000
O O17 0.833382 0.502717 0.725834
O O18 0.615821 0.703330 0.609525
#
# Coordination Sequence:
#
# PCOD8032222 Si02
#       8
#     2   2   2   2   2   2   2   2
#     4  12  23  46  69 100 140 188 232 288 351 432
#     4  12  23  42  72 102 139 180 239 290 345 412
#     4  11  26  43  68 103 145 186 230 295 367 416
#     4  12  24  47  74 105 139 188 244 290 341 432
#     4  11  23  41  70 100 134 183 235 287 341 423
#     4  12  24  42  68 103 133 178 235 284 347 418
#     4  11  25  43  69 102 139 180 232 295 356 416
#     4  11  26  44  67 100 146 179 225 293 367 412
#
# _framework density 22.556042999999999
#
# number of rings (size 3 to 8) (size 9 to 14) (size 15 to 20)
#    0.000    0.500    6.250    1.500    1.750    2.000 
#    0.000    0.625    0.000    0.000    0.000    0.000 
#    0.000    0.000    0.000    0.000    0.000    0.000 
#
# Total GULP energy -198275.077096 kJ/mol
# GULP energy per Si atom -12392.192318 kJ/mol
# Density = 2.250470 g / cm^3
# Si number density = 22.556043 Si / 1000 Ang^3
#
#
#
# Elastic Constant Matrix: (Units=GPa)
#
#
# Indices 1 2 3 4 5 6 
#
# 1 143.3856 39.1719 24.3744 -9.5688 -14.0352 22.4573
# 2 39.1719 79.9458 12.8844 -5.3323 -12.9590 4.2334
# 3 24.3744 12.8844 97.1780 -10.2851 -10.5282 13.6946
# 4 -9.5688 -5.3323 -10.2851 32.8042 1.3659 3.2327
# 5 -14.0352 -12.9590 -10.5282 1.3659 37.2959 4.2071
# 6 22.4573 4.2334 13.6946 3.2327 4.2071 45.9079
#
#
#
# Elastic Compliance Matrix: (Units=1/GPa)
#
#
# Indices 1 2 3 4 5 6 
#
# 1 0.009131 -0.003599 -0.000719 0.002177 0.002387 -0.004292
# 2 -0.003599 0.015020 -0.000606 0.001036 0.003639 0.000150
# 3 -0.000719 -0.000606 0.011787 0.003617 0.003125 -0.003649
# 4 0.002177 0.001036 0.003617 0.032820 0.001527 -0.004690
# 5 0.002387 0.003639 0.003125 0.001527 0.030403 -0.005329
# 6 -0.004292 0.000150 -0.003649 -0.004690 -0.005329 0.025776
#
#
# Mechanical properties :
#
#
# Convention : Reuss Voigt Hill
#
# Bulk Modulus (GPa) = 38.32871 52.59675 45.46273
# Shear Modulus (GPa) = 34.84785 39.47351 37.16068
#
# Velocity S-wave (km/s) = 3.93484 4.18786 4.06332
# Velocity P-wave (km/s) = 6.13788 6.83763 6.49718
#
# Compressibility (1/GPa) = 0.02609010
#
# Stress axis : x y z
#
# Youngs Moduli (GPa) = 109.52025 66.57609 84.84055
#
# Poissons Ratio (x) = 0.23958 0.06102
# Poissons Ratio (y) = 0.39412 0.05143
# Poissons Ratio (z) = 0.07877 0.04035
#
# Static dielectric constant tensor:
#      x y z
#    x 4.568030 0.231620 -0.085100 
#    y 0.231620 3.759860 -0.585700 
#    z -0.085100 -0.585700 2.183450 
# 
# 
# High freq. dielectric constant tensor:
#      x y z
#    x 1.906470 0.021930 -0.013270 
#    y 0.021930 1.871420 0.006140 
#    z -0.013270 0.006140 1.886640 
# 
# From -- ./inp_files/223448.got.cif
#   From: 2010.06.25/outbox.cif.g09.slc.cpg/sg2_112_cif.got.tgz:223448.got - 2010.06.27 13:26:56.
