data_PCOD8032046
_publ_section_title
;
Structure prediction by ZEFSAII (Michael W. Deem and Ramdas Pophale) SiO2 
 PCOD8032046
Probable space group: P -1
;
_chemical_formula_sum "Si O2"
_cell_formula_units_Z 16
_cell_length_a 9.579425
_cell_length_b 9.115989
_cell_length_c 11.585133
_cell_angle_alpha 94.466773
_cell_angle_beta 99.430445
_cell_angle_gamma 46.518662
_cell_volume 723.294870
_symmetry_space_group_name_H-M "P -1"
_symmetry_group_IT_number 2
_symmetry_cell_setting 'triclinic'
loop_
_space_group_symop_operation_xyz
x,y,z
-x,-y,-z
loop_
_atom_site_type_symbol
_atom_site_label
_atom_site_fract_x
_atom_site_fract_y
_atom_site_fract_z
Si Si1 0.819920 0.476771 0.171041
Si Si2 0.085165 0.264802 0.783140
Si Si3 0.742918 0.133206 0.310087
Si Si4 0.046549 0.152233 0.360844
Si Si5 0.477408 0.560188 0.234511
Si Si6 0.573604 0.239621 0.540393
Si Si7 0.110152 0.778718 0.048865
Si Si8 0.129754 0.532085 0.460299
O O1 0.823042 0.648079 0.155352
O O2 0.625174 0.585746 0.223973
O O3 0.004983 0.301103 0.264370
O O4 0.818390 0.381828 0.050099
O O5 0.021951 0.221915 0.884434
O O6 0.910156 0.422016 0.679040
O O7 0.246941 0.047329 0.728274
O O8 0.582178 0.327079 0.218292
O O9 0.678382 0.209915 0.435888
O O10 0.953550 0.059360 0.309136
O O11 0.935493 0.272201 0.472427
O O12 0.280701 0.983191 0.393788
O O13 0.426093 0.618311 0.366760
O O14 0.295197 0.707320 0.136801
O O15 0.357207 0.330524 0.496687
O O16 0.000000 0.000000 0.000000
O O17 0.000000 0.500000 0.500000
#
# Coordination Sequence:
#
# PCOD8032046 Si02
#       8
#     2   2   2   2   2   2   2   2
#     4  11  24  48  67  98 145 182 233 297 339 415
#     4  12  25  45  69 103 144 181 230 291 353 417
#     4  11  23  40  68 105 141 178 233 291 350 430
#     4  11  23  42  69 100 144 184 234 285 351 420
#     4  11  23  44  69  99 133 183 238 289 352 414
#     4  12  22  38  70 103 142 187 226 284 361 414
#     4  12  26  47  74  98 132 188 243 292 349 405
#     4  12  24  45  65 103 150 184 225 292 351 427
#
# _framework density 22.120992999999999
#
# number of rings (size 3 to 8) (size 9 to 14) (size 15 to 20)
#    0.000    0.500    5.000    5.250    1.750    0.500 
#    2.250    3.750    0.000    0.000    0.000    0.000 
#    0.000    0.000    0.000    0.000    0.000    0.000 
#
# Total GULP energy -198390.354604 kJ/mol
# GULP energy per Si atom -12399.397163 kJ/mol
# Density = 2.207064 g / cm^3
# Si number density = 22.120993 Si / 1000 Ang^3
#
#
#
# Elastic Constant Matrix: (Units=GPa)
#
#
# Indices 1 2 3 4 5 6 
#
# 1 90.5960 75.7972 22.3392 -8.3714 1.3206 9.5107
# 2 75.7972 141.8544 34.5331 -6.7989 8.8442 -3.8430
# 3 22.3392 34.5331 91.4289 4.7910 -4.6757 6.3569
# 4 -8.3714 -6.7989 4.7910 41.0679 -0.7900 5.0420
# 5 1.3206 8.8442 -4.6757 -0.7900 30.1537 -2.8591
# 6 9.5107 -3.8430 6.3569 5.0420 -2.8591 45.1182
#
#
#
# Elastic Compliance Matrix: (Units=1/GPa)
#
#
# Indices 1 2 3 4 5 6 
#
# 1 0.021780 -0.011601 -0.000618 0.003333 0.001896 -0.005745
# 2 -0.011601 0.014318 -0.003027 -0.000190 -0.003799 0.003872
# 3 -0.000618 -0.003027 0.012571 -0.001855 0.002671 -0.001522
# 4 0.003333 -0.000190 -0.001855 0.025622 -0.000022 -0.003322
# 5 0.001896 -0.003799 0.002671 -0.000022 0.034713 0.001103
# 6 -0.005745 0.003872 -0.001522 -0.003322 0.001103 0.024360
#
#
# Mechanical properties :
#
#
# Convention : Reuss Voigt Hill
#
# Bulk Modulus (GPa) = 55.01490 65.46869 60.24179
# Shear Modulus (GPa) = 29.42631 36.01528 32.72080
#
# Velocity S-wave (km/s) = 3.65121 4.03935 3.85018
# Velocity P-wave (km/s) = 6.53445 7.17044 6.85982
#
# Compressibility (1/GPa) = 0.01817689
#
# Stress axis : x y z
#
# Youngs Moduli (GPa) = 45.91335 69.84220 79.54571
#
# Poissons Ratio (x) = 0.81027 0.04916
# Poissons Ratio (y) = 0.53266 0.24077
# Poissons Ratio (z) = 0.02837 0.21140
#
# Static dielectric constant tensor:
#      x y z
#    x 3.760920 -0.019920 0.013390 
#    y -0.019920 4.237230 0.042680 
#    z 0.013390 0.042680 4.219690 
# 
# 
# High freq. dielectric constant tensor:
#      x y z
#    x 1.852870 -0.000170 -0.004380 
#    y -0.000170 1.880070 -0.000580 
#    z -0.004380 -0.000580 1.876230 
# 
# From -- ./inp_files/273412.got.cif
#   From: 2010.06.25/outbox.cif.g09.slc.cpg/sg2_137_cif.got.tgz:273412.got - 2010.06.27 13:26:56.
