data_PCOD8032778
_publ_section_title
;
Structure prediction by ZEFSAII (Michael W. Deem and Ramdas Pophale) SiO2 
 PCOD8032778
Probable space group: P -1
;
_chemical_formula_sum "Si O2"
_cell_formula_units_Z 16
_cell_length_a 11.350305
_cell_length_b 11.725424
_cell_length_c 12.443068
_cell_angle_alpha 107.080173
_cell_angle_beta 105.325693
_cell_angle_gamma 137.714790
_cell_volume 705.907011
_symmetry_space_group_name_H-M "P -1"
_symmetry_group_IT_number 2
_symmetry_cell_setting 'triclinic'
loop_
_space_group_symop_operation_xyz
x,y,z
-x,-y,-z
loop_
_atom_site_type_symbol
_atom_site_label
_atom_site_fract_x
_atom_site_fract_y
_atom_site_fract_z
Si Si1 0.765813 0.436029 0.746862
Si Si2 0.204160 0.625199 0.899986
Si Si3 0.462254 0.040779 0.735183
Si Si4 0.798855 0.725503 0.343486
Si Si5 0.215963 0.289282 0.110012
Si Si6 0.124927 0.461425 0.607388
Si Si7 0.513305 0.837979 0.616425
Si Si8 0.068800 0.247757 0.835704
O O1 0.553612 0.230977 0.735414
O O2 0.836151 0.638011 0.809910
O O3 0.648790 0.289006 0.566852
O O4 0.026825 0.585879 0.875262
O O5 0.235191 0.639034 0.781808
O O6 0.086498 0.402903 0.858480
O O7 0.479870 0.884608 0.103385
O O8 0.621287 0.062651 0.736967
O O9 0.154619 0.736763 0.563481
O O10 0.508186 0.491489 0.258558
O O11 0.928953 0.717274 0.413900
O O12 0.793831 0.715042 0.210424
O O13 0.000000 0.000000 0.500000
O O14 0.213882 0.333277 0.000850
O O15 0.000000 0.000000 0.000000
O O16 0.338496 0.636623 0.614834
O O17 0.753649 0.953082 0.689751
#
# Coordination Sequence:
#
# PCOD8032778 Si02
#       8
#     2   2   2   2   2   2   2   2
#     4  12  23  44  71 103 143 183 240 283 356 437
#     4  11  23  43  72 105 134 189 231 291 356 429
#     4  12  22  42  71 101 142 186 233 282 363 437
#     4  11  25  47  73  96 136 196 246 287 347 430
#     4  12  26  46  69 106 143 184 239 299 356 414
#     4  11  26  45  64 105 150 178 234 296 361 419
#     4  12  24  42  69 108 145 179 221 304 365 422
#     4  11  23  45  72 100 135 179 241 291 348 427
#
# _framework density 22.665876000000001
#
# number of rings (size 3 to 8) (size 9 to 14) (size 15 to 20)
#    0.000    0.500    3.750    6.000    0.000    1.500 
#    6.750    2.500    0.000    0.000    0.000    0.000 
#    0.000    0.000    0.000    0.000    0.000    0.000 
#
# Total GULP energy -198391.223162 kJ/mol
# GULP energy per Si atom -12399.451448 kJ/mol
# Density = 2.261429 g / cm^3
# Si number density = 22.665876 Si / 1000 Ang^3
#
#
#
# Elastic Constant Matrix: (Units=GPa)
#
#
# Indices 1 2 3 4 5 6 
#
# 1 99.9676 14.7246 35.6188 13.7068 -11.6867 6.5239
# 2 14.7246 48.9808 34.4312 18.3469 4.8208 27.0367
# 3 35.6188 34.4312 153.0676 -10.3075 -9.1498 11.0402
# 4 13.7068 18.3469 -10.3075 39.1769 -4.9172 -5.8609
# 5 -11.6867 4.8208 -9.1498 -4.9172 32.0671 1.6110
# 6 6.5239 27.0367 11.0402 -5.8609 1.6110 20.4408
#
#
#
# Elastic Compliance Matrix: (Units=1/GPa)
#
#
# Indices 1 2 3 4 5 6 
#
# 1 0.011365 -0.009013 -0.000819 0.002005 0.005123 0.008907
# 2 -0.009013 -0.083157 0.017697 0.067192 0.018485 0.121117
# 3 -0.000819 0.017697 0.003884 -0.011498 -0.002188 -0.028368
# 4 0.002005 0.067192 -0.011498 -0.024538 -0.011923 -0.089399
# 5 0.005123 0.018485 -0.002188 -0.011923 0.029359 -0.030635
# 6 0.008907 0.121117 -0.028368 -0.089399 -0.030635 -0.122017
#
#
# Mechanical properties :
#
#
# Convention : Reuss Voigt Hill
#
# Bulk Modulus (GPa) = -19.16549 52.39614 16.61532
# Shear Modulus (GPa) = -22.91195 32.81972 4.95389
#
# Velocity S-wave (km/s) = -3.18285 3.80936 1.47999
# Velocity P-wave (km/s) = 4.68843 6.52037 3.20421
#
# Compressibility (1/GPa) = -0.05217711
#
# Stress axis : x y z
#
# Youngs Moduli (GPa) = 87.98766 -12.02551 257.47868
#
# Poissons Ratio (x) = -0.10838 0.21075
# Poissons Ratio (y) = 0.79302 -4.55648
# Poissons Ratio (z) = 0.07202 0.21281
#
# Static dielectric constant tensor:
#      x y z
#    x 4.320140 -0.054550 -0.098890 
#    y -0.054550 3.952280 -0.144280 
#    z -0.098890 -0.144280 4.284480 
# 
# 
# High freq. dielectric constant tensor:
#      x y z
#    x 1.894200 -0.002800 -0.000240 
#    y -0.002800 1.889290 -0.006900 
#    z -0.000240 -0.006900 1.902950 
# 
# From -- ./inp_files/306955.got.cif
#   From: 2010.06.25/outbox.cif.g09.slc.cpg/sg2_154_cif.got.tgz:306955.got - 2010.06.27 13:26:56.
