data_PCOD8032440
_publ_section_title
;
Structure prediction by ZEFSAII (Michael W. Deem and Ramdas Pophale) SiO2 
 PCOD8032440
Probable space group: P -1
;
_chemical_formula_sum "Si O2"
_cell_formula_units_Z 16
_cell_length_a 9.162143
_cell_length_b 12.525995
_cell_length_c 13.219846
_cell_angle_alpha 102.524693
_cell_angle_beta 69.798810
_cell_angle_gamma 149.399773
_cell_volume 714.472160
_symmetry_space_group_name_H-M "P -1"
_symmetry_group_IT_number 2
_symmetry_cell_setting 'triclinic'
loop_
_space_group_symop_operation_xyz
x,y,z
-x,-y,-z
loop_
_atom_site_type_symbol
_atom_site_label
_atom_site_fract_x
_atom_site_fract_y
_atom_site_fract_z
Si Si1 0.090557 0.544872 0.602954
Si Si2 0.235448 0.880223 0.881509
Si Si3 0.686910 0.737261 0.777709
Si Si4 0.754514 0.919141 0.604834
Si Si5 0.801031 0.913076 0.121713
Si Si6 0.059482 0.412063 0.929566
Si Si7 0.244938 0.451792 0.226916
Si Si8 0.159881 0.799536 0.278537
O O1 0.454408 0.760702 0.575872
O O2 0.000000 0.500000 0.500000
O O3 0.960349 0.575868 0.688683
O O4 0.913928 0.332262 0.643707
O O5 0.915384 0.690853 0.863728
O O6 0.375616 0.086333 0.877507
O O7 0.487277 0.960122 0.781118
O O8 0.165437 0.801137 0.996239
O O9 0.637888 0.776232 0.696369
O O10 0.415912 0.601149 0.894360
O O11 0.699562 0.614986 0.722125
O O12 0.006147 0.957411 0.796244
O O13 0.932664 0.135972 0.645203
O O14 0.000000 0.000000 0.500000
O O15 0.569588 0.681275 0.158306
O O16 0.000000 0.000000 0.000000
O O17 0.992393 0.341551 0.814768
O O18 0.000000 0.500000 0.000000
#
# Coordination Sequence:
#
# PCOD8032440 Si02
#       8
#     2   2   2   2   2   2   2   2
#     4  12  28  49  80 106 141 198 255 320 383 444
#     4  11  23  42  70 105 144 194 236 294 357 449
#     4  11  27  45  70 108 150 192 249 311 364 446
#     4  12  30  51  76 109 148 195 256 318 386 442
#     4  11  24  39  69 103 146 193 239 290 368 432
#     4  12  25  44  75 107 154 201 243 300 373 451
#     4  11  24  48  70 105 152 188 251 305 364 446
#     4  12  26  48  74 109 149 190 248 305 373 449
#
# _framework density 22.394155000000001
#
# number of rings (size 3 to 8) (size 9 to 14) (size 15 to 20)
#    0.000    0.500    3.750    3.375    8.750    3.000 
#    0.000    0.000    0.000    0.000    0.000    0.000 
#    0.000    0.000    0.000    0.000    0.000    0.000 
#
# Total GULP energy -198292.163873 kJ/mol
# GULP energy per Si atom -12393.260242 kJ/mol
# Density = 2.234318 g / cm^3
# Si number density = 22.394155 Si / 1000 Ang^3
#
#
#
# Elastic Constant Matrix: (Units=GPa)
#
#
# Indices 1 2 3 4 5 6 
#
# 1 131.1924 48.6955 53.0268 4.1992 -5.5935 -21.8471
# 2 48.6955 111.9273 42.1014 -4.6026 0.3125 -13.1220
# 3 53.0268 42.1014 115.8850 -2.0324 -0.6050 -8.9497
# 4 4.1992 -4.6026 -2.0324 35.9014 0.9130 -6.0653
# 5 -5.5935 0.3125 -0.6050 0.9130 52.1954 -4.0020
# 6 -21.8471 -13.1220 -8.9497 -6.0653 -4.0020 38.6673
#
#
#
# Elastic Compliance Matrix: (Units=1/GPa)
#
#
# Indices 1 2 3 4 5 6 
#
# 1 0.011023 -0.002968 -0.003642 -0.001180 0.001511 0.004349
# 2 -0.002968 0.011529 -0.002650 0.002005 -0.000307 0.001905
# 3 -0.003642 -0.002650 0.011248 0.000684 -0.000277 -0.000275
# 4 -0.001180 0.002005 0.000684 0.029090 -0.000279 0.004706
# 5 0.001511 -0.000307 -0.000277 -0.000279 0.019528 0.002663
# 6 0.004349 0.001905 -0.000275 0.004706 0.002663 0.029915
#
#
# Mechanical properties :
#
#
# Convention : Reuss Voigt Hill
#
# Bulk Modulus (GPa) = 65.44950 71.85024 68.64987
# Shear Modulus (GPa) = 36.77906 39.69822 38.23864
#
# Velocity S-wave (km/s) = 4.05699 4.21492 4.13671
# Velocity P-wave (km/s) = 7.15787 7.47271 7.31699
#
# Compressibility (1/GPa) = 0.01527895
#
# Stress axis : x y z
#
# Youngs Moduli (GPa) = 90.72123 86.73715 88.90631
#
# Poissons Ratio (x) = 0.25747 0.32382
# Poissons Ratio (y) = 0.26930 0.23557
# Poissons Ratio (z) = 0.33044 0.22982
#
# Static dielectric constant tensor:
#      x y z
#    x 4.165020 0.051770 0.108120 
#    y 0.051770 4.635970 0.139900 
#    z 0.108120 0.139900 3.889500 
# 
# 
# High freq. dielectric constant tensor:
#      x y z
#    x 1.900230 -0.004230 -0.006360 
#    y -0.004230 1.895730 -0.007620 
#    z -0.006360 -0.007620 1.875900 
# 
# From -- ./inp_files/117192.got.cif
#   From: 2010.06.25/outbox.cif.g09.slc.cpg/sg2_59_cif.got.tgz:117192.got - 2010.06.27 13:26:56.
