data_PCOD8032788
_publ_section_title
;
Structure prediction by ZEFSAII (Michael W. Deem and Ramdas Pophale) SiO2 
 PCOD8032788
Probable space group: P -1
;
_chemical_formula_sum "Si O2"
_cell_formula_units_Z 16
_cell_length_a 9.056860
_cell_length_b 15.079005
_cell_length_c 9.370321
_cell_angle_alpha 140.774800
_cell_angle_beta 113.534233
_cell_angle_gamma 74.771196
_cell_volume 739.521309
_symmetry_space_group_name_H-M "P -1"
_symmetry_group_IT_number 2
_symmetry_cell_setting 'triclinic'
loop_
_space_group_symop_operation_xyz
x,y,z
-x,-y,-z
loop_
_atom_site_type_symbol
_atom_site_label
_atom_site_fract_x
_atom_site_fract_y
_atom_site_fract_z
Si Si1 0.335061 0.522006 0.040308
Si Si2 0.207126 0.805100 0.229371
Si Si3 0.843449 0.765876 0.056815
Si Si4 0.349360 0.988443 0.752412
Si Si5 0.695300 0.026366 0.787231
Si Si6 0.856273 0.770991 0.399960
Si Si7 0.341383 0.525397 0.382395
Si Si8 0.207434 0.811385 0.714396
O O1 0.209004 0.389030 0.795308
O O2 0.500000 0.500000 0.000000
O O3 0.259215 0.653942 0.105695
O O4 0.373465 0.547074 0.253220
O O5 0.317630 0.871008 0.225535
O O6 0.020998 0.795475 0.095376
O O7 0.221688 0.907396 0.496889
O O8 0.717117 0.860878 0.049291
O O9 0.841433 0.805169 0.271331
O O10 0.790063 0.604038 0.805401
O O11 0.522100 0.003132 0.764081
O O12 0.348426 0.899112 0.786794
O O13 0.752624 0.875768 0.579101
O O14 0.819183 0.104342 0.044944
O O15 0.042202 0.791848 0.540033
O O16 0.500000 0.500000 0.500000
O O17 0.269054 0.661452 0.590443
#
# Coordination Sequence:
#
# PCOD8032788 Si02
#       8
#     2   2   2   2   2   2   2   2
#     4  11  25  43  71  99 129 171 225 273 323 390
#     4  12  23  44  69  98 132 173 225 269 325 391
#     4  11  23  43  72  98 129 177 221 268 325 397
#     4  12  23  43  69  96 133 172 226 266 326 394
#     4  12  27  41  67 102 137 171 217 279 326 385
#     4  11  23  44  69  98 133 173 223 269 325 390
#     4  11  25  45  69  97 133 173 219 271 331 392
#     4  12  25  46  66  97 137 177 217 269 333 393
#
# _framework density 21.635618000000001
#
# number of rings (size 3 to 8) (size 9 to 14) (size 15 to 20)
#    0.000    0.500    3.750    4.500    5.250    2.000 
#    2.250    1.250    0.000    0.000    0.000    0.000 
#    0.000    0.000    0.000    0.000    0.000    0.000 
#
# Total GULP energy -198481.905584 kJ/mol
# GULP energy per Si atom -12405.119099 kJ/mol
# Density = 2.158637 g / cm^3
# Si number density = 21.635618 Si / 1000 Ang^3
#
#
#
# Elastic Constant Matrix: (Units=GPa)
#
#
# Indices 1 2 3 4 5 6 
#
# 1 106.6260 34.7560 13.1818 14.9784 -3.8634 -10.5000
# 2 34.7560 119.1499 43.7007 25.3790 -14.9059 -8.5274
# 3 13.1818 43.7007 97.4001 9.4115 -11.8833 -0.7667
# 4 14.9784 25.3790 9.4115 37.1370 -1.7644 -2.6091
# 5 -3.8634 -14.9059 -11.8833 -1.7644 21.0424 -0.9980
# 6 -10.5000 -8.5274 -0.7667 -2.6091 -0.9980 36.4632
#
#
#
# Elastic Compliance Matrix: (Units=1/GPa)
#
#
# Indices 1 2 3 4 5 6 
#
# 1 0.010758 -0.002376 -0.000113 -0.002515 0.000130 0.002363
# 2 -0.002376 0.012809 -0.004078 -0.006346 0.005894 0.001933
# 3 -0.000113 -0.004078 0.012638 -0.000216 0.004180 -0.000621
# 4 -0.002515 -0.006346 -0.000216 0.032222 -0.002376 0.000028
# 5 0.000130 0.005894 0.004180 -0.002376 0.054017 0.002812
# 6 0.002363 0.001933 -0.000621 0.000028 0.002812 0.028623
#
#
# Mechanical properties :
#
#
# Convention : Reuss Voigt Hill
#
# Bulk Modulus (GPa) = 43.34312 56.27256 49.80784
# Shear Modulus (GPa) = 29.08851 34.36436 31.72644
#
# Velocity S-wave (km/s) = 3.67068 3.98970 3.83351
# Velocity P-wave (km/s) = 6.16782 6.87672 6.53189
#
# Compressibility (1/GPa) = 0.02307171
#
# Stress axis : x y z
#
# Youngs Moduli (GPa) = 92.95793 78.07127 79.12802
#
# Poissons Ratio (x) = 0.18547 0.00891
# Poissons Ratio (y) = 0.22084 0.32268
# Poissons Ratio (z) = 0.01046 0.31837
#
# Static dielectric constant tensor:
#      x y z
#    x 3.678840 0.433230 0.195660 
#    y 0.433230 3.457620 -0.161630 
#    z 0.195660 -0.161630 4.186910 
# 
# 
# High freq. dielectric constant tensor:
#      x y z
#    x 1.852460 -0.000140 0.005910 
#    y -0.000140 1.859350 0.011290 
#    z 0.005910 0.011290 1.862660 
# 
# From -- ./inp_files/185816.got.cif
#   From: 2010.06.25/outbox.cif.g09.slc.cpg/sg2_93_cif.got.tgz:185816.got - 2010.06.27 13:26:56.
