data_PCOD8032674
_publ_section_title
;
Structure prediction by ZEFSAII (Michael W. Deem and Ramdas Pophale) SiO2 
 PCOD8032674
Probable space group: P -1
;
_chemical_formula_sum "Si O2"
_cell_formula_units_Z 16
_cell_length_a 9.109117
_cell_length_b 14.312312
_cell_length_c 13.566428
_cell_angle_alpha 41.615846
_cell_angle_beta 121.079566
_cell_angle_gamma 88.956288
_cell_volume 707.894970
_symmetry_space_group_name_H-M "P -1"
_symmetry_group_IT_number 2
_symmetry_cell_setting 'triclinic'
loop_
_space_group_symop_operation_xyz
x,y,z
-x,-y,-z
loop_
_atom_site_type_symbol
_atom_site_label
_atom_site_fract_x
_atom_site_fract_y
_atom_site_fract_z
Si Si1 0.241907 0.301791 0.610766
Si Si2 0.729374 0.542920 0.201180
Si Si3 0.214247 0.174931 0.287765
Si Si4 0.883317 0.480685 0.084686
Si Si5 0.006752 0.052025 0.199619
Si Si6 0.703820 0.446668 0.681232
Si Si7 0.580575 0.093340 0.075890
Si Si8 0.509445 0.387398 0.311729
O O1 0.199469 0.465258 0.401707
O O2 0.397810 0.244463 0.805726
O O3 0.969405 0.409449 0.459084
O O4 0.373079 0.100534 0.752563
O O5 0.818222 0.463984 0.182991
O O6 0.558334 0.780832 0.970446
O O7 0.557254 0.517586 0.192921
O O8 0.081472 0.105205 0.276411
O O9 0.136334 0.261876 0.305271
O O10 0.500000 0.000000 0.500000
O O11 0.090436 0.365206 0.024080
O O12 0.660703 0.584185 0.851166
O O13 0.244300 0.840629 0.406556
O O14 0.907155 0.206099 0.953720
O O15 0.826846 0.036913 0.188988
O O16 0.500000 0.500000 0.500000
O O17 0.614628 0.537519 0.686005
#
# Coordination Sequence:
#
# PCOD8032674 Si02
#       8
#     2   2   2   2   2   2   2   2
#     4  11  25  44  72 105 135 183 239 289 347 419
#     4  12  24  43  72 102 138 187 230 290 351 413
#     4  11  23  43  69  98 137 183 227 291 346 411
#     4  11  25  43  68 102 138 182 239 284 351 420
#     4  12  23  45  69  98 139 187 227 286 354 409
#     4  12  25  46  71 103 139 183 233 290 350 415
#     4  11  24  47  70 100 145 180 232 291 352 417
#     4  12  25  45  71  99 146 185 231 291 346 417
#
# _framework density 22.602225000000001
#
# number of rings (size 3 to 8) (size 9 to 14) (size 15 to 20)
#    0.000    0.500    6.250    1.500    1.750    3.500 
#    0.000    1.250    0.000    0.000    0.000    0.000 
#    0.000    0.000    0.000    0.000    0.000    0.000 
#
# Total GULP energy -198363.613226 kJ/mol
# GULP energy per Si atom -12397.725827 kJ/mol
# Density = 2.255078 g / cm^3
# Si number density = 22.602225 Si / 1000 Ang^3
#
#
#
# Elastic Constant Matrix: (Units=GPa)
#
#
# Indices 1 2 3 4 5 6 
#
# 1 65.7269 26.4982 13.4674 -1.0666 17.1940 1.9031
# 2 26.4982 79.8021 32.3952 -5.3467 10.2249 8.4758
# 3 13.4674 32.3952 109.8023 -19.5066 24.0806 -4.5751
# 4 -1.0666 -5.3467 -19.5066 41.1999 5.7577 2.1388
# 5 17.1940 10.2249 24.0806 5.7577 33.8439 -5.0179
# 6 1.9031 8.4758 -4.5751 2.1388 -5.0179 28.6825
#
#
#
# Elastic Compliance Matrix: (Units=1/GPa)
#
#
# Indices 1 2 3 4 5 6 
#
# 1 0.019910 -0.005765 0.001825 0.002126 -0.010223 -0.001273
# 2 -0.005765 0.016810 -0.004501 0.000140 0.000248 -0.005270
# 3 0.001825 -0.004501 0.013901 0.007470 -0.010578 0.001019
# 4 0.002126 0.000140 0.007470 0.029728 -0.011985 -0.003304
# 5 -0.010223 0.000248 -0.010578 -0.011985 0.045381 0.007751
# 6 -0.001273 -0.005270 0.001019 -0.003304 0.007751 0.038271
#
#
# Mechanical properties :
#
#
# Convention : Reuss Voigt Hill
#
# Bulk Modulus (GPa) = 29.63891 44.45033 37.04462
# Shear Modulus (GPa) = 26.02421 32.94329 29.48375
#
# Velocity S-wave (km/s) = 3.39691 3.82190 3.61565
# Velocity P-wave (km/s) = 5.34107 6.25978 5.81859
#
# Compressibility (1/GPa) = 0.03373943
#
# Stress axis : x y z
#
# Youngs Moduli (GPa) = 50.22565 59.48893 71.93836
#
# Poissons Ratio (x) = 0.34293 -0.13132
# Poissons Ratio (y) = 0.28953 0.32383
# Poissons Ratio (z) = -0.09168 0.26779
#
# Static dielectric constant tensor:
#      x y z
#    x 3.022890 -2.157360 -5.692220 
#    y -2.157360 -0.950450 -12.888700 
#    z -5.692220 -12.888700 -26.503610 
# 
# 
# High freq. dielectric constant tensor:
#      x y z
#    x 1.889020 0.020010 0.016980 
#    y 0.020010 1.903970 -0.011720 
#    z 0.016980 -0.011720 1.899350 
# 
# From -- ./inp_files/503901.got.cif
#   From: 2010.06.25/outbox.cif.g09.slc.cpg/sg2_252_cif.got.tgz:503901.got - 2010.06.27 13:26:56.
