data_PCOD8032728
_publ_section_title
;
Structure prediction by ZEFSAII (Michael W. Deem and Ramdas Pophale) SiO2 
 PCOD8032728
Probable space group: P -1
;
_chemical_formula_sum "Si O2"
_cell_formula_units_Z 16
_cell_length_a 14.455723
_cell_length_b 19.134445
_cell_length_c 8.671453
_cell_angle_alpha 139.803932
_cell_angle_beta 38.900711
_cell_angle_gamma 148.357036
_cell_volume 751.915743
_symmetry_space_group_name_H-M "P -1"
_symmetry_group_IT_number 2
_symmetry_cell_setting 'triclinic'
loop_
_space_group_symop_operation_xyz
x,y,z
-x,-y,-z
loop_
_atom_site_type_symbol
_atom_site_label
_atom_site_fract_x
_atom_site_fract_y
_atom_site_fract_z
Si Si1 0.066917 0.064097 0.352170
Si Si2 0.698680 0.199991 0.716748
Si Si3 0.704357 0.622056 0.008897
Si Si4 0.642986 0.298857 0.253474
Si Si5 0.302983 0.135656 0.643424
Si Si6 0.595353 0.629391 0.482297
Si Si7 0.698362 0.967256 0.214899
Si Si8 0.038137 0.456708 0.537332
O O1 0.238392 0.229539 0.405838
O O2 0.134577 0.990686 0.045279
O O3 0.000000 0.000000 0.500000
O O4 0.878901 0.021815 0.438249
O O5 0.487088 0.110300 0.777937
O O6 0.835867 0.346334 0.695784
O O7 0.765935 0.108719 0.448778
O O8 0.695760 0.226311 0.946721
O O9 0.863753 0.613595 0.732061
O O10 0.500000 0.500000 0.000000
O O11 0.757712 0.768364 0.139852
O O12 0.693732 0.607147 0.181898
O O13 0.483116 0.185259 0.390116
O O14 0.565137 0.364588 0.366920
O O15 0.831268 0.412654 0.297805
O O16 0.346785 0.140336 0.773898
O O17 0.500000 0.500000 0.500000
O O18 0.000000 0.500000 0.500000
#
# Coordination Sequence:
#
# PCOD8032728 Si02
#       8
#     2   2   2   2   2   2   2   2
#     4  12  22  44  68  99 135 174 228 295 349 409
#     4  11  25  44  64  97 141 183 233 279 350 421
#     4  11  23  43  70  99 137 175 230 291 346 408
#     4  11  23  46  66  98 141 182 231 297 336 418
#     4  11  23  43  71  99 133 181 235 291 350 405
#     4  11  25  40  72 100 136 178 231 289 350 402
#     4  11  25  43  69  96 137 185 228 289 346 422
#     4  12  26  44  70 100 140 188 230 283 352 424
#
# _framework density 21.278981000000002
#
# number of rings (size 3 to 8) (size 9 to 14) (size 15 to 20)
#    0.000    0.750    6.250    2.250    3.500    1.500 
#    2.250    0.000    0.000    0.000    0.000    0.000 
#    0.000    0.000    0.000    0.000    0.000    0.000 
#
# Total GULP energy -198416.177481 kJ/mol
# GULP energy per Si atom -12401.011093 kJ/mol
# Density = 2.123055 g / cm^3
# Si number density = 21.278981 Si / 1000 Ang^3
#
#
#
# Elastic Constant Matrix: (Units=GPa)
#
#
# Indices 1 2 3 4 5 6 
#
# 1 71.0637 38.8530 27.5863 9.3689 25.0775 -10.3783
# 2 38.8530 124.4396 45.4975 -0.2898 10.7071 -0.1006
# 3 27.5863 45.4975 149.5077 -9.4012 32.9226 -9.7121
# 4 9.3689 -0.2898 -9.4012 29.5544 5.3467 12.6008
# 5 25.0775 10.7071 32.9226 5.3467 27.5830 -0.5720
# 6 -10.3783 -0.1006 -9.7121 12.6008 -0.5720 40.6086
#
#
#
# Elastic Compliance Matrix: (Units=1/GPa)
#
#
# Indices 1 2 3 4 5 6 
#
# 1 0.028309 -0.007716 0.002544 -0.008175 -0.023986 0.010023
# 2 -0.007716 0.011171 -0.003509 0.001629 0.006485 -0.003198
# 3 0.002544 -0.003509 0.010968 0.004660 -0.014912 0.001608
# 4 -0.008175 0.001629 0.004660 0.045904 -0.007979 -0.015327
# 5 -0.023986 0.006485 -0.014912 -0.007979 0.074762 -0.006151
# 6 0.010023 -0.003198 0.001608 -0.015327 -0.006151 0.032233
#
#
# Mechanical properties :
#
#
# Convention : Reuss Voigt Hill
#
# Bulk Modulus (GPa) = 30.22457 63.20940 46.71698
# Shear Modulus (GPa) = 21.57604 35.08748 28.33176
#
# Velocity S-wave (km/s) = 3.18773 4.06510 3.65285
# Velocity P-wave (km/s) = 5.27102 7.19743 6.30819
#
# Compressibility (1/GPa) = 0.03308566
#
# Stress axis : x y z
#
# Youngs Moduli (GPa) = 35.32483 89.51470 91.17039
#
# Poissons Ratio (x) = 0.69067 -0.23190
# Poissons Ratio (y) = 0.27256 0.31994
# Poissons Ratio (z) = -0.08985 0.31413
#
# Static dielectric constant tensor:
#      x y z
#    x 3.835040 0.204170 0.369270 
#    y 0.204170 3.911840 0.161360 
#    z 0.369270 0.161360 4.640200 
# 
# 
# High freq. dielectric constant tensor:
#      x y z
#    x 1.834500 0.014930 0.017240 
#    y 0.014930 1.842550 -0.009240 
#    z 0.017240 -0.009240 1.842890 
# 
# From -- ./inp_files/318145.got.cif
#   From: 2010.06.25/outbox.cif.g09.slc.cpg/sg2_160_cif.got.tgz:318145.got - 2010.06.27 13:26:56.
