data_PCOD8032121
_publ_section_title
;
Structure prediction by ZEFSAII (Michael W. Deem and Ramdas Pophale) SiO2 
 PCOD8032121
Probable space group: P -1
;
_chemical_formula_sum "Si O2"
_cell_formula_units_Z 14
_cell_length_a 16.917191
_cell_length_b 22.789533
_cell_length_c 9.336322
_cell_angle_alpha 151.760441
_cell_angle_beta 41.044454
_cell_angle_gamma 156.517110
_cell_volume 650.423518
_symmetry_space_group_name_H-M "P -1"
_symmetry_group_IT_number 2
_symmetry_cell_setting 'triclinic'
loop_
_space_group_symop_operation_xyz
x,y,z
-x,-y,-z
loop_
_atom_site_type_symbol
_atom_site_label
_atom_site_fract_x
_atom_site_fract_y
_atom_site_fract_z
Si Si1 0.529689 0.724251 0.289650
Si Si2 0.506414 0.265952 0.315326
Si Si3 0.158463 0.551619 0.309469
Si Si4 0.677546 0.111203 0.388503
Si Si5 0.958054 0.609572 0.325187
Si Si6 0.985958 0.188811 0.601902
Si Si7 0.375614 0.378698 0.553965
O O1 0.545380 0.717777 0.424904
O O2 0.363027 0.693368 0.426602
O O3 0.749777 0.948093 0.405172
O O4 0.456988 0.540107 0.912300
O O5 0.750198 0.455479 0.367627
O O6 0.405132 0.265730 0.330190
O O7 0.404992 0.044708 0.962253
O O8 0.231821 0.683859 0.352065
O O9 0.000000 0.500000 0.500000
O O10 0.029040 0.321127 0.954285
O O11 0.856125 0.186765 0.390785
O O12 0.500000 0.000000 0.500000
O O13 0.952027 0.692767 0.375239
O O14 0.000000 0.500000 0.000000
O O15 0.135140 0.197120 0.449633
O O16 0.500000 0.500000 0.500000
#
# Coordination Sequence:
#
# PCOD8032121 Si02
#       7
#     2   2   2   2   2   2   2
#     4  11  27  43  72 101 134 181 227 282 343 395
#     4  12  26  46  68 101 138 180 224 283 336 398
#     4  11  23  41  64  99 143 174 216 272 340 407
#     4  12  24  38  66 100 136 176 221 269 329 407
#     4  12  23  41  68  99 139 178 222 273 338 400
#     4  11  24  44  69 100 135 177 227 281 334 404
#     4  11  26  49  71  97 135 177 236 282 332 404
#
# _framework density 21.524438
#
# number of rings (size 3 to 8) (size 9 to 14) (size 15 to 20)
#    0.000    0.571    4.286    3.000    4.000    4.571 
#    0.000    0.000    0.000    0.000    0.000    0.000 
#    0.000    0.000    0.000    0.000    0.000    0.000 
#
# Total GULP energy -173634.615332 kJ/mol
# GULP energy per Si atom -12402.472524 kJ/mol
# Density = 2.147545 g / cm^3
# Si number density = 21.524438 Si / 1000 Ang^3
#
#
#
# Elastic Constant Matrix: (Units=GPa)
#
#
# Indices 1 2 3 4 5 6 
#
# 1 96.7937 18.0987 11.9968 1.2905 2.6920 11.4470
# 2 18.0987 112.1281 25.1730 5.8612 0.0287 15.5711
# 3 11.9968 25.1730 66.0960 0.5964 10.1591 5.8786
# 4 1.2905 5.8612 0.5964 37.8596 1.6841 9.2999
# 5 2.6920 0.0287 10.1591 1.6841 34.7997 -1.3029
# 6 11.4470 15.5711 5.8786 9.2999 -1.3029 45.9640
#
#
#
# Elastic Compliance Matrix: (Units=1/GPa)
#
#
# Indices 1 2 3 4 5 6 
#
# 1 0.010990 -0.001200 -0.001249 0.000415 -0.000590 -0.002272
# 2 -0.001200 0.010330 -0.003654 -0.000932 0.001102 -0.002513
# 3 -0.001249 -0.003654 0.017618 0.000807 -0.005121 -0.001013
# 4 0.000415 -0.000932 0.000807 0.027989 -0.001831 -0.005606
# 5 -0.000590 0.001102 -0.005121 -0.001831 0.030426 0.001661
# 6 -0.002272 -0.002513 -0.001013 -0.005606 0.001661 0.024484
#
#
# Mechanical properties :
#
#
# Convention : Reuss Voigt Hill
#
# Bulk Modulus (GPa) = 37.40761 42.83942 40.12352
# Shear Modulus (GPa) = 34.97661 38.37460 36.67561
#
# Velocity S-wave (km/s) = 4.03547 4.22695 4.13232
# Velocity P-wave (km/s) = 6.25541 6.61579 6.43812
#
# Compressibility (1/GPa) = 0.02673253
#
# Stress axis : x y z
#
# Youngs Moduli (GPa) = 90.99308 96.80738 56.76136
#
# Poissons Ratio (x) = 0.11613 0.07089
# Poissons Ratio (y) = 0.10915 0.20740
# Poissons Ratio (z) = 0.11364 0.35372
#
# Static dielectric constant tensor:
#      x y z
#    x 4.095660 0.253700 0.123830 
#    y 0.253700 3.918950 0.065500 
#    z 0.123830 0.065500 3.919090 
# 
# 
# High freq. dielectric constant tensor:
#      x y z
#    x 1.856290 0.009500 0.008880 
#    y 0.009500 1.856120 -0.000050 
#    z 0.008880 -0.000050 1.845120 
# 
# From -- ./inp_files/27202.got.cif
#   From: 2010.06.25/outbox.cif.g09.slc.cpg/sg2_14_cif.got.tgz:27202.got - 2010.06.27 13:26:56.
