data_PCOD8032412
_publ_section_title
;
Structure prediction by ZEFSAII (Michael W. Deem and Ramdas Pophale) SiO2 
 PCOD8032412
Probable space group: P -1
;
_chemical_formula_sum "Si O2"
_cell_formula_units_Z 16
_cell_length_a 8.628673
_cell_length_b 10.675514
_cell_length_c 14.852536
_cell_angle_alpha 40.683081
_cell_angle_beta 100.121349
_cell_angle_gamma 117.131967
_cell_volume 758.837659
_symmetry_space_group_name_H-M "P -1"
_symmetry_group_IT_number 2
_symmetry_cell_setting 'triclinic'
loop_
_space_group_symop_operation_xyz
x,y,z
-x,-y,-z
loop_
_atom_site_type_symbol
_atom_site_label
_atom_site_fract_x
_atom_site_fract_y
_atom_site_fract_z
Si Si1 0.350232 0.833332 0.003707
Si Si2 0.473212 0.286220 0.336745
Si Si3 0.269033 0.172396 0.714538
Si Si4 0.114444 0.880128 0.255908
Si Si5 0.107737 0.560952 0.283257
Si Si6 0.252003 0.822192 0.484951
Si Si7 0.620536 0.582501 0.580178
Si Si8 0.436004 0.352640 0.984245
O O1 0.281320 0.963453 0.863727
O O2 0.175178 0.650412 0.140720
O O3 0.422043 0.713096 0.008627
O O4 0.500000 0.000000 0.000000
O O5 0.595785 0.242405 0.443291
O O6 0.337150 0.326466 0.363453
O O7 0.599196 0.501017 0.171908
O O8 0.340120 0.082092 0.371925
O O9 0.406908 0.397456 0.658165
O O10 0.330032 0.215064 0.593076
O O11 0.067442 0.129158 0.725614
O O12 0.074482 0.732410 0.243677
O O13 0.192678 0.788956 0.392257
O O14 0.249715 0.132312 0.105623
O O15 0.260485 0.532312 0.367337
O O16 0.920991 0.324834 0.388272
O O17 0.500000 0.500000 0.000000
#
# Coordination Sequence:
#
# PCOD8032412 Si02
#       8
#     2   2   2   2   2   2   2   2
#     4  12  24  45  67  99 134 177 223 275 335 393
#     4  11  25  45  68  95 134 176 225 266 342 398
#     4  11  25  41  67 103 134 174 222 278 334 389
#     4  12  25  43  68 101 136 173 225 278 332 396
#     4  12  24  43  70  98 134 172 227 280 328 394
#     4  11  26  44  67  99 131 177 222 281 328 397
#     4  11  23  42  69  96 132 176 221 277 332 397
#     4  12  25  46  70  95 138 180 218 272 341 401
#
# _framework density 21.084879999999998
#
# number of rings (size 3 to 8) (size 9 to 14) (size 15 to 20)
#    0.000    0.500    6.250    1.125    7.000    1.000 
#    2.250    0.625    0.000    0.000    0.000    0.000 
#    0.000    0.000    0.000    0.000    0.000    0.000 
#
# Total GULP energy -198392.715001 kJ/mol
# GULP energy per Si atom -12399.544688 kJ/mol
# Density = 2.103689 g / cm^3
# Si number density = 21.084880 Si / 1000 Ang^3
#
#
#
# Elastic Constant Matrix: (Units=GPa)
#
#
# Indices 1 2 3 4 5 6 
#
# 1 83.5261 52.1349 50.7535 -5.7829 -9.1435 -1.7530
# 2 52.1349 64.9195 40.5734 5.8870 0.4583 -12.5741
# 3 50.7535 40.5734 168.8660 -11.4978 -2.3190 1.1677
# 4 -5.7829 5.8870 -11.4978 28.9407 7.2915 -8.8222
# 5 -9.1435 0.4583 -2.3190 7.2915 37.5876 -0.4963
# 6 -1.7530 -12.5741 1.1677 -8.8222 -0.4963 32.1967
#
#
#
# Elastic Compliance Matrix: (Units=1/GPa)
#
#
# Indices 1 2 3 4 5 6 
#
# 1 0.029227 -0.023595 -0.002559 0.006397 0.005923 -0.005687
# 2 -0.023595 0.039459 -0.003166 -0.009338 -0.004452 0.011613
# 3 -0.002559 -0.003166 0.007659 0.003111 -0.000725 -0.000812
# 4 0.006397 -0.009338 0.003111 0.043108 -0.006391 0.008302
# 5 0.005923 -0.004452 -0.000725 -0.006391 0.029259 -0.002690
# 6 -0.005687 0.011613 -0.000812 0.008302 -0.002690 0.037548
#
#
# Mechanical properties :
#
#
# Convention : Reuss Voigt Hill
#
# Bulk Modulus (GPa) = 56.48461 67.13724 61.81093
# Shear Modulus (GPa) = 19.93609 31.33498 25.63553
#
# Velocity S-wave (km/s) = 3.07826 3.85922 3.49065
# Velocity P-wave (km/s) = 6.28344 7.19505 6.75464
#
# Compressibility (1/GPa) = 0.01770394
#
# Stress axis : x y z
#
# Youngs Moduli (GPa) = 34.21529 25.34291 130.56332
#
# Poissons Ratio (x) = 0.59797 0.33408
# Poissons Ratio (y) = 0.80732 0.41340
# Poissons Ratio (z) = 0.08755 0.08024
#
# Static dielectric constant tensor:
#      x y z
#    x 3.754930 -0.052810 -0.063650 
#    y -0.052810 3.700950 -0.061990 
#    z -0.063650 -0.061990 4.210000 
# 
# 
# High freq. dielectric constant tensor:
#      x y z
#    x 1.826520 -0.008420 -0.002820 
#    y -0.008420 1.809580 -0.000690 
#    z -0.002820 -0.000690 1.854830 
# 
# From -- ./inp_files/498777.got.cif
#   From: 2010.06.25/outbox.cif.g09.slc.cpg/sg2_250_cif.got.tgz:498777.got - 2010.06.27 13:26:56.
