data_PCOD8032717
_publ_section_title
;
Structure prediction by ZEFSAII (Michael W. Deem and Ramdas Pophale) SiO2 
 PCOD8032717
Probable space group: P -1
;
_chemical_formula_sum "Si O2"
_cell_formula_units_Z 16
_cell_length_a 9.371116
_cell_length_b 10.059386
_cell_length_c 11.910018
_cell_angle_alpha 100.721331
_cell_angle_beta 115.112215
_cell_angle_gamma 119.266296
_cell_volume 768.964502
_symmetry_space_group_name_H-M "P -1"
_symmetry_group_IT_number 2
_symmetry_cell_setting 'triclinic'
loop_
_space_group_symop_operation_xyz
x,y,z
-x,-y,-z
loop_
_atom_site_type_symbol
_atom_site_label
_atom_site_fract_x
_atom_site_fract_y
_atom_site_fract_z
Si Si1 0.633196 0.850859 0.236719
Si Si2 0.284224 0.869712 0.851007
Si Si3 0.118062 0.275370 0.717041
Si Si4 0.065087 0.418632 0.166899
Si Si5 0.644364 0.959953 0.501208
Si Si6 0.429920 0.615478 0.493639
Si Si7 0.791860 0.510770 0.014951
Si Si8 0.788656 0.428834 0.365601
O O1 0.789884 0.815848 0.306379
O O2 0.579316 0.892820 0.341870
O O3 0.751040 0.022962 0.225508
O O4 0.423572 0.685305 0.083830
O O5 0.289293 0.731801 0.765491
O O6 0.106156 0.775647 0.870740
O O7 0.500000 0.000000 0.000000
O O8 0.211325 0.361371 0.884376
O O9 0.187950 0.422707 0.673436
O O10 0.875138 0.135102 0.616804
O O11 0.238187 0.533978 0.335403
O O12 0.970193 0.512726 0.122783
O O13 0.158430 0.409015 0.081544
O O14 0.615688 0.810533 0.543901
O O15 0.500000 0.000000 0.500000
O O16 0.500000 0.500000 0.500000
O O17 0.376753 0.633785 0.603602
O O18 0.000000 0.500000 0.500000
#
# Coordination Sequence:
#
# PCOD8032717 Si02
#       8
#     2   2   2   2   2   2   2   2
#     4  12  25  44  68 102 139 175 228 288 344 400
#     4  12  24  42  68 101 132 179 227 277 335 409
#     4  12  26  44  69 105 137 178 226 292 344 397
#     4  11  23  43  70  97 136 180 229 271 343 401
#     4  12  26  44  68 101 134 184 234 272 336 411
#     4  12  26  44  69 103 139 175 224 287 346 395
#     4  11  23  45  73  96 138 185 228 273 344 423
#     4  12  23  44  71  96 133 182 226 275 335 410
#
# _framework density 20.807203000000001
#
# number of rings (size 3 to 8) (size 9 to 14) (size 15 to 20)
#    0.000    0.250    5.000    4.500    3.500    1.000 
#    0.000    0.625    0.000    0.000    0.000    0.000 
#    0.000    0.000    0.000    0.000    0.000    0.000 
#
# Total GULP energy -198508.124074 kJ/mol
# GULP energy per Si atom -12406.757755 kJ/mol
# Density = 2.075984 g / cm^3
# Si number density = 20.807203 Si / 1000 Ang^3
#
#
#
# Elastic Constant Matrix: (Units=GPa)
#
#
# Indices 1 2 3 4 5 6 
#
# 1 79.6372 42.5048 30.9448 -7.4792 -1.6977 -2.0436
# 2 42.5048 164.3136 44.8742 -10.3957 -7.5178 6.6162
# 3 30.9448 44.8742 100.4455 3.6206 -0.8617 8.1121
# 4 -7.4792 -10.3957 3.6206 31.3859 8.4397 -1.5174
# 5 -1.6977 -7.5178 -0.8617 8.4397 33.7836 -3.6585
# 6 -2.0436 6.6162 8.1121 -1.5174 -3.6585 46.0158
#
#
#
# Elastic Compliance Matrix: (Units=1/GPa)
#
#
# Indices 1 2 3 4 5 6 
#
# 1 0.016020 -0.002960 -0.003899 0.003549 -0.000635 0.001891
# 2 -0.002960 0.007736 -0.002550 0.001858 0.000973 -0.000656
# 3 -0.003899 -0.002550 0.012591 -0.003375 0.000171 -0.002124
# 4 0.003549 0.001858 -0.003375 0.036015 -0.008382 0.001007
# 5 -0.000635 0.000973 0.000171 -0.008382 0.032108 0.002078
# 6 0.001891 -0.000656 -0.002124 0.001007 0.002078 0.022483
#
#
# Mechanical properties :
#
#
# Convention : Reuss Voigt Hill
#
# Bulk Modulus (GPa) = 57.04802 64.56045 60.80423
# Shear Modulus (GPa) = 32.97842 37.30856 35.14349
#
# Velocity S-wave (km/s) = 3.98547 4.23905 4.11421
# Velocity P-wave (km/s) = 6.97535 7.41988 7.20105
#
# Compressibility (1/GPa) = 0.01752909
#
# Stress axis : x y z
#
# Youngs Moduli (GPa) = 62.42140 129.25783 79.42310
#
# Poissons Ratio (x) = 0.38259 0.30969
# Poissons Ratio (y) = 0.18476 0.20254
# Poissons Ratio (z) = 0.24339 0.32962
#
# Static dielectric constant tensor:
#      x y z
#    x 3.879330 0.273310 -0.125080 
#    y 0.273310 4.183330 -0.106850 
#    z -0.125080 -0.106850 3.930590 
# 
# 
# High freq. dielectric constant tensor:
#      x y z
#    x 1.817780 0.011800 -0.005550 
#    y 0.011800 1.826510 -0.003440 
#    z -0.005550 -0.003440 1.826950 
# 
# From -- ./inp_files/241130.got.cif
#   From: 2010.06.25/outbox.cif.g09.slc.cpg/sg2_121_cif.got.tgz:241130.got - 2010.06.27 13:26:56.
