data_PCOD8032954
_publ_section_title
;
Structure prediction by ZEFSAII (Michael W. Deem and Ramdas Pophale) SiO2 
 PCOD8032954
Probable space group: P -1
;
_chemical_formula_sum "Si O2"
_cell_formula_units_Z 14
_cell_length_a 21.508803
_cell_length_b 11.609490
_cell_length_c 21.513083
_cell_angle_alpha 28.615165
_cell_angle_beta 161.481003
_cell_angle_gamma 158.804391
_cell_volume 615.989649
_symmetry_space_group_name_H-M "P -1"
_symmetry_group_IT_number 2
_symmetry_cell_setting 'triclinic'
loop_
_space_group_symop_operation_xyz
x,y,z
-x,-y,-z
loop_
_atom_site_type_symbol
_atom_site_label
_atom_site_fract_x
_atom_site_fract_y
_atom_site_fract_z
Si Si1 0.624861 0.223285 0.253407
Si Si2 0.719856 0.735155 0.389314
Si Si3 0.731451 0.719165 0.911750
Si Si4 0.438017 0.870234 0.905999
Si Si5 0.850302 0.090860 0.966976
Si Si6 0.019117 0.278608 0.244872
Si Si7 0.944293 0.052368 0.674576
O O1 0.653688 0.209957 0.213813
O O2 0.707778 0.048149 0.450714
O O3 0.792593 0.587524 0.260612
O O4 0.332038 0.031575 0.087281
O O5 0.516196 0.431189 0.296080
O O6 0.763743 0.605348 0.552871
O O7 0.587948 0.882570 0.210453
O O8 0.000000 0.000000 0.500000
O O9 0.695899 0.859244 0.871879
O O10 0.742149 0.449776 0.071605
O O11 0.000000 0.000000 0.000000
O O12 0.729295 0.000080 0.128171
O O13 0.982679 0.444954 0.906752
O O14 0.064738 0.077311 0.203734
O O15 0.089322 0.175217 0.301610
#
# Coordination Sequence:
#
# PCOD8032954 Si02
#       7
#     2   2   2   2   2   2   2
#     4  11  24  42  75 105 140 186 236 304 362 427
#     4  12  28  48  75 105 145 196 246 290 356 436
#     4  12  28  50  75 104 149 195 243 296 353 434
#     4  12  24  49  75 103 144 191 243 297 364 423
#     4  12  26  44  71 106 145 185 237 300 363 424
#     4  12  26  45  73 107 145 191 236 302 364 427
#     4  11  23  44  69 108 142 183 239 295 369 427
#
# _framework density 22.727654999999999
#
# number of rings (size 3 to 8) (size 9 to 14) (size 15 to 20)
#    0.000    0.286    5.714    3.000    2.000    3.429 
#    0.000    0.000    0.000    0.000    0.000    0.000 
#    0.000    0.000    0.000    0.000    0.000    0.000 
#
# Total GULP energy -173667.059024 kJ/mol
# GULP energy per Si atom -12404.789930 kJ/mol
# Density = 2.267593 g / cm^3
# Si number density = 22.727655 Si / 1000 Ang^3
#
#
#
# Elastic Constant Matrix: (Units=GPa)
#
#
# Indices 1 2 3 4 5 6 
#
# 1 107.5582 45.5448 32.8144 1.5635 -28.3547 -10.2745
# 2 45.5448 92.0376 86.9480 -26.7124 -20.7423 -8.4956
# 3 32.8144 86.9480 71.0015 -1.8993 -32.4155 4.0592
# 4 1.5635 -26.7124 -1.8993 43.7518 -0.7953 -2.4190
# 5 -28.3547 -20.7423 -32.4155 -0.7953 39.6959 6.8485
# 6 -10.2745 -8.4956 4.0592 -2.4190 6.8485 32.4496
#
#
#
# Elastic Compliance Matrix: (Units=1/GPa)
#
#
# Indices 1 2 3 4 5 6 
#
# 1 0.011707 0.002290 -0.007088 0.000983 0.002991 0.004635
# 2 0.002290 -0.017316 0.028752 -0.009739 0.017926 -0.011914
# 3 -0.007088 0.028752 -0.022729 0.017274 -0.010251 0.011578
# 4 0.000983 -0.009739 0.017274 0.017526 0.011005 -0.005416
# 5 0.002991 0.017926 -0.010251 0.011005 0.028237 0.001784
# 6 0.004635 -0.011914 0.011578 -0.005416 0.001784 0.026937
#
#
# Mechanical properties :
#
#
# Convention : Reuss Voigt Hill
#
# Bulk Modulus (GPa) = 51.10083 66.80130 58.95107
# Shear Modulus (GPa) = 1679.38275 30.19880 854.79077
#
# Velocity S-wave (km/s) = 27.21250 3.64912 19.41438
# Velocity P-wave (km/s) = 31.77881 6.87100 22.99025
#
# Compressibility (1/GPa) = 0.01956915
#
# Stress axis : x y z
#
# Youngs Moduli (GPa) = 85.41883 -57.75009 -43.99660
#
# Poissons Ratio (x) = 0.13224 -0.31185
# Poissons Ratio (y) = -0.19560 1.26498
# Poissons Ratio (z) = 0.60545 1.66041
#
# Static dielectric constant tensor:
#      x y z
#    x 4.146960 -0.097280 -0.249110 
#    y -0.097280 4.103050 -0.156010 
#    z -0.249110 -0.156010 4.276240 
# 
# 
# High freq. dielectric constant tensor:
#      x y z
#    x 1.902460 -0.006040 -0.016690 
#    y -0.006040 1.899330 -0.009910 
#    z -0.016690 -0.009910 1.905900 
# 
# From -- ./inp_files/256067.got.cif
#   From: 2010.06.25/outbox.cif.g09.slc.cpg/sg2_129_cif.got.tgz:256067.got - 2010.06.27 13:26:56.
