data_PCOD8032892
_publ_section_title
;
Structure prediction by ZEFSAII (Michael W. Deem and Ramdas Pophale) SiO2 
 PCOD8032892
Probable space group: P -1
;
_chemical_formula_sum "Si O2"
_cell_formula_units_Z 14
_cell_length_a 8.990159
_cell_length_b 9.453479
_cell_length_c 16.783372
_cell_angle_alpha 111.631849
_cell_angle_beta 119.397374
_cell_angle_gamma 30.979378
_cell_volume 635.317482
_symmetry_space_group_name_H-M "P -1"
_symmetry_group_IT_number 2
_symmetry_cell_setting 'triclinic'
loop_
_space_group_symop_operation_xyz
x,y,z
-x,-y,-z
loop_
_atom_site_type_symbol
_atom_site_label
_atom_site_fract_x
_atom_site_fract_y
_atom_site_fract_z
Si Si1 0.923601 0.442850 0.214504
Si Si2 0.863981 0.965656 0.507953
Si Si3 0.224948 0.988094 0.900633
Si Si4 0.188257 0.345852 0.934896
Si Si5 0.527341 0.463275 0.819149
Si Si6 0.583161 0.618917 0.387961
Si Si7 0.409333 0.107520 0.661271
O O1 0.981246 0.439523 0.136507
O O2 0.654999 0.516418 0.167324
O O3 0.821718 0.670360 0.282533
O O4 0.236092 0.139292 0.268931
O O5 0.677777 0.186245 0.573962
O O6 0.649666 0.022371 0.406004
O O7 0.000000 0.000000 0.500000
O O8 0.109498 0.671569 0.551081
O O9 0.357427 0.752296 0.833763
O O10 0.210157 0.151505 0.876619
O O11 0.465256 0.842310 0.005590
O O12 0.881884 0.208857 0.891170
O O13 0.000000 0.500000 0.000000
O O14 0.531332 0.405249 0.717408
O O15 0.646703 0.740840 0.397407
#
# Coordination Sequence:
#
# PCOD8032892 Si02
#       7
#     2   2   2   2   2   2   2
#     4  11  26  43  70  97 136 170 231 279 321 404
#     4  12  25  42  67 103 134 174 222 272 323 394
#     4  11  24  43  68  94 136 172 224 265 343 394
#     4  11  26  47  66  99 137 179 219 267 348 402
#     4  11  23  44  67 102 125 177 227 274 328 379
#     4  11  23  44  69  92 140 173 220 272 327 396
#     4  11  24  45  67  99 129 183 221 269 339 383
#
# _framework density 22.036225000000002
#
# number of rings (size 3 to 8) (size 9 to 14) (size 15 to 20)
#    0.000    0.857    1.429    6.429    4.000    4.571 
#    0.000    0.000    0.000    0.000    0.000    0.000 
#    0.000    0.000    0.000    0.000    0.000    0.000 
#
# Total GULP energy -173645.892869 kJ/mol
# GULP energy per Si atom -12403.278062 kJ/mol
# Density = 2.198607 g / cm^3
# Si number density = 22.036225 Si / 1000 Ang^3
#
#
#
# Elastic Constant Matrix: (Units=GPa)
#
#
# Indices 1 2 3 4 5 6 
#
# 1 150.1825 64.2871 82.3626 3.0347 -6.6471 7.4513
# 2 64.2871 149.4826 46.5935 1.1379 -5.8003 -3.2105
# 3 82.3626 46.5935 84.0951 -2.5567 -7.7006 7.5376
# 4 3.0347 1.1379 -2.5567 55.6313 -1.6728 6.9935
# 5 -6.6471 -5.8003 -7.7006 -1.6728 40.4405 7.4219
# 6 7.4513 -3.2105 7.5376 6.9935 7.4219 38.9693
#
#
#
# Elastic Compliance Matrix: (Units=1/GPa)
#
#
# Indices 1 2 3 4 5 6 
#
# 1 0.015110 -0.002262 -0.013623 -0.001406 -0.000475 -0.000098
# 2 -0.002262 0.008538 -0.002681 -0.000391 0.000010 0.001723
# 3 -0.013623 -0.002681 0.027483 0.002677 0.003468 -0.004073
# 4 -0.001406 -0.000391 0.002677 0.018735 0.001727 -0.003972
# 5 -0.000475 0.000010 0.003468 0.001727 0.026471 -0.005931
# 6 -0.000098 0.001723 -0.004073 -0.003972 -0.005931 0.028452
#
#
# Mechanical properties :
#
#
# Convention : Reuss Voigt Hill
#
# Bulk Modulus (GPa) = 71.42885 85.58297 78.50591
# Shear Modulus (GPa) = 30.01411 39.70933 34.86172
#
# Velocity S-wave (km/s) = 3.69458 4.24961 3.98177
# Velocity P-wave (km/s) = 7.11931 7.93729 7.53940
#
# Compressibility (1/GPa) = 0.01399994
#
# Stress axis : x y z
#
# Youngs Moduli (GPa) = 66.18043 117.11680 36.38579
#
# Poissons Ratio (x) = 0.26490 0.49569
# Poissons Ratio (y) = 0.14969 0.09755
# Poissons Ratio (z) = 0.90159 0.31398
#
# Static dielectric constant tensor:
#      x y z
#    x 3.884040 0.041200 0.209480 
#    y 0.041200 4.235810 0.039950 
#    z 0.209480 0.039950 3.961870 
# 
# 
# High freq. dielectric constant tensor:
#      x y z
#    x 1.862710 0.000880 0.014580 
#    y 0.000880 1.889730 0.001310 
#    z 0.014580 0.001310 1.862460 
# 
# From -- ./inp_files/217227.got.cif
#   From: 2010.06.25/outbox.cif.g09.slc.cpg/sg2_109_cif.got.tgz:217227.got - 2010.06.27 13:26:56.
