data_PCOD8032185
_publ_section_title
;
Structure prediction by ZEFSAII (Michael W. Deem and Ramdas Pophale) SiO2 
 PCOD8032185
Probable space group: P -1
;
_chemical_formula_sum "Si O2"
_cell_formula_units_Z 16
_cell_length_a 12.857064
_cell_length_b 12.768718
_cell_length_c 12.096604
_cell_angle_alpha 97.397121
_cell_angle_beta 111.646788
_cell_angle_gamma 143.142579
_cell_volume 719.152113
_symmetry_space_group_name_H-M "P -1"
_symmetry_group_IT_number 2
_symmetry_cell_setting 'triclinic'
loop_
_space_group_symop_operation_xyz
x,y,z
-x,-y,-z
loop_
_atom_site_type_symbol
_atom_site_label
_atom_site_fract_x
_atom_site_fract_y
_atom_site_fract_z
Si Si1 0.823327 0.047763 0.790199
Si Si2 0.048326 0.724138 0.756174
Si Si3 0.568393 0.826504 0.883498
Si Si4 0.462733 0.580072 0.442962
Si Si5 0.057818 0.729257 0.510820
Si Si6 0.229851 0.108205 0.607687
Si Si7 0.625218 0.175218 0.477100
Si Si8 0.553819 0.424017 0.991202
O O1 0.797586 0.988377 0.901229
O O2 0.693277 0.850617 0.630805
O O3 0.637830 0.993843 0.706685
O O4 0.141410 0.340914 0.910756
O O5 0.857851 0.662229 0.695572
O O6 0.156975 0.825528 0.688375
O O7 0.863816 0.458318 0.663933
O O8 0.313899 0.965958 0.978716
O O9 0.272059 0.592194 0.671738
O O10 0.505487 0.681709 0.929079
O O11 0.500000 0.500000 0.500000
O O12 0.521560 0.638010 0.342851
O O13 0.241033 0.791610 0.549068
O O14 0.111124 0.889219 0.494027
O O15 0.332059 0.186878 0.783816
O O16 0.000000 0.000000 0.500000
O O17 0.500000 0.000000 0.500000
O O18 0.500000 0.500000 0.000000
#
# Coordination Sequence:
#
# PCOD8032185 Si02
#       8
#     2   2   2   2   2   2   2   2
#     4  11  26  47  69 106 145 186 241 303 363 424
#     4  11  24  44  67 107 136 186 240 287 365 425
#     4  12  25  46  75 104 152 186 243 303 361 435
#     4  11  23  41  68  97 140 185 233 292 361 427
#     4  12  23  47  73 101 145 188 239 296 362 430
#     4  12  25  45  71 103 145 189 239 301 367 434
#     4  11  24  47  75 101 145 190 239 303 361 432
#     4  12  27  45  71 111 145 191 248 298 361 443
#
# _framework density 22.248424
#
# number of rings (size 3 to 8) (size 9 to 14) (size 15 to 20)
#    0.000    0.500    3.750    6.375    3.500    1.000 
#    0.000    1.250    0.000    0.000    0.000    0.000 
#    0.000    0.000    0.000    0.000    0.000    0.000 
#
# Total GULP energy -198357.537751 kJ/mol
# GULP energy per Si atom -12397.346109 kJ/mol
# Density = 2.219779 g / cm^3
# Si number density = 22.248424 Si / 1000 Ang^3
#
#
#
# Elastic Constant Matrix: (Units=GPa)
#
#
# Indices 1 2 3 4 5 6 
#
# 1 145.2078 42.3020 21.9938 11.0003 7.0861 -1.4733
# 2 42.3020 141.5114 11.1587 -3.5986 1.9507 12.1192
# 3 21.9938 11.1587 93.6718 7.4588 -11.0184 3.4339
# 4 11.0003 -3.5986 7.4588 34.2034 7.1300 -7.6497
# 5 7.0861 1.9507 -11.0184 7.1300 27.1932 -2.6987
# 6 -1.4733 12.1192 3.4339 -7.6497 -2.6987 40.4781
#
#
#
# Elastic Compliance Matrix: (Units=1/GPa)
#
#
# Indices 1 2 3 4 5 6 
#
# 1 0.008087 -0.002356 -0.001736 -0.001891 -0.002082 0.000651
# 2 -0.002356 0.008049 -0.000522 0.001375 -0.000758 -0.002242
# 3 -0.001736 -0.000522 0.012232 -0.003755 0.006308 -0.001234
# 4 -0.001891 0.001375 -0.003755 0.034049 -0.009495 0.005640
# 5 -0.002082 -0.000758 0.006308 -0.009495 0.042481 0.000654
# 6 0.000651 -0.002242 -0.001234 0.005640 0.000654 0.026614
#
#
# Mechanical properties :
#
#
# Convention : Reuss Voigt Hill
#
# Bulk Modulus (GPa) = 52.24767 59.03333 55.64050
# Shear Modulus (GPa) = 33.98554 40.70403 37.34479
#
# Velocity S-wave (km/s) = 3.91263 4.28193 4.10144
# Velocity P-wave (km/s) = 6.62920 7.14408 6.89145
#
# Compressibility (1/GPa) = 0.01913961
#
# Stress axis : x y z
#
# Youngs Moduli (GPa) = 123.64923 124.23286 81.75471
#
# Poissons Ratio (x) = 0.29266 0.14196
# Poissons Ratio (y) = 0.29129 0.04270
# Poissons Ratio (z) = 0.21471 0.06488
#
# Static dielectric constant tensor:
#      x y z
#    x 4.010880 0.084450 -0.190350 
#    y 0.084450 4.112870 0.047900 
#    z -0.190350 0.047900 4.546530 
# 
# 
# High freq. dielectric constant tensor:
#      x y z
#    x 1.878410 0.009950 -0.010550 
#    y 0.009950 1.896940 -0.001030 
#    z -0.010550 -0.001030 1.874970 
# 
# From -- ./inp_files/428405.got.cif
#   From: 2010.06.25/outbox.cif.g09.slc.cpg/sg2_215_cif.got.tgz:428405.got - 2010.06.27 13:26:56.
