data_PCOD8032232
_publ_section_title
;
Structure prediction by ZEFSAII (Michael W. Deem and Ramdas Pophale) SiO2 
 PCOD8032232
Probable space group: P -1
;
_chemical_formula_sum "Si O2"
_cell_formula_units_Z 16
_cell_length_a 9.307328
_cell_length_b 16.086014
_cell_length_c 16.802212
_cell_angle_alpha 37.388141
_cell_angle_beta 44.623718
_cell_angle_gamma 74.196053
_cell_volume 779.391116
_symmetry_space_group_name_H-M "P -1"
_symmetry_group_IT_number 2
_symmetry_cell_setting 'triclinic'
loop_
_space_group_symop_operation_xyz
x,y,z
-x,-y,-z
loop_
_atom_site_type_symbol
_atom_site_label
_atom_site_fract_x
_atom_site_fract_y
_atom_site_fract_z
Si Si1 0.420169 0.973872 0.882879
Si Si2 0.794171 0.929170 0.848944
Si Si3 0.102703 0.639786 0.999228
Si Si4 0.716875 0.219437 0.427831
Si Si5 0.444769 0.259228 0.368878
Si Si6 0.834553 0.681704 0.936913
Si Si7 0.600880 0.756578 0.226988
Si Si8 0.055739 0.347303 0.780553
O O1 0.627186 0.989800 0.848089
O O2 0.557153 0.059898 0.677621
O O3 0.327851 0.071738 0.885840
O O4 0.142237 0.756396 0.140026
O O5 0.748972 0.800188 0.892802
O O6 0.668372 0.803086 0.072729
O O7 0.116909 0.121724 0.586011
O O8 0.863202 0.414863 0.263350
O O9 0.133414 0.706072 0.026557
O O10 0.399251 0.717573 0.791102
O O11 0.000741 0.715715 0.925335
O O12 0.499490 0.173111 0.481901
O O13 0.953476 0.231749 0.286399
O O14 0.563176 0.461487 0.195840
O O15 0.272661 0.569152 0.508938
O O16 0.788028 0.724578 0.215813
#
# Coordination Sequence:
#
# PCOD8032232 Si02
#       8
#     2   2   2   2   2   2   2   2
#     4  12  26  40  60  93 127 162 200 249 302 361
#     4  12  25  40  61  91 127 167 198 237 309 377
#     4   9  17  40  66  94 121 153 206 253 307 345
#     4   9  19  39  64  91 124 153 203 259 292 349
#     4   9  21  38  67  92 122 160 195 257 302 354
#     4   9  20  38  62  93 122 158 202 248 298 360
#     4  11  25  45  63  87 121 157 214 255 294 356
#     4  11  23  41  70  90 113 162 206 261 298 346
#
# _framework density 20.528846000000001
#
# number of rings (size 3 to 8) (size 9 to 14) (size 15 to 20)
#    0.000    1.750    2.500    3.000    1.750    4.000 
#    0.000    1.250    0.000    0.000    0.000    0.000 
#    0.000    0.000    0.000    0.000    0.000    0.000 
#
# Total GULP energy -198446.405698 kJ/mol
# GULP energy per Si atom -12402.900356 kJ/mol
# Density = 2.048212 g / cm^3
# Si number density = 20.528846 Si / 1000 Ang^3
#
#
#
# Elastic Constant Matrix: (Units=GPa)
#
#
# Indices 1 2 3 4 5 6 
#
# 1 72.4501 16.3692 27.3316 -3.8178 -23.8032 -1.1421
# 2 16.3692 110.2215 14.8250 -1.7338 -8.1054 1.9726
# 3 27.3316 14.8250 50.9707 6.4566 -11.4543 3.1123
# 4 -3.8178 -1.7338 6.4566 22.6155 -1.1265 -1.2335
# 5 -23.8032 -8.1054 -11.4543 -1.1265 12.6189 -5.8518
# 6 -1.1421 1.9726 3.1123 -1.2335 -5.8518 14.2901
#
#
#
# Elastic Compliance Matrix: (Units=1/GPa)
#
#
# Indices 1 2 3 4 5 6 
#
# 1 0.088985 0.002412 -0.012341 0.034282 0.206176 0.096855
# 2 0.002412 0.009787 -0.002268 0.002565 0.010864 0.004006
# 3 -0.012341 -0.002268 0.027746 -0.010960 -0.005039 -0.009726
# 4 0.034282 0.002565 -0.010960 0.059777 0.081853 0.043451
# 5 0.206176 0.010864 -0.005039 0.081853 0.603139 0.270127
# 6 0.096855 0.004006 -0.009726 0.043451 0.270127 0.193652
#
#
# Mechanical properties :
#
#
# Convention : Reuss Voigt Hill
#
# Bulk Modulus (GPa) = 9.79203 38.96600 24.37901
# Shear Modulus (GPa) = 4.80067 21.57932 13.18999
#
# Velocity S-wave (km/s) = 1.53087 3.24569 2.53753
# Velocity P-wave (km/s) = 2.81158 5.75051 4.52622
#
# Compressibility (1/GPa) = 0.10212389
#
# Stress axis : x y z
#
# Youngs Moduli (GPa) = 11.23787 102.17578 36.04101
#
# Poissons Ratio (x) = -0.24645 0.44479
# Poissons Ratio (y) = -0.02711 0.08174
# Poissons Ratio (z) = 0.13869 0.23174
#
# Static dielectric constant tensor:
#      x y z
#    x 3.383800 0.021100 -0.037640 
#    y 0.021100 3.814200 0.040290 
#    z -0.037640 0.040290 3.758550 
# 
# 
# High freq. dielectric constant tensor:
#      x y z
#    x 1.770720 0.005130 -0.004040 
#    y 0.005130 1.818130 -0.000980 
#    z -0.004040 -0.000980 1.809660 
# 
# From -- ./inp_files/218657.got.cif
#   From: 2010.06.25/outbox.cif.g09.slc.cpg/sg2_110_cif.got.tgz:218657.got - 2010.06.27 13:26:56.
