data_PCOD8032431
_publ_section_title
;
Structure prediction by ZEFSAII (Michael W. Deem and Ramdas Pophale) SiO2 
 PCOD8032431
Probable space group: P -1
;
_chemical_formula_sum "Si O2"
_cell_formula_units_Z 16
_cell_length_a 9.149198
_cell_length_b 8.413023
_cell_length_c 13.488028
_cell_angle_alpha 136.117080
_cell_angle_beta 70.752512
_cell_angle_gamma 99.593795
_cell_volume 675.440804
_symmetry_space_group_name_H-M "P -1"
_symmetry_group_IT_number 2
_symmetry_cell_setting 'triclinic'
loop_
_space_group_symop_operation_xyz
x,y,z
-x,-y,-z
loop_
_atom_site_type_symbol
_atom_site_label
_atom_site_fract_x
_atom_site_fract_y
_atom_site_fract_z
Si Si1 0.528808 0.209171 0.260163
Si Si2 0.856843 0.184820 0.081607
Si Si3 0.536893 0.895210 0.561559
Si Si4 0.117513 0.283817 0.652820
Si Si5 0.033135 0.848408 0.568284
Si Si6 0.759449 0.053225 0.828635
Si Si7 0.655643 0.387479 0.630234
Si Si8 0.386655 0.655599 0.165472
O O1 0.708760 0.137074 0.159487
O O2 0.521527 0.251118 0.397991
O O3 0.468681 0.439733 0.319517
O O4 0.414877 0.021919 0.163426
O O5 0.902643 0.445310 0.193881
O O6 0.807957 0.155010 0.965921
O O7 0.000000 0.000000 0.000000
O O8 0.712996 0.795995 0.461681
O O9 0.425314 0.855331 0.472835
O O10 0.513922 0.154514 0.724366
O O11 0.998793 0.241385 0.573650
O O12 0.081584 0.111840 0.673531
O O13 0.178542 0.663760 0.485662
O O14 0.889635 0.841837 0.674149
O O15 0.759213 0.240415 0.822782
O O16 0.674860 0.465788 0.776307
O O17 0.500000 0.500000 0.000000
#
# Coordination Sequence:
#
# PCOD8032431 Si02
#       8
#     2   2   2   2   2   2   2   2
#     4  11  25  47  73 104 150 187 242 301 361 440
#     4  12  29  47  75 107 150 191 243 302 375 429
#     4  11  23  45  71 104 141 189 243 300 353 426
#     4  11  23  49  71 104 148 188 245 310 351 431
#     4  11  24  44  75 104 145 191 246 301 360 426
#     4  11  26  51  68 106 149 194 239 299 367 435
#     4  12  24  40  78 108 138 192 246 295 358 425
#     4  11  23  42  70 102 141 187 242 292 361 428
#
# _framework density 23.688234000000001
#
# number of rings (size 3 to 8) (size 9 to 14) (size 15 to 20)
#    0.000    0.750    5.000    2.625    3.500    2.000 
#    4.500    0.000    0.000    0.000    0.000    0.000 
#    0.000    0.000    0.000    0.000    0.000    0.000 
#
# Total GULP energy -198267.660814 kJ/mol
# GULP energy per Si atom -12391.728801 kJ/mol
# Density = 2.363432 g / cm^3
# Si number density = 23.688234 Si / 1000 Ang^3
#
#
#
# Elastic Constant Matrix: (Units=GPa)
#
#
# Indices 1 2 3 4 5 6 
#
# 1 122.8986 25.9468 57.2497 -4.3762 -18.3832 -5.1557
# 2 25.9468 64.6752 37.1995 -6.1163 1.0195 -5.1326
# 3 57.2497 37.1995 137.7808 3.0218 -2.9732 -6.7746
# 4 -4.3762 -6.1163 3.0218 35.2259 -1.5691 3.8287
# 5 -18.3832 1.0195 -2.9732 -1.5691 56.4436 -7.2320
# 6 -5.1557 -5.1326 -6.7746 3.8287 -7.2320 26.5234
#
#
#
# Elastic Compliance Matrix: (Units=1/GPa)
#
#
# Indices 1 2 3 4 5 6 
#
# 1 0.011047 -0.001976 -0.003931 0.001360 0.003665 0.001564
# 2 -0.001976 0.019219 -0.004387 0.003264 -0.000941 0.001487
# 3 -0.003931 -0.004387 0.010170 -0.002274 -0.000580 0.001155
# 4 0.001360 0.003264 -0.002274 0.029761 0.000602 -0.003816
# 5 0.003665 -0.000941 -0.000580 0.000602 0.019637 0.005650
# 6 0.001564 0.001487 0.001155 -0.003816 0.005650 0.040681
#
#
# Mechanical properties :
#
#
# Convention : Reuss Voigt Hill
#
# Bulk Modulus (GPa) = 50.37991 62.90516 56.64253
# Shear Modulus (GPa) = 31.70215 37.30248 34.50231
#
# Velocity S-wave (km/s) = 3.66226 3.97259 3.82057
# Velocity P-wave (km/s) = 6.26074 6.90326 6.58984
#
# Compressibility (1/GPa) = 0.01984918
#
# Stress axis : x y z
#
# Youngs Moduli (GPa) = 90.52066 52.03083 98.33289
#
# Poissons Ratio (x) = 0.10283 0.38650
# Poissons Ratio (y) = 0.17890 0.43135
# Poissons Ratio (z) = 0.35579 0.22824
#
# Static dielectric constant tensor:
#      x y z
#    x 4.613510 -0.024970 0.160950 
#    y -0.024970 4.613850 -0.004410 
#    z 0.160950 -0.004410 4.383310 
# 
# 
# High freq. dielectric constant tensor:
#      x y z
#    x 1.948930 -0.005250 -0.002710 
#    y -0.005250 1.940630 -0.005540 
#    z -0.002710 -0.005540 1.938780 
# 
# From -- ./inp_files/495786.got.cif
#   From: 2010.06.25/outbox.cif.g09.slc.cpg/sg2_248_cif.got.tgz:495786.got - 2010.06.27 13:26:56.
