data_PCOD8032319
_publ_section_title
;
Structure prediction by ZEFSAII (Michael W. Deem and Ramdas Pophale) SiO2 
 PCOD8032319
Probable space group: P -1
;
_chemical_formula_sum "Si O2"
_cell_formula_units_Z 16
_cell_length_a 12.484901
_cell_length_b 8.628930
_cell_length_c 18.024466
_cell_angle_alpha 120.540988
_cell_angle_beta 50.280819
_cell_angle_gamma 150.575730
_cell_volume 727.713449
_symmetry_space_group_name_H-M "P -1"
_symmetry_group_IT_number 2
_symmetry_cell_setting 'triclinic'
loop_
_space_group_symop_operation_xyz
x,y,z
-x,-y,-z
loop_
_atom_site_type_symbol
_atom_site_label
_atom_site_fract_x
_atom_site_fract_y
_atom_site_fract_z
Si Si1 0.288861 0.898012 0.039655
Si Si2 0.081611 0.911642 0.397902
Si Si3 0.426830 0.986658 0.306964
Si Si4 0.217683 0.804869 0.888584
Si Si5 0.330772 0.828914 0.603795
Si Si6 0.302343 0.242591 0.221791
Si Si7 0.931974 0.694473 0.748123
Si Si8 0.847570 0.935728 0.116150
O O1 0.063976 0.520959 0.047457
O O2 0.228568 0.004438 0.141696
O O3 0.348853 0.016736 0.957041
O O4 0.500000 0.000000 0.000000
O O5 0.848394 0.533528 0.396558
O O6 0.284847 0.024370 0.385300
O O7 0.000000 0.000000 0.500000
O O8 0.212228 0.102400 0.309918
O O9 0.268493 0.676177 0.252983
O O10 0.667213 0.256366 0.212700
O O11 0.488061 0.977568 0.358934
O O12 0.255823 0.988596 0.851156
O O13 0.194254 0.874607 0.664949
O O14 0.500000 0.000000 0.500000
O O15 0.145403 0.249608 0.268508
O O16 0.600772 0.573246 0.166572
O O17 0.953858 0.823572 0.847707
O O18 0.000000 0.000000 0.000000
#
# Coordination Sequence:
#
# PCOD8032319 Si02
#       8
#     2   2   2   2   2   2   2   2
#     4  11  25  41  67  99 143 185 231 294 354 420
#     4  11  29  46  73 108 145 182 233 299 365 415
#     4  11  24  47  73 100 141 186 235 289 352 432
#     4  11  23  42  66 100 134 186 236 276 356 427
#     4  11  26  48  78 104 135 193 239 289 360 432
#     4  12  26  45  68 107 145 183 237 298 354 413
#     4  11  25  44  73 103 146 183 236 295 350 424
#     4  12  26  42  71 105 143 189 240 284 353 421
#
# _framework density 21.986677
#
# number of rings (size 3 to 8) (size 9 to 14) (size 15 to 20)
#    0.000    0.750    2.500    3.000   10.500    6.500 
#    0.000    0.000    0.000    0.000    0.000    0.000 
#    0.000    0.000    0.000    0.000    0.000    0.000 
#
# Total GULP energy -198333.947002 kJ/mol
# GULP energy per Si atom -12395.871688 kJ/mol
# Density = 2.193663 g / cm^3
# Si number density = 21.986677 Si / 1000 Ang^3
#
#
#
# Elastic Constant Matrix: (Units=GPa)
#
#
# Indices 1 2 3 4 5 6 
#
# 1 134.8071 46.1831 61.9765 -8.5415 -5.8956 14.8259
# 2 46.1831 94.6361 51.0657 -4.9675 10.2138 6.7802
# 3 61.9765 51.0657 169.6899 -5.6993 2.6461 7.1109
# 4 -8.5415 -4.9675 -5.6993 37.5377 -3.8690 1.9062
# 5 -5.8956 10.2138 2.6461 -3.8690 48.8232 1.5707
# 6 14.8259 6.7802 7.1109 1.9062 1.5707 36.6546
#
#
#
# Elastic Compliance Matrix: (Units=1/GPa)
#
#
# Indices 1 2 3 4 5 6 
#
# 1 0.010420 -0.003637 -0.002548 0.001917 0.002414 -0.003251
# 2 -0.003637 0.014305 -0.002895 0.000318 -0.003234 -0.000491
# 3 -0.002548 -0.002895 0.007700 0.000192 -0.000106 0.000067
# 4 0.001917 0.000318 0.000192 0.027518 0.002413 -0.002406
# 5 0.002414 -0.003234 -0.000106 0.002413 0.021692 -0.001413
# 6 -0.003251 -0.000491 0.000067 -0.002406 -0.001413 0.028860
#
#
# Mechanical properties :
#
#
# Convention : Reuss Voigt Hill
#
# Bulk Modulus (GPa) = 70.10250 79.73153 74.91702
# Shear Modulus (GPa) = 37.47835 40.59693 39.03764
#
# Velocity S-wave (km/s) = 4.13315 4.30168 4.21826
# Velocity P-wave (km/s) = 7.39801 7.81120 7.60741
#
# Compressibility (1/GPa) = 0.01426483
#
# Stress axis : x y z
#
# Youngs Moduli (GPa) = 95.96876 69.90788 129.86605
#
# Poissons Ratio (x) = 0.25426 0.33094
# Poissons Ratio (y) = 0.34904 0.37592
# Poissons Ratio (z) = 0.24456 0.20236
#
# Static dielectric constant tensor:
#      x y z
#    x 4.226860 0.165900 -0.106400 
#    y 0.165900 4.006040 -0.006500 
#    z -0.106400 -0.006500 4.121040 
# 
# 
# High freq. dielectric constant tensor:
#      x y z
#    x 1.876440 0.013160 -0.005670 
#    y 0.013160 1.863610 -0.002130 
#    z -0.005670 -0.002130 1.878550 
# 
# From -- ./inp_files/99804.got.cif
#   From: 2010.06.25/outbox.cif.g09.slc.cpg/sg2_50_cif.got.tgz:99804.got - 2010.06.27 13:26:56.
