data_PCOD8032943
_publ_section_title
;
Structure prediction by ZEFSAII (Michael W. Deem and Ramdas Pophale) SiO2 
 PCOD8032943
Probable space group: P -1
;
_chemical_formula_sum "Si O2"
_cell_formula_units_Z 14
_cell_length_a 5.449085
_cell_length_b 27.143322
_cell_length_c 6.201847
_cell_angle_alpha 132.828466
_cell_angle_beta 77.452160
_cell_angle_gamma 119.467427
_cell_volume 575.762511
_symmetry_space_group_name_H-M "P -1"
_symmetry_group_IT_number 2
_symmetry_cell_setting 'triclinic'
loop_
_space_group_symop_operation_xyz
x,y,z
-x,-y,-z
loop_
_atom_site_type_symbol
_atom_site_label
_atom_site_fract_x
_atom_site_fract_y
_atom_site_fract_z
Si Si1 0.281326 0.796827 0.181311
Si Si2 0.706930 0.397382 0.698241
Si Si3 0.692996 0.523787 0.324078
Si Si4 0.732650 0.681558 0.759733
Si Si5 0.317921 0.915311 0.868046
Si Si6 0.594900 0.290482 0.752243
Si Si7 0.323216 0.140937 0.085677
O O1 0.236675 0.858006 0.509797
O O2 0.243570 0.727819 0.141250
O O3 0.583784 0.839534 0.125251
O O4 0.048198 0.755105 0.908087
O O5 0.472838 0.317680 0.390065
O O6 0.808007 0.362439 0.775846
O O7 0.964120 0.448113 0.632149
O O8 0.577654 0.452220 0.968750
O O9 0.500000 0.500000 0.500000
O O10 0.698579 0.599490 0.459112
O O11 0.619149 0.682471 0.022765
O O12 0.512440 0.902330 0.971205
O O13 0.022898 0.908252 0.000417
O O14 0.500000 0.000000 0.000000
O O15 0.400740 0.214725 0.432232
#
# Coordination Sequence:
#
# PCOD8032943 Si02
#       7
#     2   2   2   2   2   2   2
#     4  11  27  46  73 106 146 189 242 299 368 435
#     4  11  26  45  70  99 137 181 242 301 366 432
#     4  11  24  47  66  99 135 186 235 301 367 439
#     4  12  23  44  70  99 139 182 240 299 372 425
#     4  11  26  48  75 114 154 194 245 300 359 440
#     4  11  23  44  69 102 141 184 244 297 364 432
#     4  11  25  45  77 108 150 197 245 298 368 429
#
# _framework density 24.315581000000002
#
# number of rings (size 3 to 8) (size 9 to 14) (size 15 to 20)
#    0.000    0.857    2.857    3.429    4.000    2.857 
#   10.286    0.000    0.000    0.000    0.000    0.000 
#    0.000    0.000    0.000    0.000    0.000    0.000 
#
# Total GULP energy -173439.011423 kJ/mol
# GULP energy per Si atom -12388.500816 kJ/mol
# Density = 2.426024 g / cm^3
# Si number density = 24.315581 Si / 1000 Ang^3
#
#
#
# Elastic Constant Matrix: (Units=GPa)
#
#
# Indices 1 2 3 4 5 6 
#
# 1 127.6159 68.4685 40.7560 -7.6451 -4.9961 19.9680
# 2 68.4685 151.5639 56.0590 -1.8484 -8.4360 14.2888
# 3 40.7560 56.0590 73.4315 0.7546 -6.1144 0.8779
# 4 -7.6451 -1.8484 0.7546 36.3961 6.5914 -11.0494
# 5 -4.9961 -8.4360 -6.1144 6.5914 32.0658 -0.3406
# 6 19.9680 14.2888 0.8779 -11.0494 -0.3406 46.6556
#
#
#
# Elastic Compliance Matrix: (Units=1/GPa)
#
#
# Indices 1 2 3 4 5 6 
#
# 1 0.011510 -0.003493 -0.003704 0.001284 -0.000133 -0.003484
# 2 -0.003493 0.010649 -0.006056 -0.000856 0.001259 -0.001846
# 3 -0.003704 -0.006056 0.020437 -0.001005 0.001963 0.002832
# 4 0.001284 -0.000856 -0.001005 0.031039 -0.006523 0.007035
# 5 -0.000133 0.001259 0.001963 -0.006523 0.033194 -0.001668
# 6 -0.003484 -0.001846 0.002832 0.007035 -0.001668 0.025091
#
#
# Mechanical properties :
#
#
# Convention : Reuss Voigt Hill
#
# Bulk Modulus (GPa) = 62.14761 75.90869 69.02815
# Shear Modulus (GPa) = 30.52715 35.51201 33.01958
#
# Velocity S-wave (km/s) = 3.54709 3.82575 3.68905
# Velocity P-wave (km/s) = 6.51076 7.12748 6.82609
#
# Compressibility (1/GPa) = 0.01609072
#
# Stress axis : x y z
#
# Youngs Moduli (GPa) = 86.88311 93.90435 48.93080
#
# Poissons Ratio (x) = 0.32798 0.18126
# Poissons Ratio (y) = 0.30345 0.29630
# Poissons Ratio (z) = 0.32185 0.56864
#
# Static dielectric constant tensor:
#      x y z
#    x 4.556030 -0.014190 -0.184230 
#    y -0.014190 4.329570 0.000640 
#    z -0.184230 0.000640 4.451320 
# 
# 
# High freq. dielectric constant tensor:
#      x y z
#    x 1.962480 0.004060 -0.017730 
#    y 0.004060 1.961900 -0.002560 
#    z -0.017730 -0.002560 1.973580 
# 
# From -- ./inp_files/8072.got.cif
#   From: 2010.06.25/outbox.cif.g09.slc.cpg/sg2_5_cif.got.tgz:8072.got - 2010.06.27 13:26:56.
