data_PCOD8032026
_publ_section_title
;
Structure prediction by ZEFSAII (Michael W. Deem and Ramdas Pophale) SiO2 
 PCOD8032026
Probable space group: P -1
;
_chemical_formula_sum "Si O2"
_cell_formula_units_Z 16
_cell_length_a 8.139680
_cell_length_b 11.846812
_cell_length_c 14.695601
_cell_angle_alpha 68.879919
_cell_angle_beta 100.418983
_cell_angle_gamma 146.452979
_cell_volume 710.622343
_symmetry_space_group_name_H-M "P -1"
_symmetry_group_IT_number 2
_symmetry_cell_setting 'triclinic'
loop_
_space_group_symop_operation_xyz
x,y,z
-x,-y,-z
loop_
_atom_site_type_symbol
_atom_site_label
_atom_site_fract_x
_atom_site_fract_y
_atom_site_fract_z
Si Si1 0.436923 0.750441 0.393365
Si Si2 0.205039 0.223351 0.693930
Si Si3 0.655162 0.047446 0.090630
Si Si4 0.256375 0.831946 0.743084
Si Si5 0.476750 0.243830 0.248599
Si Si6 0.815750 0.513233 0.378425
Si Si7 0.658386 0.470955 0.015003
Si Si8 0.558519 0.344165 0.845417
O O1 0.538154 0.691721 0.364751
O O2 0.384161 0.680546 0.512154
O O3 0.132342 0.632733 0.357937
O O4 0.709379 0.014724 0.343008
O O5 0.141061 0.322943 0.628119
O O6 0.330090 0.302474 0.787772
O O7 0.886741 0.956557 0.732575
O O8 0.554816 0.849254 0.154329
O O9 0.576841 0.069146 0.169792
O O10 0.500000 0.000000 0.000000
O O11 0.005533 0.282978 0.042285
O O12 0.439263 0.845120 0.698238
O O13 0.902624 0.583301 0.783064
O O14 0.624405 0.409628 0.296380
O O15 0.629944 0.372936 0.130251
O O16 0.500000 0.500000 0.000000
O O17 0.520383 0.315976 0.959001
#
# Coordination Sequence:
#
# PCOD8032026 Si02
#       8
#     2   2   2   2   2   2   2   2
#     4  11  25  50  73  99 141 178 231 285 352 412
#     4  12  25  46  73 103 138 181 233 282 346 408
#     4  11  23  40  66  96 132 185 231 275 340 401
#     4  11  24  44  67 103 137 180 229 283 342 415
#     4  12  26  43  70 105 139 179 233 282 343 409
#     4  11  27  49  71 104 136 181 228 291 347 409
#     4  11  25  40  61  98 140 179 231 280 334 408
#     4  11  24  42  68  97 139 188 225 280 343 403
#
# _framework density 22.515474999999999
#
# number of rings (size 3 to 8) (size 9 to 14) (size 15 to 20)
#    0.000    0.750    2.500    4.125    5.250    7.000 
#    2.250    0.000    0.000    0.000    0.000    0.000 
#    0.000    0.000    0.000    0.000    0.000    0.000 
#
# Total GULP energy -198352.819417 kJ/mol
# GULP energy per Si atom -12397.051214 kJ/mol
# Density = 2.246423 g / cm^3
# Si number density = 22.515475 Si / 1000 Ang^3
#
#
#
# Elastic Constant Matrix: (Units=GPa)
#
#
# Indices 1 2 3 4 5 6 
#
# 1 119.1389 36.6173 22.2322 -3.8490 -3.7045 -7.4572
# 2 36.6173 99.7360 40.6172 7.7656 -7.5083 -4.8066
# 3 22.2322 40.6172 107.7138 -8.5529 -2.2346 1.7095
# 4 -3.8490 7.7656 -8.5529 27.4267 -0.8281 8.5953
# 5 -3.7045 -7.5083 -2.2346 -0.8281 31.7933 -1.9678
# 6 -7.4572 -4.8066 1.7095 8.5953 -1.9678 30.5635
#
#
#
# Elastic Compliance Matrix: (Units=1/GPa)
#
#
# Indices 1 2 3 4 5 6 
#
# 1 0.009691 -0.003333 -0.000625 0.001673 0.000431 0.001433
# 2 -0.003333 0.014391 -0.005332 -0.007376 0.002691 0.003996
# 3 -0.000625 -0.005332 0.011960 0.006214 -0.000543 -0.003442
# 4 0.001673 -0.007376 0.006214 0.045027 -0.000792 -0.013813
# 5 0.000431 0.002691 -0.000543 -0.000792 0.032257 0.002858
# 6 0.001433 0.003996 -0.003442 -0.013813 0.002858 0.037958
#
#
# Mechanical properties :
#
#
# Convention : Reuss Voigt Hill
#
# Bulk Modulus (GPa) = 57.26017 58.39133 57.82575
# Shear Modulus (GPa) = 28.46015 33.09817 30.77916
#
# Velocity S-wave (km/s) = 3.55917 3.83824 3.70134
# Velocity P-wave (km/s) = 6.50976 6.75522 6.63362
#
# Compressibility (1/GPa) = 0.01746415
#
# Stress axis : x y z
#
# Youngs Moduli (GPa) = 103.18322 69.48846 83.61054
#
# Poissons Ratio (x) = 0.23157 0.05223
# Poissons Ratio (y) = 0.34386 0.44581
# Poissons Ratio (z) = 0.06445 0.37051
#
# Static dielectric constant tensor:
#      x y z
#    x 4.209970 -0.233390 0.092110 
#    y -0.233390 4.411020 0.116990 
#    z 0.092110 0.116990 4.479720 
# 
# 
# High freq. dielectric constant tensor:
#      x y z
#    x 1.892150 -0.003920 0.002850 
#    y -0.003920 1.896970 -0.005440 
#    z 0.002850 -0.005440 1.889530 
# 
# From -- ./inp_files/46613.got.cif
#   From: 2010.06.25/outbox.cif.g09.slc.cpg/sg2_24_cif.got.tgz:46613.got - 2010.06.27 13:26:56.
