data_PCOD8032328
_publ_section_title
;
Structure prediction by ZEFSAII (Michael W. Deem and Ramdas Pophale) SiO2 
 PCOD8032328
Probable space group: P -1
;
_chemical_formula_sum "Si O2"
_cell_formula_units_Z 16
_cell_length_a 26.183930
_cell_length_b 16.743208
_cell_length_c 14.286693
_cell_angle_alpha 23.410288
_cell_angle_beta 19.866486
_cell_angle_gamma 21.774546
_cell_volume 739.207790
_symmetry_space_group_name_H-M "P -1"
_symmetry_group_IT_number 2
_symmetry_cell_setting 'triclinic'
loop_
_space_group_symop_operation_xyz
x,y,z
-x,-y,-z
loop_
_atom_site_type_symbol
_atom_site_label
_atom_site_fract_x
_atom_site_fract_y
_atom_site_fract_z
Si Si1 0.730185 0.628344 0.370393
Si Si2 0.274191 0.209956 0.326604
Si Si3 0.434370 0.704240 0.661834
Si Si4 0.449879 0.640268 0.339709
Si Si5 0.201906 0.632370 0.285616
Si Si6 0.985103 0.782462 0.788900
Si Si7 0.985254 0.514111 0.370472
Si Si8 0.936975 0.149363 0.222116
O O1 0.572193 0.725403 0.467633
O O2 0.686237 0.543751 0.635077
O O3 0.895912 0.413179 0.276160
O O4 0.789076 0.822503 0.076889
O O5 0.172965 0.395485 0.382112
O O6 0.151319 0.284002 0.367960
O O7 0.312660 0.955412 0.559902
O O8 0.448475 0.217450 0.997710
O O9 0.520150 0.527056 0.619855
O O10 0.327540 0.621747 0.998617
O O11 0.500000 0.500000 0.500000
O O12 0.249657 0.832205 0.482457
O O13 0.072344 0.549283 0.558593
O O14 0.088281 0.888589 0.245205
O O15 0.052280 0.717728 0.847965
O O16 0.000000 0.000000 0.500000
O O17 0.036723 0.714725 0.055478
#
# Coordination Sequence:
#
# PCOD8032328 Si02
#       8
#     2   2   2   2   2   2   2   2
#     4  11  25  42  67 102 140 174 227 283 337 408
#     4  11  26  45  71  99 138 181 229 283 346 401
#     4  12  27  45  69 103 138 179 229 285 344 401
#     4  12  27  45  67 103 144 175 225 287 344 402
#     4  12  25  45  73  99 135 186 230 276 345 409
#     4  11  23  42  66  99 136 181 222 277 341 404
#     4  11  24  46  70 101 135 180 233 284 333 414
#     4  12  24  44  71 100 136 182 228 278 344 409
#
# _framework density 21.644793
#
# number of rings (size 3 to 8) (size 9 to 14) (size 15 to 20)
#    0.000    0.500    7.500    0.375    3.500    2.000 
#    0.000    1.250    0.000    0.000    0.000    0.000 
#    0.000    0.000    0.000    0.000    0.000    0.000 
#
# Total GULP energy -198429.068210 kJ/mol
# GULP energy per Si atom -12401.816763 kJ/mol
# Density = 2.159553 g / cm^3
# Si number density = 21.644793 Si / 1000 Ang^3
#
#
#
# Elastic Constant Matrix: (Units=GPa)
#
#
# Indices 1 2 3 4 5 6 
#
# 1 91.8232 14.5224 19.0182 6.1890 6.5504 -3.7497
# 2 14.5224 54.2442 30.0710 -0.6992 2.9053 -13.2835
# 3 19.0182 30.0710 128.8597 7.0526 6.5294 -1.5783
# 4 6.1890 -0.6992 7.0526 36.0095 -4.8304 0.0525
# 5 6.5504 2.9053 6.5294 -4.8304 33.0712 -0.1295
# 6 -3.7497 -13.2835 -1.5783 0.0525 -0.1295 27.3841
#
#
#
# Elastic Compliance Matrix: (Units=1/GPa)
#
#
# Indices 1 2 3 4 5 6 
#
# 1 0.011796 -0.002463 -0.000927 -0.002197 -0.002256 0.000360
# 2 -0.002463 0.024933 -0.005403 0.001907 -0.000312 0.011441
# 3 -0.000927 -0.005403 0.009313 -0.001964 -0.001476 -0.002214
# 4 -0.002197 0.001907 -0.001964 0.029230 0.004927 0.000478
# 5 -0.002256 -0.000312 -0.001476 0.004927 0.031722 -0.000405
# 6 0.000360 0.011441 -0.002214 0.000478 -0.000405 0.041986
#
#
# Mechanical properties :
#
#
# Convention : Reuss Voigt Hill
#
# Bulk Modulus (GPa) = 35.14347 44.68335 39.91341
# Shear Modulus (GPa) = 28.40071 33.38065 30.89068
#
# Velocity S-wave (km/s) = 3.62626 3.93135 3.78188
# Velocity P-wave (km/s) = 5.81418 6.42620 6.12784
#
# Compressibility (1/GPa) = 0.02845479
#
# Stress axis : x y z
#
# Youngs Moduli (GPa) = 84.77559 40.10761 107.37312
#
# Poissons Ratio (x) = 0.09880 0.09955
# Poissons Ratio (y) = 0.20882 0.58017
# Poissons Ratio (z) = 0.07860 0.21671
#
# Static dielectric constant tensor:
#      x y z
#    x 5.355900 0.622330 -1.018890 
#    y 0.622330 3.968960 -0.526040 
#    z -1.018890 -0.526040 5.241770 
# 
# 
# High freq. dielectric constant tensor:
#      x y z
#    x 1.863880 -0.004360 0.005310 
#    y -0.004360 1.832040 0.003400 
#    z 0.005310 0.003400 1.868820 
# 
# From -- ./inp_files/241995.got.cif
#   From: 2010.06.25/outbox.cif.g09.slc.cpg/sg2_121_cif.got.tgz:241995.got - 2010.06.27 13:26:56.
