data_PCOD8032096
_publ_section_title
;
Structure prediction by ZEFSAII (Michael W. Deem and Ramdas Pophale) SiO2 
 PCOD8032096
Probable space group: P -1
;
_chemical_formula_sum "Si O2"
_cell_formula_units_Z 16
_cell_length_a 29.373771
_cell_length_b 5.987352
_cell_length_c 11.862128
_cell_angle_alpha 101.781072
_cell_angle_beta 159.569330
_cell_angle_gamma 75.960616
_cell_volume 704.832875
_symmetry_space_group_name_H-M "P -1"
_symmetry_group_IT_number 2
_symmetry_cell_setting 'triclinic'
loop_
_space_group_symop_operation_xyz
x,y,z
-x,-y,-z
loop_
_atom_site_type_symbol
_atom_site_label
_atom_site_fract_x
_atom_site_fract_y
_atom_site_fract_z
Si Si1 0.846312 0.083791 0.273811
Si Si2 0.433713 0.861198 0.664964
Si Si3 0.045588 0.107833 0.277180
Si Si4 0.906449 0.733220 0.822495
Si Si5 0.631877 0.707798 0.291339
Si Si6 0.934713 0.684746 0.277716
Si Si7 0.549143 0.218801 0.565564
Si Si8 0.774105 0.383731 0.745642
O O1 0.949233 0.268997 0.534334
O O2 0.867344 0.909333 0.410248
O O3 0.870785 0.929123 0.203900
O O4 0.700145 0.217271 0.947927
O O5 0.473378 0.846055 0.624110
O O6 0.288049 0.787594 0.332834
O O7 0.433432 0.111125 0.746909
O O8 0.542289 0.690389 0.971607
O O9 0.135059 0.176287 0.389923
O O10 0.910123 0.280904 0.992985
O O11 0.007748 0.863199 0.136599
O O12 0.774918 0.759623 0.592283
O O13 0.000000 0.500000 0.000000
O O14 0.662021 0.459838 0.398007
O O15 0.000000 0.500000 0.500000
O O16 0.809008 0.602354 0.918361
O O17 0.500000 0.500000 0.500000
O O18 0.500000 0.000000 0.500000
#
# Coordination Sequence:
#
# PCOD8032096 Si02
#       8
#     2   2   2   2   2   2   2   2
#     4  11  26  45  70 109 139 191 250 301 389 453
#     4  11  27  48  74 104 145 198 263 309 372 465
#     4  11  24  39  66 103 144 178 233 299 373 448
#     4  11  23  42  64 102 143 186 227 300 367 445
#     4  11  24  45  75 102 146 197 252 306 382 440
#     4  11  23  40  76 105 143 183 241 321 372 450
#     4  12  32  55  78 110 157 210 259 322 387 460
#     4  12  22  42  72 109 146 184 246 310 379 448
#
# _framework density 22.700416000000001
#
# number of rings (size 3 to 8) (size 9 to 14) (size 15 to 20)
#    0.000    0.750    3.750    2.625    8.750    1.000 
#    0.000    0.000    0.000    0.000    0.000    0.000 
#    0.000    0.000    0.000    0.000    0.000    0.000 
#
# Total GULP energy -198209.042020 kJ/mol
# GULP energy per Si atom -12388.065126 kJ/mol
# Density = 2.264875 g / cm^3
# Si number density = 22.700416 Si / 1000 Ang^3
#
#
#
# Elastic Constant Matrix: (Units=GPa)
#
#
# Indices 1 2 3 4 5 6 
#
# 1 122.8428 28.5443 26.7117 0.9826 -7.6563 -1.3972
# 2 28.5443 84.9036 23.0556 -2.1698 4.8816 -4.9710
# 3 26.7117 23.0556 83.4240 -19.3550 -11.3889 -0.6558
# 4 0.9826 -2.1698 -19.3550 40.4792 -0.3967 6.8561
# 5 -7.6563 4.8816 -11.3889 -0.3967 34.6563 2.1383
# 6 -1.3972 -4.9710 -0.6558 6.8561 2.1383 33.2714
#
#
#
# Elastic Compliance Matrix: (Units=1/GPa)
#
#
# Indices 1 2 3 4 5 6 
#
# 1 0.009391 -0.002624 -0.002415 -0.001536 0.001623 0.000167
# 2 -0.002624 0.014065 -0.003930 -0.001522 -0.004023 0.002486
# 3 -0.002415 -0.003930 0.016508 0.008207 0.005688 -0.002420
# 4 -0.001536 -0.001522 0.008207 0.029711 0.003311 -0.006465
# 5 0.001623 -0.004023 0.005688 0.003311 0.031882 -0.003152
# 6 0.000167 0.002486 -0.002420 -0.006465 -0.003152 0.031921
#
#
# Mechanical properties :
#
#
# Convention : Reuss Voigt Hill
#
# Bulk Modulus (GPa) = 45.40073 49.75485 47.57779
# Shear Modulus (GPa) = 31.49446 35.87196 33.68321
#
# Velocity S-wave (km/s) = 3.72882 3.97953 3.85621
# Velocity P-wave (km/s) = 6.21145 6.56362 6.38996
#
# Compressibility (1/GPa) = 0.02202608
#
# Stress axis : x y z
#
# Youngs Moduli (GPa) = 106.48842 71.09667 60.57724
#
# Poissons Ratio (x) = 0.18656 0.14630
# Poissons Ratio (y) = 0.27943 0.23805
# Poissons Ratio (z) = 0.25718 0.27939
#
# Static dielectric constant tensor:
#      x y z
#    x 4.698640 0.012870 -0.083130 
#    y 0.012870 4.488580 0.085130 
#    z -0.083130 0.085130 4.100280 
# 
# 
# High freq. dielectric constant tensor:
#      x y z
#    x 1.902890 0.007480 -0.006660 
#    y 0.007480 1.903870 -0.006810 
#    z -0.006660 -0.006810 1.895830 
# 
# From -- ./inp_files/84539.got.cif
#   From: 2010.06.25/outbox.cif.g09.slc.cpg/sg2_43_cif.got.tgz:84539.got - 2010.06.27 13:26:56.
