data_PCOD8032772
_publ_section_title
;
Structure prediction by ZEFSAII (Michael W. Deem and Ramdas Pophale) SiO2 
 PCOD8032772
Probable space group: P -1
;
_chemical_formula_sum "Si O2"
_cell_formula_units_Z 16
_cell_length_a 11.629403
_cell_length_b 11.770433
_cell_length_c 9.797570
_cell_angle_alpha 126.661108
_cell_angle_beta 50.598923
_cell_angle_gamma 93.214579
_cell_volume 709.595955
_symmetry_space_group_name_H-M "P -1"
_symmetry_group_IT_number 2
_symmetry_cell_setting 'triclinic'
loop_
_space_group_symop_operation_xyz
x,y,z
-x,-y,-z
loop_
_atom_site_type_symbol
_atom_site_label
_atom_site_fract_x
_atom_site_fract_y
_atom_site_fract_z
Si Si1 0.224706 0.626115 0.517704
Si Si2 0.588441 0.754520 0.877977
Si Si3 0.706895 0.997560 0.537974
Si Si4 0.864285 0.844589 0.835309
Si Si5 0.664031 0.118886 0.381185
Si Si6 0.637804 0.739633 0.507705
Si Si7 0.063376 0.945164 0.262867
Si Si8 0.292105 0.593552 0.744701
O O1 0.359623 0.430859 0.253455
O O2 0.303760 0.736500 0.488316
O O3 0.186643 0.660423 0.731650
O O4 0.049550 0.676880 0.602450
O O5 0.717932 0.799637 0.887069
O O6 0.586883 0.779797 0.734494
O O7 0.394723 0.876076 0.170250
O O8 0.596494 0.066796 0.529250
O O9 0.748369 0.817066 0.425253
O O10 0.890934 0.973942 0.337394
O O11 0.872607 0.939553 0.764500
O O12 0.831576 0.956374 0.074834
O O13 0.534906 0.180615 0.394973
O O14 0.748294 0.541270 0.257771
O O15 0.222082 0.753020 0.008044
O O16 0.000000 0.000000 0.500000
O O17 0.500000 0.500000 0.500000
#
# Coordination Sequence:
#
# PCOD8032772 Si02
#       8
#     2   2   2   2   2   2   2   2
#     4  11  23  43  72 103 132 189 240 285 347 426
#     4  11  27  43  74 101 147 186 237 291 360 417
#     4  12  26  44  67 112 139 183 238 301 347 417
#     4  12  23  48  69  99 142 193 233 288 356 432
#     4  12  23  43  73 101 136 188 240 284 356 423
#     4  11  24  44  73  99 142 191 237 283 361 427
#     4  12  27  42  72 106 145 183 243 294 351 415
#     4  11  23  44  72 102 135 189 237 282 351 432
#
# _framework density 22.548043
#
# number of rings (size 3 to 8) (size 9 to 14) (size 15 to 20)
#    0.000    0.500    5.000    3.000    5.250    1.000 
#    2.250    1.250    0.000    0.000    0.000    0.000 
#    0.000    0.000    0.000    0.000    0.000    0.000 
#
# Total GULP energy -198369.110844 kJ/mol
# GULP energy per Si atom -12398.069428 kJ/mol
# Density = 2.249672 g / cm^3
# Si number density = 22.548043 Si / 1000 Ang^3
#
#
#
# Elastic Constant Matrix: (Units=GPa)
#
#
# Indices 1 2 3 4 5 6 
#
# 1 71.7224 19.0564 21.5914 6.5154 4.9939 -2.4213
# 2 19.0564 145.6935 50.1842 10.2975 24.2512 -7.3553
# 3 21.5914 50.1842 101.5122 9.8794 11.5768 -4.2332
# 4 6.5154 10.2975 9.8794 34.9717 -5.4910 5.9956
# 5 4.9939 24.2512 11.5768 -5.4910 29.1919 -1.1387
# 6 -2.4213 -7.3553 -4.2332 5.9956 -1.1387 42.2920
#
#
#
# Elastic Compliance Matrix: (Units=1/GPa)
#
#
# Indices 1 2 3 4 5 6 
#
# 1 0.015206 -0.000696 -0.002470 -0.002292 -0.001444 0.000788
# 2 -0.000696 0.009602 -0.003433 -0.003093 -0.007018 0.001536
# 3 -0.002470 -0.003433 0.012607 -0.002574 -0.002177 0.000830
# 4 -0.002292 -0.003093 -0.002574 0.033149 0.010009 -0.005357
# 5 -0.001444 -0.007018 -0.002177 0.010009 0.043010 -0.001782
# 6 0.000788 0.001536 0.000830 -0.005357 -0.001782 0.024752
#
#
# Mechanical properties :
#
#
# Convention : Reuss Voigt Hill
#
# Bulk Modulus (GPa) = 41.29303 55.62134 48.45718
# Shear Modulus (GPa) = 31.32905 36.49754 33.91329
#
# Velocity S-wave (km/s) = 3.73156 4.02762 3.88241
# Velocity P-wave (km/s) = 6.07611 6.80811 6.45250
#
# Compressibility (1/GPa) = 0.02421716
#
# Stress axis : x y z
#
# Youngs Moduli (GPa) = 65.76155 104.14894 79.32095
#
# Poissons Ratio (x) = 0.07250 0.19589
# Poissons Ratio (y) = 0.04578 0.27233
# Poissons Ratio (z) = 0.16240 0.35757
#
# Static dielectric constant tensor:
#      x y z
#    x 4.867250 0.119720 -0.264970 
#    y 0.119720 4.497870 0.209060 
#    z -0.264970 0.209060 4.062410 
# 
# 
# High freq. dielectric constant tensor:
#      x y z
#    x 1.898420 -0.005150 0.006790 
#    y -0.005150 1.907710 0.009970 
#    z 0.006790 0.009970 1.867780 
# 
# From -- ./inp_files/262930.got.cif
#   From: 2010.06.25/outbox.cif.g09.slc.cpg/sg2_132_cif.got.tgz:262930.got - 2010.06.27 13:26:56.
