data_PCOD8032550
_publ_section_title
;
Structure prediction by ZEFSAII (Michael W. Deem and Ramdas Pophale) SiO2 
 PCOD8032550
Probable space group: P -1
;
_chemical_formula_sum "Si O2"
_cell_formula_units_Z 12
_cell_length_a 14.530930
_cell_length_b 9.571871
_cell_length_c 11.945990
_cell_angle_alpha 67.742447
_cell_angle_beta 159.476550
_cell_angle_gamma 114.592504
_cell_volume 529.368230
_symmetry_space_group_name_H-M "P -1"
_symmetry_group_IT_number 2
_symmetry_cell_setting 'triclinic'
loop_
_space_group_symop_operation_xyz
x,y,z
-x,-y,-z
loop_
_atom_site_type_symbol
_atom_site_label
_atom_site_fract_x
_atom_site_fract_y
_atom_site_fract_z
Si Si1 0.089721 0.826132 0.777437
Si Si2 0.189650 0.404361 0.306153
Si Si3 0.435176 0.308795 0.286098
Si Si4 0.817550 0.201025 0.582421
Si Si5 0.776946 0.088858 0.334239
Si Si6 0.616099 0.863828 0.505337
O O1 0.081436 0.809225 0.638446
O O2 0.935350 0.664445 0.698239
O O3 0.388180 0.866832 0.152961
O O4 0.950646 0.966960 0.613617
O O5 0.472256 0.516339 0.617554
O O6 0.212979 0.264314 0.293751
O O7 0.000000 0.500000 0.000000
O O8 0.607179 0.287015 0.378654
O O9 0.499551 0.184847 0.488373
O O10 0.121095 0.290541 0.911277
O O11 0.738514 0.196376 0.362417
O O12 0.802040 0.031412 0.668617
O O13 0.500000 0.000000 0.000000
#
# Coordination Sequence:
#
# PCOD8032550 Si02
#       6
#     2   2   2   2   2   2
#     4  11  23  42  77 103 134 186 260 290 342 414
#     4  12  25  45  72 106 149 194 237 286 362 447
#     4  12  28  43  70 111 158 179 230 306 379 424
#     4  12  26  46  71 109 144 192 237 306 365 413
#     4  11  23  45  74 103 136 189 258 299 334 431
#     4  12  24  45  74 105 142 196 246 289 351 443
#
# _framework density 22.668533
#
# number of rings (size 3 to 8) (size 9 to 14) (size 15 to 20)
#    0.000    0.333    5.000    3.500    4.667    0.000 
#    0.000    1.667    0.000    0.000    0.000    0.000 
#    0.000    0.000    0.000    0.000    0.000    0.000 
#
# Total GULP energy -148854.719647 kJ/mol
# GULP energy per Si atom -12404.559971 kJ/mol
# Density = 2.261694 g / cm^3
# Si number density = 22.668533 Si / 1000 Ang^3
#
#
#
# Elastic Constant Matrix: (Units=GPa)
#
#
# Indices 1 2 3 4 5 6 
#
# 1 126.4266 15.8564 19.4674 1.1813 -1.6403 8.4179
# 2 15.8564 54.7689 15.6221 18.0688 10.0920 17.3030
# 3 19.4674 15.6221 101.7617 4.3421 10.1596 9.0967
# 4 1.1813 18.0688 4.3421 44.1818 4.0610 3.4519
# 5 -1.6403 10.0920 10.1596 4.0610 41.3619 -4.0595
# 6 8.4179 17.3030 9.0967 3.4519 -4.0595 45.8956
#
#
#
# Elastic Compliance Matrix: (Units=1/GPa)
#
#
# Indices 1 2 3 4 5 6 
#
# 1 0.008455 -0.002443 -0.001364 0.000826 0.001154 -0.000319
# 2 -0.002443 0.026540 -0.001791 -0.009345 -0.006102 -0.009040
# 3 -0.001364 -0.001791 0.010727 0.000046 -0.002395 -0.001416
# 4 0.000826 -0.009345 0.000046 0.026336 -0.000150 0.001369
# 5 0.001154 -0.006102 -0.002395 -0.000150 0.026800 0.004945
# 6 -0.000319 -0.009040 -0.001416 0.001369 0.004945 0.025870
#
#
# Mechanical properties :
#
#
# Convention : Reuss Voigt Hill
#
# Bulk Modulus (GPa) = 28.96437 42.76101 35.86269
# Shear Modulus (GPa) = 33.91391 41.75528 37.83460
#
# Velocity S-wave (km/s) = 3.87211 4.29650 4.08982
# Velocity P-wave (km/s) = 5.72679 6.59680 6.17713
#
# Compressibility (1/GPa) = 0.03452517
#
# Stress axis : x y z
#
# Youngs Moduli (GPa) = 118.27733 37.67887 93.22629
#
# Poissons Ratio (x) = 0.09204 0.12719
# Poissons Ratio (y) = 0.28893 0.16696
# Poissons Ratio (z) = 0.16137 0.06748
#
# Static dielectric constant tensor:
#      x y z
#    x 4.651390 0.150540 -0.054100 
#    y 0.150540 4.062590 0.196940 
#    z -0.054100 0.196940 3.910920 
# 
# 
# High freq. dielectric constant tensor:
#      x y z
#    x 1.917100 0.007670 0.005830 
#    y 0.007670 1.876700 0.007710 
#    z 0.005830 0.007710 1.892320 
# 
# From -- ./inp_files/24195.got.cif
#   From: 2010.06.25/outbox.cif.g09.slc.cpg/sg2_13_cif.got.tgz:24195.got - 2010.06.27 13:26:56.
