data_PCOD8032536
_publ_section_title
;
Structure prediction by ZEFSAII (Michael W. Deem and Ramdas Pophale) SiO2 
 PCOD8032536
Probable space group: P -1
;
_chemical_formula_sum "Si O2"
_cell_formula_units_Z 16
_cell_length_a 12.258526
_cell_length_b 21.071906
_cell_length_c 9.084201
_cell_angle_alpha 138.181878
_cell_angle_beta 133.126290
_cell_angle_gamma 27.741677
_cell_volume 726.117851
_symmetry_space_group_name_H-M "P -1"
_symmetry_group_IT_number 2
_symmetry_cell_setting 'triclinic'
loop_
_space_group_symop_operation_xyz
x,y,z
-x,-y,-z
loop_
_atom_site_type_symbol
_atom_site_label
_atom_site_fract_x
_atom_site_fract_y
_atom_site_fract_z
Si Si1 0.613699 0.555680 0.324288
Si Si2 0.014772 0.401304 0.632173
Si Si3 0.732768 0.884975 0.801601
Si Si4 0.194450 0.152549 0.854280
Si Si5 0.131557 0.549727 0.099104
Si Si6 0.442083 0.628702 0.987126
Si Si7 0.027495 0.046756 0.960467
Si Si8 0.109448 0.873210 0.494971
O O1 0.797585 0.529124 0.539909
O O2 0.680146 0.413156 0.169811
O O3 0.343788 0.706196 0.373017
O O4 0.623897 0.570335 0.184226
O O5 0.916279 0.401130 0.689749
O O6 0.204730 0.242075 0.448672
O O7 0.137598 0.435973 0.863426
O O8 0.827080 0.925784 0.857332
O O9 0.456058 0.029277 0.820055
O O10 0.840700 0.830701 0.971966
O O11 0.062288 0.308053 0.937399
O O12 0.082814 0.111397 0.616339
O O13 0.395870 0.458042 0.157920
O O14 0.234686 0.806607 0.088921
O O15 0.000000 0.000000 0.000000
O O16 0.175205 0.902667 0.747299
O O17 0.000000 0.000000 0.500000
#
# Coordination Sequence:
#
# PCOD8032536 Si02
#       8
#     2   2   2   2   2   2   2   2
#     4  11  23  42  74  95 136 178 230 294 335 410
#     4  11  27  45  68 100 141 183 229 287 353 419
#     4  11  25  47  70 102 138 184 237 284 350 416
#     4  11  25  45  72 101 140 182 234 292 341 417
#     4  11  27  45  67 101 139 182 233 286 353 416
#     4  11  23  44  69 101 133 179 235 284 342 407
#     4  12  28  44  70 106 144 185 231 286 353 421
#     4  12  24  44  68 106 141 179 234 287 346 414
#
# _framework density 22.034990000000001
#
# number of rings (size 3 to 8) (size 9 to 14) (size 15 to 20)
#    0.000    0.750    5.000    0.750    7.000    4.000 
#    0.000    0.000    0.000    0.000    0.000    0.000 
#    0.000    0.000    0.000    0.000    0.000    0.000 
#
# Total GULP energy -198364.063822 kJ/mol
# GULP energy per Si atom -12397.753989 kJ/mol
# Density = 2.198484 g / cm^3
# Si number density = 22.034990 Si / 1000 Ang^3
#
#
#
# Elastic Constant Matrix: (Units=GPa)
#
#
# Indices 1 2 3 4 5 6 
#
# 1 106.5192 31.1996 19.7882 14.4361 -11.5816 4.1913
# 2 31.1996 73.2696 21.4902 14.5337 -1.7688 0.9686
# 3 19.7882 21.4902 100.5502 16.1131 -7.8135 3.2870
# 4 14.4361 14.5337 16.1131 29.5883 -3.3961 1.5564
# 5 -11.5816 -1.7688 -7.8135 -3.3961 28.7022 4.3801
# 6 4.1913 0.9686 3.2870 1.5564 4.3801 33.9782
#
#
#
# Elastic Compliance Matrix: (Units=1/GPa)
#
#
# Indices 1 2 3 4 5 6 
#
# 1 0.011591 -0.004094 -0.000584 -0.002757 0.004195 -0.001671
# 2 -0.004094 0.017047 -0.002135 -0.005474 -0.001941 0.000727
# 3 -0.000584 -0.002135 0.011471 -0.004584 0.002377 -0.001073
# 4 -0.002757 -0.005474 -0.004584 0.040655 0.002299 -0.001219
# 5 0.004195 -0.001941 0.002377 0.002299 0.038206 -0.005722
# 6 -0.001671 0.000727 -0.001073 -0.001219 -0.005722 0.030513
#
#
# Mechanical properties :
#
#
# Convention : Reuss Voigt Hill
#
# Bulk Modulus (GPa) = 37.75983 47.25499 42.50741
# Shear Modulus (GPa) = 29.08030 32.31115 30.69573
#
# Velocity S-wave (km/s) = 3.63675 3.83346 3.73640
# Velocity P-wave (km/s) = 5.89984 6.40982 6.16011
#
# Compressibility (1/GPa) = 0.02648317
#
# Stress axis : x y z
#
# Youngs Moduli (GPa) = 86.27304 58.66033 87.17764
#
# Poissons Ratio (x) = 0.24017 0.05088
# Poissons Ratio (y) = 0.35323 0.18613
# Poissons Ratio (z) = 0.05036 0.12524
#
# Static dielectric constant tensor:
#      x y z
#    x 2.988840 0.881380 0.576790 
#    y 0.881380 3.369970 -0.405020 
#    z 0.576790 -0.405020 3.401900 
# 
# 
# High freq. dielectric constant tensor:
#      x y z
#    x 1.874400 -0.002300 -0.008780 
#    y -0.002300 1.869590 0.013900 
#    z -0.008780 0.013900 1.869180 
# 
# From -- ./inp_files/184148.got.cif
#   From: 2010.06.25/outbox.cif.g09.slc.cpg/sg2_93_cif.got.tgz:184148.got - 2010.06.27 13:26:56.
