data_PCOD8032705
_publ_section_title
;
Structure prediction by ZEFSAII (Michael W. Deem and Ramdas Pophale) SiO2 
 PCOD8032705
Probable space group: P -1
;
_chemical_formula_sum "Si O2"
_cell_formula_units_Z 16
_cell_length_a 8.133586
_cell_length_b 15.194751
_cell_length_c 6.649153
_cell_angle_alpha 72.228520
_cell_angle_beta 82.975814
_cell_angle_gamma 111.426598
_cell_volume 702.666975
_symmetry_space_group_name_H-M "P -1"
_symmetry_group_IT_number 2
_symmetry_cell_setting 'triclinic'
loop_
_space_group_symop_operation_xyz
x,y,z
-x,-y,-z
loop_
_atom_site_type_symbol
_atom_site_label
_atom_site_fract_x
_atom_site_fract_y
_atom_site_fract_z
Si Si1 0.478805 0.645385 0.925092
Si Si2 0.090613 0.619827 0.949758
Si Si3 0.262024 0.191134 0.953564
Si Si4 0.175572 0.794441 0.512106
Si Si5 0.403300 0.455207 0.342363
Si Si6 0.079431 0.942959 0.679502
Si Si7 0.080828 0.313704 0.702962
Si Si8 0.558293 0.934109 0.199240
O O1 0.293593 0.657533 0.977617
O O2 0.644266 0.749457 0.899012
O O3 0.524866 0.625330 0.704245
O O4 0.457253 0.548048 0.121281
O O5 0.119082 0.684262 0.697345
O O6 0.000000 0.500000 0.000000
O O7 0.967229 0.643246 0.116112
O O8 0.066042 0.099161 0.090613
O O9 0.228962 0.268806 0.755773
O O10 0.394312 0.146646 0.871602
O O11 0.079261 0.849277 0.619782
O O12 0.390001 0.868625 0.415840
O O13 0.100034 0.773114 0.309578
O O14 0.500000 0.500000 0.500000
O O15 0.184919 0.401566 0.459661
O O16 0.275978 0.003603 0.715152
O O17 0.000000 0.000000 0.500000
O O18 0.500000 0.000000 0.000000
#
# Coordination Sequence:
#
# PCOD8032705 Si02
#       8
#     2   2   2   2   2   2   2   2
#     4  11  26  42  71 105 145 187 244 294 355 429
#     4  12  28  46  71 108 150 192 242 297 361 436
#     4  12  25  45  74 105 142 186 239 301 360 438
#     4  12  27  47  76 105 148 193 239 302 367 433
#     4  11  23  43  70 105 145 190 241 295 354 427
#     4  12  26  48  75 108 146 189 245 307 368 438
#     4  12  25  46  72 105 146 191 242 292 360 432
#     4  12  28  48  76 108 147 190 246 305 375 440
#
# _framework density 22.770389000000002
#
# number of rings (size 3 to 8) (size 9 to 14) (size 15 to 20)
#    0.000    0.250    2.500    6.000    7.000    4.000 
#    0.000    0.000    0.000    0.000    0.000    0.000 
#    0.000    0.000    0.000    0.000    0.000    0.000 
#
# Total GULP energy -198361.010436 kJ/mol
# GULP energy per Si atom -12397.563152 kJ/mol
# Density = 2.271856 g / cm^3
# Si number density = 22.770389 Si / 1000 Ang^3
#
#
#
# Elastic Constant Matrix: (Units=GPa)
#
#
# Indices 1 2 3 4 5 6 
#
# 1 116.9624 50.7959 25.4464 -0.5699 5.6031 4.1819
# 2 50.7959 118.6972 47.1253 1.4761 16.4880 -0.2887
# 3 25.4464 47.1253 89.1966 0.3387 -7.1593 -1.7230
# 4 -0.5699 1.4761 0.3387 37.0594 10.6683 -3.9323
# 5 5.6031 16.4880 -7.1593 10.6683 46.4366 3.0320
# 6 4.1819 -0.2887 -1.7230 -3.9323 3.0320 53.0079
#
#
#
# Elastic Compliance Matrix: (Units=1/GPa)
#
#
# Indices 1 2 3 4 5 6 
#
# 1 0.010589 -0.004238 -0.000790 0.000213 0.000113 -0.000875
# 2 -0.004238 0.013534 -0.006381 0.001123 -0.005575 0.000603
# 3 -0.000790 -0.006381 0.015217 -0.001322 0.005002 0.000138
# 4 0.000213 0.001123 -0.001322 0.029399 -0.007550 0.002559
# 5 0.000113 -0.005575 0.005002 -0.007550 0.026132 -0.001932
# 6 -0.000875 0.000603 0.000138 0.002559 -0.001932 0.019242
#
#
# Mechanical properties :
#
#
# Convention : Reuss Voigt Hill
#
# Bulk Modulus (GPa) = 60.53103 63.51016 62.02059
# Shear Modulus (GPa) = 35.10206 40.73334 37.91770
#
# Velocity S-wave (km/s) = 3.93054 4.23410 4.08514
# Velocity P-wave (km/s) = 6.87312 7.20108 7.03901
#
# Compressibility (1/GPa) = 0.01652045
#
# Stress axis : x y z
#
# Youngs Moduli (GPa) = 94.43509 73.88716 65.71444
#
# Poissons Ratio (x) = 0.31316 0.05193
# Poissons Ratio (y) = 0.40026 0.41936
# Poissons Ratio (z) = 0.07463 0.47151
#
# Static dielectric constant tensor:
#      x y z
#    x 4.276090 -0.096150 0.244650 
#    y -0.096150 4.269160 0.136800 
#    z 0.244650 0.136800 3.396730 
# 
# 
# High freq. dielectric constant tensor:
#      x y z
#    x 1.911990 0.006380 -0.006820 
#    y 0.006380 1.913190 0.001600 
#    z -0.006820 0.001600 1.906410 
# 
# From -- ./inp_files/37957.got.cif
#   From: 2010.06.25/outbox.cif.g09.slc.cpg/sg2_19_cif.got.tgz:37957.got - 2010.06.27 13:26:56.
