data_PCOD8032067
_publ_section_title
;
Structure prediction by ZEFSAII (Michael W. Deem and Ramdas Pophale) SiO2 
 PCOD8032067
Probable space group: P -1
;
_chemical_formula_sum "Si O2"
_cell_formula_units_Z 14
_cell_length_a 8.476056
_cell_length_b 18.920626
_cell_length_c 12.289383
_cell_angle_alpha 161.192734
_cell_angle_beta 104.554962
_cell_angle_gamma 74.364434
_cell_volume 611.824125
_symmetry_space_group_name_H-M "P -1"
_symmetry_group_IT_number 2
_symmetry_cell_setting 'triclinic'
loop_
_space_group_symop_operation_xyz
x,y,z
-x,-y,-z
loop_
_atom_site_type_symbol
_atom_site_label
_atom_site_fract_x
_atom_site_fract_y
_atom_site_fract_z
Si Si1 0.385498 0.947024 0.731269
Si Si2 0.038744 0.649542 0.034498
Si Si3 0.098111 0.939790 0.040212
Si Si4 0.304738 0.328538 0.701615
Si Si5 0.268578 0.556693 0.249919
Si Si6 0.583204 0.342363 0.374010
Si Si7 0.058317 0.082181 0.793337
O O1 0.511031 0.750572 0.418372
O O2 0.269418 0.818312 0.603644
O O3 0.257934 0.063726 0.790824
O O4 0.480509 0.134009 0.077607
O O5 0.915224 0.469695 0.780887
O O6 0.224408 0.540188 0.927706
O O7 0.018616 0.718014 0.004653
O O8 0.996175 0.856535 0.408872
O O9 0.988484 0.865642 0.013215
O O10 0.189902 0.137939 0.389597
O O11 0.232209 0.735909 0.743048
O O12 0.000000 0.000000 0.000000
O O13 0.318230 0.389089 0.918023
O O14 0.404832 0.511276 0.301974
O O15 0.500000 0.500000 0.500000
#
# Coordination Sequence:
#
# PCOD8032067 Si02
#       7
#     2   2   2   2   2   2   2
#     4  11  24  42  68  98 134 173 229 275 339 404
#     4  11  23  40  69  98 137 172 223 281 337 388
#     4  11  24  45  72 100 134 182 228 273 334 412
#     4  11  23  42  68 103 129 179 231 275 334 399
#     4  12  22  43  69  96 133 181 227 277 329 408
#     4  11  26  46  65  98 137 178 221 284 351 394
#     4  11  23  43  65 102 138 172 221 280 340 397
#
# _framework density 22.882391999999999
#
# number of rings (size 3 to 8) (size 9 to 14) (size 15 to 20)
#    0.000    0.857    2.857    4.714    0.000    2.286 
#    2.571    7.143    0.000    0.000    0.000    0.000 
#    0.000    0.000    0.000    0.000    0.000    0.000 
#
# Total GULP energy -173575.599420 kJ/mol
# GULP energy per Si atom -12398.257101 kJ/mol
# Density = 2.283031 g / cm^3
# Si number density = 22.882392 Si / 1000 Ang^3
#
#
#
# Elastic Constant Matrix: (Units=GPa)
#
#
# Indices 1 2 3 4 5 6 
#
# 1 121.4942 82.5927 48.6877 5.7146 0.2435 -10.1493
# 2 82.5927 200.3917 64.4710 -16.0351 -22.8468 -16.7074
# 3 48.6877 64.4710 96.0754 -13.7173 0.3024 -4.1488
# 4 5.7146 -16.0351 -13.7173 41.7551 -10.3661 1.0698
# 5 0.2435 -22.8468 0.3024 -10.3661 29.6979 7.8430
# 6 -10.1493 -16.7074 -4.1488 1.0698 7.8430 36.4314
#
#
#
# Elastic Compliance Matrix: (Units=1/GPa)
#
#
# Indices 1 2 3 4 5 6 
#
# 1 0.014656 -0.005937 -0.004413 -0.007824 -0.008123 0.002836
# 2 -0.005937 0.009986 -0.002832 0.006148 0.009825 0.000308
# 3 -0.004413 -0.002832 0.015136 0.004371 -0.000556 -0.000813
# 4 -0.007824 0.006148 0.004371 0.033197 0.017276 -0.003556
# 5 -0.008123 0.009825 -0.000556 0.017276 0.049718 -0.009031
# 6 0.002836 0.000308 -0.000813 -0.003556 -0.009031 0.030336
#
#
# Mechanical properties :
#
#
# Convention : Reuss Voigt Hill
#
# Bulk Modulus (GPa) = 74.54365 89.94044 82.24205
# Shear Modulus (GPa) = 27.19387 36.39088 31.79237
#
# Velocity S-wave (km/s) = 3.45109 3.99224 3.73148
# Velocity P-wave (km/s) = 6.96617 7.78726 7.38813
#
# Compressibility (1/GPa) = 0.01341496
#
# Stress axis : x y z
#
# Youngs Moduli (GPa) = 68.23048 100.13964 66.06726
#
# Poissons Ratio (x) = 0.59450 0.29153
# Poissons Ratio (y) = 0.40506 0.18713
# Poissons Ratio (z) = 0.30107 0.28364
#
# Static dielectric constant tensor:
#      x y z
#    x 4.269330 -0.101720 0.085740 
#    y -0.101720 4.022350 -0.048350 
#    z 0.085740 -0.048350 4.138680 
# 
# 
# High freq. dielectric constant tensor:
#      x y z
#    x 1.900730 -0.017420 0.012340 
#    y -0.017420 1.906220 -0.009790 
#    z 0.012340 -0.009790 1.908760 
# 
# From -- ./inp_files/208762.got.cif
#   From: 2010.06.25/outbox.cif.g09.slc.cpg/sg2_105_cif.got.tgz:208762.got - 2010.06.27 13:26:56.
