data_PCOD8032649
_publ_section_title
;
Structure prediction by ZEFSAII (Michael W. Deem and Ramdas Pophale) SiO2 
 PCOD8032649
Probable space group: P -1
;
_chemical_formula_sum "Si O2"
_cell_formula_units_Z 16
_cell_length_a 27.045668
_cell_length_b 26.435851
_cell_length_c 8.843224
_cell_angle_alpha 39.469866
_cell_angle_beta 138.679136
_cell_angle_gamma 169.503760
_cell_volume 730.416617
_symmetry_space_group_name_H-M "P -1"
_symmetry_group_IT_number 2
_symmetry_cell_setting 'triclinic'
loop_
_space_group_symop_operation_xyz
x,y,z
-x,-y,-z
loop_
_atom_site_type_symbol
_atom_site_label
_atom_site_fract_x
_atom_site_fract_y
_atom_site_fract_z
Si Si1 0.798574 0.576157 0.431695
Si Si2 0.973014 0.152133 0.992643
Si Si3 0.722881 0.030738 0.238351
Si Si4 0.576079 0.503179 0.768821
Si Si5 0.750789 0.237347 0.924774
Si Si6 0.740087 0.695837 0.032989
Si Si7 0.833767 0.158093 0.864851
Si Si8 0.368486 0.794886 0.572765
O O1 0.526783 0.248422 0.585305
O O2 0.736128 0.600207 0.295223
O O3 0.887169 0.666696 0.251624
O O4 0.025065 0.767081 0.611815
O O5 0.906928 0.153047 0.956415
O O6 0.194645 0.318746 0.194111
O O7 0.697541 0.825467 0.064018
O O8 0.770975 0.171545 0.053091
O O9 0.680589 0.977816 0.083993
O O10 0.500000 0.500000 0.500000
O O11 0.722824 0.684720 0.838114
O O12 0.751801 0.299781 0.644473
O O13 0.000000 0.500000 0.000000
O O14 0.500000 0.000000 0.000000
O O15 0.500000 0.500000 0.000000
O O16 0.000000 0.000000 0.000000
O O17 0.110070 0.490632 0.766231
O O18 0.611150 0.980474 0.668416
O O19 0.500000 0.000000 0.500000
#
# Coordination Sequence:
#
# PCOD8032649 Si02
#       8
#     2   2   2   2   2   2   2   2
#     4  11  25  44  68  99 142 182 222 287 342 406
#     4  11  25  46  69 105 142 184 234 279 357 414
#     4  12  26  45  68 101 142 177 234 287 341 412
#     4  11  24  45  72 105 142 180 230 293 338 411
#     4  12  28  45  70 106 135 181 239 287 348 411
#     4  11  23  43  69 101 135 181 227 271 344 410
#     4  12  27  45  73 103 137 188 233 287 354 415
#     4  12  26  48  72  98 143 183 232 295 350 407
#
# _framework density 21.905306
#
# number of rings (size 3 to 8) (size 9 to 14) (size 15 to 20)
#    0.000    0.500    1.250    7.500    7.000    3.000 
#    0.000    0.000    0.000    0.000    0.000    0.000 
#    0.000    0.000    0.000    0.000    0.000    0.000 
#
# Total GULP energy -198417.192697 kJ/mol
# GULP energy per Si atom -12401.074544 kJ/mol
# Density = 2.185545 g / cm^3
# Si number density = 21.905306 Si / 1000 Ang^3
#
#
#
# Elastic Constant Matrix: (Units=GPa)
#
#
# Indices 1 2 3 4 5 6 
#
# 1 149.9483 52.4172 71.0921 11.1465 5.9838 14.5361
# 2 52.4172 165.4115 57.9862 13.0442 -4.0092 2.0206
# 3 71.0921 57.9862 136.6643 24.1924 3.0974 1.0188
# 4 11.1465 13.0442 24.1924 51.6315 12.0429 5.9002
# 5 5.9838 -4.0092 3.0974 12.0429 38.3297 13.1877
# 6 14.5361 2.0206 1.0188 5.9002 13.1877 42.2789
#
#
#
# Elastic Compliance Matrix: (Units=1/GPa)
#
#
# Indices 1 2 3 4 5 6 
#
# 1 0.009562 -0.001513 -0.004452 0.000874 -0.000509 -0.003071
# 2 -0.001513 0.007416 -0.002246 -0.000829 0.001499 -0.000132
# 3 -0.004452 -0.002246 0.011278 -0.004008 0.000163 0.001875
# 4 0.000874 -0.000829 -0.004008 0.022971 -0.006673 -0.001288
# 5 -0.000509 0.001499 0.000163 -0.006673 0.031427 -0.008772
# 6 -0.003071 -0.000132 0.001875 -0.001288 -0.008772 0.027585
#
#
# Mechanical properties :
#
#
# Convention : Reuss Voigt Hill
#
# Bulk Modulus (GPa) = 84.50532 90.55723 87.53127
# Shear Modulus (GPa) = 38.28340 44.48324 41.38332
#
# Velocity S-wave (km/s) = 4.18506 4.51122 4.35120
# Velocity P-wave (km/s) = 7.87491 8.28039 8.08020
#
# Compressibility (1/GPa) = 0.01183358
#
# Stress axis : x y z
#
# Youngs Moduli (GPa) = 104.58268 134.85242 88.66900
#
# Poissons Ratio (x) = 0.20403 0.39478
# Poissons Ratio (y) = 0.15823 0.19911
# Poissons Ratio (z) = 0.46563 0.30282
#
# Static dielectric constant tensor:
#      x y z
#    x 4.018070 0.160020 0.227190 
#    y 0.160020 4.112950 0.071790 
#    z 0.227190 0.071790 4.198260 
# 
# 
# High freq. dielectric constant tensor:
#      x y z
#    x 1.866940 0.010900 0.011230 
#    y 0.010900 1.883620 0.012660 
#    z 0.011230 0.012660 1.871830 
# 
# From -- ./inp_files/357982.got.cif
#   From: 2010.06.25/outbox.cif.g09.slc.cpg/sg2_179_cif.got.tgz:357982.got - 2010.06.27 13:26:56.
