data_PCOD8032331
_publ_section_title
;
Structure prediction by ZEFSAII (Michael W. Deem and Ramdas Pophale) SiO2 
 PCOD8032331
Probable space group: P -1
;
_chemical_formula_sum "Si O2"
_cell_formula_units_Z 16
_cell_length_a 22.491676
_cell_length_b 12.209257
_cell_length_c 8.774664
_cell_angle_alpha 147.013205
_cell_angle_beta 47.707128
_cell_angle_gamma 145.231955
_cell_volume 747.100867
_symmetry_space_group_name_H-M "P -1"
_symmetry_group_IT_number 2
_symmetry_cell_setting 'triclinic'
loop_
_space_group_symop_operation_xyz
x,y,z
-x,-y,-z
loop_
_atom_site_type_symbol
_atom_site_label
_atom_site_fract_x
_atom_site_fract_y
_atom_site_fract_z
Si Si1 0.134928 0.752316 0.757879
Si Si2 0.784415 0.387243 0.293262
Si Si3 0.231234 0.291359 0.091397
Si Si4 0.558357 0.968148 0.079772
Si Si5 0.832423 0.538664 0.860702
Si Si6 0.552270 0.502803 0.064409
Si Si7 0.609163 0.000299 0.686289
Si Si8 0.955845 0.738701 0.177739
O O1 0.212652 0.790671 0.798427
O O2 0.105541 0.524401 0.425815
O O3 0.038218 0.696135 0.947192
O O4 0.195331 0.008447 0.850707
O O5 0.818491 0.647676 0.621542
O O6 0.867071 0.482649 0.128202
O O7 0.669231 0.232629 0.246572
O O8 0.192305 0.299937 0.003132
O O9 0.356724 0.512532 0.146031
O O10 0.532692 0.734838 0.956465
O O11 0.563853 0.911343 0.829638
O O12 0.469069 0.995755 0.281700
O O13 0.724713 0.275921 0.803850
O O14 0.905875 0.731389 0.095920
O O15 0.612277 0.779087 0.365387
O O16 0.500000 0.500000 0.000000
O O17 0.000000 0.000000 0.500000
#
# Coordination Sequence:
#
# PCOD8032331 Si02
#       8
#     2   2   2   2   2   2   2   2
#     4  11  24  46  70  97 135 178 228 276 337 402
#     4  11  24  44  69  99 136 175 224 278 337 399
#     4  11  23  42  67 100 134 176 226 274 330 404
#     4  11  24  42  67  96 138 177 218 272 334 396
#     4  11  24  46  72  97 136 180 224 280 335 404
#     4  12  24  39  65 101 136 178 225 265 327 399
#     4  11  23  43  66  95 137 178 220 270 333 402
#     4  12  25  49  71 101 133 175 228 288 344 393
#
# _framework density 21.416117
#
# number of rings (size 3 to 8) (size 9 to 14) (size 15 to 20)
#    0.000    0.750    5.000    2.625    1.750    1.500 
#    6.750    0.000    0.000    0.000    0.000    0.000 
#    0.000    0.000    0.000    0.000    0.000    0.000 
#
# Total GULP energy -198424.141942 kJ/mol
# GULP energy per Si atom -12401.508871 kJ/mol
# Density = 2.136737 g / cm^3
# Si number density = 21.416117 Si / 1000 Ang^3
#
#
#
# Elastic Constant Matrix: (Units=GPa)
#
#
# Indices 1 2 3 4 5 6 
#
# 1 146.0515 44.2784 49.9639 -0.4986 6.0420 -7.8573
# 2 44.2784 85.8963 45.8282 -11.1158 -0.1242 -4.6437
# 3 49.9639 45.8282 80.3984 -4.4412 1.3632 -1.3434
# 4 -0.4986 -11.1158 -4.4412 33.3023 2.3976 -6.1870
# 5 6.0420 -0.1242 1.3632 2.3976 32.4576 2.5262
# 6 -7.8573 -4.6437 -1.3434 -6.1870 2.5262 45.5366
#
#
#
# Elastic Compliance Matrix: (Units=1/GPa)
#
#
# Indices 1 2 3 4 5 6 
#
# 1 0.009201 -0.002516 -0.004290 -0.000946 -0.001563 0.001163
# 2 -0.002516 0.018275 -0.008539 0.005245 0.000364 0.001870
# 3 -0.004290 -0.008539 0.019927 -0.000463 0.000048 -0.001089
# 4 -0.000946 0.005245 -0.000463 0.032811 -0.002594 0.004960
# 5 -0.001563 0.000364 0.000048 -0.002594 0.031473 -0.002330
# 6 0.001163 0.001870 -0.001089 0.004960 -0.002330 0.023123
#
#
# Mechanical properties :
#
#
# Convention : Reuss Voigt Hill
#
# Bulk Modulus (GPa) = 59.83275 65.83191 62.83233
# Shear Modulus (GPa) = 29.22775 33.74435 31.48605
#
# Velocity S-wave (km/s) = 3.69827 3.97375 3.83848
# Velocity P-wave (km/s) = 6.79964 7.20142 7.00341
#
# Compressibility (1/GPa) = 0.01671326
#
# Stress axis : x y z
#
# Youngs Moduli (GPa) = 108.67941 54.72026 50.18340
#
# Poissons Ratio (x) = 0.13767 0.21531
# Poissons Ratio (y) = 0.27342 0.42849
# Poissons Ratio (z) = 0.46628 0.46723
#
# Static dielectric constant tensor:
#      x y z
#    x 3.939190 -0.043820 -0.063770 
#    y -0.043820 3.921940 -0.254430 
#    z -0.063770 -0.254430 3.759300 
# 
# 
# High freq. dielectric constant tensor:
#      x y z
#    x 1.851540 -0.003900 -0.003490 
#    y -0.003900 1.851730 -0.013340 
#    z -0.003490 -0.013340 1.833280 
# 
# From -- ./inp_files/39284.got.cif
#   From: 2010.06.25/outbox.cif.g09.slc.cpg/sg2_20_cif.got.tgz:39284.got - 2010.06.27 13:26:56.
