data_PCOD8032496
_publ_section_title
;
Structure prediction by ZEFSAII (Michael W. Deem and Ramdas Pophale) SiO2 
 PCOD8032496
Probable space group: P -1
;
_chemical_formula_sum "Si O2"
_cell_formula_units_Z 14
_cell_length_a 9.300287
_cell_length_b 17.549890
_cell_length_c 14.404988
_cell_angle_alpha 21.833031
_cell_angle_beta 130.935834
_cell_angle_gamma 132.854727
_cell_volume 638.551511
_symmetry_space_group_name_H-M "P -1"
_symmetry_group_IT_number 2
_symmetry_cell_setting 'triclinic'
loop_
_space_group_symop_operation_xyz
x,y,z
-x,-y,-z
loop_
_atom_site_type_symbol
_atom_site_label
_atom_site_fract_x
_atom_site_fract_y
_atom_site_fract_z
Si Si1 0.235643 0.893046 0.307108
Si Si2 0.070750 0.034000 0.765574
Si Si3 0.145809 0.976687 0.508163
Si Si4 0.493565 0.378670 0.227998
Si Si5 0.550641 0.590700 0.519937
Si Si6 0.586848 0.303558 0.016182
Si Si7 0.163885 0.700155 0.305737
O O1 0.301670 0.680250 0.600456
O O2 0.198136 0.884286 0.190525
O O3 0.036875 0.873061 0.302956
O O4 0.392783 0.110069 0.154512
O O5 0.283099 0.189829 0.660260
O O6 0.942818 0.008825 0.646741
O O7 0.095577 0.803437 0.067661
O O8 0.216858 0.761381 0.794143
O O9 0.335695 0.160679 0.397253
O O10 0.000000 0.000000 0.500000
O O11 0.500000 0.500000 0.000000
O O12 0.444028 0.514151 0.136682
O O13 0.500000 0.500000 0.500000
O O14 0.361575 0.630595 0.446769
O O15 0.625887 0.410154 0.810793
O O16 0.000000 0.500000 0.500000
#
# Coordination Sequence:
#
# PCOD8032496 Si02
#       7
#     2   2   2   2   2   2   2
#     4  11  24  45  71 104 135 182 235 286 348 408
#     4  12  26  44  70 105 144 178 237 289 343 419
#     4  11  27  43  68 105 143 187 227 284 349 410
#     4  11  23  42  72  97 138 183 234 282 339 412
#     4  12  26  45  72 103 139 185 232 287 351 411
#     4  11  24  47  71 100 144 182 233 287 340 417
#     4  12  26  46  74 102 139 186 232 289 352 411
#
# _framework density 21.924620000000001
#
# number of rings (size 3 to 8) (size 9 to 14) (size 15 to 20)
#    0.000    0.571    1.429    6.000    6.000    5.714 
#    0.000    0.000    0.000    0.000    0.000    0.000 
#    0.000    0.000    0.000    0.000    0.000    0.000 
#
# Total GULP energy -173650.643790 kJ/mol
# GULP energy per Si atom -12403.617414 kJ/mol
# Density = 2.187472 g / cm^3
# Si number density = 21.924620 Si / 1000 Ang^3
#
#
#
# Elastic Constant Matrix: (Units=GPa)
#
#
# Indices 1 2 3 4 5 6 
#
# 1 129.9390 32.2422 46.9411 4.7161 3.5384 6.9887
# 2 32.2422 106.7785 45.5748 11.1944 3.8891 -10.8506
# 3 46.9411 45.5748 167.5386 25.7407 -4.4179 5.4670
# 4 4.7161 11.1944 25.7407 41.6275 -5.1193 -6.3126
# 5 3.5384 3.8891 -4.4179 -5.1193 38.3046 0.0238
# 6 6.9887 -10.8506 5.4670 -6.3126 0.0238 45.4942
#
#
#
# Elastic Compliance Matrix: (Units=1/GPa)
#
#
# Indices 1 2 3 4 5 6 
#
# 1 0.009018 -0.002042 -0.002007 0.000432 -0.000798 -0.001571
# 2 -0.002042 0.011560 -0.002566 -0.000972 -0.001413 0.003245
# 3 -0.002007 -0.002566 0.007953 -0.004180 0.000806 -0.001840
# 4 0.000432 -0.000972 -0.004180 0.027841 0.003295 0.004065
# 5 -0.000798 -0.001413 0.000806 0.003295 0.026857 0.000132
# 6 -0.001571 0.003245 -0.001840 0.004065 0.000132 0.023781
#
#
# Mechanical properties :
#
#
# Convention : Reuss Voigt Hill
#
# Bulk Modulus (GPa) = 65.36122 72.64137 69.00130
# Shear Modulus (GPa) = 39.89050 43.71846 41.80448
#
# Velocity S-wave (km/s) = 4.27012 4.47031 4.37136
# Velocity P-wave (km/s) = 7.36127 7.73622 7.55107
#
# Compressibility (1/GPa) = 0.01529959
#
# Stress axis : x y z
#
# Youngs Moduli (GPa) = 110.88430 86.50278 125.74117
#
# Poissons Ratio (x) = 0.17665 0.25242
# Poissons Ratio (y) = 0.22645 0.32269
# Poissons Ratio (z) = 0.22260 0.22199
#
# Static dielectric constant tensor:
#      x y z
#    x 3.478510 -0.124480 0.102630 
#    y -0.124480 4.223690 0.296290 
#    z 0.102630 0.296290 4.339720 
# 
# 
# High freq. dielectric constant tensor:
#      x y z
#    x 1.871650 -0.003390 0.000950 
#    y -0.003390 1.874160 0.009280 
#    z 0.000950 0.009280 1.882160 
# 
# From -- ./inp_files/46793.got.cif
#   From: 2010.06.25/outbox.cif.g09.slc.cpg/sg2_24_cif.got.tgz:46793.got - 2010.06.27 13:26:56.
