data_PCOD8032125
_publ_section_title
;
Structure prediction by ZEFSAII (Michael W. Deem and Ramdas Pophale) SiO2 
 PCOD8032125
Probable space group: P -1
;
_chemical_formula_sum "Si O2"
_cell_formula_units_Z 16
_cell_length_a 9.871723
_cell_length_b 9.114736
_cell_length_c 11.964884
_cell_angle_alpha 98.831415
_cell_angle_beta 104.395658
_cell_angle_gamma 45.781542
_cell_volume 747.036937
_symmetry_space_group_name_H-M "P -1"
_symmetry_group_IT_number 2
_symmetry_cell_setting 'triclinic'
loop_
_space_group_symop_operation_xyz
x,y,z
-x,-y,-z
loop_
_atom_site_type_symbol
_atom_site_label
_atom_site_fract_x
_atom_site_fract_y
_atom_site_fract_z
Si Si1 0.831022 0.717556 0.299443
Si Si2 0.948888 0.597479 0.879711
Si Si3 0.312410 0.464461 0.641779
Si Si4 0.655957 0.274385 0.958539
Si Si5 0.457059 0.982478 0.113286
Si Si6 0.104024 0.766889 0.825975
Si Si7 0.746125 0.192624 0.726650
Si Si8 0.920488 0.211083 0.557940
O O1 0.798042 0.609761 0.369286
O O2 0.634048 0.898625 0.217092
O O3 0.997303 0.557397 0.224802
O O4 0.896316 0.815415 0.391306
O O5 0.074085 0.653355 0.891824
O O6 0.723605 0.797771 0.848408
O O7 0.000000 0.500000 0.000000
O O8 0.272112 0.603693 0.753901
O O9 0.542136 0.270468 0.656367
O O10 0.236133 0.596059 0.529686
O O11 0.572888 0.172031 0.908117
O O12 0.731554 0.280271 0.855638
O O13 0.500000 0.500000 0.000000
O O14 0.826876 0.145804 0.071673
O O15 0.500000 0.000000 0.000000
O O16 0.908266 0.944893 0.738969
O O17 0.813974 0.264239 0.659977
O O18 0.000000 0.000000 0.500000
#
# Coordination Sequence:
#
# PCOD8032125 Si02
#       8
#     2   2   2   2   2   2   2   2
#     4  11  25  48  71  97 140 190 231 292 357 413
#     4  11  23  41  65 103 143 185 230 277 349 429
#     4  11  23  51  70  98 136 188 240 286 346 419
#     4  12  24  42  70 108 143 188 227 285 356 430
#     4  12  25  41  67 101 147 184 230 284 345 430
#     4  11  23  41  71  99 145 180 228 288 352 414
#     4  12  24  44  72 100 142 181 231 289 359 403
#     4  12  28  48  74 103 138 182 242 306 346 412
#
# _framework density 21.417950999999999
#
# number of rings (size 3 to 8) (size 9 to 14) (size 15 to 20)
#    0.000    0.500    6.250    1.875    3.500    0.000 
#    4.500    0.625    0.000    0.000    0.000    0.000 
#    0.000    0.000    0.000    0.000    0.000    0.000 
#
# Total GULP energy -198441.142725 kJ/mol
# GULP energy per Si atom -12402.571420 kJ/mol
# Density = 2.136920 g / cm^3
# Si number density = 21.417951 Si / 1000 Ang^3
#
#
#
# Elastic Constant Matrix: (Units=GPa)
#
#
# Indices 1 2 3 4 5 6 
#
# 1 110.4510 49.3459 69.0834 -7.0764 4.5652 -2.7954
# 2 49.3459 131.1846 42.2052 -10.6245 6.0428 -15.3084
# 3 69.0834 42.2052 106.5762 -22.0338 -1.9603 9.3829
# 4 -7.0764 -10.6245 -22.0338 40.0718 4.0136 -4.2578
# 5 4.5652 6.0428 -1.9603 4.0136 52.6065 -3.3173
# 6 -2.7954 -15.3084 9.3829 -4.2578 -3.3173 36.2528
#
#
#
# Elastic Compliance Matrix: (Units=1/GPa)
#
#
# Indices 1 2 3 4 5 6 
#
# 1 0.016972 -0.002847 -0.010794 -0.003323 -0.001143 0.002405
# 2 -0.002847 0.010148 -0.002294 0.001514 -0.000819 0.004762
# 3 -0.010794 -0.002294 0.019352 0.007406 0.000987 -0.005850
# 4 -0.003323 0.001514 0.007406 0.029200 -0.001728 0.001738
# 5 -0.001143 -0.000819 0.000987 -0.001728 0.019427 0.000885
# 6 0.002405 0.004762 -0.005850 0.001738 0.000885 0.031580
#
#
# Mechanical properties :
#
#
# Convention : Reuss Voigt Hill
#
# Bulk Modulus (GPa) = 68.48358 74.38675 71.43516
# Shear Modulus (GPa) = 30.59654 38.29137 34.44395
#
# Velocity S-wave (km/s) = 3.78371 4.23285 4.01456
# Velocity P-wave (km/s) = 7.15073 7.66131 7.41042
#
# Compressibility (1/GPa) = 0.01460204
#
# Stress axis : x y z
#
# Youngs Moduli (GPa) = 58.91995 98.53972 51.67331
#
# Poissons Ratio (x) = 0.28059 0.55774
# Poissons Ratio (y) = 0.16777 0.11856
# Poissons Ratio (z) = 0.63596 0.22608
#
# Static dielectric constant tensor:
#      x y z
#    x 3.993550 -0.134140 -0.215730 
#    y -0.134140 3.962780 -0.091880 
#    z -0.215730 -0.091880 4.338290 
# 
# 
# High freq. dielectric constant tensor:
#      x y z
#    x 1.842420 -0.012570 -0.013750 
#    y -0.012570 1.846870 -0.013280 
#    z -0.013750 -0.013280 1.843940 
# 
# From -- ./inp_files/206527.got.cif
#   From: 2010.06.25/outbox.cif.g09.slc.cpg/sg2_104_cif.got.tgz:206527.got - 2010.06.27 13:26:56.
