data_PCOD8032806
_publ_section_title
;
Structure prediction by ZEFSAII (Michael W. Deem and Ramdas Pophale) SiO2 
 PCOD8032806
Probable space group: P -1
;
_chemical_formula_sum "Si O2"
_cell_formula_units_Z 14
_cell_length_a 9.560599
_cell_length_b 16.598429
_cell_length_c 11.458109
_cell_angle_alpha 31.781663
_cell_angle_beta 142.222193
_cell_angle_gamma 136.938568
_cell_volume 576.863920
_symmetry_space_group_name_H-M "P -1"
_symmetry_group_IT_number 2
_symmetry_cell_setting 'triclinic'
loop_
_space_group_symop_operation_xyz
x,y,z
-x,-y,-z
loop_
_atom_site_type_symbol
_atom_site_label
_atom_site_fract_x
_atom_site_fract_y
_atom_site_fract_z
Si Si1 0.872522 0.264414 0.809396
Si Si2 0.519228 0.345598 0.846656
Si Si3 0.608731 0.682131 0.563644
Si Si4 0.036944 0.586277 0.086275
Si Si5 0.931960 0.966506 0.362107
Si Si6 0.033224 0.182514 0.779997
Si Si7 0.818288 0.251056 0.336830
O O1 0.617933 0.272559 0.579383
O O2 0.953114 0.410725 0.769260
O O3 0.040369 0.268838 0.802996
O O4 0.874914 0.114748 0.075645
O O5 0.517307 0.529759 0.611669
O O6 0.725765 0.312318 0.937294
O O7 0.264415 0.245759 0.777121
O O8 0.574841 0.291244 0.082093
O O9 0.707374 0.830292 0.366177
O O10 0.810423 0.658873 0.815226
O O11 0.008529 0.409082 0.237985
O O12 0.139912 0.902120 0.514764
O O13 0.000000 0.000000 0.500000
O O14 0.818345 0.217874 0.516188
O O15 0.000000 0.000000 0.000000
#
# Coordination Sequence:
#
# PCOD8032806 Si02
#       7
#     2   2   2   2   2   2   2
#     4  12  27  43  69 105 147 185 231 284 349 419
#     4  11  24  45  76 102 135 189 236 289 345 412
#     4  11  23  43  73 107 138 176 234 295 353 395
#     4  11  23  45  77 106 135 179 242 296 340 406
#     4  12  22  44  72 106 138 173 231 298 345 399
#     4  12  29  47  66 102 149 192 227 278 357 426
#     4  11  23  46  73 100 142 180 235 286 349 412
#
# _framework density 24.269155999999999
#
# number of rings (size 3 to 8) (size 9 to 14) (size 15 to 20)
#    0.000    0.571    5.714    2.143    2.000    7.429 
#    0.000    2.857    0.000    0.000    0.000    0.000 
#    0.000    0.000    0.000    0.000    0.000    0.000 
#
# Total GULP energy -173509.425601 kJ/mol
# GULP energy per Si atom -12393.530400 kJ/mol
# Density = 2.421392 g / cm^3
# Si number density = 24.269156 Si / 1000 Ang^3
#
#
#
# Elastic Constant Matrix: (Units=GPa)
#
#
# Indices 1 2 3 4 5 6 
#
# 1 96.9234 28.5498 25.0534 14.5901 5.9348 -19.6758
# 2 28.5498 71.3919 13.2744 -8.0032 9.0190 -6.3816
# 3 25.0534 13.2744 106.0097 4.7832 3.5941 -5.9126
# 4 14.5901 -8.0032 4.7832 31.3998 -2.6727 -4.7599
# 5 5.9348 9.0190 3.5941 -2.6727 35.5621 4.3673
# 6 -19.6758 -6.3816 -5.9126 -4.7599 4.3673 39.5882
#
#
#
# Elastic Compliance Matrix: (Units=1/GPa)
#
#
# Indices 1 2 3 4 5 6 
#
# 1 0.014873 -0.005628 -0.002100 -0.007366 -0.002073 0.005514
# 2 -0.005628 0.017746 -0.001052 0.007207 -0.003050 0.001109
# 3 -0.002100 -0.001052 0.010130 -0.000840 -0.000501 0.000254
# 4 -0.007366 0.007207 -0.000840 0.037668 0.002112 0.001671
# 5 -0.002073 -0.003050 -0.000501 0.002112 0.030020 -0.004655
# 6 0.005514 0.001109 0.000254 0.001671 -0.004655 0.028932
#
#
# Mechanical properties :
#
#
# Convention : Reuss Voigt Hill
#
# Bulk Modulus (GPa) = 39.70013 45.34224 42.52119
# Shear Modulus (GPa) = 30.24317 35.13985 32.69151
#
# Velocity S-wave (km/s) = 3.53392 3.80929 3.67419
# Velocity P-wave (km/s) = 5.74850 6.17018 5.96307
#
# Compressibility (1/GPa) = 0.02518884
#
# Stress axis : x y z
#
# Youngs Moduli (GPa) = 67.23414 56.35101 98.71524
#
# Poissons Ratio (x) = 0.31716 0.20731
# Poissons Ratio (y) = 0.37842 0.10384
# Poissons Ratio (z) = 0.14119 0.05928
#
# Static dielectric constant tensor:
#      x y z
#    x 4.051640 -0.169960 -0.053710 
#    y -0.169960 4.418690 -0.070200 
#    z -0.053710 -0.070200 4.721490 
# 
# 
# High freq. dielectric constant tensor:
#      x y z
#    x 1.930300 -0.014240 -0.001380 
#    y -0.014240 1.957250 -0.000400 
#    z -0.001380 -0.000400 1.991350 
# 
# From -- ./inp_files/402766.got.cif
#   From: 2010.06.25/outbox.cif.g09.slc.cpg/sg2_202_cif.got.tgz:402766.got - 2010.06.27 13:26:56.
