data_PCOD8032901
_publ_section_title
;
Structure prediction by ZEFSAII (Michael W. Deem and Ramdas Pophale) SiO2 
 PCOD8032901
Probable space group: P -1
;
_chemical_formula_sum "Si O2"
_cell_formula_units_Z 16
_cell_length_a 16.699000
_cell_length_b 11.372320
_cell_length_c 8.779977
_cell_angle_alpha 57.116452
_cell_angle_beta 55.192298
_cell_angle_gamma 34.352368
_cell_volume 763.221073
_symmetry_space_group_name_H-M "P -1"
_symmetry_group_IT_number 2
_symmetry_cell_setting 'triclinic'
loop_
_space_group_symop_operation_xyz
x,y,z
-x,-y,-z
loop_
_atom_site_type_symbol
_atom_site_label
_atom_site_fract_x
_atom_site_fract_y
_atom_site_fract_z
Si Si1 0.082448 0.303523 0.153868
Si Si2 0.611807 0.491017 0.671925
Si Si3 0.092833 0.774206 0.625351
Si Si4 0.628820 0.155272 0.854322
Si Si5 0.866200 0.175759 0.131767
Si Si6 0.158947 0.326685 0.376708
Si Si7 0.676788 0.123421 0.467575
Si Si8 0.338389 0.414363 0.131441
O O1 0.140954 0.326042 0.217549
O O2 0.969606 0.302288 0.323683
O O3 0.224456 0.078953 0.078962
O O4 0.000000 0.500000 0.000000
O O5 0.737550 0.394932 0.483015
O O6 0.618346 0.319799 0.825934
O O7 0.457984 0.695858 0.620549
O O8 0.631613 0.556537 0.756497
O O9 0.078295 0.786512 0.815957
O O10 0.000000 0.000000 0.500000
O O11 0.625546 0.174246 0.662328
O O12 0.490810 0.212585 0.022967
O O13 0.804630 0.100345 0.326707
O O14 0.740728 0.385921 0.025771
O O15 0.000000 0.000000 0.000000
O O16 0.240850 0.382555 0.281153
O O17 0.000000 0.500000 0.500000
O O18 0.256058 0.097009 0.502659
#
# Coordination Sequence:
#
# PCOD8032901 Si02
#       8
#     2   2   2   2   2   2   2   2
#     4  11  25  42  68  95 130 174 215 272 327 385
#     4  12  23  42  69  99 132 169 223 274 322 391
#     4  12  22  41  68  94 128 175 222 263 324 391
#     4  11  23  44  67  97 135 166 222 281 320 388
#     4  12  24  39  65  99 129 170 219 270 324 385
#     4  11  25  48  63  94 138 173 217 270 329 391
#     4  11  24  43  69  93 132 179 212 273 334 380
#     4  12  26  40  68  99 133 174 217 271 332 386
#
# _framework density 20.963782999999999
#
# number of rings (size 3 to 8) (size 9 to 14) (size 15 to 20)
#    0.000    0.500    3.750    5.250    0.000    4.500 
#    0.000    0.000    0.000    0.000    0.000    0.000 
#    0.000    0.000    0.000    0.000    0.000    0.000 
#
# Total GULP energy -198495.310651 kJ/mol
# GULP energy per Si atom -12405.956916 kJ/mol
# Density = 2.091607 g / cm^3
# Si number density = 20.963783 Si / 1000 Ang^3
#
#
#
# Elastic Constant Matrix: (Units=GPa)
#
#
# Indices 1 2 3 4 5 6 
#
# 1 125.3305 50.7437 48.5264 0.1762 -2.3085 0.8773
# 2 50.7437 157.4231 62.8344 -4.8696 -3.2904 -12.2857
# 3 48.5264 62.8344 95.7953 3.2491 -10.1448 0.8587
# 4 0.1762 -4.8696 3.2491 50.8848 -5.3681 -0.5362
# 5 -2.3085 -3.2904 -10.1448 -5.3681 45.9454 -0.4520
# 6 0.8773 -12.2857 0.8587 -0.5362 -0.4520 33.9969
#
#
#
# Elastic Compliance Matrix: (Units=1/GPa)
#
#
# Indices 1 2 3 4 5 6 
#
# 1 0.010271 -0.001745 -0.004107 -0.000004 -0.000524 -0.000799
# 2 -0.001745 0.009372 -0.005383 0.001240 -0.000425 0.003582
# 3 -0.004107 -0.005383 0.016416 -0.001271 0.002862 -0.002236
# 4 -0.000004 0.001240 -0.001271 0.020089 0.002163 0.000826
# 5 -0.000524 -0.000425 0.002862 0.002163 0.022594 0.000122
# 6 -0.000799 0.003582 -0.002236 0.000826 0.000122 0.030801
#
#
# Mechanical properties :
#
#
# Convention : Reuss Voigt Hill
#
# Bulk Modulus (GPa) = 73.57839 78.08421 75.83130
# Shear Modulus (GPa) = 36.61861 40.59504 38.60682
#
# Velocity S-wave (km/s) = 4.18395 4.40527 4.29604
# Velocity P-wave (km/s) = 7.64949 7.95005 7.80122
#
# Compressibility (1/GPa) = 0.01359095
#
# Stress axis : x y z
#
# Youngs Moduli (GPa) = 97.35695 106.69766 60.91607
#
# Poissons Ratio (x) = 0.18621 0.25016
# Poissons Ratio (y) = 0.16991 0.32789
# Poissons Ratio (z) = 0.39981 0.57431
#
# Static dielectric constant tensor:
#      x y z
#    x 4.002510 0.103920 -0.033310 
#    y 0.103920 4.064610 -0.034260 
#    z -0.033310 -0.034260 3.721550 
# 
# 
# High freq. dielectric constant tensor:
#      x y z
#    x 1.832780 -0.006570 -0.002270 
#    y -0.006570 1.837640 0.003520 
#    z -0.002270 0.003520 1.820160 
# 
# From -- ./inp_files/207713.got.cif
#   From: 2010.06.25/outbox.cif.g09.slc.cpg/sg2_104_cif.got.tgz:207713.got - 2010.06.27 13:26:56.
