data_PCOD8032981
_publ_section_title
;
Structure prediction by ZEFSAII (Michael W. Deem and Ramdas Pophale) SiO2 
 PCOD8032981
Probable space group: P -1
;
_chemical_formula_sum "Si O2"
_cell_formula_units_Z 14
_cell_length_a 20.772876
_cell_length_b 7.672317
_cell_length_c 10.894209
_cell_angle_alpha 58.138511
_cell_angle_beta 150.057752
_cell_angle_gamma 138.888204
_cell_volume 526.880399
_symmetry_space_group_name_H-M "P -1"
_symmetry_group_IT_number 2
_symmetry_cell_setting 'triclinic'
loop_
_space_group_symop_operation_xyz
x,y,z
-x,-y,-z
loop_
_atom_site_type_symbol
_atom_site_label
_atom_site_fract_x
_atom_site_fract_y
_atom_site_fract_z
Si Si1 0.431294 0.198430 0.475464
Si Si2 0.573329 0.676609 0.836935
Si Si3 0.345572 0.898856 0.007028
Si Si4 0.952052 0.270244 0.912108
Si Si5 0.813434 0.767706 0.547446
Si Si6 0.953852 0.354489 0.611120
Si Si7 0.323692 0.617228 0.776870
O O1 0.500000 0.500000 0.500000
O O2 0.360173 0.121984 0.246157
O O3 0.584646 0.199113 0.748360
O O4 0.263948 0.966332 0.374402
O O5 0.357735 0.442778 0.568737
O O6 0.652562 0.875204 0.013206
O O7 0.640898 0.516741 0.010813
O O8 0.483661 0.063561 0.058887
O O9 0.133067 0.618771 0.728173
O O10 0.020016 0.135770 0.135102
O O11 0.000000 0.500000 0.000000
O O12 0.030798 0.385629 0.862369
O O13 0.776498 0.599348 0.424610
O O14 0.857999 0.057028 0.492933
O O15 0.806505 0.369359 0.377132
#
# Coordination Sequence:
#
# PCOD8032981 Si02
#       7
#     2   2   2   2   2   2   2
#     4  12  24  43  71 108 138 182 240 293 349 421
#     4  11  25  47  70 101 145 190 229 295 358 419
#     4  11  23  47  74 102 139 189 239 287 356 424
#     4  12  21  41  71 104 142 183 237 299 346 413
#     4  11  23  44  70 103 141 187 238 294 351 419
#     4  12  24  44  74 107 141 189 235 297 356 413
#     4  11  26  51  69 103 151 185 236 292 355 432
#
# _framework density 26.571494999999999
#
# number of rings (size 3 to 8) (size 9 to 14) (size 15 to 20)
#    0.000    0.571    2.857    6.857    0.000    1.143 
#    5.143    2.857    0.000    0.000    0.000    0.000 
#    0.000    0.000    0.000    0.000    0.000    0.000 
#
# Total GULP energy -173666.352077 kJ/mol
# GULP energy per Si atom -12404.739434 kJ/mol
# Density = 2.651102 g / cm^3
# Si number density = 26.571495 Si / 1000 Ang^3
#
#
#
# Elastic Constant Matrix: (Units=GPa)
#
#
# Indices 1 2 3 4 5 6 
#
# 1 139.9448 63.1509 50.5428 10.2340 11.8858 11.9802
# 2 63.1509 147.9255 63.3298 5.1498 15.6347 -4.9349
# 3 50.5428 63.3298 180.8002 0.0962 17.7329 -4.8155
# 4 10.2340 5.1498 0.0962 59.3638 -4.6062 -4.0549
# 5 11.8858 15.6347 17.7329 -4.6062 37.9739 -8.5836
# 6 11.9802 -4.9349 -4.8155 -4.0549 -8.5836 41.6614
#
#
#
# Elastic Compliance Matrix: (Units=1/GPa)
#
#
# Indices 1 2 3 4 5 6 
#
# 1 0.009887 -0.003443 -0.001455 -0.001845 -0.002134 -0.004038
# 2 -0.003443 0.009355 -0.002130 -0.000224 -0.001461 0.001529
# 3 -0.001455 -0.002130 0.006866 0.000338 -0.001687 0.000645
# 4 -0.001845 -0.000224 0.000338 0.017641 0.003317 0.002943
# 5 -0.002134 -0.001461 -0.001687 0.003317 0.030335 0.006818
# 6 -0.004038 0.001529 0.000645 0.002943 0.006818 0.027111
#
#
# Mechanical properties :
#
#
# Convention : Reuss Voigt Hill
#
# Bulk Modulus (GPa) = 82.97509 91.41305 87.19407
# Shear Modulus (GPa) = 41.92226 47.24294 44.58260
#
# Velocity S-wave (km/s) = 3.97636 4.22116 4.10058
# Velocity P-wave (km/s) = 7.23718 7.63118 7.43679
#
# Compressibility (1/GPa) = 0.01205181
#
# Stress axis : x y z
#
# Youngs Moduli (GPa) = 101.14688 106.89375 145.63566
#
# Poissons Ratio (x) = 0.36800 0.21193
# Poissons Ratio (y) = 0.34821 0.31025
# Poissons Ratio (z) = 0.14719 0.22772
#
# Static dielectric constant tensor:
#      x y z
#    x 5.274540 0.317500 -0.239540 
#    y 0.317500 5.099660 -0.274800 
#    z -0.239540 -0.274800 4.968660 
# 
# 
# High freq. dielectric constant tensor:
#      x y z
#    x 2.084210 -0.000230 -0.011580 
#    y -0.000230 2.079510 -0.014180 
#    z -0.011580 -0.014180 2.087540 
# 
# From -- ./inp_files/291466.got.cif
#   From: 2010.06.25/outbox.cif.g09.slc.cpg/sg2_146_cif.got.tgz:291466.got - 2010.06.27 13:26:56.
