data_PCOD8032387
_publ_section_title
;
Structure prediction by ZEFSAII (Michael W. Deem and Ramdas Pophale) SiO2 
 PCOD8032387
Probable space group: P -1
;
_chemical_formula_sum "Si O2"
_cell_formula_units_Z 16
_cell_length_a 9.688879
_cell_length_b 18.406319
_cell_length_c 5.165236
_cell_angle_alpha 116.635537
_cell_angle_beta 64.645559
_cell_angle_gamma 106.964478
_cell_volume 738.380912
_symmetry_space_group_name_H-M "P -1"
_symmetry_group_IT_number 2
_symmetry_cell_setting 'triclinic'
loop_
_space_group_symop_operation_xyz
x,y,z
-x,-y,-z
loop_
_atom_site_type_symbol
_atom_site_label
_atom_site_fract_x
_atom_site_fract_y
_atom_site_fract_z
Si Si1 0.259762 0.697716 0.300289
Si Si2 0.419906 0.456444 0.748697
Si Si3 0.536774 0.286351 0.343046
Si Si4 0.912834 0.152617 0.345724
Si Si5 0.613449 0.884688 0.724143
Si Si6 0.372270 0.962869 0.731330
Si Si7 0.104376 0.516929 0.189205
Si Si8 0.061448 0.094981 0.628157
O O1 0.375948 0.729442 0.486126
O O2 0.126522 0.755176 0.464539
O O3 0.179895 0.609418 0.300796
O O4 0.347420 0.693306 0.952946
O O5 0.500000 0.500000 0.500000
O O6 0.436748 0.360639 0.577223
O O7 0.500000 0.500000 0.000000
O O8 0.238982 0.460235 0.941849
O O9 0.423627 0.202767 0.241755
O O10 0.758624 0.089654 0.413861
O O11 0.033731 0.139689 0.450814
O O12 0.971540 0.135684 0.987491
O O13 0.451279 0.905356 0.775182
O O14 0.757036 0.883923 0.409859
O O15 0.689791 0.958846 0.964050
O O16 0.500000 0.000000 0.500000
O O17 0.000000 0.500000 0.500000
O O18 0.000000 0.500000 0.000000
O O19 0.000000 0.000000 0.500000
#
# Coordination Sequence:
#
# PCOD8032387 Si02
#       8
#     2   2   2   2   2   2   2   2
#     4  12  25  46  72 103 143 181 231 294 350 411
#     4  12  23  46  74 103 137 193 233 282 356 429
#     4  12  24  44  73 106 137 180 241 298 338 409
#     4  12  26  44  71  97 139 189 231 274 362 414
#     4  11  26  40  68 103 133 180 239 288 341 406
#     4  11  23  42  68  96 135 184 236 283 335 419
#     4  12  26  45  74 107 144 185 230 287 360 430
#     4  12  26  46  67  99 143 188 224 290 351 412
#
# _framework density 21.669034
#
# number of rings (size 3 to 8) (size 9 to 14) (size 15 to 20)
#    0.000    0.250    5.000    4.125    3.500    2.000 
#    0.000    0.000    0.000    0.000    0.000    0.000 
#    0.000    0.000    0.000    0.000    0.000    0.000 
#
# Total GULP energy -198395.447141 kJ/mol
# GULP energy per Si atom -12399.715446 kJ/mol
# Density = 2.161971 g / cm^3
# Si number density = 21.669034 Si / 1000 Ang^3
#
#
#
# Elastic Constant Matrix: (Units=GPa)
#
#
# Indices 1 2 3 4 5 6 
#
# 1 95.2882 18.7974 41.8978 4.9468 -8.3012 -9.5381
# 2 18.7974 133.6208 53.1102 16.4067 -18.8843 -6.2561
# 3 41.8978 53.1102 146.7005 -1.6712 -17.1596 -12.0747
# 4 4.9468 16.4067 -1.6712 42.0972 -4.4584 -5.6038
# 5 -8.3012 -18.8843 -17.1596 -4.4584 43.2423 -4.3175
# 6 -9.5381 -6.2561 -12.0747 -5.6038 -4.3175 36.5131
#
#
#
# Elastic Compliance Matrix: (Units=1/GPa)
#
#
# Indices 1 2 3 4 5 6 
#
# 1 0.012280 -0.000056 -0.003191 -0.001145 0.001158 0.002104
# 2 -0.000056 0.009560 -0.003154 -0.003525 0.002583 0.000345
# 3 -0.003191 -0.003154 0.009353 0.002526 0.002218 0.002369
# 4 -0.001145 -0.003525 0.002526 0.026176 0.002364 0.004229
# 5 0.001158 0.002583 0.002218 0.002364 0.026092 0.004927
# 6 0.002104 0.000345 0.002369 0.004229 0.004927 0.030011
#
#
# Mechanical properties :
#
#
# Convention : Reuss Voigt Hill
#
# Bulk Modulus (GPa) = 54.38063 67.02446 60.70255
# Shear Modulus (GPa) = 37.76285 41.82414 39.79350
#
# Velocity S-wave (km/s) = 4.17911 4.39810 4.29000
# Velocity P-wave (km/s) = 6.95967 7.53586 7.25349
#
# Compressibility (1/GPa) = 0.01838890
#
# Stress axis : x y z
#
# Youngs Moduli (GPa) = 81.43560 104.60707 106.91489
#
# Poissons Ratio (x) = 0.00589 0.34117
# Poissons Ratio (y) = 0.00458 0.33726
# Poissons Ratio (z) = 0.25986 0.32998
#
# Static dielectric constant tensor:
#      x y z
#    x 3.788660 0.436860 -0.359380 
#    y 0.436860 4.277220 -0.148740 
#    z -0.359380 -0.148740 3.968880 
# 
# 
# High freq. dielectric constant tensor:
#      x y z
#    x 1.852960 -0.004320 -0.008430 
#    y -0.004320 1.858230 0.002530 
#    z -0.008430 0.002530 1.870850 
# 
# From -- ./inp_files/48835.got.cif
#   From: 2010.06.25/outbox.cif.g09.slc.cpg/sg2_25_cif.got.tgz:48835.got - 2010.06.27 13:26:56.
