data_PCOD8032235
_publ_section_title
;
Structure prediction by ZEFSAII (Michael W. Deem and Ramdas Pophale) SiO2 
 PCOD8032235
Probable space group: P -1
;
_chemical_formula_sum "Si O2"
_cell_formula_units_Z 16
_cell_length_a 8.488071
_cell_length_b 13.828144
_cell_length_c 27.917970
_cell_angle_alpha 21.693677
_cell_angle_beta 138.786655
_cell_angle_gamma 126.908079
_cell_volume 729.953803
_symmetry_space_group_name_H-M "P -1"
_symmetry_group_IT_number 2
_symmetry_cell_setting 'triclinic'
loop_
_space_group_symop_operation_xyz
x,y,z
-x,-y,-z
loop_
_atom_site_type_symbol
_atom_site_label
_atom_site_fract_x
_atom_site_fract_y
_atom_site_fract_z
Si Si1 0.894477 0.791229 0.689996
Si Si2 0.110563 0.302241 0.734815
Si Si3 0.396900 0.718707 0.018174
Si Si4 0.219626 0.722660 0.239946
Si Si5 0.552042 0.386636 0.299709
Si Si6 0.227414 0.349081 0.583601
Si Si7 0.702361 0.276069 0.112814
Si Si8 0.886796 0.700266 0.094727
O O1 0.687123 0.645238 0.712998
O O2 0.005361 0.816860 0.755994
O O3 0.126889 0.566810 0.814448
O O4 0.795516 0.084919 0.502500
O O5 0.371163 0.362258 0.776586
O O6 0.960252 0.312964 0.743860
O O7 0.899473 0.562247 0.537729
O O8 0.175724 0.003580 0.859630
O O9 0.477685 0.454180 0.195626
O O10 0.639207 0.807190 0.024222
O O11 0.304325 0.622356 0.991049
O O12 0.530005 0.558089 0.396488
O O13 0.154729 0.595556 0.234795
O O14 0.127578 0.060423 0.056564
O O15 0.000000 0.500000 0.500000
O O16 0.355887 0.006444 0.774668
O O17 0.500000 0.500000 0.000000
#
# Coordination Sequence:
#
# PCOD8032235 Si02
#       8
#     2   2   2   2   2   2   2   2
#     4  11  25  45  67  94 137 180 231 268 343 405
#     4  12  24  43  70 101 137 171 228 285 341 401
#     4  12  24  44  72 100 134 177 229 285 339 398
#     4  11  24  41  68 106 133 173 220 285 343 396
#     4  11  26  43  69 100 131 180 224 288 333 402
#     4  12  24  44  71 100 137 176 229 280 342 397
#     4  12  24  45  69  96 138 184 221 276 340 409
#     4  11  23  41  70  97 132 177 224 278 337 406
#
# _framework density 21.919197
#
# number of rings (size 3 to 8) (size 9 to 14) (size 15 to 20)
#    0.000    0.500    6.250    1.500    5.250    1.000 
#    2.250    0.000    0.000    0.000    0.000    0.000 
#    0.000    0.000    0.000    0.000    0.000    0.000 
#
# Total GULP energy -198339.533428 kJ/mol
# GULP energy per Si atom -12396.220839 kJ/mol
# Density = 2.186931 g / cm^3
# Si number density = 21.919197 Si / 1000 Ang^3
#
#
#
# Elastic Constant Matrix: (Units=GPa)
#
#
# Indices 1 2 3 4 5 6 
#
# 1 85.3136 41.0171 48.0754 0.8680 -14.5840 -3.6567
# 2 41.0171 115.3715 42.0192 18.9357 2.5216 -10.8040
# 3 48.0754 42.0192 96.0901 12.9645 -24.4111 -22.5479
# 4 0.8680 18.9357 12.9645 41.1094 -4.2524 -1.0023
# 5 -14.5840 2.5216 -24.4111 -4.2524 33.7544 6.3794
# 6 -3.6567 -10.8040 -22.5479 -1.0023 6.3794 40.0643
#
#
#
# Elastic Compliance Matrix: (Units=1/GPa)
#
#
# Indices 1 2 3 4 5 6 
#
# 1 0.019263 -0.005294 -0.007957 0.004889 0.004475 -0.004738
# 2 -0.005294 0.013114 -0.003660 -0.005448 -0.006972 0.001967
# 3 -0.007957 -0.003660 0.020970 -0.003523 0.009967 0.008413
# 4 0.004889 -0.005448 -0.003523 0.028193 0.004081 -0.002950
# 5 0.004475 -0.006972 0.009967 0.004081 0.040211 -0.002163
# 6 -0.004738 0.001967 0.008413 -0.002950 -0.002163 0.030063
#
#
# Mechanical properties :
#
#
# Convention : Reuss Voigt Hill
#
# Bulk Modulus (GPa) = 51.21982 62.11095 56.66539
# Shear Modulus (GPa) = 26.02202 34.02986 30.02594
#
# Velocity S-wave (km/s) = 3.44928 3.94447 3.70516
# Velocity P-wave (km/s) = 6.26751 7.01020 6.64924
#
# Compressibility (1/GPa) = 0.01952369
#
# Stress axis : x y z
#
# Youngs Moduli (GPa) = 51.91342 76.25603 47.68689
#
# Poissons Ratio (x) = 0.40372 0.37943
# Poissons Ratio (y) = 0.27485 0.17455
# Poissons Ratio (z) = 0.41306 0.27913
#
# Static dielectric constant tensor:
#      x y z
#    x 3.824760 -0.087060 -0.297530 
#    y -0.087060 4.151260 0.424200 
#    z -0.297530 0.424200 4.444760 
# 
# 
# High freq. dielectric constant tensor:
#      x y z
#    x 1.854200 -0.004600 -0.004160 
#    y -0.004600 1.868800 0.023510 
#    z -0.004160 0.023510 1.866230 
# 
# From -- ./inp_files/622594.got.cif
#   From: 2010.06.25/outbox.cif.g09.slc.cpg/sg2_312_cif.got.tgz:622594.got - 2010.06.27 13:26:56.
