data_PCOD8032086
_publ_section_title
;
Structure prediction by ZEFSAII (Michael W. Deem and Ramdas Pophale) SiO2 
 PCOD8032086
Probable space group: P -1
;
_chemical_formula_sum "Si O2"
_cell_formula_units_Z 16
_cell_length_a 8.727767
_cell_length_b 11.776576
_cell_length_c 15.042397
_cell_angle_alpha 50.010965
_cell_angle_beta 139.735571
_cell_angle_gamma 106.085626
_cell_volume 690.938100
_symmetry_space_group_name_H-M "P -1"
_symmetry_group_IT_number 2
_symmetry_cell_setting 'triclinic'
loop_
_space_group_symop_operation_xyz
x,y,z
-x,-y,-z
loop_
_atom_site_type_symbol
_atom_site_label
_atom_site_fract_x
_atom_site_fract_y
_atom_site_fract_z
Si Si1 0.910342 0.039849 0.540549
Si Si2 0.378924 0.864399 0.219115
Si Si3 0.508288 0.647468 0.712220
Si Si4 0.283591 0.219897 0.417130
Si Si5 0.717860 0.902013 0.214552
Si Si6 0.048534 0.247320 0.883751
Si Si7 0.118489 0.606646 0.449906
Si Si8 0.751139 0.513809 0.060318
O O1 0.720367 0.229206 0.384581
O O2 0.187122 0.981874 0.744722
O O3 0.752301 0.938305 0.548753
O O4 0.000000 0.000000 0.500000
O O5 0.477598 0.827784 0.382905
O O6 0.621202 0.794365 0.291998
O O7 0.190423 0.774326 0.160876
O O8 0.245090 0.060377 0.039011
O O9 0.648654 0.730145 0.672542
O O10 0.411653 0.549480 0.647140
O O11 0.717301 0.518325 0.936423
O O12 0.019727 0.353550 0.279843
O O13 0.967470 0.791574 0.323445
O O14 0.500000 0.000000 0.000000
O O15 0.208478 0.324684 0.973609
O O16 0.917862 0.378865 0.679629
O O17 0.000000 0.500000 0.500000
O O18 0.500000 0.500000 0.000000
#
# Coordination Sequence:
#
# PCOD8032086 Si02
#       8
#     2   2   2   2   2   2   2   2
#     4  11  23  40  71  99 135 179 229 285 342 409
#     4  11  24  44  73  98 141 176 239 285 348 407
#     4  11  25  46  64 100 139 178 234 280 346 420
#     4  12  25  44  71 100 138 187 229 290 350 415
#     4  11  24  40  66 102 135 176 236 280 337 416
#     4  11  25  46  70 103 139 185 224 291 352 411
#     4  11  24  42  68  98 140 178 224 283 350 411
#     4  12  28  44  70 102 142 182 237 286 354 415
#
# _framework density 23.156922000000002
#
# number of rings (size 3 to 8) (size 9 to 14) (size 15 to 20)
#    0.000    0.750    3.750    3.000    5.250    3.500 
#    0.000    0.000    0.000    0.000    0.000    0.000 
#    0.000    0.000    0.000    0.000    0.000    0.000 
#
# Total GULP energy -198283.867063 kJ/mol
# GULP energy per Si atom -12392.741691 kJ/mol
# Density = 2.310422 g / cm^3
# Si number density = 23.156922 Si / 1000 Ang^3
#
#
#
# Elastic Constant Matrix: (Units=GPa)
#
#
# Indices 1 2 3 4 5 6 
#
# 1 94.6503 10.4931 11.9915 17.9663 -8.4277 15.8650
# 2 10.4931 96.1414 30.9829 26.5985 2.3638 27.3201
# 3 11.9915 30.9829 101.2897 28.6681 -19.9798 6.0064
# 4 17.9663 26.5985 28.6681 40.7217 -1.0359 4.4866
# 5 -8.4277 2.3638 -19.9798 -1.0359 41.2294 0.4869
# 6 15.8650 27.3201 6.0064 4.4866 0.4869 43.3212
#
#
#
# Elastic Compliance Matrix: (Units=1/GPa)
#
#
# Indices 1 2 3 4 5 6 
#
# 1 0.012619 0.001553 0.000692 -0.006442 0.002723 -0.005060
# 2 0.001553 0.016132 -0.002554 -0.008428 -0.001945 -0.009493
# 3 0.000692 -0.002554 0.014386 -0.008605 0.007041 0.000175
# 4 -0.006442 -0.008428 -0.008605 0.038313 -0.004099 0.004945
# 5 0.002723 -0.001945 0.007041 -0.004099 0.028239 -0.000640
# 6 -0.005060 -0.009493 0.000175 0.004945 -0.000640 0.030394
#
#
# Mechanical properties :
#
#
# Convention : Reuss Voigt Hill
#
# Bulk Modulus (GPa) = 23.51912 44.33514 33.92713
# Shear Modulus (GPa) = 32.28431 40.96205 36.62318
#
# Velocity S-wave (km/s) = 3.73789 4.21038 3.98115
# Velocity P-wave (km/s) = 5.36726 6.54397 5.98461
#
# Compressibility (1/GPa) = 0.04251859
#
# Stress axis : x y z
#
# Youngs Moduli (GPa) = 79.24663 61.98844 69.51279
#
# Poissons Ratio (x) = -0.09627 -0.04807
# Poissons Ratio (y) = -0.12307 0.17751
# Poissons Ratio (z) = -0.05480 0.15829
#
# Static dielectric constant tensor:
#      x y z
#    x 5.135050 1.121420 1.604620 
#    y 1.121420 5.192290 1.881720 
#    z 1.604620 1.881720 6.810160 
# 
# 
# High freq. dielectric constant tensor:
#      x y z
#    x 1.922990 0.014090 -0.001860 
#    y 0.014090 1.911600 0.019190 
#    z -0.001860 0.019190 1.921820 
# 
# From -- ./inp_files/205188.got.cif
#   From: 2010.06.25/outbox.cif.g09.slc.cpg/sg2_103_cif.got.tgz:205188.got - 2010.06.27 13:26:56.
