data_PCOD8032306
_publ_section_title
;
Structure prediction by ZEFSAII (Michael W. Deem and Ramdas Pophale) SiO2 
 PCOD8032306
Probable space group: P -1
;
_chemical_formula_sum "Si O2"
_cell_formula_units_Z 14
_cell_length_a 11.308662
_cell_length_b 15.239953
_cell_length_c 15.796960
_cell_angle_alpha 18.200160
_cell_angle_beta 132.067063
_cell_angle_gamma 132.439063
_cell_volume 622.576517
_symmetry_space_group_name_H-M "P -1"
_symmetry_group_IT_number 2
_symmetry_cell_setting 'triclinic'
loop_
_space_group_symop_operation_xyz
x,y,z
-x,-y,-z
loop_
_atom_site_type_symbol
_atom_site_label
_atom_site_fract_x
_atom_site_fract_y
_atom_site_fract_z
Si Si1 0.738731 0.866587 0.463586
Si Si2 0.607185 0.356201 0.748079
Si Si3 0.548554 0.886928 0.950317
Si Si4 0.962594 0.750801 0.810375
Si Si5 0.257390 0.595831 0.519014
Si Si6 0.962170 0.338234 0.886824
Si Si7 0.033379 0.763199 0.389532
O O1 0.659424 0.569727 0.655971
O O2 0.796877 0.835908 0.616450
O O3 0.611246 0.084944 0.205980
O O4 0.891247 0.984087 0.369084
O O5 0.500000 0.500000 0.500000
O O6 0.767460 0.269796 0.863935
O O7 0.494210 0.094982 0.984595
O O8 0.686845 0.152629 0.751763
O O9 0.601543 0.586789 0.226236
O O10 0.000000 0.500000 0.000000
O O11 0.944670 0.644768 0.995010
O O12 0.112480 0.387062 0.599088
O O13 0.202190 0.726745 0.459877
O O14 0.020876 0.637108 0.593977
O O15 0.020300 0.094098 0.082070
#
# Coordination Sequence:
#
# PCOD8032306 Si02
#       7
#     2   2   2   2   2   2   2
#     4  11  23  42  65 102 135 189 221 265 347 405
#     4  12  26  41  65 110 149 173 213 280 362 426
#     4  12  23  43  67 101 133 186 214 280 340 411
#     4  11  23  42  68  98 143 184 231 272 334 418
#     4  11  25  45  70  92 142 181 240 272 337 413
#     4  12  24  43  69 100 142 172 229 283 339 406
#     4  11  26  45  66 101 129 192 232 284 331 396
#
# _framework density 22.487193999999999
#
# number of rings (size 3 to 8) (size 9 to 14) (size 15 to 20)
#    0.000    0.571    4.286    3.429    4.000    4.000 
#    0.000    0.714    0.000    5.143    0.000    0.000 
#    0.000    0.000    0.000    0.000    0.000    0.000 
#
# Total GULP energy -173654.923842 kJ/mol
# GULP energy per Si atom -12403.923132 kJ/mol
# Density = 2.243601 g / cm^3
# Si number density = 22.487194 Si / 1000 Ang^3
#
#
#
# Elastic Constant Matrix: (Units=GPa)
#
#
# Indices 1 2 3 4 5 6 
#
# 1 120.3396 10.5104 35.7716 16.3325 17.8817 -9.7729
# 2 10.5104 50.0510 0.4398 28.7422 4.0671 -6.8602
# 3 35.7716 0.4398 103.0631 21.4989 12.3211 -3.8087
# 4 16.3325 28.7422 21.4989 42.9371 4.2145 0.1027
# 5 17.8817 4.0671 12.3211 4.2145 46.6050 -2.3191
# 6 -9.7729 -6.8602 -3.8087 0.1027 -2.3191 20.9726
#
#
#
# Elastic Compliance Matrix: (Units=1/GPa)
#
#
# Indices 1 2 3 4 5 6 
#
# 1 0.010118 -0.000016 -0.002552 -0.002295 -0.002802 0.003948
# 2 -0.000016 0.038623 0.006618 -0.029018 -0.001805 0.013771
# 3 -0.002552 0.006618 0.012949 -0.009756 -0.001982 0.003156
# 4 -0.002295 -0.029018 -0.009756 0.048405 0.000995 -0.012460
# 5 -0.002802 -0.001805 -0.001982 0.000995 0.023139 0.000298
# 6 0.003948 0.013771 0.003156 -0.012460 0.000298 0.054692
#
#
# Mechanical properties :
#
#
# Convention : Reuss Voigt Hill
#
# Bulk Modulus (GPa) = 14.32850 40.76635 27.54743
# Shear Modulus (GPa) = 24.61980 37.21839 30.91910
#
# Velocity S-wave (km/s) = 3.31242 4.07270 3.71207
# Velocity P-wave (km/s) = 4.58423 6.34696 5.53620
#
# Compressibility (1/GPa) = 0.06979097
#
# Stress axis : x y z
#
# Youngs Moduli (GPa) = 98.83094 25.89150 77.22488
#
# Poissons Ratio (x) = 0.00041 0.19710
# Poissons Ratio (y) = 0.00156 -0.51111
# Poissons Ratio (z) = 0.25224 -0.17136
#
# Static dielectric constant tensor:
#      x y z
#    x 4.591590 -0.018980 -0.228920 
#    y -0.018980 4.198980 0.251480 
#    z -0.228920 0.251480 4.699620 
# 
# 
# High freq. dielectric constant tensor:
#      x y z
#    x 1.871480 0.003600 0.002080 
#    y 0.003600 1.867490 0.002840 
#    z 0.002080 0.002840 1.916420 
# 
# From -- ./inp_files/521229.got.cif
#   From: 2010.06.25/outbox.cif.g09.slc.cpg/sg2_261_cif.got.tgz:521229.got - 2010.06.27 13:26:56.
