data_PCOD8032812
_publ_section_title
;
Structure prediction by ZEFSAII (Michael W. Deem and Ramdas Pophale) SiO2 
 PCOD8032812
Probable space group: P -1
;
_chemical_formula_sum "Si O2"
_cell_formula_units_Z 16
_cell_length_a 12.876271
_cell_length_b 8.677936
_cell_length_c 8.974943
_cell_angle_alpha 114.059757
_cell_angle_beta 63.166736
_cell_angle_gamma 122.730574
_cell_volume 734.684200
_symmetry_space_group_name_H-M "P -1"
_symmetry_group_IT_number 2
_symmetry_cell_setting 'triclinic'
loop_
_space_group_symop_operation_xyz
x,y,z
-x,-y,-z
loop_
_atom_site_type_symbol
_atom_site_label
_atom_site_fract_x
_atom_site_fract_y
_atom_site_fract_z
Si Si1 0.524865 0.209739 0.607808
Si Si2 0.126098 0.105294 0.360332
Si Si3 0.913929 0.377855 0.141209
Si Si4 0.925330 0.803140 0.893566
Si Si5 0.287289 0.915540 0.050107
Si Si6 0.266826 0.467505 0.587960
Si Si7 0.664863 0.622310 0.169431
Si Si8 0.555817 0.252568 0.937435
O O1 0.612083 0.352961 0.482973
O O2 0.389490 0.225144 0.705671
O O3 0.595266 0.271062 0.745821
O O4 0.500000 0.000000 0.500000
O O5 0.081997 0.173673 0.267980
O O6 0.237391 0.281398 0.440682
O O7 0.189528 0.964842 0.230575
O O8 0.000000 0.000000 0.500000
O O9 0.862096 0.500616 0.320443
O O10 0.999666 0.322455 0.175318
O O11 0.789990 0.197505 0.088631
O O12 0.000000 0.500000 0.000000
O O13 0.783952 0.708503 0.015661
O O14 0.000000 0.000000 0.000000
O O15 0.337272 0.791671 0.066192
O O16 0.408921 0.098237 0.985578
O O17 0.297410 0.441026 0.726757
O O18 0.558592 0.441130 0.080660
#
# Coordination Sequence:
#
# PCOD8032812 Si02
#       8
#     2   2   2   2   2   2   2   2
#     4  12  28  42  68 107 143 176 230 295 352 405
#     4  12  26  44  69 108 143 178 228 295 355 405
#     4  12  23  46  71 103 137 183 238 280 338 419
#     4  12  25  44  77  99 134 188 235 280 339 423
#     4  11  23  43  73  99 137 181 238 279 338 419
#     4  12  26  44  70 103 145 180 226 297 353 403
#     4  12  25  48  72  99 140 188 235 278 351 422
#     4  11  24  45  72  98 133 189 232 282 340 416
#
# _framework density 21.778065999999999
#
# number of rings (size 3 to 8) (size 9 to 14) (size 15 to 20)
#    0.000    0.250    3.750    5.250    5.250    1.500 
#    0.000    0.000    0.000    0.000    0.000    0.000 
#    0.000    0.000    0.000    0.000    0.000    0.000 
#
# Total GULP energy -198504.282473 kJ/mol
# GULP energy per Si atom -12406.517655 kJ/mol
# Density = 2.172850 g / cm^3
# Si number density = 21.778066 Si / 1000 Ang^3
#
#
#
# Elastic Constant Matrix: (Units=GPa)
#
#
# Indices 1 2 3 4 5 6 
#
# 1 119.5140 38.3123 55.3331 -10.8015 -13.4524 -13.1058
# 2 38.3123 108.0191 36.2746 -2.0134 7.6847 1.2449
# 3 55.3331 36.2746 115.4544 -8.4232 7.2271 -14.7751
# 4 -10.8015 -2.0134 -8.4232 49.6048 -5.5121 0.7047
# 5 -13.4524 7.6847 7.2271 -5.5121 43.7757 7.8076
# 6 -13.1058 1.2449 -14.7751 0.7047 7.8076 37.5123
#
#
#
# Elastic Compliance Matrix: (Units=1/GPa)
#
#
# Indices 1 2 3 4 5 6 
#
# 1 0.012694 -0.003148 -0.005081 0.002347 0.005341 0.001382
# 2 -0.003148 0.011281 -0.002182 -0.000835 -0.002367 -0.001825
# 3 -0.005081 -0.002182 0.012580 0.000448 -0.003923 0.004060
# 4 0.002347 -0.000835 0.000448 0.021099 0.003468 -0.000094
# 5 0.005341 -0.002367 -0.003923 0.003468 0.026925 -0.005270
# 6 0.001382 -0.001825 0.004060 -0.000094 -0.005270 0.029899
#
#
# Mechanical properties :
#
#
# Convention : Reuss Voigt Hill
#
# Bulk Modulus (GPa) = 63.56142 66.98084 65.27113
# Shear Modulus (GPa) = 35.57625 40.38305 37.97965
#
# Velocity S-wave (km/s) = 4.04614 4.31083 4.18058
# Velocity P-wave (km/s) = 7.14687 7.45658 7.30336
#
# Compressibility (1/GPa) = 0.01573281
#
# Stress axis : x y z
#
# Youngs Moduli (GPa) = 78.77957 88.64619 79.49284
#
# Poissons Ratio (x) = 0.27908 0.40388
# Poissons Ratio (y) = 0.24801 0.17344
# Poissons Ratio (z) = 0.40025 0.19341
#
# Static dielectric constant tensor:
#      x y z
#    x 3.978200 -0.288130 -0.130410 
#    y -0.288130 4.037790 -0.007290 
#    z -0.130410 -0.007290 4.000330 
# 
# 
# High freq. dielectric constant tensor:
#      x y z
#    x 1.868530 -0.004850 -0.002730 
#    y -0.004850 1.871260 0.000380 
#    z -0.002730 0.000380 1.865380 
# 
# From -- ./inp_files/189930.got.cif
#   From: 2010.06.25/outbox.cif.g09.slc.cpg/sg2_95_cif.got.tgz:189930.got - 2010.06.27 13:26:56.
