data_PCOD8032460
_publ_section_title
;
Structure prediction by ZEFSAII (Michael W. Deem and Ramdas Pophale) SiO2 
 PCOD8032460
Probable space group: P -1
;
_chemical_formula_sum "Si O2"
_cell_formula_units_Z 16
_cell_length_a 14.991985
_cell_length_b 8.371524
_cell_length_c 9.990471
_cell_angle_alpha 68.790423
_cell_angle_beta 75.574202
_cell_angle_gamma 126.360898
_cell_volume 740.402588
_symmetry_space_group_name_H-M "P -1"
_symmetry_group_IT_number 2
_symmetry_cell_setting 'triclinic'
loop_
_space_group_symop_operation_xyz
x,y,z
-x,-y,-z
loop_
_atom_site_type_symbol
_atom_site_label
_atom_site_fract_x
_atom_site_fract_y
_atom_site_fract_z
Si Si1 0.364292 0.422113 0.914388
Si Si2 0.972659 0.454825 0.308822
Si Si3 0.781333 0.986339 0.333999
Si Si4 0.334575 0.527420 0.390531
Si Si5 0.489872 0.180152 0.497528
Si Si6 0.795105 0.324855 0.652320
Si Si7 0.492645 0.243669 0.998375
Si Si8 0.093596 0.967191 0.002555
O O1 0.445744 0.602363 0.700297
O O2 0.426767 0.331670 0.962330
O O3 0.389372 0.585342 0.980086
O O4 0.199574 0.168370 0.021136
O O5 0.857747 0.296986 0.518226
O O6 0.119000 0.585426 0.270495
O O7 0.993623 0.673458 0.176170
O O8 0.920228 0.254710 0.272682
O O9 0.720127 0.744024 0.518789
O O10 0.670310 0.986280 0.364498
O O11 0.819092 0.969012 0.179038
O O12 0.421893 0.674317 0.446841
O O13 0.200964 0.469235 0.454857
O O14 0.432936 0.721815 0.171644
O O15 0.500000 0.000000 0.500000
O O16 0.631960 0.052967 0.815650
O O17 0.000000 0.000000 0.000000
#
# Coordination Sequence:
#
# PCOD8032460 Si02
#       8
#     2   2   2   2   2   2   2   2
#     4  11  23  43  70 101 134 181 221 285 348 401
#     4  11  26  45  66  94 138 189 227 279 334 407
#     4  12  25  44  70 100 139 175 234 285 341 408
#     4  12  24  42  71 102 135 173 226 294 344 404
#     4  12  25  44  74 103 138 177 227 290 352 402
#     4  11  25  45  66  96 138 180 229 277 345 408
#     4  11  23  42  71 102 138 170 226 287 348 405
#     4  12  26  46  70  98 141 185 234 279 337 412
#
# _framework density 21.609863000000001
#
# number of rings (size 3 to 8) (size 9 to 14) (size 15 to 20)
#    0.000    0.500    3.750    4.875    3.500    1.500 
#    0.000    0.000    0.000    0.000    0.000    0.000 
#    0.000    0.000    0.000    0.000    0.000    0.000 
#
# Total GULP energy -198469.710682 kJ/mol
# GULP energy per Si atom -12404.356918 kJ/mol
# Density = 2.156068 g / cm^3
# Si number density = 21.609863 Si / 1000 Ang^3
#
#
#
# Elastic Constant Matrix: (Units=GPa)
#
#
# Indices 1 2 3 4 5 6 
#
# 1 146.5059 58.3780 16.0656 -1.0897 11.1385 2.9231
# 2 58.3780 168.5680 43.5322 1.3557 5.1817 11.9659
# 3 16.0656 43.5322 99.3539 6.0488 1.8629 0.5547
# 4 -1.0897 1.3557 6.0488 39.4695 -2.4876 3.9691
# 5 11.1385 5.1817 1.8629 -2.4876 28.8975 7.0492
# 6 2.9231 11.9659 0.5547 3.9691 7.0492 29.8579
#
#
#
# Elastic Compliance Matrix: (Units=1/GPa)
#
#
# Indices 1 2 3 4 5 6 
#
# 1 0.008142 -0.002790 -0.000049 0.000047 -0.002873 0.000994
# 2 -0.002790 0.007871 -0.003021 0.000461 0.000639 -0.003037
# 3 -0.000049 -0.003021 0.011514 -0.001847 -0.000684 0.001409
# 4 0.000047 0.000461 -0.001847 0.026263 0.003362 -0.004440
# 5 -0.002873 0.000639 -0.000684 0.003362 0.038233 -0.009436
# 6 0.000994 -0.003037 0.001409 -0.004440 -0.009436 0.037404
#
#
# Mechanical properties :
#
#
# Convention : Reuss Voigt Hill
#
# Bulk Modulus (GPa) = 63.25851 72.26437 67.76144
# Shear Modulus (GPa) = 34.14995 39.40844 36.77920
#
# Velocity S-wave (km/s) = 3.97960 4.27503 4.12996
# Velocity P-wave (km/s) = 7.10302 7.60795 7.35982
#
# Compressibility (1/GPa) = 0.01580815
#
# Stress axis : x y z
#
# Youngs Moduli (GPa) = 122.82707 127.05333 86.85220
#
# Poissons Ratio (x) = 0.35442 0.00424
# Poissons Ratio (y) = 0.34263 0.26235
# Poissons Ratio (z) = 0.00599 0.38378
#
# Static dielectric constant tensor:
#      x y z
#    x 4.091970 -0.189550 0.403340 
#    y -0.189550 4.627790 -0.492040 
#    z 0.403340 -0.492040 4.603120 
# 
# 
# High freq. dielectric constant tensor:
#      x y z
#    x 1.858460 0.000280 0.012320 
#    y 0.000280 1.856580 0.002770 
#    z 0.012320 0.002770 1.853890 
# 
# From -- ./inp_files/297805.got.cif
#   From: 2010.06.25/outbox.cif.g09.slc.cpg/sg2_149_cif.got.tgz:297805.got - 2010.06.27 13:26:56.
