data_PCOD8032563
_publ_section_title
;
Structure prediction by ZEFSAII (Michael W. Deem and Ramdas Pophale) SiO2 
 PCOD8032563
Probable space group: P -1
;
_chemical_formula_sum "Si O2"
_cell_formula_units_Z 14
_cell_length_a 6.617994
_cell_length_b 21.342260
_cell_length_c 9.044148
_cell_angle_alpha 38.191269
_cell_angle_beta 53.581863
_cell_angle_gamma 62.218727
_cell_volume 635.568948
_symmetry_space_group_name_H-M "P -1"
_symmetry_group_IT_number 2
_symmetry_cell_setting 'triclinic'
loop_
_space_group_symop_operation_xyz
x,y,z
-x,-y,-z
loop_
_atom_site_type_symbol
_atom_site_label
_atom_site_fract_x
_atom_site_fract_y
_atom_site_fract_z
Si Si1 0.649936 0.744537 0.557461
Si Si2 0.312705 0.914382 0.686418
Si Si3 0.741416 0.547229 0.720762
Si Si4 0.714557 0.758536 0.834484
Si Si5 0.788890 0.135267 0.503347
Si Si6 0.741070 0.553340 0.360431
Si Si7 0.143388 0.039025 0.006392
O O1 0.768590 0.664713 0.540357
O O2 0.746014 0.714893 0.734270
O O3 0.347318 0.752870 0.648462
O O4 0.693450 0.864363 0.288600
O O5 0.438552 0.806899 0.872353
O O6 0.256843 0.923286 0.521015
O O7 0.047245 0.918102 0.870934
O O8 0.500000 0.000000 0.500000
O O9 0.710573 0.538981 0.574875
O O10 0.005709 0.491841 0.740845
O O11 0.500000 0.500000 0.000000
O O12 0.918871 0.843773 0.628179
O O13 0.733520 0.671272 0.108561
O O14 0.699652 0.055401 0.817568
O O15 0.500000 0.500000 0.500000
O O16 0.000000 0.000000 0.000000
#
# Coordination Sequence:
#
# PCOD8032563 Si02
#       7
#     2   2   2   2   2   2   2
#     4  11  25  41  69  98 133 177 224 281 337 409
#     4  11  24  41  64  94 133 179 224 274 331 408
#     4  11  26  49  71 104 139 177 236 290 351 417
#     4  11  24  44  66  97 132 175 225 273 350 404
#     4  11  23  43  65  93 138 178 219 278 337 401
#     4  11  27  46  74 101 138 181 230 294 352 414
#     4  12  23  42  63  98 136 173 225 272 331 402
#
# _framework density 22.027505999999999
#
# number of rings (size 3 to 8) (size 9 to 14) (size 15 to 20)
#    0.000    0.857    2.857    3.429    4.000    6.857 
#    0.000    0.000    0.000    0.000    0.000    0.000 
#    0.000    0.000    0.000    0.000    0.000    0.000 
#
# Total GULP energy -173524.969586 kJ/mol
# GULP energy per Si atom -12394.640685 kJ/mol
# Density = 2.197737 g / cm^3
# Si number density = 22.027506 Si / 1000 Ang^3
#
#
#
# Elastic Constant Matrix: (Units=GPa)
#
#
# Indices 1 2 3 4 5 6 
#
# 1 117.8337 40.8433 31.1762 -0.5762 14.0846 2.0096
# 2 40.8433 118.5087 21.3115 1.1625 10.1075 1.9870
# 3 31.1762 21.3115 98.6823 -0.8859 9.1400 -5.8332
# 4 -0.5762 1.1625 -0.8859 36.0248 -0.6784 -1.4128
# 5 14.0846 10.1075 9.1400 -0.6784 36.9995 -2.8844
# 6 2.0096 1.9870 -5.8332 -1.4128 -2.8844 34.9862
#
#
#
# Elastic Compliance Matrix: (Units=1/GPa)
#
#
# Indices 1 2 3 4 5 6 
#
# 1 0.010499 -0.002925 -0.002501 0.000109 -0.002661 -0.001069
# 2 -0.002925 0.009776 -0.001108 -0.000442 -0.001346 -0.000701
# 3 -0.002501 -0.001108 0.011414 0.000329 -0.001402 0.002007
# 4 0.000109 -0.000442 0.000329 0.027843 0.000606 0.001248
# 5 -0.002661 -0.001346 -0.001402 0.000606 0.028953 0.002407
# 6 -0.001069 -0.000701 0.002007 0.001248 0.002407 0.029267
#
#
# Mechanical properties :
#
#
# Convention : Reuss Voigt Hill
#
# Bulk Modulus (GPa) = 53.69937 57.96521 55.83229
# Shear Modulus (GPa) = 36.48875 37.71500 37.10188
#
# Velocity S-wave (km/s) = 4.07444 4.14234 4.10853
# Velocity P-wave (km/s) = 6.82393 7.01788 6.92158
#
# Compressibility (1/GPa) = 0.01862219
#
# Stress axis : x y z
#
# Youngs Moduli (GPa) = 95.24831 102.28730 87.60840
#
# Poissons Ratio (x) = 0.29917 0.21910
# Poissons Ratio (y) = 0.27858 0.09707
# Poissons Ratio (z) = 0.23821 0.11333
#
# Static dielectric constant tensor:
#      x y z
#    x 4.268090 -0.230220 -0.147860 
#    y -0.230220 4.176920 0.234270 
#    z -0.147860 0.234270 3.908660 
# 
# 
# High freq. dielectric constant tensor:
#      x y z
#    x 1.892180 -0.005110 0.005980 
#    y -0.005110 1.869740 -0.002810 
#    z 0.005980 -0.002810 1.863350 
# 
# From -- ./inp_files/46488.got.cif
#   From: 2010.06.25/outbox.cif.g09.slc.cpg/sg2_24_cif.got.tgz:46488.got - 2010.06.27 13:26:56.
