data_PCOD8032423
_publ_section_title
;
Structure prediction by ZEFSAII (Michael W. Deem and Ramdas Pophale) SiO2 
 PCOD8032423
Probable space group: P -1
;
_chemical_formula_sum "Si O2"
_cell_formula_units_Z 16
_cell_length_a 12.387552
_cell_length_b 8.540183
_cell_length_c 9.302343
_cell_angle_alpha 76.309819
_cell_angle_beta 83.864351
_cell_angle_gamma 52.250731
_cell_volume 755.102677
_symmetry_space_group_name_H-M "P -1"
_symmetry_group_IT_number 2
_symmetry_cell_setting 'triclinic'
loop_
_space_group_symop_operation_xyz
x,y,z
-x,-y,-z
loop_
_atom_site_type_symbol
_atom_site_label
_atom_site_fract_x
_atom_site_fract_y
_atom_site_fract_z
Si Si1 0.759352 0.431802 0.227414
Si Si2 0.132865 0.318971 0.437631
Si Si3 0.639980 0.449371 0.940079
Si Si4 0.406806 0.243846 0.360121
Si Si5 0.152462 0.923303 0.512468
Si Si6 0.038550 0.342069 0.149465
Si Si7 0.736912 0.108336 0.791777
Si Si8 0.481324 0.183122 0.664949
O O1 0.761907 0.255047 0.343050
O O2 0.661540 0.646170 0.275563
O O3 0.910348 0.365641 0.229093
O O4 0.719296 0.451896 0.062518
O O5 0.271696 0.293492 0.449871
O O6 0.108233 0.375471 0.261296
O O7 0.000000 0.500000 0.500000
O O8 0.158012 0.107266 0.513072
O O9 0.620933 0.597389 0.787302
O O10 0.727161 0.229369 0.905001
O O11 0.500000 0.500000 0.000000
O O12 0.488370 0.246634 0.485444
O O13 0.496229 0.028874 0.310896
O O14 0.219061 0.831307 0.367767
O O15 0.000000 0.000000 0.500000
O O16 0.149014 0.118727 0.120964
O O17 0.000000 0.500000 0.000000
O O18 0.595791 0.149057 0.761993
#
# Coordination Sequence:
#
# PCOD8032423 Si02
#       8
#     2   2   2   2   2   2   2   2
#     4  12  25  42  71 100 132 179 226 273 339 400
#     4  11  23  42  70 100 131 171 225 282 331 394
#     4  12  28  43  66 102 139 180 227 275 337 405
#     4  11  25  44  67 103 135 175 228 277 340 403
#     4  11  23  45  71 100 133 173 229 280 336 399
#     4  11  24  44  66  96 136 176 217 269 342 399
#     4  11  24  47  70  97 137 177 223 286 333 393
#     4  11  24  45  73  98 130 179 226 281 336 395
#
# _framework density 21.189171000000002
#
# number of rings (size 3 to 8) (size 9 to 14) (size 15 to 20)
#    0.000    0.750    6.250    2.250    3.500    4.000 
#    0.000    0.000    0.000    0.000    0.000    0.000 
#    0.000    0.000    0.000    0.000    0.000    0.000 
#
# Total GULP energy -198363.173997 kJ/mol
# GULP energy per Si atom -12397.698375 kJ/mol
# Density = 2.114094 g / cm^3
# Si number density = 21.189171 Si / 1000 Ang^3
#
#
#
# Elastic Constant Matrix: (Units=GPa)
#
#
# Indices 1 2 3 4 5 6 
#
# 1 65.4431 30.4733 3.7294 -4.6537 -10.7299 -2.7507
# 2 30.4733 168.2519 70.5663 8.7549 -5.3545 -2.4071
# 3 3.7294 70.5663 101.5455 -9.3806 -6.2112 12.6190
# 4 -4.6537 8.7549 -9.3806 46.6935 6.9372 4.3846
# 5 -10.7299 -5.3545 -6.2112 6.9372 34.7763 -0.9318
# 6 -2.7507 -2.4071 12.6190 4.3846 -0.9318 22.7733
#
#
#
# Elastic Compliance Matrix: (Units=1/GPa)
#
#
# Indices 1 2 3 4 5 6 
#
# 1 0.018218 -0.004576 0.003089 0.002587 0.004944 -0.000291
# 2 -0.004576 0.010634 -0.008429 -0.004693 -0.000180 0.006138
# 3 0.003089 -0.008429 0.017680 0.006334 0.001242 -0.011483
# 4 0.002587 -0.004693 0.006334 0.025249 -0.004063 -0.008721
# 5 0.004944 -0.000180 0.001242 -0.004063 0.031338 0.001955
# 6 -0.000291 0.006138 -0.011483 -0.008721 0.001955 0.052647
#
#
# Mechanical properties :
#
#
# Convention : Reuss Voigt Hill
#
# Bulk Modulus (GPa) = 37.45562 60.53094 48.99328
# Shear Modulus (GPa) = 27.10066 36.21339 31.65702
#
# Velocity S-wave (km/s) = 3.58017 4.13855 3.86945
# Velocity P-wave (km/s) = 5.89960 7.17396 6.56777
#
# Compressibility (1/GPa) = 0.02669826
#
# Stress axis : x y z
#
# Youngs Moduli (GPa) = 54.89138 94.04024 56.56166
#
# Poissons Ratio (x) = 0.43037 -0.17470
# Poissons Ratio (y) = 0.25120 0.47675
# Poissons Ratio (z) = -0.16954 0.79265
#
# Static dielectric constant tensor:
#      x y z
#    x 3.892080 -0.046820 -0.233340 
#    y -0.046820 4.123270 0.044270 
#    z -0.233340 0.044270 1.992730 
# 
# 
# High freq. dielectric constant tensor:
#      x y z
#    x 1.830950 -0.010490 0.007790 
#    y -0.010490 1.847320 -0.000800 
#    z 0.007790 -0.000800 1.835930 
# 
# From -- ./inp_files/243543.got.cif
#   From: 2010.06.25/outbox.cif.g09.slc.cpg/sg2_122_cif.got.tgz:243543.got - 2010.06.27 13:26:56.
