data_PCOD8032426
_publ_section_title
;
Structure prediction by ZEFSAII (Michael W. Deem and Ramdas Pophale) SiO2 
 PCOD8032426
Probable space group: P -1
;
_chemical_formula_sum "Si O2"
_cell_formula_units_Z 16
_cell_length_a 8.012915
_cell_length_b 10.116033
_cell_length_c 15.408275
_cell_angle_alpha 39.372295
_cell_angle_beta 68.583466
_cell_angle_gamma 73.520339
_cell_volume 737.587831
_symmetry_space_group_name_H-M "P -1"
_symmetry_group_IT_number 2
_symmetry_cell_setting 'triclinic'
loop_
_space_group_symop_operation_xyz
x,y,z
-x,-y,-z
loop_
_atom_site_type_symbol
_atom_site_label
_atom_site_fract_x
_atom_site_fract_y
_atom_site_fract_z
Si Si1 0.276084 0.498187 0.905883
Si Si2 0.167962 0.853438 0.037854
Si Si3 0.178542 0.729275 0.290041
Si Si4 0.922252 0.507938 0.877166
Si Si5 0.838750 0.853032 0.582483
Si Si6 0.187693 0.259425 0.552597
Si Si7 0.520249 0.082659 0.300613
Si Si8 0.547910 0.917190 0.885068
O O1 0.381579 0.712940 0.785368
O O2 0.137709 0.521794 0.839919
O O3 0.167786 0.434675 0.044394
O O4 0.405710 0.301069 0.964017
O O5 0.175860 0.716626 0.193008
O O6 0.140593 0.720007 0.023660
O O7 0.351411 0.982731 0.923979
O O8 0.000000 0.000000 0.000000
O O9 0.237139 0.503305 0.430300
O O10 0.982653 0.795143 0.327986
O O11 0.316804 0.900723 0.209584
O O12 0.849404 0.653658 0.742105
O O13 0.861957 0.789565 0.511382
O O14 0.647195 0.964393 0.579907
O O15 0.000000 0.000000 0.500000
O O16 0.353370 0.119463 0.622979
O O17 0.447920 0.124055 0.197263
#
# Coordination Sequence:
#
# PCOD8032426 Si02
#       8
#     2   2   2   2   2   2   2   2
#     4  11  24  41  72 106 130 167 218 292 353 389
#     4  12  24  45  67 101 135 177 223 275 337 397
#     4  11  26  46  67  94 139 185 226 270 321 401
#     4  11  23  42  70 101 134 169 218 282 348 397
#     4  12  24  45  67 101 135 177 223 275 337 397
#     4  11  26  46  67  94 139 185 226 270 321 401
#     4  12  24  43  71 100 134 173 224 281 341 395
#     4  12  24  43  71 100 134 173 224 281 341 395
#
# _framework density 21.692329999999998
#
# number of rings (size 3 to 8) (size 9 to 14) (size 15 to 20)
#    0.000    0.500    3.750    4.875    3.500    0.500 
#    2.250    0.000    0.000    0.000    0.000    0.000 
#    0.000    0.000    0.000    0.000    0.000    0.000 
#
# Total GULP energy -198474.603259 kJ/mol
# GULP energy per Si atom -12404.662704 kJ/mol
# Density = 2.164296 g / cm^3
# Si number density = 21.692330 Si / 1000 Ang^3
#
#
#
# Elastic Constant Matrix: (Units=GPa)
#
#
# Indices 1 2 3 4 5 6 
#
# 1 133.8165 47.6631 39.4030 -20.5048 -15.7169 -1.4466
# 2 47.6631 85.9542 26.5447 -8.6539 -11.1074 -2.2336
# 3 39.4030 26.5447 67.6388 -13.5218 -12.6951 -3.7844
# 4 -20.5048 -8.6539 -13.5218 46.7266 -1.5135 8.8373
# 5 -15.7169 -11.1074 -12.6951 -1.5135 39.0329 3.4270
# 6 -1.4466 -2.2336 -3.7844 8.8373 3.4270 27.2074
#
#
#
# Elastic Compliance Matrix: (Units=1/GPa)
#
#
# Indices 1 2 3 4 5 6 
#
# 1 0.010822 -0.004304 -0.003634 0.003280 0.002221 -0.001629
# 2 -0.004304 0.015201 -0.003151 -0.000009 0.001533 0.000391
# 3 -0.003634 -0.003151 0.019649 0.003524 0.004113 0.000618
# 4 0.003280 -0.000009 0.003524 0.025536 0.004171 -0.008156
# 5 0.002221 0.001533 0.004113 0.004171 0.028816 -0.004168
# 6 -0.001629 0.000391 0.000618 -0.008156 -0.004168 0.039960
#
#
# Mechanical properties :
#
#
# Convention : Reuss Voigt Hill
#
# Bulk Modulus (GPa) = 42.56153 57.18123 49.87138
# Shear Modulus (GPa) = 29.41322 34.17995 31.79658
#
# Velocity S-wave (km/s) = 3.68629 3.97378 3.83273
# Velocity P-wave (km/s) = 6.14666 6.88998 6.52891
#
# Compressibility (1/GPa) = 0.02349540
#
# Stress axis : x y z
#
# Youngs Moduli (GPa) = 92.40724 65.78536 50.89354
#
# Poissons Ratio (x) = 0.28312 0.18493
# Poissons Ratio (y) = 0.39769 0.16035
# Poissons Ratio (z) = 0.33578 0.20727
#
# Static dielectric constant tensor:
#      x y z
#    x 4.124230 -0.114490 0.105340 
#    y -0.114490 4.285240 0.206390 
#    z 0.105340 0.206390 3.959400 
# 
# 
# High freq. dielectric constant tensor:
#      x y z
#    x 1.866380 -0.003580 0.000510 
#    y -0.003580 1.858960 0.002560 
#    z 0.000510 0.002560 1.852030 
# 
# From -- ./inp_files/494210.got.cif
#   From: 2010.06.25/outbox.cif.g09.slc.cpg/sg2_248_cif.got.tgz:494210.got - 2010.06.27 13:26:56.
