data_PCOD8032815
_publ_section_title
;
Structure prediction by ZEFSAII (Michael W. Deem and Ramdas Pophale) SiO2 
 PCOD8032815
Probable space group: P -1
;
_chemical_formula_sum "Si O2"
_cell_formula_units_Z 16
_cell_length_a 5.110477
_cell_length_b 9.668244
_cell_length_c 17.118441
_cell_angle_alpha 94.973844
_cell_angle_beta 123.822839
_cell_angle_gamma 80.710468
_cell_volume 693.447608
_symmetry_space_group_name_H-M "P -1"
_symmetry_group_IT_number 2
_symmetry_cell_setting 'triclinic'
loop_
_space_group_symop_operation_xyz
x,y,z
-x,-y,-z
loop_
_atom_site_type_symbol
_atom_site_label
_atom_site_fract_x
_atom_site_fract_y
_atom_site_fract_z
Si Si1 0.300784 0.361052 0.375921
Si Si2 0.648969 0.266494 0.270541
Si Si3 0.268506 0.396235 0.930652
Si Si4 0.776421 0.316314 0.593808
Si Si5 0.551871 0.452625 0.826304
Si Si6 0.685995 0.985975 0.833880
Si Si7 0.516842 0.781934 0.311116
Si Si8 0.335042 0.879989 0.999409
O O1 0.430594 0.304780 0.311423
O O2 0.583705 0.332064 0.482666
O O3 0.173180 0.528072 0.359710
O O4 0.020103 0.272600 0.351012
O O5 0.555618 0.382776 0.194465
O O6 0.594647 0.112878 0.221402
O O7 0.305792 0.392511 0.842254
O O8 0.921652 0.435343 0.912276
O O9 0.500000 0.500000 0.000000
O O10 0.416445 0.252457 0.986899
O O11 0.601670 0.224575 0.620545
O O12 0.106276 0.218525 0.626753
O O13 0.555818 0.363707 0.744120
O O14 0.007985 0.877564 0.896511
O O15 0.667882 0.081261 0.757061
O O16 0.685901 0.098688 0.909393
O O17 0.500000 0.000000 0.000000
#
# Coordination Sequence:
#
# PCOD8032815 Si02
#       8
#     2   2   2   2   2   2   2   2
#     4  11  23  44  70 106 134 171 221 279 339 400
#     4  12  25  43  69 102 139 176 219 278 339 395
#     4  12  26  42  66  95 132 170 227 285 330 381
#     4  11  23  43  74 101 134 173 222 279 336 400
#     4  12  23  42  66  98 129 169 229 275 328 385
#     4  11  28  44  66  97 139 182 224 272 336 404
#     4  12  23  44  69 100 130 179 224 272 326 401
#     4  11  26  46  66  93 134 185 227 271 334 401
#
# _framework density 23.073122999999999
#
# number of rings (size 3 to 8) (size 9 to 14) (size 15 to 20)
#    0.000    0.500    3.750    4.125    7.000    2.000 
#    0.000    3.750    0.000    0.000    0.000    0.000 
#    0.000    0.000    0.000    0.000    0.000    0.000 
#
# Total GULP energy -198334.893933 kJ/mol
# GULP energy per Si atom -12395.930871 kJ/mol
# Density = 2.302061 g / cm^3
# Si number density = 23.073123 Si / 1000 Ang^3
#
#
#
# Elastic Constant Matrix: (Units=GPa)
#
#
# Indices 1 2 3 4 5 6 
#
# 1 93.5053 -1.8565 15.8020 1.4895 4.4792 13.6818
# 2 -1.8565 91.6038 31.1394 -10.1806 3.2812 19.3964
# 3 15.8020 31.1394 88.9984 -10.8869 8.9937 2.0341
# 4 1.4895 -10.1806 -10.8869 34.5482 13.2945 -1.3834
# 5 4.4792 3.2812 8.9937 13.2945 35.8236 -2.6165
# 6 13.6818 19.3964 2.0341 -1.3834 -2.6165 26.8408
#
#
#
# Elastic Compliance Matrix: (Units=1/GPa)
#
#
# Indices 1 2 3 4 5 6 
#
# 1 0.012612 0.003135 -0.003008 -0.000285 -0.001634 -0.008640
# 2 0.003135 0.015924 -0.005123 0.003508 -0.002802 -0.012809
# 3 -0.003008 -0.005123 0.014533 0.005046 -0.004386 0.003967
# 4 -0.000285 0.003508 0.005046 0.037507 -0.015644 -0.002364
# 5 -0.001634 -0.002802 -0.004386 -0.015644 0.035711 0.005865
# 6 -0.008640 -0.012809 0.003967 -0.002364 0.005865 0.051067
#
#
# Mechanical properties :
#
#
# Convention : Reuss Voigt Hill
#
# Bulk Modulus (GPa) = 30.23414 40.47527 35.35470
# Shear Modulus (GPa) = 26.54310 34.71069 30.62690
#
# Velocity S-wave (km/s) = 3.39542 3.88284 3.64728
# Velocity P-wave (km/s) = 5.33890 6.13858 5.75265
#
# Compressibility (1/GPa) = 0.03307519
#
# Stress axis : x y z
#
# Youngs Moduli (GPa) = 79.28780 62.79744 68.81030
#
# Poissons Ratio (x) = -0.19684 0.20701
# Poissons Ratio (y) = -0.24853 0.35253
# Poissons Ratio (z) = 0.23853 0.32172
#
# Static dielectric constant tensor:
#      x y z
#    x 1.158020 0.801940 1.649560 
#    y 0.801940 3.758970 -0.518270 
#    z 1.649560 -0.518270 3.223420 
# 
# 
# High freq. dielectric constant tensor:
#      x y z
#    x 1.919400 0.008660 0.006310 
#    y 0.008660 1.902650 -0.008380 
#    z 0.006310 -0.008380 1.918690 
# 
# From -- ./inp_files/55382.got.cif
#   From: 2010.06.25/outbox.cif.g09.slc.cpg/sg2_28_cif.got.tgz:55382.got - 2010.06.27 13:26:56.
