data_PCOD8032856
_publ_section_title
;
Structure prediction by ZEFSAII (Michael W. Deem and Ramdas Pophale) SiO2 
 PCOD8032856
Probable space group: P -1
;
_chemical_formula_sum "Si O2"
_cell_formula_units_Z 16
_cell_length_a 11.161105
_cell_length_b 8.705813
_cell_length_c 14.355905
_cell_angle_alpha 70.969928
_cell_angle_beta 70.492399
_cell_angle_gamma 129.764027
_cell_volume 674.421440
_symmetry_space_group_name_H-M "P -1"
_symmetry_group_IT_number 2
_symmetry_cell_setting 'triclinic'
loop_
_space_group_symop_operation_xyz
x,y,z
-x,-y,-z
loop_
_atom_site_type_symbol
_atom_site_label
_atom_site_fract_x
_atom_site_fract_y
_atom_site_fract_z
Si Si1 0.835468 0.446557 0.751642
Si Si2 0.712292 0.161343 0.355095
Si Si3 0.519784 0.700441 0.823996
Si Si4 0.966616 0.659830 0.483568
Si Si5 0.537883 0.821262 0.985113
Si Si6 0.458330 0.614820 0.424035
Si Si7 0.677460 0.804547 0.135183
Si Si8 0.888894 0.535338 0.072341
O O1 0.830671 0.548127 0.638400
O O2 0.109603 0.713676 0.640024
O O3 0.691136 0.126101 0.836994
O O4 0.733543 0.425015 0.874689
O O5 0.838860 0.441728 0.211581
O O6 0.500000 0.000000 0.500000
O O7 0.642664 0.946571 0.343514
O O8 0.544637 0.686525 0.931700
O O9 0.358690 0.402004 0.868945
O O10 0.364501 0.698780 0.861789
O O11 0.775569 0.984551 0.655585
O O12 0.801653 0.576833 0.466269
O O13 0.000000 0.500000 0.500000
O O14 0.629120 0.888135 0.052662
O O15 0.500000 0.500000 0.500000
O O16 0.505902 0.618492 0.304464
O O17 0.939480 0.122976 0.041337
O O18 0.000000 0.500000 0.000000
#
# Coordination Sequence:
#
# PCOD8032856 Si02
#       8
#     2   2   2   2   2   2   2   2
#     4  11  23  43  76 110 143 194 260 320 367 448
#     4  12  26  45  76 112 147 200 262 314 379 456
#     4  12  28  46  76 113 156 202 255 324 390 455
#     4  12  25  50  81 113 153 201 269 320 373 464
#     4  11  24  45  75 108 147 195 254 312 384 446
#     4  12  30  51  77 114 162 206 250 319 403 463
#     4  12  27  51  73 112 157 200 258 317 394 467
#     4  12  25  49  78 108 153 203 258 320 378 466
#
# _framework density 23.724036999999999
#
# number of rings (size 3 to 8) (size 9 to 14) (size 15 to 20)
#    0.000    0.250    5.000    3.750    5.250    1.500 
#    2.250    0.000    0.000    0.000    0.000    0.000 
#    0.000    0.000    0.000    0.000    0.000    0.000 
#
# Total GULP energy -198244.125640 kJ/mol
# GULP energy per Si atom -12390.257853 kJ/mol
# Density = 2.367004 g / cm^3
# Si number density = 23.724037 Si / 1000 Ang^3
#
#
#
# Elastic Constant Matrix: (Units=GPa)
#
#
# Indices 1 2 3 4 5 6 
#
# 1 122.8495 27.4649 61.5198 -10.2984 -10.4697 15.8079
# 2 27.4649 121.9852 63.8822 6.7026 -5.7880 -1.2371
# 3 61.5198 63.8822 141.7731 3.9895 -7.3662 2.1846
# 4 -10.2984 6.7026 3.9895 46.4808 9.5743 -0.8243
# 5 -10.4697 -5.7880 -7.3662 9.5743 36.6111 -2.6932
# 6 15.8079 -1.2371 2.1846 -0.8243 -2.6932 33.9756
#
#
#
# Elastic Compliance Matrix: (Units=1/GPa)
#
#
# Indices 1 2 3 4 5 6 
#
# 1 0.011588 -0.000193 -0.004876 0.002671 0.001242 -0.004922
# 2 -0.000193 0.010854 -0.004721 -0.001424 0.001146 0.000845
# 3 -0.004876 -0.004721 0.011350 -0.001479 0.000631 0.001381
# 4 0.002671 -0.001424 -0.001479 0.023660 -0.006028 -0.001103
# 5 0.001242 0.001146 0.000631 -0.006028 0.029674 0.001629
# 6 -0.004922 0.000845 0.001381 -0.001103 0.001629 0.031767
#
#
# Mechanical properties :
#
#
# Convention : Reuss Voigt Hill
#
# Bulk Modulus (GPa) = 70.36132 76.92685 73.64409
# Shear Modulus (GPa) = 34.91357 38.99624 36.95490
#
# Velocity S-wave (km/s) = 3.84038 4.05871 3.95105
# Velocity P-wave (km/s) = 7.02761 7.37972 7.20581
#
# Compressibility (1/GPa) = 0.01421235
#
# Stress axis : x y z
#
# Youngs Moduli (GPa) = 86.29497 92.12784 88.10824
#
# Poissons Ratio (x) = 0.01780 0.42963
# Poissons Ratio (y) = 0.01667 0.41592
# Poissons Ratio (z) = 0.42079 0.43490
#
# Static dielectric constant tensor:
#      x y z
#    x 4.363690 0.171450 -0.070500 
#    y 0.171450 4.217310 0.084170 
#    z -0.070500 0.084170 3.960450 
# 
# 
# High freq. dielectric constant tensor:
#      x y z
#    x 1.937000 0.013980 -0.008250 
#    y 0.013980 1.941950 0.007970 
#    z -0.008250 0.007970 1.953860 
# 
# From -- ./inp_files/515366.got.cif
#   From: 2010.06.25/outbox.cif.g09.slc.cpg/sg2_258_cif.got.tgz:515366.got - 2010.06.27 13:26:56.
