data_PCOD8032291
_publ_section_title
;
Structure prediction by ZEFSAII (Michael W. Deem and Ramdas Pophale) SiO2 
 PCOD8032291
Probable space group: P -1
;
_chemical_formula_sum "Si O2"
_cell_formula_units_Z 16
_cell_length_a 14.880475
_cell_length_b 19.639230
_cell_length_c 9.393778
_cell_angle_alpha 52.248656
_cell_angle_beta 48.743974
_cell_angle_gamma 18.404321
_cell_volume 650.534223
_symmetry_space_group_name_H-M "P -1"
_symmetry_group_IT_number 2
_symmetry_cell_setting 'triclinic'
loop_
_space_group_symop_operation_xyz
x,y,z
-x,-y,-z
loop_
_atom_site_type_symbol
_atom_site_label
_atom_site_fract_x
_atom_site_fract_y
_atom_site_fract_z
Si Si1 0.828234 0.795283 0.356494
Si Si2 0.907355 0.901437 0.617995
Si Si3 0.255126 0.574834 0.433372
Si Si4 0.359987 0.527572 0.828468
Si Si5 0.345898 0.192681 0.924290
Si Si6 0.146927 0.496756 0.180284
Si Si7 0.568334 0.117421 0.059797
Si Si8 0.301695 0.794840 0.348712
O O1 0.073609 0.644813 0.413455
O O2 0.925354 0.643902 0.359996
O O3 0.500000 0.000000 0.500000
O O4 0.823568 0.880924 0.144371
O O5 0.017312 0.784789 0.508268
O O6 0.039738 0.764699 0.792214
O O7 0.971376 0.963518 0.503302
O O8 0.548647 0.128344 0.709373
O O9 0.484407 0.493616 0.229490
O O10 0.449557 0.374169 0.569632
O O11 0.581043 0.356173 0.688342
O O12 0.318342 0.475052 0.044866
O O13 0.020181 0.400571 0.928830
O O14 0.326043 0.232121 0.061078
O O15 0.500000 0.000000 0.000000
O O16 0.398612 0.256525 0.207373
O O17 0.719013 0.099158 0.843850
#
# Coordination Sequence:
#
# PCOD8032291 Si02
#       8
#     2   2   2   2   2   2   2   2
#     4  12  26  42  64  92 133 174 210 257 325 391
#     4   9  16  34  63  94 130 161 211 265 314 373
#     4   9  19  36  64  94 129 172 208 256 322 379
#     4   8  15  34  62  92 124 165 212 263 311 372
#     4  12  21  36  65  98 127 165 214 262 319 376
#     4  11  23  42  63  91 133 168 214 264 317 379
#     4  11  25  43  66  95 126 166 217 269 317 378
#     4   8  18  37  64  96 124 162 214 271 314 365
#
# _framework density 24.595168999999999
#
# number of rings (size 3 to 8) (size 9 to 14) (size 15 to 20)
#    0.000    2.000    2.500    2.625    0.000    2.500 
#    0.000    6.875    0.000    0.000    0.000    0.000 
#    0.000    0.000    0.000    0.000    0.000    0.000 
#
# Total GULP energy -198284.486594 kJ/mol
# GULP energy per Si atom -12392.780412 kJ/mol
# Density = 2.453919 g / cm^3
# Si number density = 24.595169 Si / 1000 Ang^3
#
#
#
# Elastic Constant Matrix: (Units=GPa)
#
#
# Indices 1 2 3 4 5 6 
#
# 1 120.8790 41.1608 25.1551 3.6070 9.9968 12.8130
# 2 41.1608 72.4947 16.4385 1.8843 6.3750 2.1136
# 3 25.1551 16.4385 64.4074 7.2999 1.5602 -0.3747
# 4 3.6070 1.8843 7.2999 30.1130 -0.3002 -0.4186
# 5 9.9968 6.3750 1.5602 -0.3002 33.8296 0.4857
# 6 12.8130 2.1136 -0.3747 -0.4186 0.4857 46.6532
#
#
#
# Elastic Compliance Matrix: (Units=1/GPa)
#
#
# Indices 1 2 3 4 5 6 
#
# 1 0.011215 -0.005427 -0.002920 -0.000357 -0.002119 -0.002839
# 2 -0.005427 0.017520 -0.002321 0.000110 -0.001600 0.000696
# 3 -0.002920 -0.002321 0.017682 -0.003773 0.000437 0.001011
# 4 -0.000357 0.000110 -0.003773 0.034169 0.000557 0.000363
# 5 -0.002119 -0.001600 0.000437 0.000557 0.030467 0.000346
# 6 -0.002839 0.000696 0.001011 0.000363 0.000346 0.022191
#
#
# Mechanical properties :
#
#
# Convention : Reuss Voigt Hill
#
# Bulk Modulus (GPa) = 39.87311 47.03221 43.45266
# Shear Modulus (GPa) = 30.68594 33.78760 32.23677
#
# Velocity S-wave (km/s) = 3.53603 3.71043 3.62428
# Velocity P-wave (km/s) = 5.73745 6.12540 5.93459
#
# Compressibility (1/GPa) = 0.02507956
#
# Stress axis : x y z
#
# Youngs Moduli (GPa) = 89.16451 57.07922 56.55478
#
# Poissons Ratio (x) = 0.30978 0.16513
# Poissons Ratio (y) = 0.48392 0.13129
# Poissons Ratio (z) = 0.26034 0.13251
#
# Static dielectric constant tensor:
#      x y z
#    x 4.752280 0.312110 -0.199550 
#    y 0.312110 4.648540 0.343420 
#    z -0.199550 0.343420 4.291320 
# 
# 
# High freq. dielectric constant tensor:
#      x y z
#    x 1.992790 0.030300 -0.017960 
#    y 0.030300 1.982140 0.027690 
#    z -0.017960 0.027690 1.957000 
# 
# From -- ./inp_files/319240.got.cif
#   From: 2010.06.25/outbox.cif.g09.slc.cpg/sg2_160_cif.got.tgz:319240.got - 2010.06.27 13:26:56.
