data_PCOD8032753
_publ_section_title
;
Structure prediction by ZEFSAII (Michael W. Deem and Ramdas Pophale) SiO2 
 PCOD8032753
Probable space group: P -1
;
_chemical_formula_sum "Si O2"
_cell_formula_units_Z 14
_cell_length_a 10.380801
_cell_length_b 10.426198
_cell_length_c 13.526411
_cell_angle_alpha 36.026062
_cell_angle_beta 57.315761
_cell_angle_gamma 41.816205
_cell_volume 566.705498
_symmetry_space_group_name_H-M "P -1"
_symmetry_group_IT_number 2
_symmetry_cell_setting 'triclinic'
loop_
_space_group_symop_operation_xyz
x,y,z
-x,-y,-z
loop_
_atom_site_type_symbol
_atom_site_label
_atom_site_fract_x
_atom_site_fract_y
_atom_site_fract_z
Si Si1 0.164290 0.845981 0.110627
Si Si2 0.264036 0.344660 0.064664
Si Si3 0.058365 0.221116 0.602522
Si Si4 0.571772 0.332221 0.249440
Si Si5 0.400130 0.829580 0.436889
Si Si6 0.818095 0.738565 0.053572
Si Si7 0.208442 0.606894 0.565428
O O1 0.339018 0.528553 0.199451
O O2 0.066014 0.852675 0.246809
O O3 0.255168 0.001798 0.005093
O O4 0.000000 0.000000 0.000000
O O5 0.038687 0.592141 0.022796
O O6 0.346215 0.131773 0.255873
O O7 0.365260 0.487081 0.926157
O O8 0.304259 0.172464 0.053419
O O9 0.000000 0.500000 0.500000
O O10 0.997763 0.254063 0.491669
O O11 0.292697 0.968588 0.675217
O O12 0.603627 0.255330 0.398449
O O13 0.237588 0.833371 0.441880
O O14 0.618824 0.610035 0.444405
O O15 0.791655 0.534853 0.247387
#
# Coordination Sequence:
#
# PCOD8032753 Si02
#       7
#     2   2   2   2   2   2   2
#     4  12  27  49  73 105 144 196 248 303 365 441
#     4  11  24  41  74 112 146 193 240 301 373 437
#     4  12  27  49  73 105 144 196 248 303 365 441
#     4  12  26  50  78 106 148 192 248 306 374 440
#     4  11  24  41  74 112 146 193 240 301 373 437
#     4  11  23  43  71 107 151 191 241 303 365 431
#     4  11  23  43  71 107 151 191 241 303 365 431
#
# _framework density 24.704190000000001
#
# number of rings (size 3 to 8) (size 9 to 14) (size 15 to 20)
#    0.000    0.571    4.286    3.429    4.000    3.429 
#    2.571    0.000    0.000    0.000    0.000    0.000 
#    0.000    0.000    0.000    0.000    0.000    0.000 
#
# Total GULP energy -173587.465528 kJ/mol
# GULP energy per Si atom -12399.104681 kJ/mol
# Density = 2.464796 g / cm^3
# Si number density = 24.704190 Si / 1000 Ang^3
#
#
#
# Elastic Constant Matrix: (Units=GPa)
#
#
# Indices 1 2 3 4 5 6 
#
# 1 68.1571 28.5783 14.6950 -22.3378 16.2203 0.3542
# 2 28.5783 121.6619 23.5960 -26.4459 1.1426 -15.5729
# 3 14.6950 23.5960 122.5676 -8.1985 6.6755 3.8630
# 4 -22.3378 -26.4459 -8.1985 43.7245 -8.9640 -0.5280
# 5 16.2203 1.1426 6.6755 -8.9640 20.6547 -10.6010
# 6 0.3542 -15.5729 3.8630 -0.5280 -10.6010 27.2255
#
#
#
# Elastic Compliance Matrix: (Units=1/GPa)
#
#
# Indices 1 2 3 4 5 6 
#
# 1 0.024298 -0.006532 0.000318 0.003383 -0.024276 -0.013484
# 2 -0.006532 0.013766 -0.002689 0.008015 0.016342 0.014859
# 3 0.000318 -0.002689 0.009069 -0.001102 -0.006215 -0.005271
# 4 0.003383 0.008015 -0.001102 0.033064 0.017928 0.012319
# 5 -0.024276 0.016342 -0.006215 0.017928 0.102424 0.050775
# 6 -0.013484 0.014859 -0.005271 0.012319 0.050775 0.066162
#
#
# Mechanical properties :
#
#
# Convention : Reuss Voigt Hill
#
# Bulk Modulus (GPa) = 34.09878 49.56946 41.83412
# Shear Modulus (GPa) = 18.09189 34.68875 26.39032
#
# Velocity S-wave (km/s) = 2.70912 3.75128 3.27196
# Velocity P-wave (km/s) = 4.85989 6.23471 5.58973
#
# Compressibility (1/GPa) = 0.02932657
#
# Stress axis : x y z
#
# Youngs Moduli (GPa) = 41.15515 72.64204 110.26167
#
# Poissons Ratio (x) = 0.47450 -0.03503
# Poissons Ratio (y) = 0.26882 0.29653
# Poissons Ratio (z) = -0.01308 0.19536
#
# Static dielectric constant tensor:
#      x y z
#    x 4.161420 -0.253940 0.053420 
#    y -0.253940 4.896370 0.058040 
#    z 0.053420 0.058040 4.932070 
# 
# 
# High freq. dielectric constant tensor:
#      x y z
#    x 1.961040 -0.013150 -0.000500 
#    y -0.013150 1.995060 0.007640 
#    z -0.000500 0.007640 2.000420 
# 
# From -- ./inp_files/314848.got.cif
#   From: 2010.06.25/outbox.cif.g09.slc.cpg/sg2_158_cif.got.tgz:314848.got - 2010.06.27 13:26:56.
