data_PCOD8032164
_publ_section_title
;
Structure prediction by ZEFSAII (Michael W. Deem and Ramdas Pophale) SiO2 
 PCOD8032164
Probable space group: P -1
;
_chemical_formula_sum "Si O2"
_cell_formula_units_Z 16
_cell_length_a 9.512667
_cell_length_b 13.077173
_cell_length_c 8.824016
_cell_angle_alpha 133.345642
_cell_angle_beta 88.898452
_cell_angle_gamma 81.302879
_cell_volume 777.455354
_symmetry_space_group_name_H-M "P -1"
_symmetry_group_IT_number 2
_symmetry_cell_setting 'triclinic'
loop_
_space_group_symop_operation_xyz
x,y,z
-x,-y,-z
loop_
_atom_site_type_symbol
_atom_site_label
_atom_site_fract_x
_atom_site_fract_y
_atom_site_fract_z
Si Si1 0.112073 0.885942 0.082055
Si Si2 0.409852 0.870567 0.202969
Si Si3 0.870863 0.438378 0.758750
Si Si4 0.397140 0.399597 0.230070
Si Si5 0.401543 0.395012 0.563294
Si Si6 0.437413 0.873281 0.554564
Si Si7 0.146010 0.853886 0.693857
Si Si8 0.130616 0.587270 0.918916
O O1 0.250050 0.928463 0.199634
O O2 0.143827 0.851599 0.871673
O O3 0.070864 0.748542 0.023072
O O4 0.978028 0.020006 0.245301
O O5 0.396389 0.845367 0.355800
O O6 0.511518 0.979156 0.276863
O O7 0.479455 0.720419 0.970555
O O8 0.746681 0.571454 0.838097
O O9 0.880773 0.297840 0.514468
O O10 0.020160 0.486654 0.789146
O O11 0.836123 0.402913 0.894694
O O12 0.360897 0.352590 0.351854
O O13 0.451119 0.548341 0.389367
O O14 0.429774 0.254477 0.525574
O O15 0.276489 0.518752 0.759433
O O16 0.299415 0.881379 0.670459
#
# Coordination Sequence:
#
# PCOD8032164 Si02
#       8
#     2   2   2   2   2   2   2   2
#     4  11  25  44  65  94 129 169 213 259 316 377
#     4  11  25  43  66  96 128 167 213 261 316 376
#     4  11  25  43  66  96 128 167 213 261 316 376
#     4  11  23  41  67  96 126 165 212 262 317 375
#     4  11  23  41  67  96 126 165 212 262 317 375
#     4  11  25  43  66  96 128 167 213 261 316 376
#     4  11  25  44  65  94 129 169 213 259 316 377
#     4  11  25  43  66  96 128 167 213 261 316 376
#
# _framework density 20.57996
#
# number of rings (size 3 to 8) (size 9 to 14) (size 15 to 20)
#    0.000    1.000    2.500    3.000    3.500    7.000 
#    0.000    0.000    0.000    0.000    0.000    0.000 
#    0.000    0.000    0.000    0.000    0.000    0.000 
#
# Total GULP energy -198523.540445 kJ/mol
# GULP energy per Si atom -12407.721278 kJ/mol
# Density = 2.053312 g / cm^3
# Si number density = 20.579960 Si / 1000 Ang^3
#
#
#
# Elastic Constant Matrix: (Units=GPa)
#
#
# Indices 1 2 3 4 5 6 
#
# 1 75.6661 34.1730 23.5545 0.1942 2.9948 -6.6949
# 2 34.1730 149.0920 33.1113 -15.2336 -2.4317 -15.1901
# 3 23.5545 33.1113 66.0580 -3.9717 -1.1851 1.2237
# 4 0.1942 -15.2336 -3.9717 31.9852 -1.7764 -1.9008
# 5 2.9948 -2.4317 -1.1851 -1.7764 28.9255 3.1390
# 6 -6.6949 -15.1901 1.2237 -1.9008 3.1390 35.6012
#
#
#
# Elastic Compliance Matrix: (Units=1/GPa)
#
#
# Indices 1 2 3 4 5 6 
#
# 1 0.016164 -0.002702 -0.004611 -0.001965 -0.002444 0.002156
# 2 -0.002702 0.008842 -0.003275 0.004072 0.000756 0.003528
# 3 -0.004611 -0.003275 0.018544 0.000667 0.001327 -0.002983
# 4 -0.001965 0.004072 0.000667 0.033602 0.002318 0.002935
# 5 -0.002444 0.000756 0.001327 0.002318 0.035430 -0.003183
# 6 0.002156 0.003528 -0.002983 0.002935 -0.003183 0.030540
#
#
# Mechanical properties :
#
#
# Convention : Reuss Voigt Hill
#
# Bulk Modulus (GPa) = 44.69835 52.49929 48.59882
# Shear Modulus (GPa) = 29.11104 32.63420 30.87262
#
# Velocity S-wave (km/s) = 3.76511 3.98644 3.87735
# Velocity P-wave (km/s) = 6.37714 6.83771 6.61143
#
# Compressibility (1/GPa) = 0.02237219
#
# Stress axis : x y z
#
# Youngs Moduli (GPa) = 61.86490 113.09846 53.92725
#
# Poissons Ratio (x) = 0.30557 0.24868
# Poissons Ratio (y) = 0.16715 0.17664
# Poissons Ratio (z) = 0.28528 0.37045
#
# Static dielectric constant tensor:
#      x y z
#    x 3.689920 -0.094950 0.053230 
#    y -0.094950 3.919880 -0.109650 
#    z 0.053230 -0.109650 3.699120 
# 
# 
# High freq. dielectric constant tensor:
#      x y z
#    x 1.809800 -0.005610 0.000320 
#    y -0.005610 1.821370 -0.005340 
#    z 0.000320 -0.005340 1.812430 
# 
# From -- ./inp_files/190790.got.cif
#   From: 2010.06.25/outbox.cif.g09.slc.cpg/sg2_96_cif.got.tgz:190790.got - 2010.06.27 13:26:56.
