data_PCOD8032518
_publ_section_title
;
Structure prediction by ZEFSAII (Michael W. Deem and Ramdas Pophale) SiO2 
 PCOD8032518
Probable space group: P -1
;
_chemical_formula_sum "Si O2"
_cell_formula_units_Z 16
_cell_length_a 11.510401
_cell_length_b 11.792172
_cell_length_c 11.229297
_cell_angle_alpha 100.544485
_cell_angle_beta 137.603068
_cell_angle_gamma 111.487946
_cell_volume 660.790068
_symmetry_space_group_name_H-M "P -1"
_symmetry_group_IT_number 2
_symmetry_cell_setting 'triclinic'
loop_
_space_group_symop_operation_xyz
x,y,z
-x,-y,-z
loop_
_atom_site_type_symbol
_atom_site_label
_atom_site_fract_x
_atom_site_fract_y
_atom_site_fract_z
Si Si1 0.059527 0.286915 0.763168
Si Si2 0.840932 0.781039 0.581346
Si Si3 0.671560 0.567273 0.770022
Si Si4 0.509151 0.982122 0.643289
Si Si5 0.730771 0.796765 0.244516
Si Si6 0.998459 0.338257 0.184364
Si Si7 0.783334 0.891371 0.915384
Si Si8 0.149469 0.548162 0.742564
O O1 0.235347 0.265728 0.857917
O O2 0.121538 0.400333 0.720905
O O3 0.750186 0.104952 0.502163
O O4 0.137940 0.376889 0.968921
O O5 0.597647 0.641032 0.461809
O O6 0.711868 0.721004 0.341921
O O7 0.999592 0.742079 0.712001
O O8 0.045860 0.987712 0.812499
O O9 0.768576 0.573261 0.715585
O O10 0.648712 0.696976 0.789247
O O11 0.500000 0.000000 0.500000
O O12 0.726439 0.183212 0.882939
O O13 0.572665 0.882845 0.714804
O O14 0.464572 0.737244 0.009889
O O15 0.000000 0.000000 0.500000
O O16 0.000171 0.467452 0.262488
O O17 0.000000 0.000000 0.000000
O O18 0.000000 0.500000 0.500000
#
# Coordination Sequence:
#
# PCOD8032518 Si02
#       8
#     2   2   2   2   2   2   2   2
#     4  12  26  46  75 106 145 192 246 312 371 449
#     4  11  25  46  73 107 149 194 253 304 370 461
#     4  12  24  47  73 111 151 192 247 308 382 448
#     4  11  23  46  71 111 157 185 244 307 375 456
#     4  12  27  52  77 103 143 204 257 312 377 456
#     4  11  25  46  70 110 150 191 245 308 377 453
#     4  11  23  42  73 110 151 198 239 302 379 450
#     4  12  29  49  74 108 148 197 255 313 377 450
#
# _framework density 24.213439000000001
#
# number of rings (size 3 to 8) (size 9 to 14) (size 15 to 20)
#    0.000    0.500    5.000    3.000    3.500    3.500 
#    0.000    4.375    0.000    0.000    0.000    0.000 
#    0.000    0.000    0.000    0.000    0.000    0.000 
#
# Total GULP energy -198227.614951 kJ/mol
# GULP energy per Si atom -12389.225934 kJ/mol
# Density = 2.415833 g / cm^3
# Si number density = 24.213439 Si / 1000 Ang^3
#
#
#
# Elastic Constant Matrix: (Units=GPa)
#
#
# Indices 1 2 3 4 5 6 
#
# 1 136.9672 30.7908 40.4339 -7.6349 6.2864 -4.4161
# 2 30.7908 92.8098 42.2567 -2.6791 -1.7922 8.2445
# 3 40.4339 42.2567 139.6383 -18.3243 -3.5437 12.8003
# 4 -7.6349 -2.6791 -18.3243 47.4313 10.8181 -3.3186
# 5 6.2864 -1.7922 -3.5437 10.8181 36.1693 -1.1027
# 6 -4.4161 8.2445 12.8003 -3.3186 -1.1027 30.7224
#
#
#
# Elastic Compliance Matrix: (Units=1/GPa)
#
#
# Indices 1 2 3 4 5 6 
#
# 1 0.008629 -0.002209 -0.001978 0.001161 -0.002068 0.002709
# 2 -0.002209 0.013206 -0.003261 -0.001285 0.001024 -0.002605
# 3 -0.001978 -0.003261 0.009377 0.002876 0.000149 -0.003000
# 4 0.001161 -0.001285 0.002876 0.024050 -0.007126 0.001655
# 5 -0.002068 0.001024 0.000149 -0.007126 0.030194 -0.000320
# 6 0.002709 -0.002605 -0.003000 0.001655 -0.000320 0.035055
#
#
# Mechanical properties :
#
#
# Convention : Reuss Voigt Hill
#
# Bulk Modulus (GPa) = 61.28954 66.26425 63.77689
# Shear Modulus (GPa) = 35.49976 39.92685 37.71331
#
# Velocity S-wave (km/s) = 3.83315 4.06514 3.95084
# Velocity P-wave (km/s) = 6.70506 7.03277 6.87087
#
# Compressibility (1/GPa) = 0.01631600
#
# Stress axis : x y z
#
# Youngs Moduli (GPa) = 115.89389 75.72194 106.64131
#
# Poissons Ratio (x) = 0.16726 0.21099
# Poissons Ratio (y) = 0.25599 0.34772
# Poissons Ratio (z) = 0.22930 0.24690
#
# Static dielectric constant tensor:
#      x y z
#    x 4.402290 -0.412000 0.417020 
#    y -0.412000 3.972190 0.743350 
#    z 0.417020 0.743350 3.662210 
# 
# 
# High freq. dielectric constant tensor:
#      x y z
#    x 1.955430 0.011970 -0.003600 
#    y 0.011970 1.958060 -0.006940 
#    z -0.003600 -0.006940 1.986550 
# 
# From -- ./inp_files/428482.got.cif
#   From: 2010.06.25/outbox.cif.g09.slc.cpg/sg2_215_cif.got.tgz:428482.got - 2010.06.27 13:26:56.
