data_PCOD8032390
_publ_section_title
;
Structure prediction by ZEFSAII (Michael W. Deem and Ramdas Pophale) SiO2 
 PCOD8032390
Probable space group: P -1
;
_chemical_formula_sum "Si O2"
_cell_formula_units_Z 16
_cell_length_a 12.385772
_cell_length_b 21.846251
_cell_length_c 18.656050
_cell_angle_alpha 18.361788
_cell_angle_beta 145.908580
_cell_angle_gamma 153.922543
_cell_volume 688.160526
_symmetry_space_group_name_H-M "P -1"
_symmetry_group_IT_number 2
_symmetry_cell_setting 'triclinic'
loop_
_space_group_symop_operation_xyz
x,y,z
-x,-y,-z
loop_
_atom_site_type_symbol
_atom_site_label
_atom_site_fract_x
_atom_site_fract_y
_atom_site_fract_z
Si Si1 0.991004 0.669443 0.424166
Si Si2 0.607491 0.271133 0.230448
Si Si3 0.486429 0.505912 0.291788
Si Si4 0.289823 0.968264 0.125345
Si Si5 0.014819 0.696816 0.078821
Si Si6 0.312093 0.994088 0.781550
Si Si7 0.897254 0.560896 0.940686
Si Si8 0.093330 0.073846 0.128455
O O1 0.766109 0.605812 0.322004
O O2 0.237982 0.847516 0.311139
O O3 0.939372 0.418036 0.701375
O O4 0.017249 0.805842 0.361967
O O5 0.746566 0.475293 0.143361
O O6 0.500000 0.000000 0.500000
O O7 0.801679 0.354680 0.179773
O O8 0.391560 0.272614 0.078898
O O9 0.337021 0.455966 0.192521
O O10 0.332201 0.234686 0.547779
O O11 0.513821 0.725226 0.106964
O O12 0.017341 0.857047 0.070770
O O13 0.418862 0.897529 0.221881
O O14 0.015193 0.917680 0.864784
O O15 0.235292 0.825566 0.997962
O O16 0.109396 0.838121 0.780533
O O17 0.000000 0.500000 0.000000
#
# Coordination Sequence:
#
# PCOD8032390 Si02
#       8
#     2   2   2   2   2   2   2   2
#     4  11  24  43  70 100 131 171 222 276 323 382
#     4  11  23  43  68  96 131 171 219 272 327 387
#     4  11  23  42  68  97 131 173 220 268 325 384
#     4  11  24  43  70 100 131 171 222 276 323 382
#     4  11  26  44  67 100 136 174 216 267 333 399
#     4  11  26  44  67 100 136 174 216 267 333 399
#     4  11  23  43  68  96 131 171 219 272 327 387
#     4  11  23  42  68  97 131 173 220 268 325 384
#
# _framework density 23.250388999999998
#
# number of rings (size 3 to 8) (size 9 to 14) (size 15 to 20)
#    0.000    1.000    2.500    4.500    0.000    8.000 
#    0.000    2.500    0.000    0.000    0.000    0.000 
#    0.000    0.000    0.000    0.000    0.000    0.000 
#
# Total GULP energy -198224.018962 kJ/mol
# GULP energy per Si atom -12389.001185 kJ/mol
# Density = 2.319747 g / cm^3
# Si number density = 23.250389 Si / 1000 Ang^3
#
#
#
# Elastic Constant Matrix: (Units=GPa)
#
#
# Indices 1 2 3 4 5 6 
#
# 1 136.9058 35.3695 66.2617 -9.5668 -6.0576 -3.8379
# 2 35.3695 129.3348 34.3730 3.2159 -1.9511 -0.2272
# 3 66.2617 34.3730 127.5939 -11.5833 -7.7912 -7.3357
# 4 -9.5668 3.2159 -11.5833 28.1778 -5.1865 9.1751
# 5 -6.0576 -1.9511 -7.7912 -5.1865 31.1620 -4.5974
# 6 -3.8379 -0.2272 -7.3357 9.1751 -4.5974 22.6106
#
#
#
# Elastic Compliance Matrix: (Units=1/GPa)
#
#
# Indices 1 2 3 4 5 6 
#
# 1 0.010117 -0.001579 -0.004607 0.002041 0.000994 -0.000419
# 2 -0.001579 0.008684 -0.001767 -0.002394 -0.000589 0.000098
# 3 -0.004607 -0.001767 0.011268 0.003054 0.002637 0.002153
# 4 0.002041 -0.002394 0.003054 0.043781 0.006051 -0.015222
# 5 0.000994 -0.000589 0.002637 0.006051 0.034743 0.005627
# 6 -0.000419 0.000098 0.002153 -0.015222 0.005627 0.052177
#
#
# Mechanical properties :
#
#
# Convention : Reuss Voigt Hill
#
# Bulk Modulus (GPa) = 70.60521 73.98256 72.29389
# Shear Modulus (GPa) = 27.56412 33.57877 30.57144
#
# Velocity S-wave (km/s) = 3.44689 3.80442 3.63006
# Velocity P-wave (km/s) = 6.80255 7.15452 6.98075
#
# Compressibility (1/GPa) = 0.01416326
#
# Stress axis : x y z
#
# Youngs Moduli (GPa) = 98.84809 115.15290 88.74897
#
# Poissons Ratio (x) = 0.18180 0.40882
# Poissons Ratio (y) = 0.15606 0.15684
# Poissons Ratio (z) = 0.45535 0.20350
#
# Static dielectric constant tensor:
#      x y z
#    x 3.983750 -0.092640 0.165560 
#    y -0.092640 4.568690 -0.080860 
#    z 0.165560 -0.080860 4.067100 
# 
# 
# High freq. dielectric constant tensor:
#      x y z
#    x 1.902100 -0.009840 0.007190 
#    y -0.009840 1.943600 -0.010230 
#    z 0.007190 -0.010230 1.905080 
# 
# From -- ./inp_files/570698.got.cif
#   From: 2010.06.25/outbox.cif.g09.slc.cpg/sg2_286_cif.got.tgz:570698.got - 2010.06.27 13:26:56.
