data_PCOD8032663
_publ_section_title
;
Structure prediction by ZEFSAII (Michael W. Deem and Ramdas Pophale) SiO2 
 PCOD8032663
Probable space group: P -1
;
_chemical_formula_sum "Si O2"
_cell_formula_units_Z 14
_cell_length_a 16.906526
_cell_length_b 6.814157
_cell_length_c 7.720194
_cell_angle_alpha 86.593612
_cell_angle_beta 137.761664
_cell_angle_gamma 94.910281
_cell_volume 595.661126
_symmetry_space_group_name_H-M "P -1"
_symmetry_group_IT_number 2
_symmetry_cell_setting 'triclinic'
loop_
_space_group_symop_operation_xyz
x,y,z
-x,-y,-z
loop_
_atom_site_type_symbol
_atom_site_label
_atom_site_fract_x
_atom_site_fract_y
_atom_site_fract_z
Si Si1 0.466939 0.028694 0.674443
Si Si2 0.082099 0.099010 0.772992
Si Si3 0.773016 0.600778 0.238834
Si Si4 0.233145 0.828720 0.241471
Si Si5 0.068023 0.630769 0.250622
Si Si6 0.558812 0.712583 0.054987
Si Si7 0.392768 0.630929 0.274472
O O1 0.483057 0.164648 0.860032
O O2 0.549568 0.142727 0.658241
O O3 0.328028 0.011744 0.411796
O O4 0.511183 0.811067 0.795856
O O5 0.181472 0.244616 0.840170
O O6 0.016239 0.217545 0.806947
O O7 0.000000 0.000000 0.500000
O O8 0.133991 0.908795 0.953722
O O9 0.883494 0.502641 0.510254
O O10 0.700721 0.708433 0.265875
O O11 0.677150 0.443300 0.006319
O O12 0.178273 0.754530 0.337910
O O13 0.294684 0.642318 0.265207
O O14 0.000000 0.500000 0.000000
O O15 0.500000 0.500000 0.000000
O O16 0.500000 0.500000 0.500000
#
# Coordination Sequence:
#
# PCOD8032663 Si02
#       7
#     2   2   2   2   2   2   2
#     4  11  25  41  70 106 146 180 237 280 363 443
#     4  12  27  49  71 101 141 191 254 306 359 429
#     4  12  25  44  76  97 144 190 238 292 376 419
#     4  12  26  44  73 102 144 187 237 301 370 418
#     4  12  28  47  72 104 139 187 254 308 360 422
#     4  11  23  43  69 107 142 185 230 293 351 446
#     4  12  25  45  72 109 150 190 236 290 365 462
#
# _framework density 23.503297
#
# number of rings (size 3 to 8) (size 9 to 14) (size 15 to 20)
#    0.000    0.286    1.429    7.286    8.000    0.000 
#    0.000    0.000    0.000    0.000    0.000    0.000 
#    0.000    0.000    0.000    0.000    0.000    0.000 
#
# Total GULP energy -173639.501279 kJ/mol
# GULP energy per Si atom -12402.821520 kJ/mol
# Density = 2.344980 g / cm^3
# Si number density = 23.503297 Si / 1000 Ang^3
#
#
#
# Elastic Constant Matrix: (Units=GPa)
#
#
# Indices 1 2 3 4 5 6 
#
# 1 148.4390 39.6207 8.1861 -10.2896 20.9300 0.9453
# 2 39.6207 112.9227 35.5408 -5.7038 4.4062 1.1302
# 3 8.1861 35.5408 116.4772 -4.6564 4.4015 -11.6438
# 4 -10.2896 -5.7038 -4.6564 52.8935 -1.0474 6.4815
# 5 20.9300 4.4062 4.4015 -1.0474 31.9403 -5.1387
# 6 0.9453 1.1302 -11.6438 6.4815 -5.1387 46.1785
#
#
#
# Elastic Compliance Matrix: (Units=1/GPa)
#
#
# Indices 1 2 3 4 5 6 
#
# 1 0.008279 -0.002764 0.000435 0.001341 -0.005182 -0.000757
# 2 -0.002764 0.010851 -0.003222 0.000486 0.000610 -0.001022
# 3 0.000435 -0.003222 0.009821 0.000290 -0.000796 0.002417
# 4 0.001341 0.000486 0.000290 0.019572 -0.000795 -0.002802
# 5 -0.005182 0.000610 -0.000796 -0.000795 0.035336 0.003934
# 6 -0.000757 -0.001022 0.002417 -0.002802 0.003934 0.023136
#
#
# Mechanical properties :
#
#
# Convention : Reuss Voigt Hill
#
# Bulk Modulus (GPa) = 56.02776 60.50377 58.26576
# Shear Modulus (GPa) = 40.30708 45.83522 43.07115
#
# Velocity S-wave (km/s) = 4.14569 4.42085 4.28548
# Velocity P-wave (km/s) = 6.84147 7.20119 7.02363
#
# Compressibility (1/GPa) = 0.01784830
#
# Stress axis : x y z
#
# Youngs Moduli (GPa) = 120.78776 92.16001 101.81941
#
# Poissons Ratio (x) = 0.25476 -0.04433
# Poissons Ratio (y) = 0.33390 0.32810
# Poissons Ratio (z) = -0.05259 0.29697
#
# Static dielectric constant tensor:
#      x y z
#    x 4.573800 0.027430 -0.028300 
#    y 0.027430 4.734450 -0.236890 
#    z -0.028300 -0.236890 4.327820 
# 
# 
# High freq. dielectric constant tensor:
#      x y z
#    x 1.954040 -0.002650 -0.000520 
#    y -0.002650 1.937460 0.001550 
#    z -0.000520 0.001550 1.936490 
# 
# From -- ./inp_files/280209.got.cif
#   From: 2010.06.25/outbox.cif.g09.slc.cpg/sg2_141_cif.got.tgz:280209.got - 2010.06.27 13:26:56.
