data_PCOD8032545
_publ_section_title
;
Structure prediction by ZEFSAII (Michael W. Deem and Ramdas Pophale) SiO2 
 PCOD8032545
Probable space group: P -1
;
_chemical_formula_sum "Si O2"
_cell_formula_units_Z 16
_cell_length_a 8.673355
_cell_length_b 11.407470
_cell_length_c 11.272366
_cell_angle_alpha 62.685618
_cell_angle_beta 85.586621
_cell_angle_gamma 45.762185
_cell_volume 656.118669
_symmetry_space_group_name_H-M "P -1"
_symmetry_group_IT_number 2
_symmetry_cell_setting 'triclinic'
loop_
_space_group_symop_operation_xyz
x,y,z
-x,-y,-z
loop_
_atom_site_type_symbol
_atom_site_label
_atom_site_fract_x
_atom_site_fract_y
_atom_site_fract_z
Si Si1 0.946160 0.223748 0.392046
Si Si2 0.858669 0.770652 0.118133
Si Si3 0.321081 0.731873 0.415449
Si Si4 0.555505 0.080242 0.591790
Si Si5 0.043540 0.417609 0.407080
Si Si6 0.575621 0.853868 0.888814
Si Si7 0.824291 0.210407 0.856046
Si Si8 0.398091 0.466901 0.921498
O O1 0.829423 0.177276 0.494050
O O2 0.835811 0.321984 0.221758
O O3 0.910772 0.365294 0.421472
O O4 0.222394 0.035483 0.449587
O O5 0.909947 0.592255 0.240641
O O6 0.103490 0.690117 0.150936
O O7 0.673553 0.969850 0.115284
O O8 0.771213 0.809384 0.971284
O O9 0.500000 0.500000 0.500000
O O10 0.454750 0.787470 0.379134
O O11 0.152416 0.827272 0.268308
O O12 0.322606 0.228240 0.455995
O O13 0.570680 0.929378 0.727409
O O14 0.000000 0.500000 0.500000
O O15 0.637309 0.658159 0.963816
O O16 0.565775 0.348588 0.852780
O O17 0.000000 0.000000 0.000000
O O18 0.500000 0.500000 0.000000
#
# Coordination Sequence:
#
# PCOD8032545 Si02
#       8
#     2   2   2   2   2   2   2   2
#     4  12  28  51  72 112 159 198 255 318 385 462
#     4  11  23  42  75 109 146 187 258 317 363 439
#     4  12  26  49  79 107 151 201 259 312 374 455
#     4  12  28  47  75 112 155 201 247 317 392 447
#     4  12  24  46  76 110 144 200 254 311 377 455
#     4  11  25  47  76 108 147 197 253 314 375 450
#     4  12  25  45  75 112 145 196 261 312 372 449
#     4  12  29  50  76 112 157 203 252 314 394 458
#
# _framework density 24.385835
#
# number of rings (size 3 to 8) (size 9 to 14) (size 15 to 20)
#    0.000    0.250    5.000    3.750    5.250    1.500 
#    2.250    0.000    0.000    0.000    0.000    0.000 
#    0.000    0.000    0.000    0.000    0.000    0.000 
#
# Total GULP energy -198388.611426 kJ/mol
# GULP energy per Si atom -12399.288214 kJ/mol
# Density = 2.433033 g / cm^3
# Si number density = 24.385835 Si / 1000 Ang^3
#
#
#
# Elastic Constant Matrix: (Units=GPa)
#
#
# Indices 1 2 3 4 5 6 
#
# 1 111.9297 7.4511 22.5715 7.7510 2.4958 26.2659
# 2 7.4511 51.0570 24.8940 10.5267 -1.8041 -4.9797
# 3 22.5715 24.8940 121.3125 -1.2219 9.3062 11.2075
# 4 7.7510 10.5267 -1.2219 26.8112 0.7234 6.4411
# 5 2.4958 -1.8041 9.3062 0.7234 47.5768 -1.8520
# 6 26.2659 -4.9797 11.2075 6.4411 -1.8520 43.2506
#
#
#
# Elastic Compliance Matrix: (Units=1/GPa)
#
#
# Indices 1 2 3 4 5 6 
#
# 1 0.010825 -0.001469 -0.001089 -0.001064 -0.000641 -0.006330
# 2 -0.001469 0.026033 -0.006077 -0.011914 0.002720 0.007355
# 3 -0.001089 -0.006077 0.010229 0.004046 -0.002368 -0.003393
# 4 -0.001064 -0.011914 0.004046 0.044570 -0.002196 -0.008505
# 5 -0.000641 0.002720 -0.002368 -0.002196 0.021752 0.002574
# 6 -0.006330 0.007355 -0.003393 -0.008505 0.002574 0.030068
#
#
# Mechanical properties :
#
#
# Convention : Reuss Voigt Hill
#
# Bulk Modulus (GPa) = 33.53928 43.79248 38.66588
# Shear Modulus (GPa) = 29.29342 38.81991 34.05666
#
# Velocity S-wave (km/s) = 3.46966 3.99420 3.74113
# Velocity P-wave (km/s) = 5.46213 6.26647 5.87807
#
# Compressibility (1/GPa) = 0.02981578
#
# Stress axis : x y z
#
# Youngs Moduli (GPa) = 92.37854 38.41258 97.76403
#
# Poissons Ratio (x) = 0.05643 0.10651
# Poissons Ratio (y) = 0.13572 0.59411
# Poissons Ratio (z) = 0.10064 0.23343
#
# Static dielectric constant tensor:
#      x y z
#    x 4.240960 0.297390 0.066780 
#    y 0.297390 4.086980 -0.510150 
#    z 0.066780 -0.510150 3.773490 
# 
# 
# High freq. dielectric constant tensor:
#      x y z
#    x 1.986780 0.010560 0.004320 
#    y 0.010560 1.966390 -0.011750 
#    z 0.004320 -0.011750 1.972500 
# 
# From -- ./inp_files/187479.got.cif
#   From: 2010.06.25/outbox.cif.g09.slc.cpg/sg2_94_cif.got.tgz:187479.got - 2010.06.27 13:26:56.
