data_PCOD8032042
_publ_section_title
;
Structure prediction by ZEFSAII (Michael W. Deem and Ramdas Pophale) SiO2 
 PCOD8032042
Probable space group: P -1
;
_chemical_formula_sum "Si O2"
_cell_formula_units_Z 16
_cell_length_a 11.018107
_cell_length_b 13.783390
_cell_length_c 9.065851
_cell_angle_alpha 102.084371
_cell_angle_beta 82.045908
_cell_angle_gamma 151.541151
_cell_volume 638.456170
_symmetry_space_group_name_H-M "P -1"
_symmetry_group_IT_number 2
_symmetry_cell_setting 'triclinic'
loop_
_space_group_symop_operation_xyz
x,y,z
-x,-y,-z
loop_
_atom_site_type_symbol
_atom_site_label
_atom_site_fract_x
_atom_site_fract_y
_atom_site_fract_z
Si Si1 0.015426 0.613524 0.449311
Si Si2 0.511386 0.699904 0.447360
Si Si3 0.719758 0.711809 0.622748
Si Si4 0.531302 0.714472 0.895838
Si Si5 0.964971 0.374885 0.877942
Si Si6 0.399873 0.518398 0.117369
Si Si7 0.762053 0.043105 0.337200
Si Si8 0.192573 0.900355 0.979436
O O1 0.732059 0.460626 0.455081
O O2 0.134314 0.676744 0.287147
O O3 0.000000 0.500000 0.500000
O O4 0.211945 0.829436 0.558881
O O5 0.746659 0.832682 0.556484
O O6 0.459442 0.571389 0.298063
O O7 0.551211 0.831091 0.395907
O O8 0.500000 0.500000 0.500000
O O9 0.632772 0.685547 0.792463
O O10 0.979343 0.837346 0.644995
O O11 0.234646 0.514735 0.842815
O O12 0.540287 0.710596 0.072227
O O13 0.706805 0.933343 0.891764
O O14 0.000000 0.500000 0.000000
O O15 0.768630 0.167356 0.941445
O O16 0.099566 0.305629 0.081254
O O17 0.500000 0.500000 0.000000
O O18 0.665804 0.996926 0.170673
#
# Coordination Sequence:
#
# PCOD8032042 Si02
#       8
#     2   2   2   2   2   2   2   2
#     4  12  27  49  76 100 141 183 236 299 354 412
#     4  12  25  45  70 106 146 184 238 284 352 422
#     4  12  23  45  70 103 150 190 227 290 347 422
#     4  11  24  42  67 102 142 181 234 281 349 414
#     4  11  26  47  74 100 135 184 238 297 350 408
#     4  11  23  40  67  99 141 185 223 279 335 410
#     4  12  25  44  72 107 142 189 232 283 353 424
#     4  11  24  43  69 101 142 181 235 281 346 413
#
# _framework density 25.060449999999999
#
# number of rings (size 3 to 8) (size 9 to 14) (size 15 to 20)
#    0.000    0.500    5.000    2.625    5.250    3.000 
#    0.000    0.000    0.000    0.000    0.000    0.000 
#    0.000    0.000    0.000    0.000    0.000    0.000 
#
# Total GULP energy -198250.320961 kJ/mol
# GULP energy per Si atom -12390.645060 kJ/mol
# Density = 2.500341 g / cm^3
# Si number density = 25.060450 Si / 1000 Ang^3
#
#
#
# Elastic Constant Matrix: (Units=GPa)
#
#
# Indices 1 2 3 4 5 6 
#
# 1 43.6529 -5.9332 22.8863 -8.9762 4.6783 -26.5513
# 2 -5.9332 82.0385 26.7589 -8.9700 -1.2287 -34.2518
# 3 22.8863 26.7589 161.4302 -20.2991 5.3953 -28.8662
# 4 -8.9762 -8.9700 -20.2991 36.9146 -13.5260 1.1106
# 5 4.6783 -1.2287 5.3953 -13.5260 53.5310 -3.8556
# 6 -26.5513 -34.2518 -28.8662 1.1106 -3.8556 34.7911
#
#
#
# Elastic Compliance Matrix: (Units=1/GPa)
#
#
# Indices 1 2 3 4 5 6 
#
# 1 -0.221757 -0.168485 -0.014942 -0.105308 -0.034653 -0.347986
# 2 -0.168485 -0.105789 -0.010198 -0.073294 -0.022579 -0.241355
# 3 -0.014942 -0.010198 0.006939 -0.002315 -0.001348 -0.015761
# 4 -0.105308 -0.073294 -0.002315 -0.015635 -0.007343 -0.154761
# 5 -0.034653 -0.022579 -0.001348 -0.007343 0.016030 -0.047783
# 6 -0.347986 -0.241355 -0.015761 -0.154761 -0.047783 -0.487874
#
#
# Mechanical properties :
#
#
# Convention : Reuss Voigt Hill
#
# Bulk Modulus (GPa) = -1.41272 41.61618 20.10173
# Shear Modulus (GPa) = -7.61279 41.27464 16.83092
#
# Velocity S-wave (km/s) = -1.74481 4.06273 2.59436
# Velocity P-wave (km/s) = 2.15037 6.21692 4.12468
#
# Compressibility (1/GPa) = -0.70785592
#
# Stress axis : x y z
#
# Youngs Moduli (GPa) = -4.50944 -9.45274 144.11349
#
# Poissons Ratio (x) = -1.59264 2.15334
# Poissons Ratio (y) = -0.75977 1.46961
# Poissons Ratio (z) = -0.06738 -0.09639
#
# Static dielectric constant tensor:
#      x y z
#    x 4.796330 -0.515420 0.437150 
#    y -0.515420 4.744730 -0.451220 
#    z 0.437150 -0.451220 4.820730 
# 
# 
# High freq. dielectric constant tensor:
#      x y z
#    x 2.004960 -0.026270 0.008960 
#    y -0.026270 1.997090 -0.014800 
#    z 0.008960 -0.014800 2.016120 
# 
# From -- ./inp_files/273677.got.cif
#   From: 2010.06.25/outbox.cif.g09.slc.cpg/sg2_137_cif.got.tgz:273677.got - 2010.06.27 13:26:56.
