data_PCOD8032838
_publ_section_title
;
Structure prediction by ZEFSAII (Michael W. Deem and Ramdas Pophale) SiO2 
 PCOD8032838
Probable space group: P -1
;
_chemical_formula_sum "Si O2"
_cell_formula_units_Z 16
_cell_length_a 12.219902
_cell_length_b 18.191957
_cell_length_c 8.842001
_cell_angle_alpha 132.772772
_cell_angle_beta 51.375966
_cell_angle_gamma 150.015015
_cell_volume 717.622025
_symmetry_space_group_name_H-M "P -1"
_symmetry_group_IT_number 2
_symmetry_cell_setting 'triclinic'
loop_
_space_group_symop_operation_xyz
x,y,z
-x,-y,-z
loop_
_atom_site_type_symbol
_atom_site_label
_atom_site_fract_x
_atom_site_fract_y
_atom_site_fract_z
Si Si1 0.272822 0.356061 0.581453
Si Si2 0.156224 0.161414 0.678672
Si Si3 0.539840 0.121142 0.726102
Si Si4 0.502563 0.296101 0.817110
Si Si5 0.845864 0.821328 0.840306
Si Si6 0.950760 0.363783 0.911868
Si Si7 0.982337 0.588160 0.738935
Si Si8 0.104581 0.856400 0.889071
O O1 0.500000 0.500000 0.500000
O O2 0.298309 0.313571 0.660381
O O3 0.143035 0.200875 0.376130
O O4 0.145895 0.391284 0.757092
O O5 0.324372 0.196135 0.694680
O O6 0.000000 0.000000 0.500000
O O7 0.983084 0.134904 0.877449
O O8 0.574151 0.226238 0.717812
O O9 0.741487 0.209980 0.786650
O O10 0.500000 0.000000 0.500000
O O11 0.335580 0.033203 0.889082
O O12 0.723999 0.474308 0.822260
O O13 0.402630 0.298005 0.051989
O O14 0.934919 0.772885 0.781025
O O15 0.000000 0.000000 0.000000
O O16 0.000000 0.500000 0.000000
O O17 0.901144 0.353916 0.117792
O O18 0.000000 0.500000 0.500000
O O19 0.119825 0.747262 0.753415
#
# Coordination Sequence:
#
# PCOD8032838 Si02
#       8
#     2   2   2   2   2   2   2   2
#     4  12  27  47  76 110 144 195 249 307 369 437
#     4  11  27  45  72 108 149 185 247 314 371 440
#     4  12  26  46  78 107 147 202 251 300 381 447
#     4  11  25  46  73 105 146 195 246 306 375 442
#     4  11  23  43  75 103 142 187 245 298 367 440
#     4  12  28  49  74 111 152 193 256 309 367 455
#     4  12  27  48  68 105 147 194 245 304 377 438
#     4  11  25  44  72 103 142 187 242 305 366 440
#
# _framework density 22.295860000000001
#
# number of rings (size 3 to 8) (size 9 to 14) (size 15 to 20)
#    0.000    0.500    3.750    3.750    5.250    2.500 
#    0.000    0.000    0.000    0.000    0.000    0.000 
#    0.000    0.000    0.000    0.000    0.000    0.000 
#
# Total GULP energy -198362.671830 kJ/mol
# GULP energy per Si atom -12397.666989 kJ/mol
# Density = 2.224511 g / cm^3
# Si number density = 22.295860 Si / 1000 Ang^3
#
#
#
# Elastic Constant Matrix: (Units=GPa)
#
#
# Indices 1 2 3 4 5 6 
#
# 1 142.6054 28.5646 50.0865 5.0357 8.4917 -5.6299
# 2 28.5646 91.6183 22.4230 -10.7465 3.4900 -1.2036
# 3 50.0865 22.4230 124.6763 1.4006 15.0388 5.0593
# 4 5.0357 -10.7465 1.4006 40.5840 2.8996 1.7668
# 5 8.4917 3.4900 15.0388 2.8996 35.2873 0.7965
# 6 -5.6299 -1.2036 5.0593 1.7668 0.7965 40.6926
#
#
#
# Elastic Compliance Matrix: (Units=1/GPa)
#
#
# Indices 1 2 3 4 5 6 
#
# 1 0.008664 -0.002087 -0.003096 -0.001557 -0.000467 0.001599
# 2 -0.002087 0.012342 -0.001374 0.003601 -0.000431 0.000099
# 3 -0.003096 -0.001374 0.009981 -0.000014 -0.003334 -0.001644
# 4 -0.001557 0.003601 -0.000014 0.025988 -0.002084 -0.001195
# 5 -0.000467 -0.000431 -0.003334 -0.002084 0.030090 -0.000161
# 6 0.001599 0.000099 -0.001644 -0.001195 -0.000161 0.025058
#
#
# Mechanical properties :
#
#
# Convention : Reuss Voigt Hill
#
# Bulk Modulus (GPa) = 55.95258 62.33867 59.14563
# Shear Modulus (GPa) = 38.11143 40.50118 39.30631
#
# Velocity S-wave (km/s) = 4.13891 4.26671 4.20330
# Velocity P-wave (km/s) = 6.92754 7.23142 7.08111
#
# Compressibility (1/GPa) = 0.01787228
#
# Stress axis : x y z
#
# Youngs Moduli (GPa) = 115.42269 81.02472 100.19298
#
# Poissons Ratio (x) = 0.16912 0.31022
# Poissons Ratio (y) = 0.24092 0.13763
# Poissons Ratio (z) = 0.35737 0.11130
#
# Static dielectric constant tensor:
#      x y z
#    x 8.443140 1.501200 -0.621260 
#    y 1.501200 5.036780 -0.226520 
#    z -0.621260 -0.226520 4.441240 
# 
# 
# High freq. dielectric constant tensor:
#      x y z
#    x 1.886630 -0.008540 0.005030 
#    y -0.008540 1.883100 -0.001210 
#    z 0.005030 -0.001210 1.891180 
# 
# From -- ./inp_files/279793.got.cif
#   From: 2010.06.25/outbox.cif.g09.slc.cpg/sg2_140_cif.got.tgz:279793.got - 2010.06.27 13:26:56.
