data_PCOD8032274
_publ_section_title
;
Structure prediction by ZEFSAII (Michael W. Deem and Ramdas Pophale) SiO2 
 PCOD8032274
Probable space group: P -1
;
_chemical_formula_sum "Si O2"
_cell_formula_units_Z 16
_cell_length_a 8.584874
_cell_length_b 23.210758
_cell_length_c 14.984131
_cell_angle_alpha 151.139577
_cell_angle_beta 129.646457
_cell_angle_gamma 32.134616
_cell_volume 701.415975
_symmetry_space_group_name_H-M "P -1"
_symmetry_group_IT_number 2
_symmetry_cell_setting 'triclinic'
loop_
_space_group_symop_operation_xyz
x,y,z
-x,-y,-z
loop_
_atom_site_type_symbol
_atom_site_label
_atom_site_fract_x
_atom_site_fract_y
_atom_site_fract_z
Si Si1 0.155003 0.221792 0.014205
Si Si2 0.899112 0.318137 0.514082
Si Si3 0.863679 0.042919 0.410848
Si Si4 0.892298 0.926402 0.901200
Si Si5 0.729426 0.336106 0.158070
Si Si6 0.742723 0.521721 0.962662
Si Si7 0.854035 0.880733 0.489508
Si Si8 0.782475 0.577679 0.244919
O O1 0.141343 0.093165 0.799945
O O2 0.512161 0.096438 0.998254
O O3 0.946704 0.331676 0.177421
O O4 0.013906 0.372476 0.091924
O O5 0.524885 0.478332 0.620545
O O6 0.963137 0.245882 0.339670
O O7 0.104955 0.143268 0.420862
O O8 0.998758 0.410030 0.684709
O O9 0.497757 0.257750 0.566283
O O10 0.079501 0.016793 0.383292
O O11 0.000000 0.000000 0.500000
O O12 0.035483 0.851593 0.951026
O O13 0.000000 0.000000 0.000000
O O14 0.554895 0.331905 0.015236
O O15 0.889943 0.322354 0.740105
O O16 0.623613 0.598589 0.124198
O O17 0.000000 0.500000 0.000000
O O18 0.500000 0.000000 0.500000
#
# Coordination Sequence:
#
# PCOD8032274 Si02
#       8
#     2   2   2   2   2   2   2   2
#     4  12  28  47  78 112 149 201 247 308 380 438
#     4  11  24  47  75 108 142 197 244 310 370 435
#     4  12  26  44  70 110 157 196 242 305 374 454
#     4  12  28  50  76 106 146 198 260 309 363 446
#     4  11  25  48  70 107 148 192 250 301 371 437
#     4  11  23  41  74 106 145 191 238 303 372 442
#     4  11  25  40  69 108 148 192 243 301 370 444
#     4  12  23  47  75 112 152 188 248 306 377 444
#
# _framework density 22.810998999999999
#
# number of rings (size 3 to 8) (size 9 to 14) (size 15 to 20)
#    0.000    0.500    3.750    5.250    5.250    1.500 
#    0.000    1.250    0.000    0.000    0.000    0.000 
#    0.000    0.000    0.000    0.000    0.000    0.000 
#
# Total GULP energy -198470.640897 kJ/mol
# GULP energy per Si atom -12404.415056 kJ/mol
# Density = 2.275908 g / cm^3
# Si number density = 22.810999 Si / 1000 Ang^3
#
#
#
# Elastic Constant Matrix: (Units=GPa)
#
#
# Indices 1 2 3 4 5 6 
#
# 1 153.0743 79.1898 26.6860 7.5339 4.4312 -2.0171
# 2 79.1898 177.9976 39.8450 13.0502 4.4006 6.2628
# 3 26.6860 39.8450 80.4905 6.4101 -2.1764 -3.2232
# 4 7.5339 13.0502 6.4101 29.6009 -2.0498 -5.4510
# 5 4.4312 4.4006 -2.1764 -2.0498 45.7871 10.0634
# 6 -2.0171 6.2628 -3.2232 -5.4510 10.0634 49.1267
#
#
#
# Elastic Compliance Matrix: (Units=1/GPa)
#
#
# Indices 1 2 3 4 5 6 
#
# 1 0.008620 -0.003593 -0.001042 -0.000276 -0.000741 0.000865
# 2 -0.003593 0.008051 -0.002677 -0.002362 -0.000319 -0.001546
# 3 -0.001042 -0.002677 0.014265 -0.001421 0.000771 0.000919
# 4 -0.000276 -0.002362 -0.001421 0.036003 0.000918 0.004003
# 5 -0.000741 -0.000319 0.000771 0.000918 0.023021 -0.004553
# 6 0.000865 -0.001546 0.000919 0.004003 -0.004553 0.022025
#
#
# Mechanical properties :
#
#
# Convention : Reuss Voigt Hill
#
# Bulk Modulus (GPa) = 61.30673 78.11154 69.70914
# Shear Modulus (GPa) = 37.86491 42.62572 40.24531
#
# Velocity S-wave (km/s) = 4.07866 4.32748 4.20491
# Velocity P-wave (km/s) = 7.00820 7.69978 7.36212
#
# Compressibility (1/GPa) = 0.01631142
#
# Stress axis : x y z
#
# Youngs Moduli (GPa) = 116.01008 124.20137 70.10024
#
# Poissons Ratio (x) = 0.44631 0.07307
# Poissons Ratio (y) = 0.41688 0.18764
# Poissons Ratio (z) = 0.12093 0.33245
#
# Static dielectric constant tensor:
#      x y z
#    x 4.286600 0.023490 -0.159890 
#    y 0.023490 4.450850 -0.014150 
#    z -0.159890 -0.014150 4.217810 
# 
# 
# High freq. dielectric constant tensor:
#      x y z
#    x 1.913130 -0.000860 -0.009140 
#    y -0.000860 1.908260 0.011350 
#    z -0.009140 0.011350 1.898100 
# 
# From -- ./inp_files/508742.got.cif
#   From: 2010.06.25/outbox.cif.g09.slc.cpg/sg2_255_cif.got.tgz:508742.got - 2010.06.27 13:26:56.
