data_PCOD8032362
_publ_section_title
;
Structure prediction by ZEFSAII (Michael W. Deem and Ramdas Pophale) SiO2 
 PCOD8032362
Probable space group: P -1
;
_chemical_formula_sum "Si O2"
_cell_formula_units_Z 16
_cell_length_a 6.541133
_cell_length_b 10.465611
_cell_length_c 22.561055
_cell_angle_alpha 43.133633
_cell_angle_beta 76.726229
_cell_angle_gamma 107.700383
_cell_volume 725.080206
_symmetry_space_group_name_H-M "P -1"
_symmetry_group_IT_number 2
_symmetry_cell_setting 'triclinic'
loop_
_space_group_symop_operation_xyz
x,y,z
-x,-y,-z
loop_
_atom_site_type_symbol
_atom_site_label
_atom_site_fract_x
_atom_site_fract_y
_atom_site_fract_z
Si Si1 0.875640 0.816646 0.512240
Si Si2 0.799958 0.353789 0.895535
Si Si3 0.158863 0.921783 0.681263
Si Si4 0.223105 0.787974 0.413563
Si Si5 0.834442 0.964651 0.769846
Si Si6 0.154715 0.000119 0.043789
Si Si7 0.726372 0.233356 0.075164
Si Si8 0.288325 0.206472 0.753173
O O1 0.574868 0.509579 0.649818
O O2 0.113395 0.816673 0.471969
O O3 0.817244 0.934161 0.426553
O O4 0.000000 0.000000 0.500000
O O5 0.832492 0.214919 0.891218
O O6 0.082279 0.661635 0.757671
O O7 0.811254 0.268751 0.988693
O O8 0.497417 0.282702 0.930386
O O9 0.895909 0.809849 0.783387
O O10 0.473889 0.129732 0.622365
O O11 0.000000 0.500000 0.500000
O O12 0.258417 0.955057 0.302530
O O13 0.552719 0.798183 0.889203
O O14 0.146759 0.199377 0.704041
O O15 0.975857 0.937631 0.134596
O O16 0.000000 0.000000 0.000000
O O17 0.642415 0.973280 0.194034
O O18 0.000000 0.500000 0.000000
#
# Coordination Sequence:
#
# PCOD8032362 Si02
#       8
#     2   2   2   2   2   2   2   2
#     4  11  28  46  70 106 139 188 238 287 347 412
#     4  11  25  44  65 104 135 179 230 278 349 417
#     4  11  26  45  71 100 142 181 229 288 344 417
#     4  11  23  46  70  97 139 184 233 287 347 411
#     4  11  23  42  68 101 135 178 226 286 345 409
#     4  11  25  44  70  95 139 185 223 284 354 411
#     4  12  25  41  69 107 139 179 230 283 348 416
#     4  12  25  45  72 101 141 181 234 291 345 414
#
# _framework density 22.066523
#
# number of rings (size 3 to 8) (size 9 to 14) (size 15 to 20)
#    0.000    0.750    2.500    4.500    5.250    4.500 
#    2.250    0.000    0.000    0.000    0.000    0.000 
#    0.000    0.000    0.000    0.000    0.000    0.000 
#
# Total GULP energy -198325.959329 kJ/mol
# GULP energy per Si atom -12395.372458 kJ/mol
# Density = 2.201630 g / cm^3
# Si number density = 22.066523 Si / 1000 Ang^3
#
#
#
# Elastic Constant Matrix: (Units=GPa)
#
#
# Indices 1 2 3 4 5 6 
#
# 1 121.3170 46.1334 37.7568 -2.8621 -14.6601 8.6678
# 2 46.1334 118.3821 28.2010 -15.9448 -5.3420 3.9498
# 3 37.7568 28.2010 79.0561 -26.3218 -4.0899 -1.1158
# 4 -2.8621 -15.9448 -26.3218 43.8935 0.4413 -4.0508
# 5 -14.6601 -5.3420 -4.0899 0.4413 26.3556 1.7975
# 6 8.6678 3.9498 -1.1158 -4.0508 1.7975 42.5532
#
#
#
# Elastic Compliance Matrix: (Units=1/GPa)
#
#
# Indices 1 2 3 4 5 6 
#
# 1 0.012150 -0.003610 -0.005694 -0.004258 0.005414 -0.002923
# 2 -0.003610 0.010495 -0.001040 0.002956 -0.000093 0.000019
# 3 -0.005694 -0.001040 0.019470 0.011199 -0.000739 0.002864
# 4 -0.004258 0.002956 0.011199 0.030657 -0.000807 0.003839
# 5 0.005414 -0.000093 -0.000739 -0.000807 0.041033 -0.002924
# 6 -0.002923 0.000019 0.002864 0.003839 -0.002924 0.024658
#
#
# Mechanical properties :
#
#
# Convention : Reuss Voigt Hill
#
# Bulk Modulus (GPa) = 46.66848 60.32642 53.49745
# Shear Modulus (GPa) = 30.06713 36.33806 33.20259
#
# Velocity S-wave (km/s) = 3.69530 4.06242 3.88320
# Velocity P-wave (km/s) = 6.27709 7.02866 6.66348
#
# Compressibility (1/GPa) = 0.02142774
#
# Stress axis : x y z
#
# Youngs Moduli (GPa) = 82.30116 95.28170 51.35997
#
# Poissons Ratio (x) = 0.34399 0.29244
# Poissons Ratio (y) = 0.29713 0.05341
# Poissons Ratio (z) = 0.46862 0.09908
#
# Static dielectric constant tensor:
#      x y z
#    x 4.683470 0.125310 0.005130 
#    y 0.125310 4.225680 0.194320 
#    z 0.005130 0.194320 3.940010 
# 
# 
# High freq. dielectric constant tensor:
#      x y z
#    x 1.882780 0.000400 -0.009420 
#    y 0.000400 1.882510 0.003720 
#    z -0.009420 0.003720 1.860270 
# 
# From -- ./inp_files/369506.got.cif
#   From: 2010.06.25/outbox.cif.g09.slc.cpg/sg2_185_cif.got.tgz:369506.got - 2010.06.27 13:26:56.
