data_PCOD8032482
_publ_section_title
;
Structure prediction by ZEFSAII (Michael W. Deem and Ramdas Pophale) SiO2 
 PCOD8032482
Probable space group: P -1
;
_chemical_formula_sum "Si O2"
_cell_formula_units_Z 16
_cell_length_a 9.865301
_cell_length_b 22.520158
_cell_length_c 12.422100
_cell_angle_alpha 38.120148
_cell_angle_beta 43.747607
_cell_angle_gamma 25.945621
_cell_volume 744.234425
_symmetry_space_group_name_H-M "P -1"
_symmetry_group_IT_number 2
_symmetry_cell_setting 'triclinic'
loop_
_space_group_symop_operation_xyz
x,y,z
-x,-y,-z
loop_
_atom_site_type_symbol
_atom_site_label
_atom_site_fract_x
_atom_site_fract_y
_atom_site_fract_z
Si Si1 0.722422 0.538365 0.750588
Si Si2 0.357953 0.634244 0.032973
Si Si3 0.288411 0.784403 0.470930
Si Si4 0.728774 0.870650 0.638827
Si Si5 0.329303 0.386903 0.703983
Si Si6 0.826421 0.472498 0.183191
Si Si7 0.317234 0.923815 0.967754
Si Si8 0.765226 0.975796 0.903154
O O1 0.618040 0.553210 0.910010
O O2 0.473922 0.691252 0.605724
O O3 0.026256 0.487325 0.660997
O O4 0.800050 0.409873 0.827603
O O5 0.099077 0.812665 0.905469
O O6 0.515986 0.576854 0.141702
O O7 0.413680 0.683071 0.434119
O O8 0.942715 0.874943 0.556963
O O9 0.298202 0.895797 0.295029
O O10 0.489387 0.927795 0.783215
O O11 0.939502 0.705147 0.707696
O O12 0.500000 0.000000 0.500000
O O13 0.273074 0.483768 0.695408
O O14 0.428064 0.251512 0.897606
O O15 0.000000 0.500000 0.000000
O O16 0.211061 0.028906 0.976631
O O17 0.000000 0.000000 0.000000
O O18 0.500000 0.000000 0.000000
#
# Coordination Sequence:
#
# PCOD8032482 Si02
#       8
#     2   2   2   2   2   2   2   2
#     4  11  23  43  70  98 141 179 225 286 352 411
#     4  11  23  42  72 100 132 182 232 279 344 419
#     4  11  26  45  68 103 143 183 225 296 350 407
#     4  12  26  45  68 103 142 179 228 289 357 401
#     4  11  23  42  73  96 136 182 234 276 348 412
#     4  12  23  43  71 102 128 179 237 284 331 422
#     4  11  23  45  71  96 139 187 226 280 346 417
#     4  11  26  45  70 100 136 183 235 279 345 416
#
# _framework density 21.498602999999999
#
# number of rings (size 3 to 8) (size 9 to 14) (size 15 to 20)
#    0.000    0.750    3.750    4.125    5.250    1.000 
#    4.500    0.000    0.000    0.000    0.000    0.000 
#    0.000    0.000    0.000    0.000    0.000    0.000 
#
# Total GULP energy -198377.645519 kJ/mol
# GULP energy per Si atom -12398.602845 kJ/mol
# Density = 2.144967 g / cm^3
# Si number density = 21.498603 Si / 1000 Ang^3
#
#
#
# Elastic Constant Matrix: (Units=GPa)
#
#
# Indices 1 2 3 4 5 6 
#
# 1 155.5396 44.6692 46.1933 0.2963 4.4229 -15.6912
# 2 44.6692 78.7763 31.3824 -8.8696 -7.0629 -15.3513
# 3 46.1933 31.3824 109.1263 -4.3881 1.4508 -16.2623
# 4 0.2963 -8.8696 -4.3881 45.4388 -5.9528 -1.1287
# 5 4.4229 -7.0629 1.4508 -5.9528 38.2182 -5.8429
# 6 -15.6912 -15.3513 -16.2623 -1.1287 -5.8429 40.0891
#
#
#
# Elastic Compliance Matrix: (Units=1/GPa)
#
#
# Indices 1 2 3 4 5 6 
#
# 1 0.008384 -0.004024 -0.002346 -0.001283 -0.001749 0.000498
# 2 -0.004024 0.017949 -0.002599 0.004101 0.005305 0.005132
# 3 -0.002346 -0.002599 0.011332 0.000652 -0.000127 0.002683
# 4 -0.001283 0.004101 0.000652 0.023599 0.004974 0.002722
# 5 -0.001749 0.005305 -0.000127 0.004974 0.028993 0.005661
# 6 0.000498 0.005132 0.002683 0.002722 0.005661 0.029095
#
#
# Mechanical properties :
#
#
# Convention : Reuss Voigt Hill
#
# Bulk Modulus (GPa) = 50.69176 65.32580 58.00878
# Shear Modulus (GPa) = 34.75486 39.49571 37.12528
#
# Velocity S-wave (km/s) = 4.02507 4.29082 4.16007
# Velocity P-wave (km/s) = 6.72546 7.41622 7.07927
#
# Compressibility (1/GPa) = 0.01972707
#
# Stress axis : x y z
#
# Youngs Moduli (GPa) = 119.27623 55.71417 88.24574
#
# Poissons Ratio (x) = 0.22417 0.20702
# Poissons Ratio (y) = 0.47992 0.22937
# Poissons Ratio (z) = 0.27981 0.14481
#
# Static dielectric constant tensor:
#      x y z
#    x 4.075810 0.033220 0.064040 
#    y 0.033220 3.941430 0.049120 
#    z 0.064040 0.049120 3.910250 
# 
# 
# High freq. dielectric constant tensor:
#      x y z
#    x 1.855290 -0.006210 0.006240 
#    y -0.006210 1.851120 0.001470 
#    z 0.006240 0.001470 1.848430 
# 
# From -- ./inp_files/209570.got.cif
#   From: 2010.06.25/outbox.cif.g09.slc.cpg/sg2_105_cif.got.tgz:209570.got - 2010.06.27 13:26:56.
