data_PCOD8032485
_publ_section_title
;
Structure prediction by ZEFSAII (Michael W. Deem and Ramdas Pophale) SiO2 
 PCOD8032485
Probable space group: P -1
;
_chemical_formula_sum "Si O2"
_cell_formula_units_Z 16
_cell_length_a 20.181068
_cell_length_b 11.479057
_cell_length_c 11.329627
_cell_angle_alpha 137.722566
_cell_angle_beta 149.234688
_cell_angle_gamma 31.455256
_cell_volume 700.353057
_symmetry_space_group_name_H-M "P -1"
_symmetry_group_IT_number 2
_symmetry_cell_setting 'triclinic'
loop_
_space_group_symop_operation_xyz
x,y,z
-x,-y,-z
loop_
_atom_site_type_symbol
_atom_site_label
_atom_site_fract_x
_atom_site_fract_y
_atom_site_fract_z
Si Si1 0.870870 0.751819 0.531964
Si Si2 0.111196 0.842227 0.883673
Si Si3 0.463887 0.153914 0.921848
Si Si4 0.360905 0.478399 0.805308
Si Si5 0.074832 0.265254 0.129173
Si Si6 0.372510 0.515633 0.228212
Si Si7 0.659424 0.762434 0.603845
Si Si8 0.268391 0.326960 0.094512
O O1 0.686136 0.854171 0.279114
O O2 0.848539 0.767635 0.649730
O O3 0.000000 0.500000 0.500000
O O4 0.947232 0.868355 0.688086
O O5 0.204244 0.688786 0.795312
O O6 0.248862 0.736523 0.122624
O O7 0.037937 0.091881 0.928353
O O8 0.442839 0.253407 0.835601
O O9 0.639828 0.904615 0.008308
O O10 0.478451 0.297094 0.144377
O O11 0.299009 0.444100 0.563472
O O12 0.500000 0.500000 0.000000
O O13 0.199367 0.211774 0.175380
O O14 0.927713 0.529665 0.077902
O O15 0.500000 0.500000 0.500000
O O16 0.254392 0.507721 0.126866
O O17 0.638108 0.717680 0.672418
O O18 0.500000 0.000000 0.500000
#
# Coordination Sequence:
#
# PCOD8032485 Si02
#       8
#     2   2   2   2   2   2   2   2
#     4  12  20  44  74 103 137 183 240 287 352 421
#     4  11  25  44  73 105 142 190 232 297 358 415
#     4  11  24  45  73 104 138 190 233 293 357 418
#     4  11  23  42  72 101 134 183 244 285 344 419
#     4  12  25  45  68 105 142 184 237 290 356 424
#     4  11  26  42  68 108 143 177 233 294 356 418
#     4  12  24  45  73 100 136 192 238 288 348 425
#     4  12  26  44  67 105 143 184 232 287 359 423
#
# _framework density 22.84562
#
# number of rings (size 3 to 8) (size 9 to 14) (size 15 to 20)
#    0.000    0.500    6.250    1.875    7.000    0.000 
#    0.000    1.875    0.000    0.000    0.000    0.000 
#    0.000    0.000    0.000    0.000    0.000    0.000 
#
# Total GULP energy -198285.495479 kJ/mol
# GULP energy per Si atom -12392.843467 kJ/mol
# Density = 2.279362 g / cm^3
# Si number density = 22.845620 Si / 1000 Ang^3
#
#
#
# Elastic Constant Matrix: (Units=GPa)
#
#
# Indices 1 2 3 4 5 6 
#
# 1 91.3976 24.6040 19.0167 -0.6223 -0.4954 -2.8831
# 2 24.6040 143.8774 37.1764 -9.0552 9.5351 -13.8008
# 3 19.0167 37.1764 96.5156 13.2038 2.6180 -4.1480
# 4 -0.6223 -9.0552 13.2038 26.3079 -6.6727 5.7410
# 5 -0.4954 9.5351 2.6180 -6.6727 49.6841 3.4750
# 6 -2.8831 -13.8008 -4.1480 5.7410 3.4750 32.6642
#
#
#
# Elastic Compliance Matrix: (Units=1/GPa)
#
#
# Indices 1 2 3 4 5 6 
#
# 1 0.011746 -0.001519 -0.001867 0.000864 0.000627 -0.000061
# 2 -0.001519 0.008653 -0.003413 0.003806 -0.001163 0.002543
# 3 -0.001867 -0.003413 0.013337 -0.008636 -0.001348 0.001748
# 4 0.000864 0.003806 -0.008636 0.047203 0.006661 -0.008418
# 5 0.000627 -0.001163 -0.001348 0.006661 0.021607 -0.004077
# 6 -0.000061 0.002543 0.001748 -0.008418 -0.004077 0.033819
#
#
# Mechanical properties :
#
#
# Convention : Reuss Voigt Hill
#
# Bulk Modulus (GPa) = 49.66168 54.82052 52.24110
# Shear Modulus (GPa) = 31.91309 38.46415 35.18862
#
# Velocity S-wave (km/s) = 3.74157 4.10769 3.92890
# Velocity P-wave (km/s) = 6.36010 6.82244 6.59532
#
# Compressibility (1/GPa) = 0.02013625
#
# Stress axis : x y z
#
# Youngs Moduli (GPa) = 85.13521 115.57203 74.98043
#
# Poissons Ratio (x) = 0.17558 0.13999
# Poissons Ratio (y) = 0.12934 0.25593
# Poissons Ratio (z) = 0.15895 0.39448
#
# Static dielectric constant tensor:
#      x y z
#    x 4.299530 -0.036580 -0.657560 
#    y -0.036580 4.103090 0.175060 
#    z -0.657560 0.175060 2.695750 
# 
# 
# High freq. dielectric constant tensor:
#      x y z
#    x 1.920450 -0.013780 -0.003600 
#    y -0.013780 1.905420 0.006930 
#    z -0.003600 0.006930 1.887390 
# 
# From -- ./inp_files/471239.got.cif
#   From: 2010.06.25/outbox.cif.g09.slc.cpg/sg2_236_cif.got.tgz:471239.got - 2010.06.27 13:26:56.
