data_PCOD8032466
_publ_section_title
;
Structure prediction by ZEFSAII (Michael W. Deem and Ramdas Pophale) SiO2 
 PCOD8032466
Probable space group: P -1
;
_chemical_formula_sum "Si O2"
_cell_formula_units_Z 16
_cell_length_a 5.496256
_cell_length_b 21.765066
_cell_length_c 21.088635
_cell_angle_alpha 19.270008
_cell_angle_beta 106.783870
_cell_angle_gamma 115.626658
_cell_volume 687.454718
_symmetry_space_group_name_H-M "P -1"
_symmetry_group_IT_number 2
_symmetry_cell_setting 'triclinic'
loop_
_space_group_symop_operation_xyz
x,y,z
-x,-y,-z
loop_
_atom_site_type_symbol
_atom_site_label
_atom_site_fract_x
_atom_site_fract_y
_atom_site_fract_z
Si Si1 0.475216 0.247986 0.521160
Si Si2 0.774212 0.359766 0.673789
Si Si3 0.863767 0.992462 0.064376
Si Si4 0.911984 0.713263 0.434627
Si Si5 0.795148 0.175191 0.162585
Si Si6 0.223004 0.420091 0.240724
Si Si7 0.404520 0.911477 0.507131
Si Si8 0.423772 0.487627 0.934974
O O1 0.302914 0.287867 0.526258
O O2 0.475530 0.400055 0.316682
O O3 0.809482 0.306228 0.502445
O O4 0.299161 0.999781 0.729149
O O5 0.475491 0.196268 0.774875
O O6 0.721299 0.508087 0.574463
O O7 0.000000 0.500000 0.500000
O O8 0.892326 0.223428 0.854599
O O9 0.030283 0.935332 0.186968
O O10 0.000000 0.000000 0.000000
O O11 0.598733 0.086063 0.298638
O O12 0.803464 0.380787 0.927879
O O13 0.129236 0.258236 0.126926
O O14 0.319549 0.508647 0.090340
O O15 0.938097 0.178550 0.449103
O O16 0.416488 0.696402 0.708823
O O17 0.500000 0.000000 0.500000
O O18 0.500000 0.500000 0.000000
#
# Coordination Sequence:
#
# PCOD8032466 Si02
#       8
#     2   2   2   2   2   2   2   2
#     4  12  29  49  72 105 153 208 251 294 365 453
#     4  11  24  47  78 112 157 192 237 317 373 424
#     4  11  25  45  80 114 150 191 243 306 386 418
#     4  12  28  48  76 113 149 200 257 294 360 455
#     4  11  26  46  71  97 148 192 239 313 370 436
#     4  11  26  46  70  99 144 191 247 300 379 436
#     4  11  23  42  71 105 139 183 241 313 383 447
#     4  11  24  41  71 109 131 180 250 309 382 446
#
# _framework density 23.274259000000001
#
# number of rings (size 3 to 8) (size 9 to 14) (size 15 to 20)
#    0.000    0.750    2.500    3.375   10.500    5.000 
#    0.000    0.000    0.000    0.000    0.000    0.000 
#    0.000    0.000    0.000    0.000    0.000    0.000 
#
# Total GULP energy -198290.550305 kJ/mol
# GULP energy per Si atom -12393.159394 kJ/mol
# Density = 2.322129 g / cm^3
# Si number density = 23.274259 Si / 1000 Ang^3
#
#
#
# Elastic Constant Matrix: (Units=GPa)
#
#
# Indices 1 2 3 4 5 6 
#
# 1 104.0181 30.8913 29.0572 1.8451 -10.0934 -11.3831
# 2 30.8913 91.3447 33.6027 -1.4110 7.8112 -16.2926
# 3 29.0572 33.6027 129.7952 -8.0264 3.6573 -5.1414
# 4 1.8451 -1.4110 -8.0264 41.2704 0.6548 5.8406
# 5 -10.0934 7.8112 3.6573 0.6548 47.2023 1.8223
# 6 -11.3831 -16.2926 -5.1414 5.8406 1.8223 45.5345
#
#
#
# Elastic Compliance Matrix: (Units=1/GPa)
#
#
# Indices 1 2 3 4 5 6 
#
# 1 0.011592 -0.003243 -0.001859 -0.001262 0.003117 0.001565
# 2 -0.003243 0.014003 -0.002681 -0.000427 -0.002954 0.004070
# 3 -0.001859 -0.002681 0.008921 0.001825 -0.000646 -0.000625
# 4 -0.001262 -0.000427 0.001825 0.025126 -0.000555 -0.003463
# 5 0.003117 -0.002954 -0.000646 -0.000555 0.022444 -0.001178
# 6 0.001565 0.004070 -0.000625 -0.003463 -0.001178 0.024229
#
#
# Mechanical properties :
#
#
# Convention : Reuss Voigt Hill
#
# Bulk Modulus (GPa) = 52.77409 56.91782 54.84595
# Shear Modulus (GPa) = 39.00192 42.24192 40.62192
#
# Velocity S-wave (km/s) = 4.09804 4.26486 4.18228
# Velocity P-wave (km/s) = 6.71684 6.98286 6.85115
#
# Compressibility (1/GPa) = 0.01894869
#
# Stress axis : x y z
#
# Youngs Moduli (GPa) = 86.26387 71.41578 112.09376
#
# Poissons Ratio (x) = 0.23162 0.20843
# Poissons Ratio (y) = 0.27978 0.30052
# Poissons Ratio (z) = 0.16040 0.19146
#
# Static dielectric constant tensor:
#      x y z
#    x 3.599370 -0.371980 -0.264210 
#    y -0.371980 3.951660 -0.217430 
#    z -0.264210 -0.217430 3.984280 
# 
# 
# High freq. dielectric constant tensor:
#      x y z
#    x 1.930570 -0.004700 0.012650 
#    y -0.004700 1.911720 0.001860 
#    z 0.012650 0.001860 1.942260 
# 
# From -- ./inp_files/10862.got.cif
#   From: 2010.06.25/outbox.cif.g09.slc.cpg/sg2_6_cif.got.tgz:10862.got - 2010.06.27 13:26:56.
