data_PCOD8032478
_publ_section_title
;
Structure prediction by ZEFSAII (Michael W. Deem and Ramdas Pophale) SiO2 
 PCOD8032478
Probable space group: P -1
;
_chemical_formula_sum "Si O2"
_cell_formula_units_Z 16
_cell_length_a 16.118355
_cell_length_b 9.825934
_cell_length_c 21.807577
_cell_angle_alpha 118.012466
_cell_angle_beta 18.827658
_cell_angle_gamma 128.297159
_cell_volume 775.990555
_symmetry_space_group_name_H-M "P -1"
_symmetry_group_IT_number 2
_symmetry_cell_setting 'triclinic'
loop_
_space_group_symop_operation_xyz
x,y,z
-x,-y,-z
loop_
_atom_site_type_symbol
_atom_site_label
_atom_site_fract_x
_atom_site_fract_y
_atom_site_fract_z
Si Si1 0.173832 0.121349 0.844013
Si Si2 0.112983 0.713270 0.592391
Si Si3 0.846317 0.096994 0.748553
Si Si4 0.975540 0.944985 0.815885
Si Si5 0.609425 0.704219 0.489070
Si Si6 0.821298 0.298861 0.117173
Si Si7 0.239684 0.728912 0.268344
Si Si8 0.839505 0.093538 0.527688
O O1 0.557806 0.246303 0.608207
O O2 0.036870 0.971495 0.851226
O O3 0.099359 0.273701 0.922583
O O4 0.000000 0.000000 0.000000
O O5 0.163664 0.837144 0.523440
O O6 0.987846 0.773400 0.748204
O O7 0.849499 0.483798 0.715520
O O8 0.906512 0.234505 0.679346
O O9 0.126061 0.229650 0.629940
O O10 0.874650 0.929058 0.671330
O O11 0.500000 0.000000 0.000000
O O12 0.628059 0.889296 0.030489
O O13 0.252507 0.148630 0.633020
O O14 0.500000 0.500000 0.500000
O O15 0.303100 0.686389 0.726657
O O16 0.511298 0.115661 0.258093
O O17 0.000000 0.500000 0.000000
O O18 0.090706 0.748162 0.438340
#
# Coordination Sequence:
#
# PCOD8032478 Si02
#       8
#     2   2   2   2   2   2   2   2
#     4  12  24  45  69 101 135 178 229 278 339 404
#     4  12  25  44  68 102 134 180 234 275 336 409
#     4  11  23  45  68  99 137 173 228 281 335 406
#     4  12  23  46  71  94 143 181 217 290 340 397
#     4  11  24  43  70  99 137 175 223 277 353 398
#     4  11  23  42  71  96 137 175 221 278 344 400
#     4  12  25  42  71 101 133 184 228 275 345 403
#     4  11  23  47  68  95 143 178 221 288 339 397
#
# _framework density 20.618808000000001
#
# number of rings (size 3 to 8) (size 9 to 14) (size 15 to 20)
#    0.000    0.500    6.250    2.250    5.250    0.000 
#    2.250    0.000    0.000    0.000    0.000    0.000 
#    0.000    0.000    0.000    0.000    0.000    0.000 
#
# Total GULP energy -198476.332849 kJ/mol
# GULP energy per Si atom -12404.770803 kJ/mol
# Density = 2.057188 g / cm^3
# Si number density = 20.618808 Si / 1000 Ang^3
#
#
#
# Elastic Constant Matrix: (Units=GPa)
#
#
# Indices 1 2 3 4 5 6 
#
# 1 114.1178 44.3501 38.4306 1.2009 22.5455 0.6400
# 2 44.3501 150.3676 47.5509 9.6088 22.1902 7.7274
# 3 38.4306 47.5509 105.3986 23.3418 7.0994 -2.6795
# 4 1.2009 9.6088 23.3418 39.5579 1.2409 4.0927
# 5 22.5455 22.1902 7.0994 1.2409 25.9770 11.2747
# 6 0.6400 7.7274 -2.6795 4.0927 11.2747 40.9374
#
#
#
# Elastic Compliance Matrix: (Units=1/GPa)
#
#
# Indices 1 2 3 4 5 6 
#
# 1 0.012405 -0.001308 -0.003707 0.002199 -0.009726 0.002269
# 2 -0.001308 0.008852 -0.003152 -0.000043 -0.005405 -0.000364
# 3 -0.003707 -0.003152 0.013868 -0.007549 0.001676 0.001854
# 4 0.002199 -0.000043 -0.007549 0.030041 0.000325 -0.003613
# 5 -0.009726 -0.005405 0.001676 0.000325 0.057399 -0.014559
# 6 0.002269 -0.000364 0.001854 -0.003613 -0.014559 0.028953
#
#
# Mechanical properties :
#
#
# Convention : Reuss Voigt Hill
#
# Bulk Modulus (GPa) = 53.22110 70.06082 61.64096
# Shear Modulus (GPa) = 28.71633 37.26462 32.99047
#
# Velocity S-wave (km/s) = 3.73597 4.25586 4.00436
# Velocity P-wave (km/s) = 6.66918 7.62907 7.16521
#
# Compressibility (1/GPa) = 0.01878954
#
# Stress axis : x y z
#
# Youngs Moduli (GPa) = 80.61009 112.96679 72.11012
#
# Poissons Ratio (x) = 0.14781 0.26732
# Poissons Ratio (y) = 0.10548 0.22731
# Poissons Ratio (z) = 0.29883 0.35609
#
# Static dielectric constant tensor:
#      x y z
#    x 3.998680 -0.045310 0.021500 
#    y -0.045310 3.970910 0.271840 
#    z 0.021500 0.271840 3.977400 
# 
# 
# High freq. dielectric constant tensor:
#      x y z
#    x 1.807080 0.000880 0.007100 
#    y 0.000880 1.816890 0.015710 
#    z 0.007100 0.015710 1.817240 
# 
# From -- ./inp_files/205916.got.cif
#   From: 2010.06.25/outbox.cif.g09.slc.cpg/sg2_103_cif.got.tgz:205916.got - 2010.06.27 13:26:56.
