data_PCOD8032112
_publ_section_title
;
Structure prediction by ZEFSAII (Michael W. Deem and Ramdas Pophale) SiO2 
 PCOD8032112
Probable space group: P -1
;
_chemical_formula_sum "Si O2"
_cell_formula_units_Z 16
_cell_length_a 5.679139
_cell_length_b 18.366408
_cell_length_c 9.314361
_cell_angle_alpha 52.005962
_cell_angle_beta 102.963464
_cell_angle_gamma 116.303169
_cell_volume 684.755541
_symmetry_space_group_name_H-M "P -1"
_symmetry_group_IT_number 2
_symmetry_cell_setting 'triclinic'
loop_
_space_group_symop_operation_xyz
x,y,z
-x,-y,-z
loop_
_atom_site_type_symbol
_atom_site_label
_atom_site_fract_x
_atom_site_fract_y
_atom_site_fract_z
Si Si1 0.063996 0.423478 0.280006
Si Si2 0.506559 0.369165 0.884595
Si Si3 0.957969 0.698666 0.294169
Si Si4 0.904276 0.885047 0.170555
Si Si5 0.822533 0.864955 0.500532
Si Si6 0.400370 0.795463 0.042156
Si Si7 0.543342 0.639296 0.792432
Si Si8 0.699653 0.042206 0.348194
O O1 0.213923 0.538169 0.211234
O O2 0.996311 0.349133 0.495732
O O3 0.269628 0.399815 0.230133
O O4 0.779419 0.415692 0.190983
O O5 0.328147 0.371457 0.721508
O O6 0.520534 0.259428 0.012338
O O7 0.381601 0.374040 0.017101
O O8 0.025243 0.818210 0.179210
O O9 0.152599 0.703711 0.185751
O O10 0.971367 0.875256 0.357471
O O11 0.595393 0.832982 0.158088
O O12 0.000000 0.000000 0.000000
O O13 0.602499 0.753723 0.621948
O O14 0.016986 0.888407 0.633571
O O15 0.692507 0.945850 0.377218
O O16 0.373395 0.892189 0.855638
O O17 0.500000 0.000000 0.500000
#
# Coordination Sequence:
#
# PCOD8032112 Si02
#       8
#     2   2   2   2   2   2   2   2
#     4  12  28  48  75 107 143 191 243 298 364 424
#     4  11  27  46  72 103 142 186 239 302 355 431
#     4  11  25  45  70 100 143 187 241 292 362 426
#     4  11  23  41  63  99 135 181 229 289 350 423
#     4  11  24  42  67  97 141 179 236 289 353 421
#     4  11  25  42  69 100 139 186 237 290 359 422
#     4  12  27  47  75 108 144 186 242 300 363 424
#     4  11  24  41  67 101 135 190 232 289 358 426
#
# _framework density 23.366001000000001
#
# number of rings (size 3 to 8) (size 9 to 14) (size 15 to 20)
#    0.000    0.750    1.250    4.875    8.750    8.500 
#    0.000    0.000    0.000    0.000    0.000    0.000 
#    0.000    0.000    0.000    0.000    0.000    0.000 
#
# Total GULP energy -198283.404442 kJ/mol
# GULP energy per Si atom -12392.712778 kJ/mol
# Density = 2.331282 g / cm^3
# Si number density = 23.366001 Si / 1000 Ang^3
#
#
#
# Elastic Constant Matrix: (Units=GPa)
#
#
# Indices 1 2 3 4 5 6 
#
# 1 94.7643 23.8650 5.1904 3.6932 -4.5968 -5.6124
# 2 23.8650 117.4172 17.3701 -9.6318 1.6647 2.7525
# 3 5.1904 17.3701 83.1876 2.9394 -4.1266 -19.1520
# 4 3.6932 -9.6318 2.9394 40.3141 -0.7191 -8.6681
# 5 -4.5968 1.6647 -4.1266 -0.7191 40.6708 -4.7133
# 6 -5.6124 2.7525 -19.1520 -8.6681 -4.7133 15.2008
#
#
#
# Elastic Compliance Matrix: (Units=1/GPa)
#
#
# Indices 1 2 3 4 5 6 
#
# 1 0.011776 -0.002894 0.001806 -0.000172 0.002538 0.007836
# 2 -0.002894 0.009972 -0.003774 0.001272 -0.001966 -0.007513
# 3 0.001806 -0.003774 0.019912 0.004187 0.006009 0.030689
# 4 -0.000172 0.001272 0.004187 0.029851 0.003559 0.023107
# 5 0.002538 -0.001966 0.006009 0.003559 0.027892 0.019543
# 6 0.007836 -0.007513 0.030689 0.023107 0.019543 0.127942
#
#
# Mechanical properties :
#
#
# Convention : Reuss Voigt Hill
#
# Bulk Modulus (GPa) = 31.31400 43.13558 37.22479
# Shear Modulus (GPa) = 20.18441 35.83337 28.00889
#
# Velocity S-wave (km/s) = 2.94230 3.92033 3.46598
# Velocity P-wave (km/s) = 4.99734 6.24443 5.65537
#
# Compressibility (1/GPa) = 0.03193460
#
# Stress axis : x y z
#
# Youngs Moduli (GPa) = 84.91559 100.28509 50.22129
#
# Poissons Ratio (x) = 0.29027 -0.09068
# Poissons Ratio (y) = 0.24578 0.18953
# Poissons Ratio (z) = -0.15332 0.37846
#
# Static dielectric constant tensor:
#      x y z
#    x 4.223410 -0.044770 -0.006680 
#    y -0.044770 4.548160 0.021440 
#    z -0.006680 0.021440 4.138210 
# 
# 
# High freq. dielectric constant tensor:
#      x y z
#    x 1.918620 -0.001750 -0.001110 
#    y -0.001750 1.943710 -0.001550 
#    z -0.001110 -0.001550 1.933050 
# 
# From -- ./inp_files/39213.got.cif
#   From: 2010.06.25/outbox.cif.g09.slc.cpg/sg2_20_cif.got.tgz:39213.got - 2010.06.27 13:26:56.
