data_PCOD8032918
_publ_section_title
;
Structure prediction by ZEFSAII (Michael W. Deem and Ramdas Pophale) SiO2 
 PCOD8032918
Probable space group: P -1
;
_chemical_formula_sum "Si O2"
_cell_formula_units_Z 14
_cell_length_a 10.505749
_cell_length_b 6.915275
_cell_length_c 14.973309
_cell_angle_alpha 129.164332
_cell_angle_beta 58.778459
_cell_angle_gamma 88.478834
_cell_volume 609.930808
_symmetry_space_group_name_H-M "P -1"
_symmetry_group_IT_number 2
_symmetry_cell_setting 'triclinic'
loop_
_space_group_symop_operation_xyz
x,y,z
-x,-y,-z
loop_
_atom_site_type_symbol
_atom_site_label
_atom_site_fract_x
_atom_site_fract_y
_atom_site_fract_z
Si Si1 0.592923 0.590022 0.922406
Si Si2 0.881816 0.129552 0.310314
Si Si3 0.518490 0.216969 0.166291
Si Si4 0.860031 0.198744 0.035853
Si Si5 0.325952 0.234819 0.406366
Si Si6 0.087439 0.979695 0.369402
Si Si7 0.623796 0.896252 0.338543
O O1 0.555171 0.550702 0.821059
O O2 0.800298 0.367713 0.797785
O O3 0.500000 0.500000 0.000000
O O4 0.517283 0.927797 0.061972
O O5 0.796862 0.467034 0.403615
O O6 0.731498 0.055434 0.342007
O O7 0.945115 0.138905 0.390179
O O8 0.049099 0.899640 0.123041
O O9 0.717511 0.114551 0.080043
O O10 0.396583 0.356616 0.337934
O O11 0.769140 0.548185 0.183837
O O12 0.000000 0.000000 0.000000
O O13 0.214166 0.106820 0.369324
O O14 0.493819 0.983889 0.326826
O O15 0.000000 0.000000 0.500000
O O16 0.500000 0.000000 0.500000
#
# Coordination Sequence:
#
# PCOD8032918 Si02
#       7
#     2   2   2   2   2   2   2
#     4  11  23  44  68 103 141 191 233 290 354 437
#     4  12  27  44  72 105 145 185 238 303 365 418
#     4  11  25  42  72 100 143 187 242 287 357 430
#     4  12  27  45  71 106 142 183 244 306 358 423
#     4  12  25  47  72 104 145 192 244 293 356 445
#     4  12  26  42  71 104 149 184 240 297 369 414
#     4  12  26  49  75 100 143 198 242 292 363 439
#
# _framework density 22.953423000000001
#
# number of rings (size 3 to 8) (size 9 to 14) (size 15 to 20)
#    0.000    0.286    1.429    7.286    8.000    0.000 
#    0.000    0.000    0.000    0.000    0.000    0.000 
#    0.000    0.000    0.000    0.000    0.000    0.000 
#
# Total GULP energy -173570.615202 kJ/mol
# GULP energy per Si atom -12397.901086 kJ/mol
# Density = 2.290118 g / cm^3
# Si number density = 22.953423 Si / 1000 Ang^3
#
#
#
# Elastic Constant Matrix: (Units=GPa)
#
#
# Indices 1 2 3 4 5 6 
#
# 1 138.4815 44.6490 12.4879 -5.1772 -8.8855 -4.1396
# 2 44.6490 115.5077 39.9266 -3.7149 0.4191 -9.5479
# 3 12.4879 39.9266 131.9170 3.5816 -5.9105 0.1563
# 4 -5.1772 -3.7149 3.5816 59.5618 -0.6699 -11.1409
# 5 -8.8855 0.4191 -5.9105 -0.6699 33.1037 -3.0679
# 6 -4.1396 -9.5479 0.1563 -11.1409 -3.0679 40.1591
#
#
#
# Elastic Compliance Matrix: (Units=1/GPa)
#
#
# Indices 1 2 3 4 5 6 
#
# 1 0.008458 -0.003325 0.000297 0.000619 0.002418 0.000437
# 2 -0.003325 0.011298 -0.003197 0.001070 -0.001348 0.002550
# 3 0.000297 -0.003197 0.008614 -0.000838 0.001560 -0.000876
# 4 0.000619 0.001070 -0.000838 0.017975 0.000865 0.005374
# 5 0.002418 -0.001348 0.001560 0.000865 0.031408 0.002562
# 6 0.000437 0.002550 -0.000876 0.005374 0.002562 0.027242
#
#
# Mechanical properties :
#
#
# Convention : Reuss Voigt Hill
#
# Bulk Modulus (GPa) = 62.81833 64.44813 63.63323
# Shear Modulus (GPa) = 40.73297 45.82110 43.27704
#
# Velocity S-wave (km/s) = 4.21716 4.47280 4.34686
# Velocity P-wave (km/s) = 7.15121 7.40361 7.27850
#
# Compressibility (1/GPa) = 0.01591892
#
# Stress axis : x y z
#
# Youngs Moduli (GPa) = 118.23557 88.51345 116.09292
#
# Poissons Ratio (x) = 0.29427 -0.03444
# Poissons Ratio (y) = 0.39309 0.37117
# Poissons Ratio (z) = -0.03507 0.28299
#
# Static dielectric constant tensor:
#      x y z
#    x 4.380330 -0.379700 -0.121680 
#    y -0.379700 4.623360 0.089960 
#    z -0.121680 0.089960 4.491080 
# 
# 
# High freq. dielectric constant tensor:
#      x y z
#    x 1.909650 -0.004530 -0.007770 
#    y -0.004530 1.920150 0.002090 
#    z -0.007770 0.002090 1.929360 
# 
# From -- ./inp_files/511222.got.cif
#   From: 2010.06.25/outbox.cif.g09.slc.cpg/sg2_256_cif.got.tgz:511222.got - 2010.06.27 13:26:56.
