data_PCOD8032764
_publ_section_title
;
Structure prediction by ZEFSAII (Michael W. Deem and Ramdas Pophale) SiO2 
 PCOD8032764
Probable space group: P -1
;
_chemical_formula_sum "Si O2"
_cell_formula_units_Z 16
_cell_length_a 10.694517
_cell_length_b 17.734341
_cell_length_c 9.011525
_cell_angle_alpha 129.994140
_cell_angle_beta 115.466638
_cell_angle_gamma 35.981452
_cell_volume 753.721319
_symmetry_space_group_name_H-M "P -1"
_symmetry_group_IT_number 2
_symmetry_cell_setting 'triclinic'
loop_
_space_group_symop_operation_xyz
x,y,z
-x,-y,-z
loop_
_atom_site_type_symbol
_atom_site_label
_atom_site_fract_x
_atom_site_fract_y
_atom_site_fract_z
Si Si1 0.781352 0.178414 0.635156
Si Si2 0.590459 0.084702 0.762008
Si Si3 0.450802 0.888684 0.570380
Si Si4 0.668045 0.269334 0.020726
Si Si5 0.808086 0.788027 0.106528
Si Si6 0.781406 0.377313 0.717834
Si Si7 0.898089 0.662079 0.671352
Si Si8 0.954839 0.248368 0.327654
O O1 0.589221 0.205033 0.541857
O O2 0.769406 0.270528 0.625690
O O3 0.767262 0.229826 0.857862
O O4 0.000000 0.000000 0.500000
O O5 0.551251 0.081910 0.566596
O O6 0.380022 0.167935 0.850264
O O7 0.629528 0.177837 0.926390
O O8 0.799509 0.910980 0.704142
O O9 0.679059 0.790849 0.630493
O O10 0.266433 0.058216 0.767778
O O11 0.442968 0.449557 0.138322
O O12 0.839322 0.216471 0.159466
O O13 0.027925 0.666943 0.160380
O O14 0.855471 0.705324 0.875560
O O15 0.818962 0.359626 0.539636
O O16 0.000000 0.500000 0.500000
O O17 0.057550 0.657506 0.680477
#
# Coordination Sequence:
#
# PCOD8032764 Si02
#       8
#     2   2   2   2   2   2   2   2
#     4  11  23  43  72 100 136 182 232 273 333 414
#     4  11  24  45  74 102 131 185 231 280 332 409
#     4  11  23  46  69 103 136 178 231 278 338 406
#     4  11  27  42  69 105 140 180 222 285 344 399
#     4  12  24  45  72  98 137 182 231 276 340 409
#     4  12  25  44  70 102 139 185 222 282 347 401
#     4  12  30  43  69 104 137 178 223 291 346 400
#     4  12  25  48  69  98 144 174 234 278 338 411
#
# _framework density 21.228006000000001
#
# number of rings (size 3 to 8) (size 9 to 14) (size 15 to 20)
#    0.000    0.500    3.750    4.125    7.000    1.500 
#    0.000    0.000    0.000    0.000    0.000    0.000 
#    0.000    0.000    0.000    0.000    0.000    0.000 
#
# Total GULP energy -198510.337721 kJ/mol
# GULP energy per Si atom -12406.896108 kJ/mol
# Density = 2.117969 g / cm^3
# Si number density = 21.228006 Si / 1000 Ang^3
#
#
#
# Elastic Constant Matrix: (Units=GPa)
#
#
# Indices 1 2 3 4 5 6 
#
# 1 59.2765 -106.2464 34.2309 -37.5431 -55.7285 21.8614
# 2 -106.2464 -275.3367 1.7234 -88.9670 -115.4320 41.0228
# 3 34.2309 1.7234 157.9774 -10.5785 -24.9418 0.0305
# 4 -37.5431 -88.9670 -10.5785 13.7591 -40.3897 26.0522
# 5 -55.7285 -115.4320 -24.9418 -40.3897 -1.2435 21.3992
# 6 21.8614 41.0228 0.0305 26.0522 21.3992 24.2945
#
#
#
# Elastic Compliance Matrix: (Units=1/GPa)
#
#
# Indices 1 2 3 4 5 6 
#
# 1 0.011061 -0.005987 -0.001934 0.001380 0.001932 -0.003024
# 2 -0.005987 0.010751 -0.001858 -0.013644 -0.013439 0.013704
# 3 -0.001934 -0.001858 0.007559 0.002508 0.003935 -0.001287
# 4 0.001380 -0.013644 0.002508 0.028531 0.004717 -0.012957
# 5 0.001932 -0.013439 0.003935 0.004717 0.024636 -0.005809
# 6 -0.003024 0.013704 -0.001287 -0.012957 -0.005809 0.039755
#
#
# Mechanical properties :
#
#
# Convention : Reuss Voigt Hill
#
# Bulk Modulus (GPa) = 101.89151 -22.07411 39.90870
# Shear Modulus (GPa) = 34.45400 8.17599 21.31500
#
# Velocity S-wave (km/s) = 4.03307 1.96466 3.17219
# Velocity P-wave (km/s) = 8.35407 2.29666 5.67960
#
# Compressibility (1/GPa) = 0.00981436
#
# Stress axis : x y z
#
# Youngs Moduli (GPa) = 90.40427 93.01364 132.29971
#
# Poissons Ratio (x) = 0.55686 0.25580
# Poissons Ratio (y) = 0.54123 0.24582
# Poissons Ratio (z) = 0.17480 0.17282
#
# Static dielectric constant tensor:
#      x y z
#    x 4.431350 0.461200 0.244230 
#    y 0.461200 4.356150 0.212740 
#    z 0.244230 0.212740 4.101860 
# 
# 
# High freq. dielectric constant tensor:
#      x y z
#    x 1.850820 -0.005460 0.004740 
#    y -0.005460 1.832430 0.000430 
#    z 0.004740 0.000430 1.848740 
# 
# From -- ./inp_files/216456.got.cif
#   From: 2010.06.25/outbox.cif.g09.slc.cpg/sg2_109_cif.got.tgz:216456.got - 2010.06.27 13:26:56.
