data_PCOD8032625
_publ_section_title
;
Structure prediction by ZEFSAII (Michael W. Deem and Ramdas Pophale) SiO2 
 PCOD8032625
Probable space group: P -1
;
_chemical_formula_sum "Si O2"
_cell_formula_units_Z 16
_cell_length_a 10.847069
_cell_length_b 10.365117
_cell_length_c 11.891210
_cell_angle_alpha 101.300841
_cell_angle_beta 117.119398
_cell_angle_gamma 37.594230
_cell_volume 691.525551
_symmetry_space_group_name_H-M "P -1"
_symmetry_group_IT_number 2
_symmetry_cell_setting 'triclinic'
loop_
_space_group_symop_operation_xyz
x,y,z
-x,-y,-z
loop_
_atom_site_type_symbol
_atom_site_label
_atom_site_fract_x
_atom_site_fract_y
_atom_site_fract_z
Si Si1 0.810606 0.707384 0.038846
Si Si2 0.116664 0.749012 0.833846
Si Si3 0.712223 0.242722 0.682211
Si Si4 0.433786 0.509069 0.121614
Si Si5 0.270684 0.415773 0.552338
Si Si6 0.047609 0.829331 0.430981
Si Si7 0.657962 0.061757 0.142100
Si Si8 0.951516 0.479775 0.294384
O O1 0.835310 0.637539 0.165388
O O2 0.814121 0.865406 0.077567
O O3 0.562605 0.861163 0.907380
O O4 0.000000 0.500000 0.000000
O O5 0.364255 0.541483 0.835510
O O6 0.973062 0.724946 0.747274
O O7 0.189792 0.711699 0.988171
O O8 0.968509 0.989529 0.775776
O O9 0.625763 0.421836 0.761980
O O10 0.538627 0.250113 0.608840
O O11 0.739572 0.304352 0.589568
O O12 0.551780 0.280921 0.096667
O O13 0.121684 0.664731 0.524799
O O14 0.233376 0.382185 0.654756
O O15 0.183524 0.380252 0.414144
O O16 0.000000 0.000000 0.500000
O O17 0.810921 0.959686 0.299174
#
# Coordination Sequence:
#
# PCOD8032625 Si02
#       8
#     2   2   2   2   2   2   2   2
#     4  11  26  48  75 108 144 189 245 296 364 434
#     4  11  23  43  68 106 143 182 234 295 368 416
#     4  12  25  44  73 105 136 194 246 289 362 429
#     4  11  23  43  72 104 145 177 235 306 358 427
#     4  11  25  45  72  98 146 192 240 291 357 427
#     4  12  25  45  73 105 148 187 244 300 358 428
#     4  11  24  46  75 107 141 190 234 306 365 411
#     4  11  23  48  69  99 148 186 233 303 347 429
#
# _framework density 23.137250000000002
#
# number of rings (size 3 to 8) (size 9 to 14) (size 15 to 20)
#    0.000    0.750    5.000    2.250    1.750    1.500 
#   11.250    0.000    0.000    0.000    0.000    0.000 
#    0.000    0.000    0.000    0.000    0.000    0.000 
#
# Total GULP energy -198321.216453 kJ/mol
# GULP energy per Si atom -12395.076028 kJ/mol
# Density = 2.308459 g / cm^3
# Si number density = 23.137250 Si / 1000 Ang^3
#
#
#
# Elastic Constant Matrix: (Units=GPa)
#
#
# Indices 1 2 3 4 5 6 
#
# 1 92.5861 31.3052 49.9591 13.6519 -0.2580 -2.3728
# 2 31.3052 116.8955 46.1908 18.4160 7.9007 8.7645
# 3 49.9591 46.1908 123.9880 9.4622 13.5862 -14.5923
# 4 13.6519 18.4160 9.4622 44.1414 2.9777 3.2585
# 5 -0.2580 7.9007 13.5862 2.9777 44.5240 4.7997
# 6 -2.3728 8.7645 -14.5923 3.2585 4.7997 38.5011
#
#
#
# Elastic Compliance Matrix: (Units=1/GPa)
#
#
# Indices 1 2 3 4 5 6 
#
# 1 0.014658 -0.001373 -0.005539 -0.002861 0.002310 -0.000929
# 2 -0.001373 0.011222 -0.003810 -0.003146 -0.000218 -0.003790
# 3 -0.005539 -0.003810 0.012802 0.000392 -0.003918 0.005833
# 4 -0.002861 -0.003146 0.000392 0.024937 -0.001107 -0.001284
# 5 0.002310 -0.000218 -0.003918 -0.001107 0.024236 -0.004221
# 6 -0.000929 -0.003790 0.005833 -0.001284 -0.004221 0.029624
#
#
# Mechanical properties :
#
#
# Convention : Reuss Voigt Hill
#
# Bulk Modulus (GPa) = 58.00505 65.37554 61.69029
# Shear Modulus (GPa) = 34.56130 39.16759 36.86444
#
# Velocity S-wave (km/s) = 3.86910 4.11887 3.99594
# Velocity P-wave (km/s) = 6.71449 7.13702 6.92897
#
# Compressibility (1/GPa) = 0.01723988
#
# Stress axis : x y z
#
# Youngs Moduli (GPa) = 68.22123 89.10937 78.11010
#
# Poissons Ratio (x) = 0.12230 0.43267
# Poissons Ratio (y) = 0.09363 0.29758
# Poissons Ratio (z) = 0.37789 0.33948
#
# Static dielectric constant tensor:
#      x y z
#    x 4.267310 0.056550 0.134400 
#    y 0.056550 4.021920 -0.009570 
#    z 0.134400 -0.009570 4.462170 
# 
# 
# High freq. dielectric constant tensor:
#      x y z
#    x 1.910960 0.011950 0.019440 
#    y 0.011950 1.902940 0.000160 
#    z 0.019440 0.000160 1.932420 
# 
# From -- ./inp_files/428574.got.cif
#   From: 2010.06.25/outbox.cif.g09.slc.cpg/sg2_215_cif.got.tgz:428574.got - 2010.06.27 13:26:56.
