data_PCOD8032619
_publ_section_title
;
Structure prediction by ZEFSAII (Michael W. Deem and Ramdas Pophale) SiO2 
 PCOD8032619
Probable space group: P -1
;
_chemical_formula_sum "Si O2"
_cell_formula_units_Z 12
_cell_length_a 12.522874
_cell_length_b 9.375512
_cell_length_c 5.358166
_cell_angle_alpha 97.513623
_cell_angle_beta 118.035833
_cell_angle_gamma 61.564082
_cell_volume 484.756638
_symmetry_space_group_name_H-M "P -1"
_symmetry_group_IT_number 2
_symmetry_cell_setting 'triclinic'
loop_
_space_group_symop_operation_xyz
x,y,z
-x,-y,-z
loop_
_atom_site_type_symbol
_atom_site_label
_atom_site_fract_x
_atom_site_fract_y
_atom_site_fract_z
Si Si1 0.419881 0.936279 0.228193
Si Si2 0.479611 0.354082 0.048275
Si Si3 0.918746 0.310133 0.786019
Si Si4 0.822905 0.835163 0.256182
Si Si5 0.248231 0.880644 0.407740
Si Si6 0.175149 0.490278 0.783436
O O1 0.291621 0.923625 0.203523
O O2 0.500000 0.000000 0.500000
O O3 0.527869 0.759155 0.207190
O O4 0.340723 0.075559 0.965116
O O5 0.606395 0.242077 0.335924
O O6 0.500000 0.500000 0.000000
O O7 0.331866 0.427241 0.035376
O O8 0.843672 0.206174 0.758375
O O9 0.852440 0.405107 0.475369
O O10 0.078509 0.188155 0.877614
O O11 0.912585 0.416738 0.046293
O O12 0.861095 0.654782 0.358257
O O13 0.843252 0.949975 0.506925
#
# Coordination Sequence:
#
# PCOD8032619 Si02
#       6
#     2   2   2   2   2   2
#     4  11  25  43  73 102 139 185 235 294 356 414
#     4  11  23  43  68 103 138 179 237 290 352 412
#     4  12  28  47  73 106 143 192 236 289 355 419
#     4  11  27  46  70 104 143 186 239 291 352 427
#     4  11  25  44  73 103 141 189 235 296 354 417
#     4  12  27  46  74 104 145 189 237 292 351 420
#
# _framework density 24.75469
#
# number of rings (size 3 to 8) (size 9 to 14) (size 15 to 20)
#    0.000    0.667    1.667    4.500   11.667    4.667 
#    0.000    0.000    0.000    0.000    0.000    0.000 
#    0.000    0.000    0.000    0.000    0.000    0.000 
#
# Total GULP energy -148784.447267 kJ/mol
# GULP energy per Si atom -12398.703939 kJ/mol
# Density = 2.469835 g / cm^3
# Si number density = 24.754690 Si / 1000 Ang^3
#
#
#
# Elastic Constant Matrix: (Units=GPa)
#
#
# Indices 1 2 3 4 5 6 
#
# 1 80.7991 5.8659 -15.0744 4.2654 -1.2569 -1.6588
# 2 5.8659 122.5645 26.6744 13.0782 -2.1272 -3.1839
# 3 -15.0744 26.6744 62.0778 14.3401 -5.4737 1.5190
# 4 4.2654 13.0782 14.3401 26.9935 -1.5042 -1.3482
# 5 -1.2569 -2.1272 -5.4737 -1.5042 42.0705 5.4621
# 6 -1.6588 -3.1839 1.5190 -1.3482 5.4621 51.1441
#
#
#
# Elastic Compliance Matrix: (Units=1/GPa)
#
#
# Indices 1 2 3 4 5 6 
#
# 1 0.013602 -0.001259 0.004857 -0.004073 0.000826 0.000023
# 2 -0.001259 0.009303 -0.003815 -0.002263 -0.000224 0.000616
# 3 0.004857 -0.003815 0.021562 -0.010294 0.002554 -0.001264
# 4 -0.004073 -0.002263 -0.010294 0.044307 -0.000149 0.001217
# 5 0.000826 -0.000224 0.002554 -0.000149 0.024458 -0.002679
# 6 0.000023 0.000616 -0.001264 0.001217 -0.002679 0.019947
#
#
# Mechanical properties :
#
#
# Convention : Reuss Voigt Hill
#
# Bulk Modulus (GPa) = 22.71000 33.37481 28.04240
# Shear Modulus (GPa) = 33.71752 40.57333 37.14543
#
# Velocity S-wave (km/s) = 3.69462 4.05287 3.87788
# Velocity P-wave (km/s) = 5.23395 5.95084 5.60387
#
# Compressibility (1/GPa) = 0.04403347
#
# Stress axis : x y z
#
# Youngs Moduli (GPa) = 73.51760 107.49074 46.37858
#
# Poissons Ratio (x) = 0.13528 -0.22525
# Poissons Ratio (y) = 0.09252 0.17694
# Poissons Ratio (z) = -0.35707 0.41009
#
# Static dielectric constant tensor:
#      x y z
#    x 4.067380 -0.877970 0.887860 
#    y -0.877970 3.886320 1.085390 
#    z 0.887860 1.085390 2.780480 
# 
# 
# High freq. dielectric constant tensor:
#      x y z
#    x 2.000920 -0.003640 0.006020 
#    y -0.003640 2.009120 -0.002070 
#    z 0.006020 -0.002070 1.973720 
# 
# From -- ./inp_files/19108.got.cif
#   From: 2010.06.25/outbox.cif.g09.slc.cpg/sg2_10_cif.got.tgz:19108.got - 2010.06.27 13:26:56.
