data_PCOD8032859
_publ_section_title
;
Structure prediction by ZEFSAII (Michael W. Deem and Ramdas Pophale) SiO2 
 PCOD8032859
Probable space group: P -1
;
_chemical_formula_sum "Si O2"
_cell_formula_units_Z 16
_cell_length_a 11.435984
_cell_length_b 9.953001
_cell_length_c 14.928348
_cell_angle_alpha 63.266625
_cell_angle_beta 73.407927
_cell_angle_gamma 127.836321
_cell_volume 725.380006
_symmetry_space_group_name_H-M "P -1"
_symmetry_group_IT_number 2
_symmetry_cell_setting 'triclinic'
loop_
_space_group_symop_operation_xyz
x,y,z
-x,-y,-z
loop_
_atom_site_type_symbol
_atom_site_label
_atom_site_fract_x
_atom_site_fract_y
_atom_site_fract_z
Si Si1 0.156108 0.024708 0.245195
Si Si2 0.879296 0.271403 0.521532
Si Si3 0.991526 0.668178 0.861369
Si Si4 0.745657 0.646879 0.161898
Si Si5 0.724020 0.354035 0.829820
Si Si6 0.510020 0.411932 0.899333
Si Si7 0.747675 0.746092 0.324958
Si Si8 0.677386 0.257036 0.218116
O O1 0.271190 0.305125 0.167574
O O2 0.157229 0.927810 0.364106
O O3 0.307109 0.122638 0.097324
O O4 0.887735 0.765521 0.342622
O O5 0.000000 0.500000 0.500000
O O6 0.069424 0.474586 0.336766
O O7 0.617668 0.061498 0.613801
O O8 0.209597 0.780449 0.763048
O O9 0.862435 0.549322 0.830867
O O10 0.096591 0.932670 0.804686
O O11 0.773226 0.377388 0.059920
O O12 0.581953 0.542306 0.150086
O O13 0.649563 0.580905 0.300908
O O14 0.771873 0.495940 0.187382
O O15 0.000000 0.000000 0.000000
O O16 0.596025 0.374681 0.822049
O O17 0.500000 0.000000 0.000000
O O18 0.500000 0.500000 0.500000
#
# Coordination Sequence:
#
# PCOD8032859 Si02
#       8
#     2   2   2   2   2   2   2   2
#     4  11  23  45  71 102 138 185 232 295 348 416
#     4  12  28  46  71 103 141 185 238 293 356 422
#     4  11  25  48  71 103 144 186 236 293 357 419
#     4  12  24  44  71 108 141 191 236 287 357 422
#     4  12  28  46  72 102 140 186 238 292 357 425
#     4  11  23  43  76  99 140 182 239 289 351 415
#     4  12  28  44  70 106 149 187 237 292 352 420
#     4  11  25  46  74 103 143 185 236 296 353 424
#
# _framework density 22.057404999999999
#
# number of rings (size 3 to 8) (size 9 to 14) (size 15 to 20)
#    0.000    0.500    5.000    2.250    7.000    2.000 
#    0.000    0.000    0.000    0.000    0.000    0.000 
#    0.000    0.000    0.000    0.000    0.000    0.000 
#
# Total GULP energy -198283.978575 kJ/mol
# GULP energy per Si atom -12392.748661 kJ/mol
# Density = 2.200720 g / cm^3
# Si number density = 22.057405 Si / 1000 Ang^3
#
#
#
# Elastic Constant Matrix: (Units=GPa)
#
#
# Indices 1 2 3 4 5 6 
#
# 1 86.9930 25.1559 28.2678 1.2914 -12.6230 -7.4351
# 2 25.1559 120.4950 26.2166 10.0302 -12.5594 -3.4671
# 3 28.2678 26.2166 123.0576 11.1075 -32.8773 10.0149
# 4 1.2914 10.0302 11.1075 38.0146 3.2191 -2.7045
# 5 -12.6230 -12.5594 -32.8773 3.2191 34.7734 6.6214
# 6 -7.4351 -3.4671 10.0149 -2.7045 6.6214 34.7606
#
#
#
# Elastic Compliance Matrix: (Units=1/GPa)
#
#
# Indices 1 2 3 4 5 6 
#
# 1 0.013397 -0.002105 -0.002829 0.001114 0.000672 0.003429
# 2 -0.002105 0.009316 -0.000738 -0.002341 0.002098 0.000110
# 3 -0.002829 -0.000738 0.013670 -0.005396 0.013582 -0.007624
# 4 0.001114 -0.002341 -0.005396 0.029657 -0.009364 0.005651
# 5 0.000672 0.002098 0.013582 -0.009364 0.045951 -0.013042
# 6 0.003429 0.000110 -0.007624 0.005651 -0.013042 0.034633
#
#
# Mechanical properties :
#
#
# Convention : Reuss Voigt Hill
#
# Bulk Modulus (GPa) = 39.93994 54.42516 47.18255
# Shear Modulus (GPa) = 30.06334 38.23674 34.15004
#
# Velocity S-wave (km/s) = 3.69583 4.16806 3.93903
# Velocity P-wave (km/s) = 6.02983 6.92037 6.49039
#
# Compressibility (1/GPa) = 0.02503760
#
# Stress axis : x y z
#
# Youngs Moduli (GPa) = 74.64133 107.34255 73.15481
#
# Poissons Ratio (x) = 0.22601 0.20697
# Poissons Ratio (y) = 0.15716 0.05399
# Poissons Ratio (z) = 0.21117 0.07922
#
# Static dielectric constant tensor:
#      x y z
#    x 3.641460 0.025270 -0.540390 
#    y 0.025270 3.716120 0.162130 
#    z -0.540390 0.162130 3.646820 
# 
# 
# High freq. dielectric constant tensor:
#      x y z
#    x 1.873100 -0.001810 -0.012950 
#    y -0.001810 1.879550 0.001950 
#    z -0.012950 0.001950 1.868920 
# 
# From -- ./inp_files/515358.got.cif
#   From: 2010.06.25/outbox.cif.g09.slc.cpg/sg2_258_cif.got.tgz:515358.got - 2010.06.27 13:26:56.
