data_PCOD8032878
_publ_section_title
;
Structure prediction by ZEFSAII (Michael W. Deem and Ramdas Pophale) SiO2 
 PCOD8032878
Probable space group: P -1
;
_chemical_formula_sum "Si O2"
_cell_formula_units_Z 16
_cell_length_a 8.474624
_cell_length_b 8.805970
_cell_length_c 21.212585
_cell_angle_alpha 30.346943
_cell_angle_beta 67.338149
_cell_angle_gamma 75.356813
_cell_volume 727.192386
_symmetry_space_group_name_H-M "P -1"
_symmetry_group_IT_number 2
_symmetry_cell_setting 'triclinic'
loop_
_space_group_symop_operation_xyz
x,y,z
-x,-y,-z
loop_
_atom_site_type_symbol
_atom_site_label
_atom_site_fract_x
_atom_site_fract_y
_atom_site_fract_z
Si Si1 0.757365 0.237547 0.482318
Si Si2 0.813008 0.287893 0.600790
Si Si3 0.468256 0.764655 0.031864
Si Si4 0.657883 0.568947 0.723432
Si Si5 0.038110 0.782535 0.203022
Si Si6 0.497704 0.437232 0.663759
Si Si7 0.209195 0.218441 0.116970
Si Si8 0.776689 0.124679 0.071641
O O1 0.740965 0.256254 0.552921
O O2 0.583604 0.300663 0.452286
O O3 0.923739 0.462665 0.352633
O O4 0.776129 0.897869 0.579066
O O5 0.690212 0.462641 0.598450
O O6 0.000000 0.500000 0.500000
O O7 0.797995 0.947753 0.754316
O O8 0.445598 0.442362 0.189298
O O9 0.611018 0.785647 0.947218
O O10 0.285451 0.798990 0.015337
O O11 0.500000 0.000000 0.000000
O O12 0.774038 0.299872 0.810137
O O13 0.518907 0.488609 0.717309
O O14 0.051814 0.022928 0.172450
O O15 0.946271 0.956428 0.100270
O O16 0.375672 0.112051 0.785430
O O17 0.181334 0.564597 0.005613
#
# Coordination Sequence:
#
# PCOD8032878 Si02
#       8
#     2   2   2   2   2   2   2   2
#     4  11  25  40  69  98 125 173 222 264 326 383
#     4  12  22  43  68  95 133 170 212 269 329 380
#     4  12  22  42  67  92 131 173 216 265 322 387
#     4  12  23  44  68  94 129 178 213 263 334 384
#     4  11  23  44  65  93 139 165 215 276 315 385
#     4  11  23  44  65  97 135 163 220 275 312 388
#     4  12  23  44  66  94 134 171 215 269 321 388
#     4  11  24  40  69  96 129 174 215 265 325 371
#
# _framework density 22.002431999999999
#
# number of rings (size 3 to 8) (size 9 to 14) (size 15 to 20)
#    0.000    0.500    6.250    2.625    1.750    0.500 
#    0.000    0.000    0.000    0.000    0.000    0.000 
#    0.000    0.000    0.000    0.000    0.000    0.000 
#
# Total GULP energy -198266.865753 kJ/mol
# GULP energy per Si atom -12391.679110 kJ/mol
# Density = 2.195235 g / cm^3
# Si number density = 22.002432 Si / 1000 Ang^3
#
#
#
# Elastic Constant Matrix: (Units=GPa)
#
#
# Indices 1 2 3 4 5 6 
#
# 1 122.8607 30.6327 53.7105 2.2421 17.1111 12.6965
# 2 30.6327 55.1952 46.8664 -5.8052 12.9032 10.4139
# 3 53.7105 46.8664 137.8199 -12.0972 5.4105 2.1665
# 4 2.2421 -5.8052 -12.0972 44.8882 9.1479 -0.0467
# 5 17.1111 12.9032 5.4105 9.1479 36.7793 3.6983
# 6 12.6965 10.4139 2.1665 -0.0467 3.6983 27.5472
#
#
#
# Elastic Compliance Matrix: (Units=1/GPa)
#
#
# Indices 1 2 3 4 5 6 
#
# 1 0.011012 -0.001648 -0.003633 -0.001059 -0.003373 -0.003715
# 2 -0.001648 0.030791 -0.009051 0.003376 -0.008638 -0.009003
# 3 -0.003633 -0.009051 0.011747 0.001707 0.002324 0.003863
# 4 -0.001059 0.003376 0.001707 0.024671 -0.007087 0.000071
# 5 -0.003373 -0.008638 0.002324 -0.007087 0.033193 0.000169
# 6 -0.003715 -0.009003 0.003863 0.000071 0.000169 0.041091
#
#
# Mechanical properties :
#
#
# Convention : Reuss Voigt Hill
#
# Bulk Modulus (GPa) = 40.18496 64.25501 52.21998
# Shear Modulus (GPa) = 26.39009 34.15400 30.27205
#
# Velocity S-wave (km/s) = 3.46702 3.94418 3.71327
# Velocity P-wave (km/s) = 5.85922 7.07171 6.49382
#
# Compressibility (1/GPa) = 0.02488493
#
# Stress axis : x y z
#
# Youngs Moduli (GPa) = 90.81376 32.47707 85.12484
#
# Poissons Ratio (x) = 0.05353 0.30925
# Poissons Ratio (y) = 0.14969 0.77049
# Poissons Ratio (z) = 0.32992 0.29396
#
# Static dielectric constant tensor:
#      x y z
#    x 4.141550 0.206540 0.066250 
#    y 0.206540 3.814560 0.179720 
#    z 0.066250 0.179720 4.575170 
# 
# 
# High freq. dielectric constant tensor:
#      x y z
#    x 1.872120 0.021880 0.000730 
#    y 0.021880 1.844320 -0.000010 
#    z 0.000730 -0.000010 1.886950 
# 
# From -- ./inp_files/606564.got.cif
#   From: 2010.06.25/outbox.cif.g09.slc.cpg/sg2_304_cif.got.tgz:606564.got - 2010.06.27 13:26:56.
