data_PCOD8032054
_publ_section_title
;
Structure prediction by ZEFSAII (Michael W. Deem and Ramdas Pophale) SiO2 
 PCOD8032054
Probable space group: P -1
;
_chemical_formula_sum "Si O2"
_cell_formula_units_Z 16
_cell_length_a 17.669246
_cell_length_b 8.698451
_cell_length_c 12.549805
_cell_angle_alpha 55.035606
_cell_angle_beta 149.765441
_cell_angle_gamma 135.143498
_cell_volume 680.832394
_symmetry_space_group_name_H-M "P -1"
_symmetry_group_IT_number 2
_symmetry_cell_setting 'triclinic'
loop_
_space_group_symop_operation_xyz
x,y,z
-x,-y,-z
loop_
_atom_site_type_symbol
_atom_site_label
_atom_site_fract_x
_atom_site_fract_y
_atom_site_fract_z
Si Si1 0.217229 0.560223 0.109292
Si Si2 0.528642 0.285717 0.822289
Si Si3 0.257029 0.870927 0.772190
Si Si4 0.946052 0.153065 0.816477
Si Si5 0.004357 0.084847 0.673589
Si Si6 0.386574 0.856166 0.519755
Si Si7 0.262582 0.413727 0.447159
Si Si8 0.294937 0.008534 0.003395
O O1 0.408556 0.682164 0.236663
O O2 0.226282 0.431989 0.272035
O O3 0.184982 0.759789 0.019024
O O4 0.066675 0.398631 0.909283
O O5 0.457152 0.449113 0.690181
O O6 0.371136 0.036148 0.749783
O O7 0.694215 0.320694 0.083865
O O8 0.306970 0.000073 0.893999
O O9 0.053709 0.782355 0.529868
O O10 0.741002 0.061567 0.626612
O O11 0.980483 0.147935 0.736675
O O12 0.000000 0.000000 0.000000
O O13 0.884201 0.827451 0.598761
O O14 0.202686 0.145228 0.869452
O O15 0.257955 0.602619 0.431590
O O16 0.500000 0.000000 0.500000
O O17 0.510479 0.864665 0.761658
#
# Coordination Sequence:
#
# PCOD8032054 Si02
#       8
#     2   2   2   2   2   2   2   2
#     4  11  23  40  68  97 139 173 222 265 341 398
#     4   9  21  38  68 100 125 173 218 284 316 394
#     4   9  21  42  70  94 132 174 232 268 336 382
#     4  12  27  41  65 102 137 171 217 276 333 398
#     4  11  24  44  71  96 134 181 221 274 330 397
#     4  12  27  41  65 102 137 171 217 276 333 398
#     4  11  23  40  68  97 139 173 222 265 341 398
#     4  11  24  44  71  96 134 181 221 274 330 397
#
# _framework density 23.500643
#
# number of rings (size 3 to 8) (size 9 to 14) (size 15 to 20)
#    0.000    1.250    2.500    2.250   12.250    1.000 
#    0.000    5.000    5.500    0.000    0.000    0.000 
#    0.000    0.000    0.000    0.000    0.000    0.000 
#
# Total GULP energy -198296.181357 kJ/mol
# GULP energy per Si atom -12393.511335 kJ/mol
# Density = 2.344715 g / cm^3
# Si number density = 23.500643 Si / 1000 Ang^3
#
#
#
# Elastic Constant Matrix: (Units=GPa)
#
#
# Indices 1 2 3 4 5 6 
#
# 1 102.6696 -8.6062 55.3701 -0.8412 13.3603 -10.7328
# 2 -8.6062 42.9963 16.5666 8.4463 1.1590 -12.0902
# 3 55.3701 16.5666 174.9730 -14.6396 13.3981 -17.5528
# 4 -0.8412 8.4463 -14.6396 39.5891 -10.9314 -0.4277
# 5 13.3603 1.1590 13.3981 -10.9314 47.0141 -6.3986
# 6 -10.7328 -12.0902 -17.5528 -0.4277 -6.3986 30.3132
#
#
#
# Elastic Compliance Matrix: (Units=1/GPa)
#
#
# Indices 1 2 3 4 5 6 
#
# 1 0.013496 0.006348 -0.004537 -0.003523 -0.002973 0.004006
# 2 0.006348 0.031211 -0.004371 -0.008486 -0.001711 0.011684
# 3 -0.004537 -0.004371 0.008012 0.003870 0.000202 0.001387
# 4 -0.003523 -0.008486 0.003870 0.030384 0.007109 -0.000462
# 5 -0.002973 -0.001711 0.000202 0.007109 0.024242 0.003600
# 6 0.004006 0.011684 0.001387 -0.000462 0.003600 0.040624
#
#
# Mechanical properties :
#
#
# Convention : Reuss Voigt Hill
#
# Bulk Modulus (GPa) = 21.00870 49.69999 35.35435
# Shear Modulus (GPa) = 29.59354 40.53717 35.06536
#
# Velocity S-wave (km/s) = 3.55246 4.15774 3.86696
# Velocity P-wave (km/s) = 5.07796 6.65157 5.91731
#
# Compressibility (1/GPa) = 0.04759932
#
# Stress axis : x y z
#
# Youngs Moduli (GPa) = 74.09806 32.03975 124.81030
#
# Poissons Ratio (x) = -0.20339 0.56626
# Poissons Ratio (y) = -0.47037 0.54553
# Poissons Ratio (z) = 0.33618 0.14004
#
# Static dielectric constant tensor:
#      x y z
#    x 4.197000 -0.139020 0.108800 
#    y -0.139020 4.107880 -0.317520 
#    z 0.108800 -0.317520 5.018120 
# 
# 
# High freq. dielectric constant tensor:
#      x y z
#    x 1.925790 -0.005070 0.009480 
#    y -0.005070 1.903020 -0.021800 
#    z 0.009480 -0.021800 1.951000 
# 
# From -- ./inp_files/320286.got.cif
#   From: 2010.06.25/outbox.cif.g09.slc.cpg/sg2_161_cif.got.tgz:320286.got - 2010.06.27 13:26:56.
