data_PCOD8032160
_publ_section_title
;
Structure prediction by ZEFSAII (Michael W. Deem and Ramdas Pophale) SiO2 
 PCOD8032160
Probable space group: P -1
;
_chemical_formula_sum "Si O2"
_cell_formula_units_Z 16
_cell_length_a 9.491000
_cell_length_b 19.506783
_cell_length_c 7.997755
_cell_angle_alpha 72.216589
_cell_angle_beta 131.815151
_cell_angle_gamma 71.746843
_cell_volume 720.117960
_symmetry_space_group_name_H-M "P -1"
_symmetry_group_IT_number 2
_symmetry_cell_setting 'triclinic'
loop_
_space_group_symop_operation_xyz
x,y,z
-x,-y,-z
loop_
_atom_site_type_symbol
_atom_site_label
_atom_site_fract_x
_atom_site_fract_y
_atom_site_fract_z
Si Si1 0.828268 0.481586 0.961122
Si Si2 0.290752 0.845669 0.416262
Si Si3 0.770288 0.506355 0.290160
Si Si4 0.220114 0.644170 0.399567
Si Si5 0.242654 0.731375 0.672542
Si Si6 0.262435 0.097644 0.621938
Si Si7 0.199784 0.257286 0.282346
Si Si8 0.234900 0.026172 0.319772
O O1 0.510180 0.571528 0.579343
O O2 0.771907 0.491883 0.105901
O O3 0.000000 0.500000 0.000000
O O4 0.988280 0.363476 0.142326
O O5 0.339138 0.785181 0.664981
O O6 0.553401 0.759507 0.569167
O O7 0.294490 0.925237 0.429954
O O8 0.020703 0.891781 0.069969
O O9 0.820761 0.423905 0.506249
O O10 0.000000 0.500000 0.500000
O O11 0.480866 0.620411 0.035522
O O12 0.168220 0.715454 0.450231
O O13 0.972599 0.729682 0.014370
O O14 0.991918 0.807112 0.541064
O O15 0.356272 0.147719 0.579533
O O16 0.167753 0.066262 0.429238
O O17 0.500000 0.000000 0.000000
O O18 0.500000 0.000000 0.500000
#
# Coordination Sequence:
#
# PCOD8032160 Si02
#       8
#     2   2   2   2   2   2   2   2
#     4  11  23  41  67 106 143 177 234 291 346 427
#     4  11  25  44  74 100 133 186 241 276 351 425
#     4  11  23  43  66 100 143 184 227 288 353 425
#     4  11  23  44  72  95 145 189 224 294 355 417
#     4  11  24  43  66 104 137 181 234 278 356 420
#     4  12  27  44  70 101 142 183 235 293 352 412
#     4  12  24  43  71 104 131 187 237 280 353 422
#     4  11  24  49  71  95 140 184 232 300 345 403
#
# _framework density 22.218582000000001
#
# number of rings (size 3 to 8) (size 9 to 14) (size 15 to 20)
#    0.000    0.750    1.250    7.875    3.500    2.500 
#    2.250    0.000    0.000    0.000    0.000    0.000 
#    0.000    0.000    0.000    0.000    0.000    0.000 
#
# Total GULP energy -198308.333440 kJ/mol
# GULP energy per Si atom -12394.270840 kJ/mol
# Density = 2.216801 g / cm^3
# Si number density = 22.218582 Si / 1000 Ang^3
#
#
#
# Elastic Constant Matrix: (Units=GPa)
#
#
# Indices 1 2 3 4 5 6 
#
# 1 45.7244 -17.3285 6.5970 -5.5773 12.2927 26.7731
# 2 -17.3285 91.0992 21.6541 -7.2881 10.9424 7.3779
# 3 6.5970 21.6541 93.0902 -3.7584 7.6532 6.9860
# 4 -5.5773 -7.2881 -3.7584 24.9180 6.4013 11.4651
# 5 12.2927 10.9424 7.6532 6.4013 45.5290 -9.2567
# 6 26.7731 7.3779 6.9860 11.4651 -9.2567 35.8744
#
#
#
# Elastic Compliance Matrix: (Units=1/GPa)
#
#
# Indices 1 2 3 4 5 6 
#
# 1 -0.046697 -0.023908 -0.002292 -0.060875 0.041613 0.070405
# 2 -0.023908 0.000919 -0.003034 -0.023434 0.016116 0.029892
# 3 -0.002292 -0.003034 0.011739 0.000767 -0.000816 -0.000408
# 4 -0.060875 -0.023434 0.000767 -0.020764 0.038409 0.066648
# 5 0.041613 0.016116 -0.000816 0.038409 -0.008294 -0.048626
# 6 0.070405 0.029892 -0.000408 0.066648 -0.048626 -0.064584
#
#
# Mechanical properties :
#
#
# Convention : Reuss Voigt Hill
#
# Bulk Modulus (GPa) = -10.81007 27.97321 8.58157
# Shear Modulus (GPa) = -49.97539 35.86370 -7.05584
#
# Velocity S-wave (km/s) = -4.74778 4.02198 -1.78397
# Velocity P-wave (km/s) = 5.91026 5.84686 0.61047
#
# Compressibility (1/GPa) = -0.09250632
#
# Stress axis : x y z
#
# Youngs Moduli (GPa) = -21.41467 1088.08714 85.18563
#
# Poissons Ratio (x) = 26.01401 0.19523
# Poissons Ratio (y) = -0.51198 0.25844
# Poissons Ratio (z) = -0.04908 3.30112
#
# Static dielectric constant tensor:
#      x y z
#    x 4.122720 0.018710 0.079390 
#    y 0.018710 4.235690 -0.088980 
#    z 0.079390 -0.088980 4.106090 
# 
# 
# High freq. dielectric constant tensor:
#      x y z
#    x 1.885380 0.004540 0.004150 
#    y 0.004540 1.887570 -0.015680 
#    z 0.004150 -0.015680 1.881680 
# 
# From -- ./inp_files/223503.got.cif
#   From: 2010.06.25/outbox.cif.g09.slc.cpg/sg2_112_cif.got.tgz:223503.got - 2010.06.27 13:26:56.
