data_PCOD8032566
_publ_section_title
;
Structure prediction by ZEFSAII (Michael W. Deem and Ramdas Pophale) SiO2 
 PCOD8032566
Probable space group: P -1
;
_chemical_formula_sum "Si O2"
_cell_formula_units_Z 14
_cell_length_a 5.450324
_cell_length_b 6.846312
_cell_length_c 21.166765
_cell_angle_alpha 71.508775
_cell_angle_beta 123.687061
_cell_angle_gamma 91.239106
_cell_volume 611.241816
_symmetry_space_group_name_H-M "P -1"
_symmetry_group_IT_number 2
_symmetry_cell_setting 'triclinic'
loop_
_space_group_symop_operation_xyz
x,y,z
-x,-y,-z
loop_
_atom_site_type_symbol
_atom_site_label
_atom_site_fract_x
_atom_site_fract_y
_atom_site_fract_z
Si Si1 0.112130 0.965647 0.164441
Si Si2 0.156276 0.696780 0.700927
Si Si3 0.574720 0.735012 0.150945
Si Si4 0.229632 0.957202 0.318173
Si Si5 0.360402 0.486560 0.413364
Si Si6 0.702903 0.146654 0.418977
Si Si7 0.761144 0.371172 0.006812
O O1 0.349770 0.867982 0.155309
O O2 0.867927 0.827022 0.165165
O O3 0.301838 0.996263 0.251140
O O4 0.940590 0.189764 0.094388
O O5 0.327595 0.495295 0.782470
O O6 0.354731 0.789225 0.669173
O O7 0.070148 0.876490 0.723257
O O8 0.889548 0.653932 0.619879
O O9 0.388596 0.730314 0.061336
O O10 0.463391 0.993252 0.402824
O O11 0.202040 0.715063 0.343424
O O12 0.500000 0.500000 0.500000
O O13 0.645194 0.365137 0.426477
O O14 0.000000 0.000000 0.500000
O O15 0.500000 0.500000 0.000000
O O16 0.000000 0.500000 0.000000
#
# Coordination Sequence:
#
# PCOD8032566 Si02
#       7
#     2   2   2   2   2   2   2
#     4  12  26  46  73 105 142 190 235 290 352 420
#     4  11  25  42  67  97 137 180 236 291 351 423
#     4  12  26  46  73 104 144 185 241 287 349 427
#     4  11  25  42  67  98 136 183 235 288 358 417
#     4  11  23  43  65  95 135 177 234 291 355 420
#     4  11  25  41  65  98 134 182 236 297 352 424
#     4  12  26  46  74 107 146 187 234 290 351 419
#
# _framework density 22.904191000000001
#
# number of rings (size 3 to 8) (size 9 to 14) (size 15 to 20)
#    0.000    0.571    1.429    6.000    6.000    6.857 
#    0.000    0.000    0.000    0.000    0.000    0.000 
#    0.000    0.000    0.000    0.000    0.000    0.000 
#
# Total GULP energy -173456.441728 kJ/mol
# GULP energy per Si atom -12389.745838 kJ/mol
# Density = 2.285206 g / cm^3
# Si number density = 22.904191 Si / 1000 Ang^3
#
#
#
# Elastic Constant Matrix: (Units=GPa)
#
#
# Indices 1 2 3 4 5 6 
#
# 1 95.0683 38.8800 8.4153 2.0929 -4.1063 -22.4763
# 2 38.8800 143.8758 44.2176 -3.8379 -0.2530 -30.5801
# 3 8.4153 44.2176 114.3113 1.4881 -6.4630 -9.3530
# 4 2.0929 -3.8379 1.4881 61.8165 -4.2061 -4.3817
# 5 -4.1063 -0.2530 -6.4630 -4.2061 35.0946 1.9186
# 6 -22.4763 -30.5801 -9.3530 -4.3817 1.9186 48.3731
#
#
#
# Elastic Compliance Matrix: (Units=1/GPa)
#
#
# Indices 1 2 3 4 5 6 
#
# 1 0.012624 -0.002685 0.000529 -0.000221 0.001299 0.004199
# 2 -0.002685 0.009617 -0.003235 0.001008 -0.000957 0.004336
# 3 0.000529 -0.003235 0.010073 -0.000332 0.001851 0.000045
# 4 -0.000221 0.001008 -0.000332 0.016511 0.001796 0.001895
# 5 0.001299 -0.000957 0.001851 0.001796 0.029231 -0.000640
# 6 0.004199 0.004336 0.000045 0.001895 -0.000640 0.025570
#
#
# Mechanical properties :
#
#
# Convention : Reuss Voigt Hill
#
# Bulk Modulus (GPa) = 46.44193 59.58679 53.01436
# Shear Modulus (GPa) = 41.12349 46.50635 43.81492
#
# Velocity S-wave (km/s) = 4.24188 4.51097 4.37849
# Velocity P-wave (km/s) = 6.65673 7.29410 6.98269
#
# Compressibility (1/GPa) = 0.02153227
#
# Stress axis : x y z
#
# Youngs Moduli (GPa) = 79.21584 103.98299 99.27487
#
# Poissons Ratio (x) = 0.27921 -0.05254
# Poissons Ratio (y) = 0.21271 0.32113
# Poissons Ratio (z) = -0.04192 0.33636
#
# Static dielectric constant tensor:
#      x y z
#    x 4.465850 -0.187490 -0.118090 
#    y -0.187490 4.312200 0.027530 
#    z -0.118090 0.027530 4.245300 
# 
# 
# High freq. dielectric constant tensor:
#      x y z
#    x 1.904280 -0.005200 -0.001030 
#    y -0.005200 1.926800 0.003950 
#    z -0.001030 0.003950 1.925970 
# 
# From -- ./inp_files/6281.got.cif
#   From: 2010.06.25/outbox.cif.g09.slc.cpg/sg2_4_cif.got.tgz:6281.got - 2010.06.27 13:26:56.
