data_PCOD8032451
_publ_section_title
;
Structure prediction by ZEFSAII (Michael W. Deem and Ramdas Pophale) SiO2 
 PCOD8032451
Probable space group: P -1
;
_chemical_formula_sum "Si O2"
_cell_formula_units_Z 16
_cell_length_a 15.391520
_cell_length_b 23.535967
_cell_length_c 6.039961
_cell_angle_alpha 88.778372
_cell_angle_beta 88.513843
_cell_angle_gamma 17.996943
_cell_volume 675.751667
_symmetry_space_group_name_H-M "P -1"
_symmetry_group_IT_number 2
_symmetry_cell_setting 'triclinic'
loop_
_space_group_symop_operation_xyz
x,y,z
-x,-y,-z
loop_
_atom_site_type_symbol
_atom_site_label
_atom_site_fract_x
_atom_site_fract_y
_atom_site_fract_z
Si Si1 0.575710 0.395839 0.133471
Si Si2 0.568671 0.775283 0.155525
Si Si3 0.957313 0.902780 0.527065
Si Si4 0.003026 0.694147 0.105807
Si Si5 0.345465 0.989574 0.776850
Si Si6 0.257142 0.452111 0.771813
Si Si7 0.183364 0.282115 0.566222
Si Si8 0.843009 0.140241 0.832881
O O1 0.299733 0.530697 0.199522
O O2 0.749133 0.297303 0.357131
O O3 0.500000 0.500000 0.000000
O O4 0.775492 0.237914 0.968158
O O5 0.731231 0.615841 0.096807
O O6 0.765346 0.693832 0.293793
O O7 0.286002 0.935287 0.292609
O O8 0.496683 0.847478 0.920538
O O9 0.889746 0.891504 0.375523
O O10 0.976832 0.949618 0.381937
O O11 0.806328 0.871490 0.057177
O O12 0.820859 0.771740 0.283859
O O13 0.056095 0.622572 0.893372
O O14 0.579828 0.874189 0.621953
O O15 0.567094 0.283647 0.736606
O O16 0.126385 0.519967 0.535820
O O17 0.000000 0.000000 0.000000
#
# Coordination Sequence:
#
# PCOD8032451 Si02
#       8
#     2   2   2   2   2   2   2   2
#     4  11  24  42  67 100 137 175 219 272 330 397
#     4  11  25  45  68  95 131 176 224 273 330 396
#     4  11  23  42  70  98 135 179 222 270 332 397
#     4  11  25  43  66  97 133 169 216 274 332 391
#     4  11  25  45  68  95 131 176 224 273 330 396
#     4  11  25  43  66  97 133 169 216 274 332 391
#     4  11  25  42  68  96 127 173 224 274 330 393
#     4  11  24  42  67 100 137 175 219 272 330 397
#
# _framework density 23.677339
#
# number of rings (size 3 to 8) (size 9 to 14) (size 15 to 20)
#    0.000    1.000    0.000    6.000    0.000   16.000 
#    0.000    0.000    0.000    0.000    0.000    0.000 
#    0.000    0.000    0.000    0.000    0.000    0.000 
#
# Total GULP energy -198431.921841 kJ/mol
# GULP energy per Si atom -12401.995115 kJ/mol
# Density = 2.362345 g / cm^3
# Si number density = 23.677339 Si / 1000 Ang^3
#
#
#
# Elastic Constant Matrix: (Units=GPa)
#
#
# Indices 1 2 3 4 5 6 
#
# 1 121.9687 40.1281 31.3937 -6.2261 3.7533 -4.9496
# 2 40.1281 59.6246 12.6541 -12.5161 10.7845 -14.3346
# 3 31.3937 12.6541 72.2359 -11.2215 -7.9984 -24.9815
# 4 -6.2261 -12.5161 -11.2215 43.7721 -5.8847 1.1214
# 5 3.7533 10.7845 -7.9984 -5.8847 46.1349 1.6457
# 6 -4.9496 -14.3346 -24.9815 1.1214 1.6457 54.0186
#
#
#
# Elastic Compliance Matrix: (Units=1/GPa)
#
#
# Indices 1 2 3 4 5 6 
#
# 1 0.012021 -0.008184 -0.005303 -0.001915 -0.000104 -0.003480
# 2 -0.008184 0.025586 0.001882 0.005853 -0.004489 0.006925
# 3 -0.005303 0.001882 0.020220 0.005250 0.003841 0.009138
# 4 -0.001915 0.005853 0.005250 0.025900 0.002888 0.003180
# 5 -0.000104 -0.004489 0.003841 0.002888 0.023775 -0.000209
# 6 -0.003480 0.006925 0.009138 0.003180 -0.000209 0.024197
#
#
# Mechanical properties :
#
#
# Convention : Reuss Voigt Hill
#
# Bulk Modulus (GPa) = 28.88852 46.90897 37.89875
# Shear Modulus (GPa) = 30.03956 40.09536 35.06746
#
# Velocity S-wave (km/s) = 3.56575 4.11957 3.85262
# Velocity P-wave (km/s) = 5.40187 6.51786 5.98593
#
# Compressibility (1/GPa) = 0.03461583
#
# Stress axis : x y z
#
# Youngs Moduli (GPa) = 83.19017 39.08396 49.45705
#
# Poissons Ratio (x) = 0.31987 0.26227
# Poissons Ratio (y) = 0.68085 -0.09308
# Poissons Ratio (z) = 0.44115 -0.07356
#
# Static dielectric constant tensor:
#      x y z
#    x 4.542120 -0.230160 0.035810 
#    y -0.230160 4.216050 -0.010620 
#    z 0.035810 -0.010620 4.106480 
# 
# 
# High freq. dielectric constant tensor:
#      x y z
#    x 1.960360 -0.013550 -0.000980 
#    y -0.013550 1.941630 -0.003490 
#    z -0.000980 -0.003490 1.930120 
# 
# From -- ./inp_files/101051.got.cif
#   From: 2010.06.25/outbox.cif.g09.slc.cpg/sg2_51_cif.got.tgz:101051.got - 2010.06.27 13:26:56.
