data_PCOD8032500
_publ_section_title
;
Structure prediction by ZEFSAII (Michael W. Deem and Ramdas Pophale) SiO2 
 PCOD8032500
Probable space group: P -1
;
_chemical_formula_sum "Si O2"
_cell_formula_units_Z 14
_cell_length_a 8.324152
_cell_length_b 8.473290
_cell_length_c 20.603749
_cell_angle_alpha 148.498393
_cell_angle_beta 56.458763
_cell_angle_gamma 126.471760
_cell_volume 607.008559
_symmetry_space_group_name_H-M "P -1"
_symmetry_group_IT_number 2
_symmetry_cell_setting 'triclinic'
loop_
_space_group_symop_operation_xyz
x,y,z
-x,-y,-z
loop_
_atom_site_type_symbol
_atom_site_label
_atom_site_fract_x
_atom_site_fract_y
_atom_site_fract_z
Si Si1 0.555837 0.789183 0.468587
Si Si2 0.857817 0.716541 0.616853
Si Si3 0.966874 0.701319 0.298030
Si Si4 0.129922 0.850342 0.963118
Si Si5 0.654250 0.352499 0.735836
Si Si6 0.799946 0.972374 0.850245
Si Si7 0.516429 0.362702 0.018829
O O1 0.377740 0.467506 0.401224
O O2 0.764533 0.706199 0.382164
O O3 0.500000 0.000000 0.500000
O O4 0.579060 0.000942 0.602034
O O5 0.919574 0.891917 0.733818
O O6 0.000000 0.500000 0.500000
O O7 0.902378 0.953141 0.629807
O O8 0.906650 0.508411 0.176774
O O9 0.112043 0.563937 0.263161
O O10 0.072821 0.878455 0.061539
O O11 0.356148 0.040220 0.962921
O O12 0.000000 0.000000 0.000000
O O13 0.645731 0.630901 0.784725
O O14 0.501338 0.362057 0.831827
O O15 0.716232 0.256049 0.943122
O O16 0.500000 0.500000 0.000000
#
# Coordination Sequence:
#
# PCOD8032500 Si02
#       7
#     2   2   2   2   2   2   2
#     4  12  25  45  73 101 139 192 236 288 357 412
#     4  12  26  46  71 106 139 183 246 293 345 425
#     4  12  25  46  72 101 149 182 238 296 346 424
#     4  11  23  44  69 102 139 182 230 285 361 414
#     4  11  23  45  69 104 141 191 230 287 361 417
#     4  11  23  42  73 100 139 186 232 290 357 420
#     4  11  24  44  70 104 141 177 239 296 349 427
#
# _framework density 23.063925000000001
#
# number of rings (size 3 to 8) (size 9 to 14) (size 15 to 20)
#    0.000    0.571    5.714    3.857    2.000    1.143 
#    2.571    0.000    0.000    0.000    0.000    0.000 
#    0.000    0.000    0.000    0.000    0.000    0.000 
#
# Total GULP energy -173509.741819 kJ/mol
# GULP energy per Si atom -12393.552987 kJ/mol
# Density = 2.301143 g / cm^3
# Si number density = 23.063925 Si / 1000 Ang^3
#
#
#
# Elastic Constant Matrix: (Units=GPa)
#
#
# Indices 1 2 3 4 5 6 
#
# 1 101.5042 35.7338 65.3810 -11.9865 -4.4505 -16.2856
# 2 35.7338 96.6895 40.5976 -2.5613 -6.0728 -1.2302
# 3 65.3810 40.5976 196.7577 -23.8761 0.5900 -1.7431
# 4 -11.9865 -2.5613 -23.8761 42.3197 4.5477 3.0680
# 5 -4.4505 -6.0728 0.5900 4.5477 44.5085 5.8573
# 6 -16.2856 -1.2302 -1.7431 3.0680 5.8573 40.0131
#
#
#
# Elastic Compliance Matrix: (Units=1/GPa)
#
#
# Indices 1 2 3 4 5 6 
#
# 1 0.014737 -0.003681 -0.003929 0.001313 0.000154 0.005591
# 2 -0.003681 0.012385 -0.001497 -0.001217 0.001641 -0.001330
# 3 -0.003929 -0.001497 0.007046 0.002963 -0.000803 -0.001448
# 4 0.001313 -0.001217 0.002963 0.025950 -0.002596 -0.000984
# 5 0.000154 0.001641 -0.000803 -0.002596 0.023397 -0.003148
# 6 0.005591 -0.001330 -0.001448 -0.000984 -0.003148 0.027700
#
#
# Mechanical properties :
#
#
# Convention : Reuss Voigt Hill
#
# Bulk Modulus (GPa) = 62.67864 75.37514 69.02689
# Shear Modulus (GPa) = 37.10655 42.25086 39.67871
#
# Velocity S-wave (km/s) = 4.01541 4.28472 4.15225
# Velocity P-wave (km/s) = 6.98091 7.56507 7.27885
#
# Compressibility (1/GPa) = 0.01595440
#
# Stress axis : x y z
#
# Youngs Moduli (GPa) = 67.85474 80.74176 141.92511
#
# Poissons Ratio (x) = 0.29723 0.55765
# Poissons Ratio (y) = 0.24979 0.21241
# Poissons Ratio (z) = 0.26661 0.12084
#
# Static dielectric constant tensor:
#      x y z
#    x 3.231820 0.014030 -0.276830 
#    y 0.014030 4.201980 0.226850 
#    z -0.276830 0.226850 4.671760 
# 
# 
# High freq. dielectric constant tensor:
#      x y z
#    x 1.902390 -0.013790 -0.001410 
#    y -0.013790 1.900270 0.001470 
#    z -0.001410 0.001470 1.938920 
# 
# From -- ./inp_files/188139.got.cif
#   From: 2010.06.25/outbox.cif.g09.slc.cpg/sg2_95_cif.got.tgz:188139.got - 2010.06.27 13:26:56.
