data_PCOD8032103
_publ_section_title
;
Structure prediction by ZEFSAII (Michael W. Deem and Ramdas Pophale) SiO2 
 PCOD8032103
Probable space group: P -1
;
_chemical_formula_sum "Si O2"
_cell_formula_units_Z 14
_cell_length_a 26.547313
_cell_length_b 16.247116
_cell_length_c 15.330521
_cell_angle_alpha 152.076220
_cell_angle_beta 160.836742
_cell_angle_gamma 16.892635
_cell_volume 616.333338
_symmetry_space_group_name_H-M "P -1"
_symmetry_group_IT_number 2
_symmetry_cell_setting 'triclinic'
loop_
_space_group_symop_operation_xyz
x,y,z
-x,-y,-z
loop_
_atom_site_type_symbol
_atom_site_label
_atom_site_fract_x
_atom_site_fract_y
_atom_site_fract_z
Si Si1 0.790539 0.501505 0.346784
Si Si2 0.271954 0.943579 0.519694
Si Si3 0.725226 0.550559 0.646413
Si Si4 0.710544 0.439279 0.886354
Si Si5 0.762234 0.863198 0.526903
Si Si6 0.628436 0.249847 0.207600
Si Si7 0.032629 0.571249 0.245462
O O1 0.731405 0.698776 0.360839
O O2 0.809387 0.563454 0.532498
O O3 0.543593 0.600778 0.023168
O O4 0.055256 0.164090 0.444199
O O5 0.539376 0.669788 0.744723
O O6 0.202465 0.839843 0.248999
O O7 0.295885 0.086231 0.625363
O O8 0.790142 0.283666 0.505950
O O9 0.766088 0.591695 0.655530
O O10 0.431026 0.833229 0.454551
O O11 0.897168 0.503803 0.952823
O O12 0.567732 0.582547 0.877483
O O13 0.952452 0.339814 0.183860
O O14 0.824443 0.912438 0.216658
#
# Coordination Sequence:
#
# PCOD8032103 Si02
#       7
#     2   2   2   2   2   2   2
#     4  12  26  41  72 103 143 179 235 284 346 410
#     4  11  23  41  63 105 137 183 226 281 343 421
#     4  11  26  50  74  95 146 183 234 289 345 407
#     4  11  24  39  70  99 144 179 227 278 357 411
#     4  12  24  41  65 104 137 183 221 284 343 412
#     4  12  23  48  72 105 139 183 230 291 344 413
#     4  11  27  51  69 104 136 187 237 289 339 412
#
# _framework density 22.714981000000002
#
# number of rings (size 3 to 8) (size 9 to 14) (size 15 to 20)
#    0.000    0.571    5.714    2.143    2.000    1.714 
#    2.571    0.000    0.000    0.000    0.000    0.000 
#    0.000    0.000    0.000    0.000    0.000    0.000 
#
# Total GULP energy -173631.245268 kJ/mol
# GULP energy per Si atom -12402.231805 kJ/mol
# Density = 2.266328 g / cm^3
# Si number density = 22.714981 Si / 1000 Ang^3
#
#
#
# Elastic Constant Matrix: (Units=GPa)
#
#
# Indices 1 2 3 4 5 6 
#
# 1 95.3097 11.0596 53.4805 2.5397 -24.7674 -3.3994
# 2 11.0596 42.8921 28.0307 11.1051 -9.2461 2.9717
# 3 53.4805 28.0307 125.8511 18.2162 -8.9790 7.6115
# 4 2.5397 11.1051 18.2162 27.6624 -5.9440 1.0411
# 5 -24.7674 -9.2461 -8.9790 -5.9440 31.9456 0.4978
# 6 -3.3994 2.9717 7.6115 1.0411 0.4978 29.4778
#
#
#
# Elastic Compliance Matrix: (Units=1/GPa)
#
#
# Indices 1 2 3 4 5 6 
#
# 1 0.018456 0.001854 -0.008357 0.005833 0.013525 0.003665
# 2 0.001854 0.030101 -0.005927 -0.006750 0.007246 -0.001174
# 3 -0.008357 -0.005927 0.013631 -0.006898 -0.005591 -0.003548
# 4 0.005833 -0.006750 -0.006898 0.044733 0.008931 0.001403
# 5 0.013525 0.007246 -0.005591 0.008931 0.043958 0.001215
# 6 0.003665 -0.001174 -0.003548 0.001403 0.001215 0.035311
#
#
# Mechanical properties :
#
#
# Convention : Reuss Voigt Hill
#
# Bulk Modulus (GPa) = 26.78946 49.91049 38.34998
# Shear Modulus (GPa) = 22.37216 29.24931 25.81073
#
# Velocity S-wave (km/s) = 3.14173 3.59230 3.37454
# Velocity P-wave (km/s) = 4.99800 6.26309 5.66596
#
# Compressibility (1/GPa) = 0.03732811
#
# Stress axis : x y z
#
# Youngs Moduli (GPa) = 54.18276 33.22180 73.36043
#
# Poissons Ratio (x) = -0.06159 0.61306
# Poissons Ratio (y) = -0.10045 0.43482
# Poissons Ratio (z) = 0.45279 0.19691
#
# Static dielectric constant tensor:
#      x y z
#    x 4.173510 -0.179150 -0.076880 
#    y -0.179150 4.235710 0.127900 
#    z -0.076880 0.127900 4.256040 
# 
# 
# High freq. dielectric constant tensor:
#      x y z
#    x 1.891370 -0.009340 -0.004860 
#    y -0.009340 1.905890 0.003170 
#    z -0.004860 0.003170 1.901150 
# 
# From -- ./inp_files/260936.got.cif
#   From: 2010.06.25/outbox.cif.g09.slc.cpg/sg2_131_cif.got.tgz:260936.got - 2010.06.27 13:26:56.
