data_PCOD8032590
_publ_section_title
;
Structure prediction by ZEFSAII (Michael W. Deem and Ramdas Pophale) SiO2 
 PCOD8032590
Probable space group: P -1
;
_chemical_formula_sum "Si O2"
_cell_formula_units_Z 16
_cell_length_a 7.000104
_cell_length_b 15.429590
_cell_length_c 11.485468
_cell_angle_alpha 60.396582
_cell_angle_beta 87.267851
_cell_angle_gamma 49.567907
_cell_volume 748.060198
_symmetry_space_group_name_H-M "P -1"
_symmetry_group_IT_number 2
_symmetry_cell_setting 'triclinic'
loop_
_space_group_symop_operation_xyz
x,y,z
-x,-y,-z
loop_
_atom_site_type_symbol
_atom_site_label
_atom_site_fract_x
_atom_site_fract_y
_atom_site_fract_z
Si Si1 0.673557 0.811254 0.385584
Si Si2 0.669268 0.117660 0.424670
Si Si3 0.233273 0.839156 0.970959
Si Si4 0.521313 0.397461 0.230445
Si Si5 0.294253 0.831208 0.237817
Si Si6 0.720964 0.364068 0.502294
Si Si7 0.142639 0.677340 0.942519
Si Si8 0.494792 0.090493 0.214339
O O1 0.472549 0.868808 0.463225
O O2 0.585001 0.767991 0.314973
O O3 0.999817 0.674422 0.491026
O O4 0.637050 0.938411 0.259779
O O5 0.539878 0.272641 0.294128
O O6 0.600971 0.066809 0.357931
O O7 0.000000 0.000000 0.500000
O O8 0.264531 0.727318 0.971815
O O9 0.446342 0.839829 0.917380
O O10 0.317528 0.782923 0.138048
O O11 0.926204 0.997231 0.861872
O O12 0.584640 0.404368 0.354645
O O13 0.731163 0.377049 0.153896
O O14 0.217622 0.550716 0.100292
O O15 0.205180 0.773376 0.360961
O O16 0.500000 0.500000 0.500000
O O17 0.825174 0.807615 0.845441
#
# Coordination Sequence:
#
# PCOD8032590 Si02
#       8
#     2   2   2   2   2   2   2   2
#     4  12  24  43  71 103 133 175 232 275 336 410
#     4  12  23  43  74 104 140 172 220 285 342 404
#     4  11  23  43  67 100 137 174 225 282 334 398
#     4  11  24  45  69  96 139 177 219 281 341 402
#     4  11  24  43  68  96 137 180 228 279 332 401
#     4  12  26  47  68  97 139 184 225 280 338 398
#     4  11  24  45  68 100 135 175 222 279 345 401
#     4  12  23  41  72 102 129 177 223 276 344 400
#
# _framework density 21.388653000000001
#
# number of rings (size 3 to 8) (size 9 to 14) (size 15 to 20)
#    0.000    0.500    5.000    4.125    0.000    3.500 
#    4.500    0.000    0.000    0.000    0.000    0.000 
#    0.000    0.000    0.000    0.000    0.000    0.000 
#
# Total GULP energy -198452.565055 kJ/mol
# GULP energy per Si atom -12403.285316 kJ/mol
# Density = 2.133997 g / cm^3
# Si number density = 21.388653 Si / 1000 Ang^3
#
#
#
# Elastic Constant Matrix: (Units=GPa)
#
#
# Indices 1 2 3 4 5 6 
#
# 1 102.9284 30.6910 32.3751 4.4286 6.9266 -0.7210
# 2 30.6910 84.4859 33.3737 7.6179 4.0408 -5.4388
# 3 32.3751 33.3737 116.7949 15.9030 -0.9026 5.5290
# 4 4.4286 7.6179 15.9030 41.7204 5.9277 -1.5632
# 5 6.9266 4.0408 -0.9026 5.9277 32.6620 -3.8934
# 6 -0.7210 -5.4388 5.5290 -1.5632 -3.8934 31.9480
#
#
#
# Elastic Compliance Matrix: (Units=1/GPa)
#
#
# Indices 1 2 3 4 5 6 
#
# 1 0.011544 -0.003209 -0.002373 0.000578 -0.002236 -0.000119
# 2 -0.003209 0.014604 -0.003308 -0.000856 -0.000722 0.002856
# 3 -0.002373 -0.003308 0.010780 -0.003568 0.001564 -0.002466
# 4 0.000578 -0.000856 -0.003568 0.026139 -0.004717 0.001189
# 5 -0.002236 -0.000722 0.001564 -0.004717 0.032471 0.003282
# 6 -0.000119 0.002856 -0.002466 0.001189 0.003282 0.032669
#
#
# Mechanical properties :
#
#
# Convention : Reuss Voigt Hill
#
# Bulk Modulus (GPa) = 52.22642 55.23206 53.72924
# Shear Modulus (GPa) = 32.81511 35.11738 33.96625
#
# Velocity S-wave (km/s) = 3.92117 4.05640 3.98936
# Velocity P-wave (km/s) = 6.70609 6.91507 6.81138
#
# Compressibility (1/GPa) = 0.01914740
#
# Stress axis : x y z
#
# Youngs Moduli (GPa) = 86.62870 68.47345 92.76645
#
# Poissons Ratio (x) = 0.21972 0.22016
# Poissons Ratio (y) = 0.27797 0.30687
# Poissons Ratio (z) = 0.20560 0.22651
#
# Static dielectric constant tensor:
#      x y z
#    x 3.901210 0.109260 -0.055190 
#    y 0.109260 3.991950 -0.025890 
#    z -0.055190 -0.025890 4.071590 
# 
# 
# High freq. dielectric constant tensor:
#      x y z
#    x 1.840620 0.005530 0.001390 
#    y 0.005530 1.840960 0.001470 
#    z 0.001390 0.001470 1.851750 
# 
# From -- ./inp_files/94883.got.cif
#   From: 2010.06.25/outbox.cif.g09.slc.cpg/sg2_48_cif.got.tgz:94883.got - 2010.06.27 13:26:56.
