data_PCOD8032614
_publ_section_title
;
Structure prediction by ZEFSAII (Michael W. Deem and Ramdas Pophale) SiO2 
 PCOD8032614
Probable space group: P -1
;
_chemical_formula_sum "Si O2"
_cell_formula_units_Z 16
_cell_length_a 11.886721
_cell_length_b 9.501692
_cell_length_c 8.889013
_cell_angle_alpha 82.714426
_cell_angle_beta 76.121866
_cell_angle_gamma 50.783519
_cell_volume 754.712842
_symmetry_space_group_name_H-M "P -1"
_symmetry_group_IT_number 2
_symmetry_cell_setting 'triclinic'
loop_
_space_group_symop_operation_xyz
x,y,z
-x,-y,-z
loop_
_atom_site_type_symbol
_atom_site_label
_atom_site_fract_x
_atom_site_fract_y
_atom_site_fract_z
Si Si1 0.259618 0.940975 0.398003
Si Si2 0.000841 0.347101 0.444847
Si Si3 0.884203 0.202699 0.710958
Si Si4 0.217042 0.932232 0.740834
Si Si5 0.253826 0.635303 0.962858
Si Si6 0.001867 0.647448 0.895910
Si Si7 0.306005 0.076452 0.927635
Si Si8 0.472621 0.225631 0.881623
O O1 0.156181 0.909467 0.347731
O O2 0.295134 0.854245 0.564806
O O3 0.415594 0.848506 0.282663
O O4 0.167715 0.157233 0.417382
O O5 0.891014 0.327616 0.574512
O O6 0.941935 0.409123 0.285266
O O7 0.000000 0.500000 0.500000
O O8 0.759291 0.330407 0.858493
O O9 0.039987 0.058868 0.763443
O O10 0.276351 0.766836 0.855694
O O11 0.264355 0.046779 0.781748
O O12 0.104931 0.675852 0.947912
O O13 0.399714 0.432105 0.911404
O O14 0.000000 0.500000 0.000000
O O15 0.833829 0.837228 0.926693
O O16 0.343670 0.213902 0.877988
O O17 0.446180 0.887815 0.977995
#
# Coordination Sequence:
#
# PCOD8032614 Si02
#       8
#     2   2   2   2   2   2   2   2
#     4  11  24  45  65  94 144 176 209 272 345 391
#     4  11  24  39  67 101 131 169 219 275 330 387
#     4  11  23  43  68 100 135 174 219 279 332 382
#     4  11  24  41  68 101 128 174 227 276 325 385
#     4  12  24  40  71 102 127 173 232 270 322 393
#     4  12  22  41  69 100 129 168 227 281 310 385
#     4  11  24  44  67  94 134 175 221 269 331 394
#     4  11  26  44  66  95 137 182 211 269 340 401
#
# _framework density 21.200116999999999
#
# number of rings (size 3 to 8) (size 9 to 14) (size 15 to 20)
#    0.000    0.750    3.750    4.875    1.750    3.000 
#    0.000    1.250    0.000    0.000    0.000    0.000 
#    0.000    0.000    0.000    0.000    0.000    0.000 
#
# Total GULP energy -198504.275901 kJ/mol
# GULP energy per Si atom -12406.517244 kJ/mol
# Density = 2.115187 g / cm^3
# Si number density = 21.200117 Si / 1000 Ang^3
#
#
#
# Elastic Constant Matrix: (Units=GPa)
#
#
# Indices 1 2 3 4 5 6 
#
# 1 80.5425 22.4750 31.9813 13.9526 13.3680 7.8320
# 2 22.4750 109.2969 48.2718 10.8801 -1.9222 12.7553
# 3 31.9813 48.2718 166.1304 7.0659 0.8034 7.4157
# 4 13.9526 10.8801 7.0659 38.5494 2.9621 -1.8779
# 5 13.3680 -1.9222 0.8034 2.9621 38.4620 6.2865
# 6 7.8320 12.7553 7.4157 -1.8779 6.2865 30.2999
#
#
#
# Elastic Compliance Matrix: (Units=1/GPa)
#
#
# Indices 1 2 3 4 5 6 
#
# 1 0.015510 -0.001605 -0.002212 -0.004493 -0.004737 -0.002088
# 2 -0.001605 0.011483 -0.002736 -0.002531 0.002093 -0.004341
# 3 -0.002212 -0.002736 0.007235 0.000203 0.000488 -0.000136
# 4 -0.004493 -0.002531 0.000203 0.028564 -0.001464 0.004251
# 5 -0.004737 0.002093 0.000488 -0.001464 0.028809 -0.005844
# 6 -0.002088 -0.004341 -0.000136 0.004251 -0.005844 0.036879
#
#
# Mechanical properties :
#
#
# Convention : Reuss Voigt Hill
#
# Bulk Modulus (GPa) = 47.34502 62.38065 54.86284
# Shear Modulus (GPa) = 33.64123 38.34503 35.99313
#
# Velocity S-wave (km/s) = 3.98784 4.25752 4.12488
# Velocity P-wave (km/s) = 6.60187 7.32510 6.97287
#
# Compressibility (1/GPa) = 0.02112154
#
# Stress axis : x y z
#
# Youngs Moduli (GPa) = 64.47624 87.08321 138.20866
#
# Poissons Ratio (x) = 0.13974 0.30575
# Poissons Ratio (y) = 0.10346 0.37820
# Poissons Ratio (z) = 0.14264 0.23830
#
# Static dielectric constant tensor:
#      x y z
#    x 3.590400 -0.225590 0.156860 
#    y -0.225590 3.217480 0.302890 
#    z 0.156860 0.302890 3.899580 
# 
# 
# High freq. dielectric constant tensor:
#      x y z
#    x 1.830090 0.013680 0.003350 
#    y 0.013680 1.829790 0.001150 
#    z 0.003350 0.001150 1.843370 
# 
# From -- ./inp_files/180382.got.cif
#   From: 2010.06.25/outbox.cif.g09.slc.cpg/sg2_91_cif.got.tgz:180382.got - 2010.06.27 13:26:56.
