data_PCOD8032573
_publ_section_title
;
Structure prediction by ZEFSAII (Michael W. Deem and Ramdas Pophale) SiO2 
 PCOD8032573
Probable space group: P -1
;
_chemical_formula_sum "Si O2"
_cell_formula_units_Z 12
_cell_length_a 9.385356
_cell_length_b 13.439393
_cell_length_c 11.308713
_cell_angle_alpha 147.059594
_cell_angle_beta 112.931822
_cell_angle_gamma 90.267721
_cell_volume 535.213491
_symmetry_space_group_name_H-M "P -1"
_symmetry_group_IT_number 2
_symmetry_cell_setting 'triclinic'
loop_
_space_group_symop_operation_xyz
x,y,z
-x,-y,-z
loop_
_atom_site_type_symbol
_atom_site_label
_atom_site_fract_x
_atom_site_fract_y
_atom_site_fract_z
Si Si1 0.362970 0.448681 0.792039
Si Si2 0.164705 0.971697 0.121016
Si Si3 0.731982 0.807088 0.119961
Si Si4 0.731392 0.755349 0.805432
Si Si5 0.969171 0.272548 0.807930
Si Si6 0.296538 0.799561 0.158844
O O1 0.205494 0.167050 0.424275
O O2 0.500000 0.500000 0.000000
O O3 0.491592 0.591619 0.856383
O O4 0.245414 0.544123 0.883198
O O5 0.259276 0.083988 0.133480
O O6 0.291794 0.888504 0.116051
O O7 0.912722 0.752101 0.821092
O O8 0.830312 0.697930 0.096763
O O9 0.796786 0.040198 0.441390
O O10 0.788757 0.885806 0.081065
O O11 0.500000 0.500000 0.500000
O O12 0.890611 0.234414 0.877353
O O13 0.000000 0.500000 0.000000
O O14 0.500000 0.000000 0.500000
#
# Coordination Sequence:
#
# PCOD8032573 Si02
#       6
#     2   2   2   2   2   2
#     4  12  23  40  72 101 137 179 222 286 357 406
#     4  11  25  46  70  99 141 184 226 287 347 405
#     4  11  23  43  65  99 134 180 235 276 341 414
#     4  11  24  47  73  93 137 195 236 276 336 416
#     4  11  24  39  66 101 139 172 225 290 345 405
#     4  12  23  41  66 105 137 170 223 281 354 412
#
# _framework density 22.420960000000001
#
# number of rings (size 3 to 8) (size 9 to 14) (size 15 to 20)
#    0.000    0.667    6.667    1.000    4.667    0.000 
#    0.000    5.833    0.000    0.000    0.000    0.000 
#    0.000    0.000    0.000    0.000    0.000    0.000 
#
# Total GULP energy -148689.954696 kJ/mol
# GULP energy per Si atom -12390.829558 kJ/mol
# Density = 2.236993 g / cm^3
# Si number density = 22.420960 Si / 1000 Ang^3
#
#
#
# Elastic Constant Matrix: (Units=GPa)
#
#
# Indices 1 2 3 4 5 6 
#
# 1 92.5576 41.8521 30.6518 15.9973 -1.0552 -0.5837
# 2 41.8521 161.8888 28.7985 -3.7810 -3.9831 -10.5780
# 3 30.6518 28.7985 64.5747 20.9285 2.4884 -12.9013
# 4 15.9973 -3.7810 20.9285 29.8682 -1.9086 -3.8048
# 5 -1.0552 -3.9831 2.4884 -1.9086 45.1664 9.7893
# 6 -0.5837 -10.5780 -12.9013 -3.8048 9.7893 51.7116
#
#
#
# Elastic Compliance Matrix: (Units=1/GPa)
#
#
# Indices 1 2 3 4 5 6 
#
# 1 0.014609 -0.003307 -0.004060 -0.005626 0.000475 -0.002028
# 2 -0.003307 0.007871 -0.003545 0.005423 0.000840 0.000928
# 3 -0.004060 -0.003545 0.025155 -0.015485 -0.003539 0.005035
# 4 -0.005626 0.005423 -0.015485 0.048252 0.003212 0.000125
# 5 0.000475 0.000840 -0.003539 0.003212 0.023627 -0.004942
# 6 -0.002028 0.000928 0.005035 0.000125 -0.004942 0.021706
#
#
# Mechanical properties :
#
#
# Convention : Reuss Voigt Hill
#
# Bulk Modulus (GPa) = 38.74250 57.95842 48.35046
# Shear Modulus (GPa) = 29.12957 39.86383 34.49670
#
# Velocity S-wave (km/s) = 3.60837 4.22117 3.92674
# Velocity P-wave (km/s) = 5.88876 7.04727 6.49390
#
# Compressibility (1/GPa) = 0.02581145
#
# Stress axis : x y z
#
# Youngs Moduli (GPa) = 68.45182 127.05543 39.75334
#
# Poissons Ratio (x) = 0.42015 0.16139
# Poissons Ratio (y) = 0.22636 0.14093
# Poissons Ratio (z) = 0.27789 0.45042
#
# Static dielectric constant tensor:
#      x y z
#    x 5.624320 3.058660 -2.248910 
#    y 3.058660 9.689140 -4.599470 
#    z -2.248910 -4.599470 7.829900 
# 
# 
# High freq. dielectric constant tensor:
#      x y z
#    x 1.881940 0.012480 0.007360 
#    y 0.012480 1.899440 -0.004660 
#    z 0.007360 -0.004660 1.866440 
# 
# From -- ./inp_files/241889.got.cif
#   From: 2010.06.25/outbox.cif.g09.slc.cpg/sg2_121_cif.got.tgz:241889.got - 2010.06.27 13:26:56.
