data_PCOD8032180
_publ_section_title
;
Structure prediction by ZEFSAII (Michael W. Deem and Ramdas Pophale) SiO2 
 PCOD8032180
Probable space group: P -1
;
_chemical_formula_sum "Si O2"
_cell_formula_units_Z 16
_cell_length_a 12.553361
_cell_length_b 20.611266
_cell_length_c 5.473688
_cell_angle_alpha 85.565708
_cell_angle_beta 81.558100
_cell_angle_gamma 29.083887
_cell_volume 677.134665
_symmetry_space_group_name_H-M "P -1"
_symmetry_group_IT_number 2
_symmetry_cell_setting 'triclinic'
loop_
_space_group_symop_operation_xyz
x,y,z
-x,-y,-z
loop_
_atom_site_type_symbol
_atom_site_label
_atom_site_fract_x
_atom_site_fract_y
_atom_site_fract_z
Si Si1 0.244584 0.765661 0.730603
Si Si2 0.498274 0.042544 0.736054
Si Si3 0.702215 0.513845 0.385598
Si Si4 0.254212 0.624719 0.955098
Si Si5 0.354820 0.841847 0.868463
Si Si6 0.790751 0.567553 0.992775
Si Si7 0.210533 0.987971 0.377671
Si Si8 0.017352 0.332287 0.728049
O O1 0.491258 0.617982 0.602453
O O2 0.158537 0.747241 0.904939
O O3 0.246579 0.827212 0.890634
O O4 0.058195 0.874260 0.550387
O O5 0.705164 0.982291 0.684244
O O6 0.274944 0.203277 0.743968
O O7 0.500000 0.000000 0.500000
O O8 0.500000 0.000000 0.000000
O O9 0.726177 0.433741 0.261575
O O10 0.946740 0.391139 0.463856
O O11 0.653503 0.611198 0.256237
O O12 0.500000 0.500000 0.000000
O O13 0.076638 0.690851 0.190709
O O14 0.623960 0.693097 0.832108
O O15 0.307628 0.906405 0.617427
O O16 0.275715 0.916818 0.124194
O O17 0.879167 0.451759 0.912178
O O18 0.000000 0.500000 0.000000
#
# Coordination Sequence:
#
# PCOD8032180 Si02
#       8
#     2   2   2   2   2   2   2   2
#     4  12  24  46  72 105 146 196 241 298 369 437
#     4  12  29  51  77 109 147 193 245 299 368 443
#     4  11  24  43  69 109 140 183 243 308 361 435
#     4  11  23  41  68 107 142 181 239 302 371 427
#     4  12  26  50  68 111 145 195 251 298 362 437
#     4  11  25  44  75 101 145 189 243 306 366 429
#     4  12  29  48  75 105 151 199 243 301 363 441
#     4  11  25  44  71 104 142 185 241 305 362 430
#
# _framework density 23.628978
#
# number of rings (size 3 to 8) (size 9 to 14) (size 15 to 20)
#    0.000    0.500    2.500    4.875    7.000    2.500 
#    0.000    0.000    0.000    0.000    0.000    0.000 
#    0.000    0.000    0.000    0.000    0.000    0.000 
#
# Total GULP energy -198230.504755 kJ/mol
# GULP energy per Si atom -12389.406547 kJ/mol
# Density = 2.357520 g / cm^3
# Si number density = 23.628978 Si / 1000 Ang^3
#
#
#
# Elastic Constant Matrix: (Units=GPa)
#
#
# Indices 1 2 3 4 5 6 
#
# 1 148.2342 15.9895 41.6186 -14.8524 6.6215 2.7984
# 2 15.9895 111.5070 27.9605 -32.8408 12.2038 -17.1028
# 3 41.6186 27.9605 123.1982 -25.0181 9.2740 12.2312
# 4 -14.8524 -32.8408 -25.0181 42.9492 -1.3122 5.9855
# 5 6.6215 12.2038 9.2740 -1.3122 29.8143 -8.3932
# 6 2.7984 -17.1028 12.2312 5.9855 -8.3932 46.2893
#
#
#
# Elastic Compliance Matrix: (Units=1/GPa)
#
#
# Indices 1 2 3 4 5 6 
#
# 1 0.007542 -0.000094 -0.002167 0.001281 -0.000980 -0.000261
# 2 -0.000094 0.012629 -0.001199 0.008363 -0.003486 0.003275
# 3 -0.002167 -0.001199 0.010880 0.005191 -0.003446 -0.004483
# 4 0.001281 0.008363 0.005191 0.033494 -0.004853 -0.003570
# 5 -0.000980 -0.003486 -0.003446 -0.004853 0.038074 0.007213
# 6 -0.000261 0.003275 -0.004483 -0.003570 0.007213 0.025783
#
#
# Mechanical properties :
#
#
# Convention : Reuss Voigt Hill
#
# Bulk Modulus (GPa) = 41.44022 61.56407 51.50215
# Shear Modulus (GPa) = 34.87631 43.63527 39.25579
#
# Velocity S-wave (km/s) = 3.84604 4.30197 4.08038
# Velocity P-wave (km/s) = 6.10726 7.12650 6.63648
#
# Compressibility (1/GPa) = 0.02413115
#
# Stress axis : x y z
#
# Youngs Moduli (GPa) = 132.59925 79.18290 91.91518
#
# Poissons Ratio (x) = 0.00743 0.19914
# Poissons Ratio (y) = 0.01244 0.11021
# Poissons Ratio (z) = 0.28729 0.09494
#
# Static dielectric constant tensor:
#      x y z
#    x 4.247560 0.038510 -0.051720 
#    y 0.038510 4.603590 -0.425550 
#    z -0.051720 -0.425550 4.400950 
# 
# 
# High freq. dielectric constant tensor:
#      x y z
#    x 1.953630 -0.002460 0.003930 
#    y -0.002460 1.947120 -0.015820 
#    z 0.003930 -0.015820 1.932200 
# 
# From -- ./inp_files/83188.got.cif
#   From: 2010.06.25/outbox.cif.g09.slc.cpg/sg2_42_cif.got.tgz:83188.got - 2010.06.27 13:26:56.
