data_PCOD8032393
_publ_section_title
;
Structure prediction by ZEFSAII (Michael W. Deem and Ramdas Pophale) SiO2 
 PCOD8032393
Probable space group: P -1
;
_chemical_formula_sum "Si O2"
_cell_formula_units_Z 16
_cell_length_a 24.754036
_cell_length_b 9.921047
_cell_length_c 8.353824
_cell_angle_alpha 105.481403
_cell_angle_beta 39.491537
_cell_angle_gamma 135.564841
_cell_volume 703.297985
_symmetry_space_group_name_H-M "P -1"
_symmetry_group_IT_number 2
_symmetry_cell_setting 'triclinic'
loop_
_space_group_symop_operation_xyz
x,y,z
-x,-y,-z
loop_
_atom_site_type_symbol
_atom_site_label
_atom_site_fract_x
_atom_site_fract_y
_atom_site_fract_z
Si Si1 0.402064 0.252820 0.439245
Si Si2 0.856448 0.988463 0.844950
Si Si3 0.847490 0.509958 0.511298
Si Si4 0.068412 0.930747 0.658151
Si Si5 0.234362 0.912348 0.418677
Si Si6 0.338685 0.535835 0.896341
Si Si7 0.476735 0.665491 0.300706
Si Si8 0.214280 0.396685 0.606012
O O1 0.321742 0.044105 0.428271
O O2 0.559082 0.398128 0.180627
O O3 0.436630 0.447532 0.337917
O O4 0.293553 0.126164 0.802368
O O5 0.916068 0.107209 0.569096
O O6 0.987211 0.198852 0.740954
O O7 0.810707 0.762866 0.891193
O O8 0.796339 0.479777 0.439296
O O9 0.857098 0.357116 0.459194
O O10 0.720493 0.395202 0.887722
O O11 0.113674 0.872260 0.662644
O O12 0.174845 0.210795 0.524879
O O13 0.896149 0.740694 0.031198
O O14 0.347614 0.074912 0.060147
O O15 0.439125 0.695965 0.559516
O O16 0.383287 0.606521 0.350336
#
# Coordination Sequence:
#
# PCOD8032393 Si02
#       8
#     2   2   2   2   2   2   2   2
#     4  11  23  42  70  99 131 172 221 273 326 386
#     4  11  23  43  70  97 133 171 219 274 328 386
#     4  12  27  43  65  99 138 178 210 271 334 390
#     4  11  23  42  68  99 128 170 220 271 320 391
#     4  12  26  44  66  97 139 175 217 266 331 392
#     4  11  23  42  69 101 130 171 222 272 328 385
#     4  11  23  42  69 100 128 174 222 275 321 384
#     4  11  24  40  68  99 130 168 221 270 323 384
#
# _framework density 22.749957999999999
#
# number of rings (size 3 to 8) (size 9 to 14) (size 15 to 20)
#    0.000    0.750    2.500    6.000    5.250    5.000 
#    0.000    2.500    0.000    0.000    0.000    0.000 
#    0.000    0.000    0.000    0.000    0.000    0.000 
#
# Total GULP energy -198521.967664 kJ/mol
# GULP energy per Si atom -12407.622979 kJ/mol
# Density = 2.269818 g / cm^3
# Si number density = 22.749958 Si / 1000 Ang^3
#
#
#
# Elastic Constant Matrix: (Units=GPa)
#
#
# Indices 1 2 3 4 5 6 
#
# 1 74.7239 25.5386 2.8255 -13.3173 -4.6488 -3.0306
# 2 25.5386 69.7524 23.3455 0.9772 8.1157 -9.5628
# 3 2.8255 23.3455 61.1407 6.9141 1.8600 -4.4134
# 4 -13.3173 0.9772 6.9141 16.5335 6.6541 -3.1404
# 5 -4.6488 8.1157 1.8600 6.6541 38.5556 8.1551
# 6 -3.0306 -9.5628 -4.4134 -3.1404 8.1551 29.5268
#
#
#
# Elastic Compliance Matrix: (Units=1/GPa)
#
#
# Indices 1 2 3 4 5 6 
#
# 1 0.018575 -0.007029 0.000159 0.015150 0.000881 0.001022
# 2 -0.007029 0.020897 -0.006957 -0.000172 -0.006304 0.006730
# 3 0.000159 -0.006957 0.019876 -0.008821 0.002220 -0.000818
# 4 0.015150 -0.000172 -0.008821 0.085069 -0.015235 0.013437
# 5 0.000881 -0.006304 0.002220 -0.015235 0.032474 -0.012209
# 6 0.001022 0.006730 -0.000818 0.013437 -0.012209 0.040831
#
#
# Mechanical properties :
#
#
# Convention : Reuss Voigt Hill
#
# Bulk Modulus (GPa) = 31.55177 34.33737 32.94457
# Shear Modulus (GPa) = 19.53570 27.18367 23.35968
#
# Velocity S-wave (km/s) = 2.93356 3.46047 3.20785
# Velocity P-wave (km/s) = 5.03720 5.57607 5.31347
#
# Compressibility (1/GPa) = 0.03169395
#
# Stress axis : x y z
#
# Youngs Moduli (GPa) = 53.83529 47.85380 50.31215
#
# Poissons Ratio (x) = 0.33635 -0.00801
# Poissons Ratio (y) = 0.37840 0.35004
# Poissons Ratio (z) = -0.00857 0.33294
#
# Static dielectric constant tensor:
#      x y z
#    x 3.957010 0.116240 -0.043520 
#    y 0.116240 3.762970 0.258290 
#    z -0.043520 0.258290 4.248660 
# 
# 
# High freq. dielectric constant tensor:
#      x y z
#    x 1.900180 0.010890 -0.002860 
#    y 0.010890 1.864060 0.020340 
#    z -0.002860 0.020340 1.915480 
# 
# From -- ./inp_files/207829.got.cif
#   From: 2010.06.25/outbox.cif.g09.slc.cpg/sg2_104_cif.got.tgz:207829.got - 2010.06.27 13:26:56.
