data_PCOD8032242
_publ_section_title
;
Structure prediction by ZEFSAII (Michael W. Deem and Ramdas Pophale) SiO2 
 PCOD8032242
Probable space group: P -1
;
_chemical_formula_sum "Si O2"
_cell_formula_units_Z 16
_cell_length_a 14.535454
_cell_length_b 14.749678
_cell_length_c 8.972326
_cell_angle_alpha 86.133767
_cell_angle_beta 114.641645
_cell_angle_gamma 149.208200
_cell_volume 698.816610
_symmetry_space_group_name_H-M "P -1"
_symmetry_group_IT_number 2
_symmetry_cell_setting 'triclinic'
loop_
_space_group_symop_operation_xyz
x,y,z
-x,-y,-z
loop_
_atom_site_type_symbol
_atom_site_label
_atom_site_fract_x
_atom_site_fract_y
_atom_site_fract_z
Si Si1 0.926800 0.526551 0.041126
Si Si2 0.774624 0.896880 0.480794
Si Si3 0.130614 0.860084 0.950886
Si Si4 0.613724 0.496539 0.538924
Si Si5 0.298776 0.261112 0.844171
Si Si6 0.530837 0.320061 0.215312
Si Si7 0.971018 0.378601 0.567498
Si Si8 0.340833 0.018613 0.755527
O O1 0.011519 0.682305 0.986144
O O2 0.631203 0.284189 0.904217
O O3 0.072603 0.646338 0.283283
O O4 0.000000 0.500000 0.000000
O O5 0.539519 0.708645 0.455672
O O6 0.706888 0.760642 0.333972
O O7 0.822378 0.032128 0.416801
O O8 0.022460 0.071722 0.723487
O O9 0.276626 0.944763 0.892718
O O10 0.903443 0.737891 0.757116
O O11 0.332398 0.080329 0.166645
O O12 0.500000 0.500000 0.500000
O O13 0.588229 0.448797 0.353557
O O14 0.500000 0.500000 0.000000
O O15 0.378844 0.233068 0.979258
O O16 0.790925 0.488556 0.324491
O O17 0.000000 0.500000 0.500000
O O18 0.722435 0.125102 0.362074
#
# Coordination Sequence:
#
# PCOD8032242 Si02
#       8
#     2   2   2   2   2   2   2   2
#     4  12  29  49  80 116 143 199 252 308 381 446
#     4  11  24  42  69 105 145 195 247 304 369 436
#     4  12  26  48  76 106 156 195 248 310 374 449
#     4  12  27  45  70 112 151 196 257 310 365 443
#     4  11  23  41  71 102 143 201 249 300 379 441
#     4  12  26  47  73 108 152 201 248 308 379 439
#     4  12  28  49  80 112 148 198 246 307 382 445
#     4  12  25  51  76 106 159 195 242 313 373 450
#
# _framework density 22.895848999999998
#
# number of rings (size 3 to 8) (size 9 to 14) (size 15 to 20)
#    0.000    0.250    5.000    3.000    5.250    4.500 
#    0.000    0.000    0.000    0.000    0.000    0.000 
#    0.000    0.000    0.000    0.000    0.000    0.000 
#
# Total GULP energy -198447.994299 kJ/mol
# GULP energy per Si atom -12402.999644 kJ/mol
# Density = 2.284374 g / cm^3
# Si number density = 22.895849 Si / 1000 Ang^3
#
#
#
# Elastic Constant Matrix: (Units=GPa)
#
#
# Indices 1 2 3 4 5 6 
#
# 1 107.4357 28.6031 31.9014 -9.7279 -18.3856 -1.9250
# 2 28.6031 127.1098 34.7604 -0.4123 -5.7443 0.8431
# 3 31.9014 34.7604 92.2196 -0.9417 -17.3623 -3.5025
# 4 -9.7279 -0.4123 -0.9417 39.8292 -6.0184 -2.8950
# 5 -18.3856 -5.7443 -17.3623 -6.0184 39.0938 4.3446
# 6 -1.9250 0.8431 -3.5025 -2.8950 4.3446 41.1580
#
#
#
# Elastic Compliance Matrix: (Units=1/GPa)
#
#
# Indices 1 2 3 4 5 6 
#
# 1 0.011604 -0.001720 -0.002453 0.003468 0.004635 0.000124
# 2 -0.001720 0.009036 -0.002993 -0.000559 -0.000845 -0.000470
# 3 -0.002453 -0.002993 0.013693 0.000419 0.004478 0.000669
# 4 0.003468 -0.000559 0.000419 0.026931 0.005714 0.001500
# 5 0.004635 -0.000845 0.004478 0.005714 0.030751 -0.002229
# 6 0.000124 -0.000470 0.000669 0.001500 -0.002229 0.024710
#
#
# Mechanical properties :
#
#
# Convention : Reuss Voigt Hill
#
# Bulk Modulus (GPa) = 50.00073 57.47720 53.73896
# Shear Modulus (GPa) = 36.30423 39.44954 37.87689
#
# Velocity S-wave (km/s) = 3.98631 4.15541 4.07174
# Velocity P-wave (km/s) = 6.56303 6.94129 6.75480
#
# Compressibility (1/GPa) = 0.01999971
#
# Stress axis : x y z
#
# Youngs Moduli (GPa) = 86.17962 110.66704 73.02853
#
# Poissons Ratio (x) = 0.19040 0.17912
# Poissons Ratio (y) = 0.14827 0.21861
# Poissons Ratio (z) = 0.21138 0.33127
#
# Static dielectric constant tensor:
#      x y z
#    x 4.243440 -0.044430 0.061130 
#    y -0.044430 4.555320 -0.155400 
#    z 0.061130 -0.155400 4.757640 
# 
# 
# High freq. dielectric constant tensor:
#      x y z
#    x 1.902590 -0.005820 -0.003120 
#    y -0.005820 1.915850 0.010760 
#    z -0.003120 0.010760 1.913950 
# 
# From -- ./inp_files/315338.got.cif
#   From: 2010.06.25/outbox.cif.g09.slc.cpg/sg2_158_cif.got.tgz:315338.got - 2010.06.27 13:26:56.
