data_PCOD8032432
_publ_section_title
;
Structure prediction by ZEFSAII (Michael W. Deem and Ramdas Pophale) SiO2 
 PCOD8032432
Probable space group: P -1
;
_chemical_formula_sum "Si O2"
_cell_formula_units_Z 14
_cell_length_a 11.802261
_cell_length_b 17.630424
_cell_length_c 6.955809
_cell_angle_alpha 44.755285
_cell_angle_beta 57.245623
_cell_angle_gamma 38.718808
_cell_volume 637.139490
_symmetry_space_group_name_H-M "P -1"
_symmetry_group_IT_number 2
_symmetry_cell_setting 'triclinic'
loop_
_space_group_symop_operation_xyz
x,y,z
-x,-y,-z
loop_
_atom_site_type_symbol
_atom_site_label
_atom_site_fract_x
_atom_site_fract_y
_atom_site_fract_z
Si Si1 0.566362 0.338468 0.013160
Si Si2 0.093549 0.837209 0.245626
Si Si3 0.995963 0.675759 0.186695
Si Si4 0.712384 0.337189 0.253729
Si Si5 0.235105 0.112937 0.678033
Si Si6 0.559364 0.795990 0.852626
Si Si7 0.888680 0.561052 0.189066
O O1 0.598254 0.320024 0.247898
O O2 0.490903 0.261714 0.163612
O O3 0.750803 0.268174 0.861519
O O4 0.418085 0.509300 0.791496
O O5 0.179868 0.792315 0.459219
O O6 0.942907 0.824053 0.394766
O O7 0.000000 0.000000 0.000000
O O8 0.823189 0.834248 0.142665
O O9 0.936475 0.643096 0.112882
O O10 0.068674 0.564029 0.495360
O O11 0.152371 0.672725 0.991740
O O12 0.318817 0.175602 0.400019
O O13 0.377877 0.939102 0.857932
O O14 0.674804 0.675035 0.130186
O O15 0.000000 0.500000 0.000000
#
# Coordination Sequence:
#
# PCOD8032432 Si02
#       7
#     2   2   2   2   2   2   2
#     4  11  25  46  70 106 138 185 237 292 353 419
#     4  12  25  50  71  99 142 193 233 288 355 420
#     4  11  24  43  71 107 135 185 240 284 355 419
#     4  11  26  44  74 104 139 183 243 294 346 423
#     4  11  24  45  68 104 141 182 236 278 355 423
#     4  11  24  44  71 102 145 183 228 296 348 419
#     4  11  23  42  70 102 144 185 227 295 351 414
#
# _framework density 21.973210000000002
#
# number of rings (size 3 to 8) (size 9 to 14) (size 15 to 20)
#    0.000    0.857    4.286    2.143    4.000    3.429 
#    0.000    0.000    0.000    0.000    0.000    0.000 
#    0.000    0.000    0.000    0.000    0.000    0.000 
#
# Total GULP energy -173649.127129 kJ/mol
# GULP energy per Si atom -12403.509081 kJ/mol
# Density = 2.192320 g / cm^3
# Si number density = 21.973210 Si / 1000 Ang^3
#
#
#
# Elastic Constant Matrix: (Units=GPa)
#
#
# Indices 1 2 3 4 5 6 
#
# 1 146.7645 66.2922 55.6612 -13.4306 7.9780 13.6221
# 2 66.2922 168.3491 64.4920 1.3743 12.5550 4.4142
# 3 55.6612 64.4920 100.0981 -5.8891 17.9503 3.5678
# 4 -13.4306 1.3743 -5.8891 28.7281 -3.2327 0.0805
# 5 7.9780 12.5550 17.9503 -3.2327 35.5858 3.6999
# 6 13.6221 4.4142 3.5678 0.0805 3.6999 43.5853
#
#
#
# Elastic Compliance Matrix: (Units=1/GPa)
#
#
# Indices 1 2 3 4 5 6 
#
# 1 0.009948 -0.002521 -0.003788 0.004140 0.001222 -0.002655
# 2 -0.002521 0.008594 -0.004183 -0.002518 -0.000618 0.000317
# 3 -0.003788 -0.004183 0.015838 0.001038 -0.005652 0.000789
# 4 0.004140 -0.002518 0.001038 0.037418 0.002986 -0.001446
# 5 0.001222 -0.000618 -0.005652 0.002986 0.031430 -0.002530
# 6 -0.002655 0.000317 0.000789 -0.001446 -0.002530 0.023894
#
#
# Mechanical properties :
#
#
# Convention : Reuss Voigt Hill
#
# Bulk Modulus (GPa) = 74.65911 87.56694 81.11303
# Shear Modulus (GPa) = 32.77103 36.83094 34.80099
#
# Velocity S-wave (km/s) = 3.86607 4.09855 3.98401
# Velocity P-wave (km/s) = 7.34709 7.89530 7.62612
#
# Compressibility (1/GPa) = 0.01339421
#
# Stress axis : x y z
#
# Youngs Moduli (GPa) = 100.52157 116.36191 63.13731
#
# Poissons Ratio (x) = 0.29340 0.23918
# Poissons Ratio (y) = 0.25346 0.26413
# Poissons Ratio (z) = 0.38080 0.48679
#
# Static dielectric constant tensor:
#      x y z
#    x 4.244800 -0.043690 0.158020 
#    y -0.043690 4.371360 -0.011080 
#    z 0.158020 -0.011080 3.819040 
# 
# 
# High freq. dielectric constant tensor:
#      x y z
#    x 1.882020 0.000060 -0.000100 
#    y 0.000060 1.884610 0.002810 
#    z -0.000100 0.002810 1.846110 
# 
# From -- ./inp_files/77957.got.cif
#   From: 2010.06.25/outbox.cif.g09.slc.cpg/sg2_39_cif.got.tgz:77957.got - 2010.06.27 13:26:56.
