data_PCOD8032400
_publ_section_title
;
Structure prediction by ZEFSAII (Michael W. Deem and Ramdas Pophale) SiO2 
 PCOD8032400
Probable space group: P -1
;
_chemical_formula_sum "Si O2"
_cell_formula_units_Z 14
_cell_length_a 8.964505
_cell_length_b 24.723828
_cell_length_c 9.145022
_cell_angle_alpha 152.168517
_cell_angle_beta 129.406877
_cell_angle_gamma 40.661078
_cell_volume 612.254071
_symmetry_space_group_name_H-M "P -1"
_symmetry_group_IT_number 2
_symmetry_cell_setting 'triclinic'
loop_
_space_group_symop_operation_xyz
x,y,z
-x,-y,-z
loop_
_atom_site_type_symbol
_atom_site_label
_atom_site_fract_x
_atom_site_fract_y
_atom_site_fract_z
Si Si1 0.703798 0.274854 0.179933
Si Si2 0.842803 0.972220 0.221493
Si Si3 0.568078 0.433190 0.174174
Si Si4 0.824874 0.567863 0.185644
Si Si5 0.452278 0.148029 0.856227
Si Si6 0.959865 0.397420 0.140764
Si Si7 0.556199 0.851205 0.820755
O O1 0.671586 0.359059 0.213931
O O2 0.598640 0.398341 0.528008
O O3 0.569738 0.196457 0.927146
O O4 0.976020 0.157642 0.078814
O O5 0.667885 0.095425 0.295960
O O6 0.661826 0.946444 0.128933
O O7 0.000000 0.000000 0.500000
O O8 0.765761 0.385853 0.067380
O O9 0.428547 0.369679 0.882049
O O10 0.896230 0.447202 0.055356
O O11 0.787464 0.704951 0.564961
O O12 0.000000 0.500000 0.000000
O O13 0.500000 0.000000 0.500000
O O14 0.529328 0.157942 0.092654
O O15 0.180313 0.245325 0.906788
O O16 0.000000 0.500000 0.500000
#
# Coordination Sequence:
#
# PCOD8032400 Si02
#       7
#     2   2   2   2   2   2   2
#     4  11  23  42  69 103 140 184 247 297 356 438
#     4  11  24  43  68  98 142 193 242 296 375 440
#     4  11  24  42  73 102 139 190 243 302 361 432
#     4  12  25  42  72 107 140 187 248 300 364 435
#     4  12  26  44  71 106 150 193 241 304 372 437
#     4  12  24  47  72  99 146 189 238 302 365 426
#     4  11  25  46  68 103 148 191 241 308 363 444
#
# _framework density 22.866323000000001
#
# number of rings (size 3 to 8) (size 9 to 14) (size 15 to 20)
#    0.000    0.571    2.857    4.714    2.000    6.286 
#    0.000    0.000    0.000    0.000    0.000    0.000 
#    0.000    0.000    0.000    0.000    0.000    0.000 
#
# Total GULP energy -173453.352183 kJ/mol
# GULP energy per Si atom -12389.525156 kJ/mol
# Density = 2.281428 g / cm^3
# Si number density = 22.866323 Si / 1000 Ang^3
#
#
#
# Elastic Constant Matrix: (Units=GPa)
#
#
# Indices 1 2 3 4 5 6 
#
# 1 154.3223 44.5633 27.3091 12.6925 -5.4738 -5.6065
# 2 44.5633 125.5967 29.6342 16.4869 -12.8272 -10.7916
# 3 27.3091 29.6342 87.8818 25.4199 -2.8605 -5.4904
# 4 12.6925 16.4869 25.4199 44.9339 -9.3384 2.3305
# 5 -5.4738 -12.8272 -2.8605 -9.3384 36.0608 -0.2344
# 6 -5.6065 -10.7916 -5.4904 2.3305 -0.2344 39.4010
#
#
#
# Elastic Compliance Matrix: (Units=1/GPa)
#
#
# Indices 1 2 3 4 5 6 
#
# 1 0.007418 -0.002202 -0.001400 -0.000488 0.000107 0.000287
# 2 -0.002202 0.009865 -0.002006 -0.001425 0.002661 0.002209
# 3 -0.001400 -0.002006 0.014762 -0.007670 -0.001730 0.001752
# 4 -0.000488 -0.001425 -0.007670 0.028714 0.006226 -0.003190
# 5 0.000107 0.002661 -0.001730 0.006226 0.030171 0.000314
# 6 0.000287 0.002209 0.001752 -0.003190 0.000314 0.026461
#
#
# Mechanical properties :
#
#
# Convention : Reuss Voigt Hill
#
# Bulk Modulus (GPa) = 48.00808 63.42378 55.71593
# Shear Modulus (GPa) = 36.88701 41.83209 39.35955
#
# Velocity S-wave (km/s) = 4.02077 4.28181 4.15334
# Velocity P-wave (km/s) = 6.52657 7.22788 6.88616
#
# Compressibility (1/GPa) = 0.02082983
#
# Stress axis : x y z
#
# Youngs Moduli (GPa) = 134.80884 101.36724 67.74141
#
# Poissons Ratio (x) = 0.22321 0.09484
# Poissons Ratio (y) = 0.29685 0.13586
# Poissons Ratio (z) = 0.18874 0.20330
#
# Static dielectric constant tensor:
#      x y z
#    x 4.052270 0.072910 -0.087120 
#    y 0.072910 4.274560 0.188870 
#    z -0.087120 0.188870 4.229260 
# 
# 
# High freq. dielectric constant tensor:
#      x y z
#    x 1.913140 -0.000100 -0.004350 
#    y -0.000100 1.908760 0.016740 
#    z -0.004350 0.016740 1.903610 
# 
# From -- ./inp_files/226816.got.cif
#   From: 2010.06.25/outbox.cif.g09.slc.cpg/sg2_114_cif.got.tgz:226816.got - 2010.06.27 13:26:56.
