data_PCOD8032581
_publ_section_title
;
Structure prediction by ZEFSAII (Michael W. Deem and Ramdas Pophale) SiO2 
 PCOD8032581
Probable space group: P -1
;
_chemical_formula_sum "Si O2"
_cell_formula_units_Z 16
_cell_length_a 9.808224
_cell_length_b 17.807207
_cell_length_c 6.579489
_cell_angle_alpha 73.159024
_cell_angle_beta 112.529476
_cell_angle_gamma 133.311805
_cell_volume 771.729113
_symmetry_space_group_name_H-M "P -1"
_symmetry_group_IT_number 2
_symmetry_cell_setting 'triclinic'
loop_
_space_group_symop_operation_xyz
x,y,z
-x,-y,-z
loop_
_atom_site_type_symbol
_atom_site_label
_atom_site_fract_x
_atom_site_fract_y
_atom_site_fract_z
Si Si1 0.249539 0.239888 0.389211
Si Si2 0.281428 0.398527 0.993278
Si Si3 0.034342 0.224039 0.672268
Si Si4 0.030534 0.934523 0.934319
Si Si5 0.266973 0.768378 0.696614
Si Si6 0.544141 0.924734 0.061906
Si Si7 0.610566 0.261037 0.603001
Si Si8 0.033394 0.596955 0.027730
O O1 0.276833 0.330455 0.215750
O O2 0.130310 0.213301 0.546515
O O3 0.456216 0.276220 0.544259
O O4 0.141971 0.137684 0.269596
O O5 0.500000 0.500000 0.000000
O O6 0.189153 0.335659 0.779227
O O7 0.164306 0.434031 0.975360
O O8 0.840528 0.201614 0.513865
O O9 0.955097 0.135270 0.858699
O O10 0.227077 0.011495 0.859182
O O11 0.000000 0.000000 0.000000
O O12 0.353979 0.733736 0.621340
O O13 0.451340 0.865369 0.844305
O O14 0.110091 0.678070 0.828645
O O15 0.457106 0.845849 0.261659
O O16 0.500000 0.000000 0.000000
O O17 0.811721 0.357091 0.740729
O O18 0.000000 0.500000 0.000000
#
# Coordination Sequence:
#
# PCOD8032581 Si02
#       8
#     2   2   2   2   2   2   2   2
#     4  11  25  43  67  96 135 172 216 267 322 385
#     4  11  26  45  68  98 129 167 216 267 328 389
#     4  11  23  43  68  91 134 175 212 268 323 383
#     4  11  24  41  63  96 134 172 218 267 316 375
#     4  11  23  43  66  93 133 171 212 265 325 381
#     4  11  24  39  65  96 130 170 221 264 313 382
#     4  11  25  43  65  98 132 170 216 265 321 384
#     4  11  26  45  68  97 131 165 215 271 323 391
#
# _framework density 20.732664
#
# number of rings (size 3 to 8) (size 9 to 14) (size 15 to 20)
#    0.000    1.000    2.500    3.000    7.000   10.000 
#    0.000    0.000    0.000    0.000    0.000    0.000 
#    0.000    0.000    0.000    0.000    0.000    0.000 
#
# Total GULP energy -198502.500810 kJ/mol
# GULP energy per Si atom -12406.406301 kJ/mol
# Density = 2.068548 g / cm^3
# Si number density = 20.732664 Si / 1000 Ang^3
#
#
#
# Elastic Constant Matrix: (Units=GPa)
#
#
# Indices 1 2 3 4 5 6 
#
# 1 126.1848 43.4536 17.2759 10.8701 -0.3564 -0.9489
# 2 43.4536 113.4950 26.1612 19.5549 -3.5040 2.0104
# 3 17.2759 26.1612 86.2213 14.7388 -3.9741 0.2688
# 4 10.8701 19.5549 14.7388 15.0245 -2.5356 -3.5841
# 5 -0.3564 -3.5040 -3.9741 -2.5356 43.2002 3.3956
# 6 -0.9489 2.0104 0.2688 -3.5841 3.3956 41.3400
#
#
#
# Elastic Compliance Matrix: (Units=1/GPa)
#
#
# Indices 1 2 3 4 5 6 
#
# 1 0.009240 -0.003047 -0.000574 -0.002170 -0.000367 0.000206
# 2 -0.003047 0.012582 -0.000838 -0.013758 0.000259 -0.001890
# 3 -0.000574 -0.000838 0.014145 -0.012558 0.000586 -0.001201
# 4 -0.002170 -0.013758 -0.012558 0.101045 0.002917 0.009222
# 5 -0.000367 0.000259 0.000586 0.002917 0.023525 -0.001704
# 6 0.000206 -0.001890 -0.001201 0.009222 -0.001704 0.025234
#
#
# Mechanical properties :
#
#
# Convention : Reuss Voigt Hill
#
# Bulk Modulus (GPa) = 36.96700 55.52026 46.24363
# Shear Modulus (GPa) = 24.54543 35.84696 30.19620
#
# Velocity S-wave (km/s) = 3.44452 4.16265 3.82049
# Velocity P-wave (km/s) = 5.80419 7.06688 6.46643
#
# Compressibility (1/GPa) = 0.02705116
#
# Stress axis : x y z
#
# Youngs Moduli (GPa) = 108.22514 79.47607 70.69843
#
# Poissons Ratio (x) = 0.24213 0.04056
# Poissons Ratio (y) = 0.32972 0.05922
# Poissons Ratio (z) = 0.06208 0.06658
#
# Static dielectric constant tensor:
#      x y z
#    x 3.566510 -0.138130 0.011380 
#    y -0.138130 4.288920 0.026630 
#    z 0.011380 0.026630 3.953870 
# 
# 
# High freq. dielectric constant tensor:
#      x y z
#    x 1.827180 0.001850 -0.001720 
#    y 0.001850 1.813920 0.004610 
#    z -0.001720 0.004610 1.823900 
# 
# From -- ./inp_files/46227.got.cif
#   From: 2010.06.25/outbox.cif.g09.slc.cpg/sg2_24_cif.got.tgz:46227.got - 2010.06.27 13:26:56.
