data_PCOD8032231
_publ_section_title
;
Structure prediction by ZEFSAII (Michael W. Deem and Ramdas Pophale) SiO2 
 PCOD8032231
Probable space group: P -1
;
_chemical_formula_sum "Si O2"
_cell_formula_units_Z 14
_cell_length_a 10.970692
_cell_length_b 6.668902
_cell_length_c 13.953293
_cell_angle_alpha 114.441016
_cell_angle_beta 42.028302
_cell_angle_gamma 112.346512
_cell_volume 617.752959
_symmetry_space_group_name_H-M "P -1"
_symmetry_group_IT_number 2
_symmetry_cell_setting 'triclinic'
loop_
_space_group_symop_operation_xyz
x,y,z
-x,-y,-z
loop_
_atom_site_type_symbol
_atom_site_label
_atom_site_fract_x
_atom_site_fract_y
_atom_site_fract_z
Si Si1 0.940308 0.743329 0.327648
Si Si2 0.948999 0.366064 0.098577
Si Si3 0.521145 0.400175 0.825617
Si Si4 0.241027 0.059920 0.844845
Si Si5 0.714828 0.047767 0.408374
Si Si6 0.165577 0.492857 0.472442
Si Si7 0.638273 0.205408 0.917906
O O1 0.908152 0.518223 0.240867
O O2 0.894508 0.706805 0.459180
O O3 0.152202 0.853056 0.211434
O O4 0.787649 0.897386 0.418172
O O5 0.769685 0.184612 0.147497
O O6 0.000000 0.500000 0.000000
O O7 0.105618 0.213192 0.005927
O O8 0.441472 0.194040 0.764278
O O9 0.671904 0.547431 0.703035
O O10 0.593174 0.276757 0.850917
O O11 0.375683 0.571135 0.968400
O O12 0.181721 0.015396 0.760576
O O13 0.777562 0.297095 0.451920
O O14 0.500000 0.000000 0.500000
O O15 0.000000 0.500000 0.500000
O O16 0.500000 0.000000 0.000000
#
# Coordination Sequence:
#
# PCOD8032231 Si02
#       7
#     2   2   2   2   2   2   2
#     4  12  26  46  75 108 145 196 248 296 372 441
#     4  11  23  41  70 108 138 186 241 300 370 433
#     4  11  25  47  71 105 149 187 245 303 369 430
#     4  11  23  42  70 101 145 184 235 311 361 427
#     4  12  27  47  70 105 145 191 248 301 365 438
#     4  12  27  49  73 104 154 196 241 301 370 447
#     4  11  27  45  74 108 142 193 249 302 362 448
#
# _framework density 22.662780000000001
#
# number of rings (size 3 to 8) (size 9 to 14) (size 15 to 20)
#    0.000    0.571    7.143    0.000    4.000    2.286 
#    2.571    0.000    0.000    0.000    0.000    0.000 
#    0.000    0.000    0.000    0.000    0.000    0.000 
#
# Total GULP energy -173490.996900 kJ/mol
# GULP energy per Si atom -12392.214064 kJ/mol
# Density = 2.261120 g / cm^3
# Si number density = 22.662780 Si / 1000 Ang^3
#
#
#
# Elastic Constant Matrix: (Units=GPa)
#
#
# Indices 1 2 3 4 5 6 
#
# 1 115.4740 46.2216 38.3226 -17.1757 -5.8302 -3.8116
# 2 46.2216 110.9933 30.5125 -31.6541 -4.4769 -3.3805
# 3 38.3226 30.5125 99.5444 -32.2145 -0.1957 -13.1372
# 4 -17.1757 -31.6541 -32.2145 43.1044 -1.3341 1.6988
# 5 -5.8302 -4.4769 -0.1957 -1.3341 45.6473 -3.3021
# 6 -3.8116 -3.3805 -13.1372 1.6988 -3.3021 47.0454
#
#
#
# Elastic Compliance Matrix: (Units=1/GPa)
#
#
# Indices 1 2 3 4 5 6 
#
# 1 0.011312 -0.004005 -0.003478 -0.000993 0.000991 -0.000237
# 2 -0.004005 0.012985 0.000262 0.008149 0.001035 0.000460
# 3 -0.003478 0.000262 0.014966 0.009857 0.000192 0.003574
# 4 -0.000993 0.008149 0.009857 0.036132 0.001922 0.002088
# 5 0.000991 0.001035 0.000192 0.001922 0.022315 0.001705
# 6 -0.000237 0.000460 0.003574 0.002088 0.001705 0.022312
#
#
# Mechanical properties :
#
#
# Convention : Reuss Voigt Hill
#
# Bulk Modulus (GPa) = 40.28848 61.79167 51.04007
# Shear Modulus (GPa) = 35.02889 41.22310 38.12600
#
# Velocity S-wave (km/s) = 3.93575 4.26957 4.10606
# Velocity P-wave (km/s) = 6.20238 7.18544 6.71193
#
# Compressibility (1/GPa) = 0.02482099
#
# Stress axis : x y z
#
# Youngs Moduli (GPa) = 88.40344 77.00997 66.81669
#
# Poissons Ratio (x) = 0.30842 0.23238
# Poissons Ratio (y) = 0.35405 -0.01748
# Poissons Ratio (z) = 0.30746 -0.02015
#
# Static dielectric constant tensor:
#      x y z
#    x 4.013540 0.310430 0.001150 
#    y 0.310430 3.273280 0.850930 
#    z 0.001150 0.850930 3.318270 
# 
# 
# High freq. dielectric constant tensor:
#      x y z
#    x 1.889870 0.012200 0.012200 
#    y 0.012200 1.901790 -0.010130 
#    z 0.012200 -0.010130 1.905570 
# 
# From -- ./inp_files/101314.got.cif
#   From: 2010.06.25/outbox.cif.g09.slc.cpg/sg2_51_cif.got.tgz:101314.got - 2010.06.27 13:26:56.
