data_PCOD8032813
_publ_section_title
;
Structure prediction by ZEFSAII (Michael W. Deem and Ramdas Pophale) SiO2 
 PCOD8032813
Probable space group: P -1
;
_chemical_formula_sum "Si O2"
_cell_formula_units_Z 16
_cell_length_a 14.109701
_cell_length_b 19.876345
_cell_length_c 13.421025
_cell_angle_alpha 24.413225
_cell_angle_beta 136.706037
_cell_angle_gamma 151.992326
_cell_volume 672.037382
_symmetry_space_group_name_H-M "P -1"
_symmetry_group_IT_number 2
_symmetry_cell_setting 'triclinic'
loop_
_space_group_symop_operation_xyz
x,y,z
-x,-y,-z
loop_
_atom_site_type_symbol
_atom_site_label
_atom_site_fract_x
_atom_site_fract_y
_atom_site_fract_z
Si Si1 0.472950 0.351381 0.035277
Si Si2 0.065303 0.763140 0.467582
Si Si3 0.304998 0.510555 0.787427
Si Si4 0.796168 0.845181 0.483881
Si Si5 0.239451 0.286126 0.586107
Si Si6 0.582998 0.097422 0.770402
Si Si7 0.896439 0.155918 0.834144
Si Si8 0.811859 0.247163 0.941158
O O1 0.324437 0.341288 0.997259
O O2 0.584177 0.552298 0.758542
O O3 0.658497 0.446869 0.122804
O O4 0.311635 0.055621 0.279861
O O5 0.998644 0.740039 0.334478
O O6 0.872907 0.651656 0.544078
O O7 0.044472 0.543472 0.754217
O O8 0.471655 0.779812 0.491223
O O9 0.066569 0.364038 0.772371
O O10 0.847880 0.822603 0.445510
O O11 0.000000 0.000000 0.500000
O O12 0.775107 0.020358 0.222905
O O13 0.500000 0.500000 0.500000
O O14 0.148371 0.073762 0.879875
O O15 0.673241 0.055517 0.811850
O O16 0.763725 0.272871 0.759598
O O17 0.359976 0.829453 0.009340
#
# Coordination Sequence:
#
# PCOD8032813 Si02
#       8
#     2   2   2   2   2   2   2   2
#     4  11  26  46  72 104 145 194 238 298 361 437
#     4  12  27  45  71 113 148 186 240 317 366 418
#     4  11  23  43  74 100 140 189 247 284 357 437
#     4  12  27  50  79 104 146 201 247 287 364 457
#     4  12  26  43  69 107 150 191 241 305 364 432
#     4  11  23  43  74 107 141 192 244 305 349 441
#     4  12  23  41  73 106 142 187 248 297 363 426
#     4  11  25  45  74 111 146 188 245 301 370 430
#
# _framework density 23.808201
#
# number of rings (size 3 to 8) (size 9 to 14) (size 15 to 20)
#    0.000    0.500    5.000    3.000    5.250    0.000 
#    0.000    6.250    0.000    0.000    0.000    0.000 
#    0.000    0.000    0.000    0.000    0.000    0.000 
#
# Total GULP energy -198212.314262 kJ/mol
# GULP energy per Si atom -12388.269641 kJ/mol
# Density = 2.375401 g / cm^3
# Si number density = 23.808201 Si / 1000 Ang^3
#
#
#
# Elastic Constant Matrix: (Units=GPa)
#
#
# Indices 1 2 3 4 5 6 
#
# 1 105.0121 29.1425 38.6882 5.8367 -16.5997 -17.2649
# 2 29.1425 105.0588 51.7958 -0.6099 1.5773 -10.8997
# 3 38.6882 51.7958 122.5297 -14.6921 10.7323 -27.7164
# 4 5.8367 -0.6099 -14.6921 40.6158 2.5045 -1.1725
# 5 -16.5997 1.5773 10.7323 2.5045 20.8019 -1.4097
# 6 -17.2649 -10.8997 -27.7164 -1.1725 -1.4097 23.4950
#
#
#
# Elastic Compliance Matrix: (Units=1/GPa)
#
#
# Indices 1 2 3 4 5 6 
#
# 1 0.015494 -0.001538 -0.004983 -0.004881 0.016013 0.005511
# 2 -0.001538 0.012416 -0.005436 -0.001655 0.000711 -0.001823
# 3 -0.004983 -0.005436 0.017199 0.008022 -0.012471 0.013757
# 4 -0.004881 -0.001655 0.008022 0.029048 -0.011005 0.005898
# 5 0.016013 0.000711 -0.012471 -0.011005 0.068620 0.000953
# 6 0.005511 -0.001823 0.013757 0.005898 0.000953 0.062347
#
#
# Mechanical properties :
#
#
# Convention : Reuss Voigt Hill
#
# Bulk Modulus (GPa) = 47.18317 63.53930 55.36123
# Shear Modulus (GPa) = 21.17724 31.18079 26.17902
#
# Velocity S-wave (km/s) = 2.98567 3.62286 3.31959
# Velocity P-wave (km/s) = 5.63442 6.65177 6.16412
#
# Compressibility (1/GPa) = 0.02119400
#
# Stress axis : x y z
#
# Youngs Moduli (GPa) = 64.54149 80.54321 58.14397
#
# Poissons Ratio (x) = 0.12388 0.28974
# Poissons Ratio (y) = 0.09927 0.31606
# Poissons Ratio (z) = 0.32162 0.43782
#
# Static dielectric constant tensor:
#      x y z
#    x 4.009740 -0.189570 -0.225420 
#    y -0.189570 4.129660 -0.137810 
#    z -0.225420 -0.137810 4.877900 
# 
# 
# High freq. dielectric constant tensor:
#      x y z
#    x 1.942670 -0.009190 -0.010730 
#    y -0.009190 1.918010 -0.006090 
#    z -0.010730 -0.006090 1.967180 
# 
# From -- ./inp_files/456919.got.cif
#   From: 2010.06.25/outbox.cif.g09.slc.cpg/sg2_229_cif.got.tgz:456919.got - 2010.06.27 13:26:56.
