data_PCOD8032526
_publ_section_title
;
Structure prediction by ZEFSAII (Michael W. Deem and Ramdas Pophale) SiO2 
 PCOD8032526
Probable space group: P -1
;
_chemical_formula_sum "Si O2"
_cell_formula_units_Z 16
_cell_length_a 11.397626
_cell_length_b 9.465447
_cell_length_c 8.952250
_cell_angle_alpha 129.703856
_cell_angle_beta 100.636935
_cell_angle_gamma 87.655152
_cell_volume 726.480770
_symmetry_space_group_name_H-M "P -1"
_symmetry_group_IT_number 2
_symmetry_cell_setting 'triclinic'
loop_
_space_group_symop_operation_xyz
x,y,z
-x,-y,-z
loop_
_atom_site_type_symbol
_atom_site_label
_atom_site_fract_x
_atom_site_fract_y
_atom_site_fract_z
Si Si1 0.560289 0.312088 0.373239
Si Si2 0.815958 0.939950 0.521998
Si Si3 0.581714 0.975205 0.643071
Si Si4 0.102934 0.444227 0.092442
Si Si5 0.303486 0.382408 0.897327
Si Si6 0.961695 0.984309 0.153771
Si Si7 0.450187 0.688108 0.967477
Si Si8 0.180307 0.755004 0.518938
O O1 0.500000 0.500000 0.500000
O O2 0.482999 0.157508 0.341464
O O3 0.561355 0.251842 0.162908
O O4 0.695372 0.324542 0.469617
O O5 0.704132 0.897704 0.576189
O O6 0.803666 0.763295 0.290017
O O7 0.809264 0.119690 0.541788
O O8 0.933860 0.959356 0.663721
O O9 0.500000 0.000000 0.500000
O O10 0.616985 0.173922 0.855603
O O11 0.097128 0.567696 0.325628
O O12 0.231825 0.498974 0.076838
O O13 0.090939 0.226926 0.980632
O O14 0.000000 0.500000 0.000000
O O15 0.375750 0.491999 0.853383
O O16 0.407694 0.292090 0.949907
O O17 0.866321 0.130900 0.273358
O O18 0.000000 0.000000 0.000000
#
# Coordination Sequence:
#
# PCOD8032526 Si02
#       8
#     2   2   2   2   2   2   2   2
#     4  12  27  45  72 111 151 187 238 305 370 434
#     4  12  23  46  75 103 145 190 244 298 354 437
#     4  12  24  43  71 106 143 195 237 292 366 440
#     4  12  25  44  78 105 139 192 246 298 361 434
#     4  11  23  42  74 104 140 187 244 292 358 436
#     4  12  30  49  74 110 146 190 250 311 365 423
#     4  11  25  42  68 105 144 186 236 293 362 432
#     4  12  25  49  76 105 146 196 246 298 364 441
#
# _framework density 22.023983999999999
#
# number of rings (size 3 to 8) (size 9 to 14) (size 15 to 20)
#    0.000    0.250    5.000    3.750    3.500    3.500 
#    0.000    0.000    0.000    0.000    0.000    0.000 
#    0.000    0.000    0.000    0.000    0.000    0.000 
#
# Total GULP energy -198343.715256 kJ/mol
# GULP energy per Si atom -12396.482203 kJ/mol
# Density = 2.197386 g / cm^3
# Si number density = 22.023984 Si / 1000 Ang^3
#
#
#
# Elastic Constant Matrix: (Units=GPa)
#
#
# Indices 1 2 3 4 5 6 
#
# 1 101.6046 36.1305 30.0006 1.1884 -6.3208 -4.6773
# 2 36.1305 98.6546 40.8293 -10.7853 5.7940 -1.0507
# 3 30.0006 40.8293 134.9760 7.1158 -1.7204 0.7393
# 4 1.1884 -10.7853 7.1158 42.1975 0.6771 -4.9907
# 5 -6.3208 5.7940 -1.7204 0.6771 41.8745 0.8834
# 6 -4.6773 -1.0507 0.7393 -4.9907 0.8834 35.5629
#
#
#
# Elastic Compliance Matrix: (Units=1/GPa)
#
#
# Indices 1 2 3 4 5 6 
#
# 1 0.011885 -0.004028 -0.001347 -0.001023 0.002286 0.001272
# 2 -0.004028 0.013707 -0.003518 0.004328 -0.002732 0.000624
# 3 -0.001347 -0.003518 0.008916 -0.002474 0.000707 -0.000831
# 4 -0.001023 0.004328 -0.002474 0.025708 -0.001348 0.003686
# 5 0.002286 -0.002732 0.000707 -0.001348 0.024667 -0.000597
# 6 0.001272 0.000624 -0.000831 0.003686 -0.000597 0.028854
#
#
# Mechanical properties :
#
#
# Convention : Reuss Voigt Hill
#
# Bulk Modulus (GPa) = 59.79534 61.01733 60.40634
# Shear Modulus (GPa) = 36.47050 39.14529 37.80790
#
# Velocity S-wave (km/s) = 4.07374 4.22049 4.14777
# Velocity P-wave (km/s) = 7.02398 7.17740 7.10110
#
# Compressibility (1/GPa) = 0.01672371
#
# Stress axis : x y z
#
# Youngs Moduli (GPa) = 84.14145 72.95314 112.15531
#
# Poissons Ratio (x) = 0.29383 0.15109
# Poissons Ratio (y) = 0.33889 0.39452
# Poissons Ratio (z) = 0.11335 0.25662
#
# Static dielectric constant tensor:
#      x y z
#    x 4.187310 -0.055240 -0.225110 
#    y -0.055240 3.878360 0.029210 
#    z -0.225110 0.029210 4.302160 
# 
# 
# High freq. dielectric constant tensor:
#      x y z
#    x 1.875180 -0.000450 -0.006580 
#    y -0.000450 1.863040 0.003350 
#    z -0.006580 0.003350 1.886410 
# 
# From -- ./inp_files/245847.got.cif
#   From: 2010.06.25/outbox.cif.g09.slc.cpg/sg2_123_cif.got.tgz:245847.got - 2010.06.27 13:26:56.
