data_PCOD8032533
_publ_section_title
;
Structure prediction by ZEFSAII (Michael W. Deem and Ramdas Pophale) SiO2 
 PCOD8032533
Probable space group: P -1
;
_chemical_formula_sum "Si O2"
_cell_formula_units_Z 16
_cell_length_a 9.685133
_cell_length_b 15.048171
_cell_length_c 9.855770
_cell_angle_alpha 94.206751
_cell_angle_beta 133.005310
_cell_angle_gamma 55.169466
_cell_volume 732.915730
_symmetry_space_group_name_H-M "P -1"
_symmetry_group_IT_number 2
_symmetry_cell_setting 'triclinic'
loop_
_space_group_symop_operation_xyz
x,y,z
-x,-y,-z
loop_
_atom_site_type_symbol
_atom_site_label
_atom_site_fract_x
_atom_site_fract_y
_atom_site_fract_z
Si Si1 0.746504 0.023088 0.314122
Si Si2 0.610461 0.738838 0.410410
Si Si3 0.635329 0.763785 0.136866
Si Si4 0.379922 0.117581 0.341279
Si Si5 0.796160 0.509469 0.211746
Si Si6 0.509389 0.511005 0.788705
Si Si7 0.947962 0.240862 0.624386
Si Si8 0.830201 0.257592 0.847225
O O1 0.558168 0.082859 0.326490
O O2 0.595193 0.114137 0.093676
O O3 0.000000 0.000000 0.500000
O O4 0.850452 0.888607 0.340984
O O5 0.589040 0.806875 0.268363
O O6 0.633588 0.789391 0.566460
O O7 0.882193 0.586664 0.564309
O O8 0.345464 0.767684 0.230278
O O9 0.640549 0.655430 0.115717
O O10 0.920563 0.705752 0.269953
O O11 0.500000 0.000000 0.500000
O O12 0.086289 0.181611 0.108422
O O13 0.683739 0.489971 0.258402
O O14 0.741558 0.474531 0.033214
O O15 0.341476 0.649928 0.628884
O O16 0.654508 0.407178 0.754660
O O17 0.918010 0.208781 0.747973
#
# Coordination Sequence:
#
# PCOD8032533 Si02
#       8
#     2   2   2   2   2   2   2   2
#     4  12  28  50  73 104 143 194 245 289 362 436
#     4  12  25  46  74 107 144 190 244 295 357 428
#     4  12  24  44  74 103 144 188 241 293 354 432
#     4  12  29  48  72 108 148 188 240 301 358 426
#     4  11  23  42  74 108 140 190 240 297 356 430
#     4  11  23  44  73 106 147 184 240 299 363 416
#     4  12  25  46  73 101 145 192 236 299 360 427
#     4  12  26  47  71 109 146 186 238 301 367 418
#
# _framework density 21.830613
#
# number of rings (size 3 to 8) (size 9 to 14) (size 15 to 20)
#    0.000    0.250    5.000    4.125    3.500    0.500 
#    0.000    1.875    0.000    0.000    0.000    0.000 
#    0.000    0.000    0.000    0.000    0.000    0.000 
#
# Total GULP energy -198453.943959 kJ/mol
# GULP energy per Si atom -12403.371497 kJ/mol
# Density = 2.178093 g / cm^3
# Si number density = 21.830613 Si / 1000 Ang^3
#
#
#
# Elastic Constant Matrix: (Units=GPa)
#
#
# Indices 1 2 3 4 5 6 
#
# 1 109.8680 30.9323 70.9870 0.4472 6.6464 -6.9239
# 2 30.9323 99.7411 42.3373 -7.8871 -6.8848 -6.3966
# 3 70.9870 42.3373 151.2112 -14.6081 6.5689 -0.2000
# 4 0.4472 -7.8871 -14.6081 34.3677 7.2279 -4.8087
# 5 6.6464 -6.8848 6.5689 7.2279 43.3723 2.2837
# 6 -6.9239 -6.3966 -0.2000 -4.8087 2.2837 34.2496
#
#
#
# Elastic Compliance Matrix: (Units=1/GPa)
#
#
# Indices 1 2 3 4 5 6 
#
# 1 0.013825 -0.001815 -0.006190 -0.002694 -0.001132 0.002117
# 2 -0.001815 0.012032 -0.002460 0.001547 0.002201 0.001936
# 3 -0.006190 -0.002460 0.010697 0.004296 -0.001729 -0.000930
# 4 -0.002694 0.001547 0.004296 0.033203 -0.005779 0.004817
# 5 -0.001132 0.002201 -0.001729 -0.005779 0.024925 -0.002301
# 6 0.002117 0.001936 -0.000930 0.004817 -0.002301 0.030811
#
#
# Mechanical properties :
#
#
# Convention : Reuss Voigt Hill
#
# Bulk Modulus (GPa) = 64.00994 72.14816 68.07905
# Shear Modulus (GPa) = 32.97445 36.83550 34.90498
#
# Velocity S-wave (km/s) = 3.89069 4.11217 4.00296
# Velocity P-wave (km/s) = 7.04046 7.46106 7.25381
#
# Compressibility (1/GPa) = 0.01562257
#
# Stress axis : x y z
#
# Youngs Moduli (GPa) = 72.33026 83.11445 93.48302
#
# Poissons Ratio (x) = 0.15088 0.57870
# Poissons Ratio (y) = 0.13130 0.22998
# Poissons Ratio (z) = 0.44776 0.20447
#
# Static dielectric constant tensor:
#      x y z
#    x 3.947600 -0.089400 0.027310 
#    y -0.089400 4.042330 0.094580 
#    z 0.027310 0.094580 4.220250 
# 
# 
# High freq. dielectric constant tensor:
#      x y z
#    x 1.861630 -0.003240 0.001910 
#    y -0.003240 1.861860 0.004530 
#    z 0.001910 0.004530 1.877760 
# 
# From -- ./inp_files/202237.got.cif
#   From: 2010.06.25/outbox.cif.g09.slc.cpg/sg2_102_cif.got.tgz:202237.got - 2010.06.27 13:26:56.
