data_PCOD8032169
_publ_section_title
;
Structure prediction by ZEFSAII (Michael W. Deem and Ramdas Pophale) SiO2 
 PCOD8032169
Probable space group: P -1
;
_chemical_formula_sum "Si O2"
_cell_formula_units_Z 16
_cell_length_a 20.890724
_cell_length_b 14.639928
_cell_length_c 9.171370
_cell_angle_alpha 61.407828
_cell_angle_beta 70.043043
_cell_angle_gamma 18.869975
_cell_volume 732.540599
_symmetry_space_group_name_H-M "P -1"
_symmetry_group_IT_number 2
_symmetry_cell_setting 'triclinic'
loop_
_space_group_symop_operation_xyz
x,y,z
-x,-y,-z
loop_
_atom_site_type_symbol
_atom_site_label
_atom_site_fract_x
_atom_site_fract_y
_atom_site_fract_z
Si Si1 0.890808 0.580911 0.404409
Si Si2 0.067744 0.706669 0.483938
Si Si3 0.888605 0.875128 0.037455
Si Si4 0.271817 0.798811 0.382537
Si Si5 0.134575 0.326186 0.171010
Si Si6 0.424268 0.359195 0.528587
Si Si7 0.121499 0.924135 0.920525
Si Si8 0.426952 0.800268 0.784404
O O1 0.870787 0.485582 0.512668
O O2 0.000000 0.500000 0.500000
O O3 0.040731 0.372014 0.308665
O O4 0.649136 0.976699 0.264571
O O5 0.284830 0.456985 0.539071
O O6 0.932937 0.876784 0.604795
O O7 0.915508 0.995708 0.279627
O O8 0.086527 0.512501 0.122511
O O9 0.976066 0.852891 0.058399
O O10 0.755286 0.018315 0.166503
O O11 0.752767 0.101464 0.825500
O O12 0.500000 0.500000 0.500000
O O13 0.271009 0.674896 0.458493
O O14 0.393021 0.934196 0.267658
O O15 0.000000 0.500000 0.000000
O O16 0.541324 0.231930 0.388614
O O17 0.371003 0.539950 0.032982
O O18 0.000000 0.000000 0.000000
#
# Coordination Sequence:
#
# PCOD8032169 Si02
#       8
#     2   2   2   2   2   2   2   2
#     4  11  23  43  69  99 134 179 231 278 332 412
#     4  12  26  44  70 100 140 183 221 284 350 401
#     4  11  24  42  69  97 132 175 224 287 325 403
#     4  12  25  44  71  99 133 184 234 276 342 407
#     4  11  24  44  68  99 131 177 233 277 335 410
#     4  12  25  44  67 102 139 176 227 286 346 407
#     4  12  24  41  63 101 137 171 222 274 341 404
#     4  11  23  41  67  99 135 171 226 273 340 391
#
# _framework density 21.841792999999999
#
# number of rings (size 3 to 8) (size 9 to 14) (size 15 to 20)
#    0.000    0.500    3.750    5.250    1.750    2.500 
#    0.000    2.500    0.000    0.000    0.000    0.000 
#    0.000    0.000    0.000    0.000    0.000    0.000 
#
# Total GULP energy -198229.814628 kJ/mol
# GULP energy per Si atom -12389.363414 kJ/mol
# Density = 2.179208 g / cm^3
# Si number density = 21.841793 Si / 1000 Ang^3
#
#
#
# Elastic Constant Matrix: (Units=GPa)
#
#
# Indices 1 2 3 4 5 6 
#
# 1 149.5523 42.8158 39.8943 -3.1070 -15.0776 11.7907
# 2 42.8158 73.5059 35.1091 -2.0610 -3.4423 16.8799
# 3 39.8943 35.1091 116.2550 -4.5429 3.4741 -11.5241
# 4 -3.1070 -2.0610 -4.5429 47.0232 5.1541 -10.3857
# 5 -15.0776 -3.4423 3.4741 5.1541 35.7786 -8.3241
# 6 11.7907 16.8799 -11.5241 -10.3857 -8.3241 21.4516
#
#
#
# Elastic Compliance Matrix: (Units=1/GPa)
#
#
# Indices 1 2 3 4 5 6 
#
# 1 0.008763 -0.003163 -0.002453 -0.000756 0.003081 -0.002816
# 2 -0.003163 0.026365 -0.009831 -0.005913 -0.003635 -0.028562
# 3 -0.002453 -0.009831 0.014532 0.005074 0.000417 0.019509
# 4 -0.000756 -0.005913 0.005074 0.025954 -0.000420 0.020197
# 5 0.003081 -0.003635 0.000417 -0.000420 0.032092 0.013641
# 6 -0.002816 -0.028562 0.019509 0.020197 0.013641 0.096192
#
#
# Mechanical properties :
#
#
# Convention : Reuss Voigt Hill
#
# Bulk Modulus (GPa) = 53.28333 63.88351 58.58342
# Shear Modulus (GPa) = 20.74279 35.61695 28.17987
#
# Velocity S-wave (km/s) = 3.08504 4.04255 3.59581
# Velocity P-wave (km/s) = 6.09410 7.14852 6.64227
#
# Compressibility (1/GPa) = 0.01876760
#
# Stress axis : x y z
#
# Youngs Moduli (GPa) = 114.11082 37.92844 68.81364
#
# Poissons Ratio (x) = 0.11998 0.16878
# Poissons Ratio (y) = 0.36097 0.67648
# Poissons Ratio (z) = 0.27988 0.37286
#
# Static dielectric constant tensor:
#      x y z
#    x 4.124080 0.204910 -0.257080 
#    y 0.204910 4.997740 -0.011970 
#    z -0.257080 -0.011970 4.152160 
# 
# 
# High freq. dielectric constant tensor:
#      x y z
#    x 1.862970 0.016010 -0.013590 
#    y 0.016010 1.849050 -0.007700 
#    z -0.013590 -0.007700 1.875500 
# 
# From -- ./inp_files/347538.got.cif
#   From: 2010.06.25/outbox.cif.g09.slc.cpg/sg2_174_cif.got.tgz:347538.got - 2010.06.27 13:26:56.
