data_PCOD8032129
_publ_section_title
;
Structure prediction by ZEFSAII (Michael W. Deem and Ramdas Pophale) SiO2 
 PCOD8032129
Probable space group: P -1
;
_chemical_formula_sum "Si O2"
_cell_formula_units_Z 14
_cell_length_a 8.613571
_cell_length_b 8.840033
_cell_length_c 19.976564
_cell_angle_alpha 49.810381
_cell_angle_beta 119.697290
_cell_angle_gamma 147.242775
_cell_volume 624.603085
_symmetry_space_group_name_H-M "P -1"
_symmetry_group_IT_number 2
_symmetry_cell_setting 'triclinic'
loop_
_space_group_symop_operation_xyz
x,y,z
-x,-y,-z
loop_
_atom_site_type_symbol
_atom_site_label
_atom_site_fract_x
_atom_site_fract_y
_atom_site_fract_z
Si Si1 0.175588 0.519215 0.480614
Si Si2 0.207940 0.132950 0.656388
Si Si3 0.613990 0.499534 0.757715
Si Si4 0.738428 0.368731 0.942525
Si Si5 0.646181 0.686525 0.909510
Si Si6 0.780868 0.591454 0.203508
Si Si7 0.226642 0.840077 0.624120
O O1 0.303572 0.433694 0.566882
O O2 0.000000 0.500000 0.500000
O O3 0.977210 0.270282 0.448590
O O4 0.442604 0.882552 0.408199
O O5 0.446144 0.268478 0.722890
O O6 0.197199 0.966048 0.642467
O O7 0.883621 0.874134 0.689959
O O8 0.762837 0.448112 0.846277
O O9 0.370893 0.409190 0.771741
O O10 0.651455 0.491534 0.924869
O O11 0.000000 0.500000 0.000000
O O12 0.500000 0.000000 0.000000
O O13 0.437795 0.652460 0.833686
O O14 0.500000 0.500000 0.000000
O O15 0.957108 0.058947 0.874555
O O16 0.884383 0.474769 0.289471
#
# Coordination Sequence:
#
# PCOD8032129 Si02
#       7
#     2   2   2   2   2   2   2
#     4  12  24  43  67  94 129 173 212 257 317 384
#     4  12  24  41  65  96 129 165 211 269 318 370
#     4  11  23  42  64  91 126 170 211 256 320 385
#     4  11  23  41  65  93 125 163 210 261 312 377
#     4  11  24  42  64  92 126 166 208 261 317 374
#     4  11  23  43  63  89 126 168 212 256 311 384
#     4  12  25  42  65  97 129 165 214 268 315 370
#
# _framework density 22.414234
#
# number of rings (size 3 to 8) (size 9 to 14) (size 15 to 20)
#    0.000    0.571    0.000   10.286    0.000    3.429 
#    0.000    0.000    0.000    0.000    0.000    0.000 
#    0.000    0.000    0.000    0.000    0.000    0.000 
#
# Total GULP energy -173594.558418 kJ/mol
# GULP energy per Si atom -12399.611316 kJ/mol
# Density = 2.236322 g / cm^3
# Si number density = 22.414234 Si / 1000 Ang^3
#
#
#
# Elastic Constant Matrix: (Units=GPa)
#
#
# Indices 1 2 3 4 5 6 
#
# 1 65.8023 30.0303 57.5358 0.0198 0.7024 1.4517
# 2 30.0303 147.2214 54.6921 13.8959 -6.0118 7.4771
# 3 57.5358 54.6921 131.5834 7.0634 -0.9611 -3.9700
# 4 0.0198 13.8959 7.0634 63.7627 3.2689 -6.9944
# 5 0.7024 -6.0118 -0.9611 3.2689 37.8186 -5.4394
# 6 1.4517 7.4771 -3.9700 -6.9944 -5.4394 35.2741
#
#
#
# Elastic Compliance Matrix: (Units=1/GPa)
#
#
# Indices 1 2 3 4 5 6 
#
# 1 0.025078 -0.001267 -0.010576 0.001299 -0.001321 -0.001900
# 2 -0.001267 0.008473 -0.002930 -0.001828 0.001129 -0.002262
# 3 -0.010576 -0.002930 0.013554 -0.000607 0.000493 0.002537
# 4 0.001299 -0.001828 -0.000607 0.016582 -0.001281 0.003356
# 5 -0.001321 0.001129 0.000493 -0.001281 0.027320 0.003829
# 6 -0.001900 -0.002262 0.002537 0.003356 0.003829 0.030449
#
#
# Mechanical properties :
#
#
# Convention : Reuss Voigt Hill
#
# Bulk Modulus (GPa) = 56.94459 69.90263 63.42361
# Shear Modulus (GPa) = 31.87689 40.86100 36.36894
#
# Velocity S-wave (km/s) = 3.77526 4.27428 4.03250
# Velocity P-wave (km/s) = 6.66814 7.45746 7.07382
#
# Compressibility (1/GPa) = 0.01756093
#
# Stress axis : x y z
#
# Youngs Moduli (GPa) = 39.87578 118.02628 73.77630
#
# Poissons Ratio (x) = 0.14950 0.78024
# Poissons Ratio (y) = 0.05051 0.21614
# Poissons Ratio (z) = 0.42172 0.34578
#
# Static dielectric constant tensor:
#      x y z
#    x 3.910420 0.157460 0.082410 
#    y 0.157460 5.330870 1.949120 
#    z 0.082410 1.949120 7.465800 
# 
# 
# High freq. dielectric constant tensor:
#      x y z
#    x 1.869260 0.002960 -0.004140 
#    y 0.002960 1.904650 0.005810 
#    z -0.004140 0.005810 1.904030 
# 
# From -- ./inp_files/216881.got.cif
#   From: 2010.06.25/outbox.cif.g09.slc.cpg/sg2_109_cif.got.tgz:216881.got - 2010.06.27 13:26:56.
