data_PCOD8032056
_publ_section_title
;
Structure prediction by ZEFSAII (Michael W. Deem and Ramdas Pophale) SiO2 
 PCOD8032056
Probable space group: P -1
;
_chemical_formula_sum "Si O2"
_cell_formula_units_Z 16
_cell_length_a 20.284047
_cell_length_b 10.514235
_cell_length_c 6.495401
_cell_angle_alpha 116.237343
_cell_angle_beta 63.429734
_cell_angle_gamma 146.561008
_cell_volume 676.045291
_symmetry_space_group_name_H-M "P -1"
_symmetry_group_IT_number 2
_symmetry_cell_setting 'triclinic'
loop_
_space_group_symop_operation_xyz
x,y,z
-x,-y,-z
loop_
_atom_site_type_symbol
_atom_site_label
_atom_site_fract_x
_atom_site_fract_y
_atom_site_fract_z
Si Si1 0.857156 0.853411 0.280376
Si Si2 0.812626 0.007012 0.806474
Si Si3 0.453871 0.019346 0.766259
Si Si4 0.600238 0.924690 0.503834
Si Si5 0.596506 0.635222 0.138186
Si Si6 0.233948 0.751400 0.139694
Si Si7 0.610946 0.370228 0.126644
Si Si8 0.992233 0.783508 0.024280
O O1 0.751311 0.595160 0.143178
O O2 0.948883 0.869905 0.237330
O O3 0.805803 0.874474 0.546914
O O4 0.916845 0.048715 0.170870
O O5 0.782980 0.118234 0.841402
O O6 0.946190 0.207069 0.866143
O O7 0.726252 0.825548 0.981693
O O8 0.500000 0.000000 0.500000
O O9 0.394833 0.057167 0.740001
O O10 0.338540 0.810592 0.927544
O O11 0.578185 0.227006 0.869638
O O12 0.592997 0.745038 0.405039
O O13 0.476131 0.810568 0.688455
O O14 0.720151 0.161148 0.625995
O O15 0.560939 0.445397 0.183494
O O16 0.500000 0.500000 0.000000
O O17 0.111306 0.476336 0.109231
#
# Coordination Sequence:
#
# PCOD8032056 Si02
#       8
#     2   2   2   2   2   2   2   2
#     4  11  26  46  70 102 132 181 234 284 338 403
#     4  12  24  46  69 100 138 177 234 282 342 398
#     4  11  26  43  67 105 139 176 221 273 345 412
#     4  11  23  42  66 102 138 171 219 276 342 408
#     4  12  20  40  67 101 136 171 218 280 342 401
#     4  11  26  45  72 101 136 184 228 278 339 411
#     4  11  23  40  69 100 133 177 219 277 344 405
#     4  11  27  48  68  97 138 180 238 281 338 402
#
# _framework density 23.667054
#
# number of rings (size 3 to 8) (size 9 to 14) (size 15 to 20)
#    0.000    0.750    3.750    3.375    3.500    2.500 
#    2.250    0.000    0.000    0.000    0.000    0.000 
#    0.000    0.000    0.000    0.000    0.000    0.000 
#
# Total GULP energy -198223.053360 kJ/mol
# GULP energy per Si atom -12388.940835 kJ/mol
# Density = 2.361319 g / cm^3
# Si number density = 23.667054 Si / 1000 Ang^3
#
#
#
# Elastic Constant Matrix: (Units=GPa)
#
#
# Indices 1 2 3 4 5 6 
#
# 1 73.2877 18.5875 23.8424 5.8594 6.5445 20.6073
# 2 18.5875 139.9899 53.5213 17.5592 14.5502 18.6439
# 3 23.8424 53.5213 141.0244 14.5021 -3.9033 14.5733
# 4 5.8594 17.5592 14.5021 32.1455 1.2510 5.3332
# 5 6.5445 14.5502 -3.9033 1.2510 41.8767 2.4462
# 6 20.6073 18.6439 14.5733 5.3332 2.4462 36.1258
#
#
#
# Elastic Compliance Matrix: (Units=1/GPa)
#
#
# Indices 1 2 3 4 5 6 
#
# 1 0.016974 -0.000033 -0.001961 -0.000672 -0.002301 -0.008620
# 2 -0.000033 0.009440 -0.003039 -0.003164 -0.003292 -0.002937
# 3 -0.001961 -0.003039 0.008922 -0.001968 0.002298 -0.000777
# 4 -0.000672 -0.003164 -0.001968 0.034215 0.000130 -0.002250
# 5 -0.002301 -0.003292 0.002298 0.000130 0.025574 0.000333
# 6 -0.008620 -0.002937 -0.000777 -0.002250 0.000333 0.034737
#
#
# Mechanical properties :
#
#
# Convention : Reuss Voigt Hill
#
# Bulk Modulus (GPa) = 39.57277 60.68937 50.13107
# Shear Modulus (GPa) = 33.70367 39.25299 36.47833
#
# Velocity S-wave (km/s) = 3.77779 4.07695 3.93021
# Velocity P-wave (km/s) = 5.98212 6.91814 6.46709
#
# Compressibility (1/GPa) = 0.02526990
#
# Stress axis : x y z
#
# Youngs Moduli (GPa) = 58.91369 105.93327 112.07830
#
# Poissons Ratio (x) = 0.00345 0.21981
# Poissons Ratio (y) = 0.00192 0.34064
# Poissons Ratio (z) = 0.11554 0.32197
#
# Static dielectric constant tensor:
#      x y z
#    x 4.685220 0.529910 -0.761510 
#    y 0.529910 4.300460 0.179030 
#    z -0.761510 0.179030 3.977990 
# 
# 
# High freq. dielectric constant tensor:
#      x y z
#    x 1.976560 -0.011150 -0.000730 
#    y -0.011150 1.931080 0.009520 
#    z -0.000730 0.009520 1.944230 
# 
# From -- ./inp_files/71283.got.cif
#   From: 2010.06.25/outbox.cif.g09.slc.cpg/sg2_36_cif.got.tgz:71283.got - 2010.06.27 13:26:56.
