data_PCOD8032414
_publ_section_title
;
Structure prediction by ZEFSAII (Michael W. Deem and Ramdas Pophale) SiO2 
 PCOD8032414
Probable space group: P -1
;
_chemical_formula_sum "Si O2"
_cell_formula_units_Z 10
_cell_length_a 9.846383
_cell_length_b 8.528288
_cell_length_c 9.533847
_cell_angle_alpha 55.965124
_cell_angle_beta 69.145310
_cell_angle_gamma 107.845604
_cell_volume 469.532161
_symmetry_space_group_name_H-M "P -1"
_symmetry_group_IT_number 2
_symmetry_cell_setting 'triclinic'
loop_
_space_group_symop_operation_xyz
x,y,z
-x,-y,-z
loop_
_atom_site_type_symbol
_atom_site_label
_atom_site_fract_x
_atom_site_fract_y
_atom_site_fract_z
Si Si1 0.507612 0.285699 0.132736
Si Si2 0.751845 0.256125 0.572032
Si Si3 0.479098 0.660788 0.581015
Si Si4 0.815955 0.337822 0.823022
Si Si5 0.218918 0.120128 0.858844
O O1 0.497559 0.231220 0.328727
O O2 0.328736 0.026613 0.255618
O O3 0.500000 0.500000 0.000000
O O4 0.705335 0.374275 0.954717
O O5 0.612311 0.266046 0.527340
O O6 0.760499 0.348122 0.679798
O O7 0.962306 0.436074 0.337891
O O8 0.343772 0.361294 0.793366
O O9 0.689401 0.786526 0.378233
O O10 0.762682 0.074564 0.992996
O O11 0.000000 0.000000 0.000000
#
# Coordination Sequence:
#
# PCOD8032414 Si02
#       5
#     2   2   2   2   2
#     4  12  27  43  65  95 135 171 211 271 323 374
#     4  11  24  44  68  96 129 171 221 260 317 389
#     4  11  25  41  69  99 128 168 219 263 320 390
#     4  11  25  43  68  95 131 172 214 265 320 381
#     4  11  23  42  69  97 127 169 214 265 323 380
#
# _framework density 21.297796000000002
#
# number of rings (size 3 to 8) (size 9 to 14) (size 15 to 20)
#    0.000    0.800    4.000    2.400    5.600    3.200 
#    0.000    0.000    0.000    0.000    0.000    0.000 
#    0.000    0.000    0.000    0.000    0.000    0.000 
#
# Total GULP energy -124044.536364 kJ/mol
# GULP energy per Si atom -12404.453636 kJ/mol
# Density = 2.124932 g / cm^3
# Si number density = 21.297796 Si / 1000 Ang^3
#
#
#
# Elastic Constant Matrix: (Units=GPa)
#
#
# Indices 1 2 3 4 5 6 
#
# 1 107.2720 39.8276 55.2476 2.5170 -12.3416 -13.6841
# 2 39.8276 85.8821 42.0412 8.4192 -20.7829 -11.8693
# 3 55.2476 42.0412 118.5523 -5.0719 -30.7772 -4.6178
# 4 2.5170 8.4192 -5.0719 55.3024 -4.8002 6.5655
# 5 -12.3416 -20.7829 -30.7772 -4.8002 51.8626 -5.4208
# 6 -13.6841 -11.8693 -4.6178 6.5655 -5.4208 34.0185
#
#
#
# Elastic Compliance Matrix: (Units=1/GPa)
#
#
# Indices 1 2 3 4 5 6 
#
# 1 0.013710 -0.003353 -0.005360 -0.001127 -0.000982 0.003679
# 2 -0.003353 0.016848 -0.003204 -0.002966 0.004338 0.005358
# 3 -0.005360 -0.003204 0.013606 0.002592 0.005647 -0.001027
# 4 -0.001127 -0.002966 0.002592 0.019499 0.001397 -0.004677
# 5 -0.000982 0.004338 0.005647 0.001397 0.024850 0.005575
# 6 0.003679 0.005358 -0.001027 -0.004677 0.005575 0.034397
#
#
# Mechanical properties :
#
#
# Convention : Reuss Voigt Hill
#
# Bulk Modulus (GPa) = 49.18742 65.10435 57.14589
# Shear Modulus (GPa) = 32.56860 39.87604 36.22232
#
# Velocity S-wave (km/s) = 3.91474 4.33171 4.12849
# Velocity P-wave (km/s) = 6.60143 7.46011 7.04387
#
# Compressibility (1/GPa) = 0.02033040
#
# Stress axis : x y z
#
# Youngs Moduli (GPa) = 72.93806 59.35293 73.49571
#
# Poissons Ratio (x) = 0.19901 0.39394
# Poissons Ratio (y) = 0.24456 0.23550
# Poissons Ratio (z) = 0.39095 0.19019
#
# Static dielectric constant tensor:
#      x y z
#    x 3.891880 -0.163190 -0.160360 
#    y -0.163190 3.974950 -0.084760 
#    z -0.160360 -0.084760 4.176130 
# 
# 
# High freq. dielectric constant tensor:
#      x y z
#    x 1.831430 -0.008970 -0.005160 
#    y -0.008970 1.836050 -0.008100 
#    z -0.005160 -0.008100 1.858310 
# 
# From -- ./inp_files/144062.got.cif
#   From: 2010.06.25/outbox.cif.g09.slc.cpg/sg2_73_cif.got.tgz:144062.got - 2010.06.27 13:26:56.
