data_PCOD8032261
_publ_section_title
;
Structure prediction by ZEFSAII (Michael W. Deem and Ramdas Pophale) SiO2 
 PCOD8032261
Probable space group: P -1
;
_chemical_formula_sum "Si O2"
_cell_formula_units_Z 16
_cell_length_a 8.570412
_cell_length_b 12.121197
_cell_length_c 18.066376
_cell_angle_alpha 39.755204
_cell_angle_beta 101.667895
_cell_angle_gamma 131.031925
_cell_volume 705.341968
_symmetry_space_group_name_H-M "P -1"
_symmetry_group_IT_number 2
_symmetry_cell_setting 'triclinic'
loop_
_space_group_symop_operation_xyz
x,y,z
-x,-y,-z
loop_
_atom_site_type_symbol
_atom_site_label
_atom_site_fract_x
_atom_site_fract_y
_atom_site_fract_z
Si Si1 0.794233 0.455086 0.098988
Si Si2 0.251015 0.392919 0.617062
Si Si3 0.842721 0.547737 0.891962
Si Si4 0.580390 0.265180 0.870631
Si Si5 0.149142 0.151788 0.580672
Si Si6 0.880636 0.177222 0.440364
Si Si7 0.435543 0.885921 0.441420
Si Si8 0.937140 0.003714 0.074904
O O1 0.043910 0.544801 0.065944
O O2 0.549141 0.143213 0.272691
O O3 0.718983 0.458254 0.008169
O O4 0.858978 0.671679 0.046813
O O5 0.104777 0.225826 0.612242
O O6 0.545065 0.563995 0.559813
O O7 0.274264 0.619322 0.509772
O O8 0.063291 0.158198 0.785779
O O9 0.605996 0.367014 0.903620
O O10 0.075225 0.889474 0.725687
O O11 0.857675 0.513241 0.727406
O O12 0.359416 0.181542 0.850717
O O13 0.500000 0.000000 0.000000
O O14 0.951423 0.055188 0.548211
O O15 0.769694 0.220368 0.464263
O O16 0.664986 0.968777 0.461399
O O17 0.000000 0.000000 0.000000
#
# Coordination Sequence:
#
# PCOD8032261 Si02
#       8
#     2   2   2   2   2   2   2   2
#     4  11  23  47  67 100 140 182 223 273 350 405
#     4  11  24  42  67 101 137 175 234 275 349 402
#     4  11  23  41  72  98 136 179 228 278 336 409
#     4  12  24  43  66 102 130 178 233 273 336 408
#     4  11  23  43  68 101 134 181 227 289 335 407
#     4  11  25  43  70  96 141 174 234 279 345 399
#     4  11  25  44  69  99 135 185 226 285 338 408
#     4  12  27  44  69 100 141 177 221 289 339 404
#
# _framework density 22.68403
#
# number of rings (size 3 to 8) (size 9 to 14) (size 15 to 20)
#    0.000    0.750    6.250    0.000    7.000    2.500 
#    2.250    1.250    0.000    0.000    0.000    0.000 
#    0.000    0.000    0.000    0.000    0.000    0.000 
#
# Total GULP energy -198443.466712 kJ/mol
# GULP energy per Si atom -12402.716670 kJ/mol
# Density = 2.263240 g / cm^3
# Si number density = 22.684030 Si / 1000 Ang^3
#
#
#
# Elastic Constant Matrix: (Units=GPa)
#
#
# Indices 1 2 3 4 5 6 
#
# 1 44.1155 13.5474 34.3055 -0.1303 -1.1017 -10.7886
# 2 13.5474 107.2217 77.8547 2.4188 6.7136 -30.9521
# 3 34.3055 77.8547 145.7417 13.8449 17.4118 -22.2462
# 4 -0.1303 2.4188 13.8449 38.6993 -11.1168 5.9420
# 5 -1.1017 6.7136 17.4118 -11.1168 30.7993 -0.5588
# 6 -10.7886 -30.9521 -22.2462 5.9420 -0.5588 45.6747
#
#
#
# Elastic Compliance Matrix: (Units=1/GPa)
#
#
# Indices 1 2 3 4 5 6 
#
# 1 0.030620 0.004254 -0.010191 0.005026 0.007827 0.004593
# 2 0.004254 0.018200 -0.009965 0.001939 0.002668 0.008265
# 3 -0.010191 -0.009965 0.016638 -0.008404 -0.010634 -0.000093
# 4 0.005026 0.001939 -0.008404 0.034484 0.016848 -0.005872
# 5 0.007827 0.002668 -0.010634 0.016848 0.044202 -0.003173
# 6 0.004593 0.008265 -0.000093 -0.005872 -0.003173 0.029259
#
#
# Mechanical properties :
#
#
# Convention : Reuss Voigt Hill
#
# Bulk Modulus (GPa) = 29.71522 60.94380 45.32951
# Shear Modulus (GPa) = 23.10258 34.45941 28.78099
#
# Velocity S-wave (km/s) = 3.19478 3.90180 3.56585
# Velocity P-wave (km/s) = 5.17077 6.87193 6.08113
#
# Compressibility (1/GPa) = 0.03365279
#
# Stress axis : x y z
#
# Youngs Moduli (GPa) = 32.65815 54.94614 60.10298
#
# Poissons Ratio (x) = -0.23372 0.61253
# Poissons Ratio (y) = -0.13892 0.59892
# Poissons Ratio (z) = 0.33283 0.54753
#
# Static dielectric constant tensor:
#      x y z
#    x 3.689340 -0.041090 0.091180 
#    y -0.041090 4.408880 0.193010 
#    z 0.091180 0.193010 4.041610 
# 
# 
# High freq. dielectric constant tensor:
#      x y z
#    x 1.877990 -0.015740 0.004140 
#    y -0.015740 1.904110 0.007790 
#    z 0.004140 0.007790 1.902820 
# 
# From -- ./inp_files/216506.got.cif
#   From: 2010.06.25/outbox.cif.g09.slc.cpg/sg2_109_cif.got.tgz:216506.got - 2010.06.27 13:26:56.
