data_PCOD8032685
_publ_section_title
;
Structure prediction by ZEFSAII (Michael W. Deem and Ramdas Pophale) SiO2 
 PCOD8032685
Probable space group: P -1
;
_chemical_formula_sum "Si O2"
_cell_formula_units_Z 16
_cell_length_a 19.978118
_cell_length_b 9.198695
_cell_length_c 13.367681
_cell_angle_alpha 34.266785
_cell_angle_beta 32.965770
_cell_angle_gamma 39.057401
_cell_volume 724.397752
_symmetry_space_group_name_H-M "P -1"
_symmetry_group_IT_number 2
_symmetry_cell_setting 'triclinic'
loop_
_space_group_symop_operation_xyz
x,y,z
-x,-y,-z
loop_
_atom_site_type_symbol
_atom_site_label
_atom_site_fract_x
_atom_site_fract_y
_atom_site_fract_z
Si Si1 0.507206 0.777319 0.698289
Si Si2 0.377947 0.981368 0.945490
Si Si3 0.813115 0.906324 0.618750
Si Si4 0.416298 0.327258 0.992351
Si Si5 0.129374 0.933649 0.752510
Si Si6 0.233954 0.663923 0.396560
Si Si7 0.010174 0.429935 0.754116
Si Si8 0.379554 0.507250 0.713113
O O1 0.476391 0.909728 0.770730
O O2 0.651695 0.603693 0.601510
O O3 0.500000 0.000000 0.500000
O O4 0.404265 0.604999 0.910196
O O5 0.456007 0.883986 0.006786
O O6 0.314732 0.297587 0.858422
O O7 0.259846 0.845762 0.166974
O O8 0.699992 0.801402 0.771371
O O9 0.897114 0.650932 0.718039
O O10 0.887406 0.002572 0.380298
O O11 0.764174 0.166291 0.601685
O O12 0.431060 0.405982 0.814878
O O13 0.276223 0.795345 0.679387
O O14 0.087341 0.218657 0.697517
O O15 0.043159 0.735269 0.001314
O O16 0.100814 0.591595 0.598469
O O17 0.500000 0.500000 0.500000
#
# Coordination Sequence:
#
# PCOD8032685 Si02
#       8
#     2   2   2   2   2   2   2   2
#     4  11  27  42  65 106 145 181 226 289 358 412
#     4  11  24  44  66 103 140 188 225 282 358 414
#     4  12  25  46  73 101 131 189 235 288 347 403
#     4  11  23  43  70 100 141 179 233 284 344 421
#     4  11  27  45  72 106 135 181 239 283 351 411
#     4  11  25  44  70  97 139 182 234 284 344 419
#     4  11  26  51  68  99 143 181 237 288 339 416
#     4  12  24  40  73 103 142 177 227 293 345 415
#
# _framework density 22.087312000000001
#
# number of rings (size 3 to 8) (size 9 to 14) (size 15 to 20)
#    0.000    0.750    2.500    4.125   14.000    0.500 
#    2.250    0.000    0.000    0.000    0.000    0.000 
#    0.000    0.000    0.000    0.000    0.000    0.000 
#
# Total GULP energy -198315.747830 kJ/mol
# GULP energy per Si atom -12394.734239 kJ/mol
# Density = 2.203704 g / cm^3
# Si number density = 22.087312 Si / 1000 Ang^3
#
#
#
# Elastic Constant Matrix: (Units=GPa)
#
#
# Indices 1 2 3 4 5 6 
#
# 1 71.9317 12.5222 29.4915 2.7877 -6.1593 7.3632
# 2 12.5222 68.9449 -4.4653 10.1774 10.6961 10.8933
# 3 29.4915 -4.4653 102.4835 6.1702 8.1463 -11.3731
# 4 2.7877 10.1774 6.1702 34.8740 3.3487 1.3844
# 5 -6.1593 10.6961 8.1463 3.3487 50.3601 3.6447
# 6 7.3632 10.8933 -11.3731 1.3844 3.6447 11.1362
#
#
#
# Elastic Compliance Matrix: (Units=1/GPa)
#
#
# Indices 1 2 3 4 5 6 
#
# 1 0.020908 -0.001719 -0.009252 0.000824 0.006078 -0.023683
# 2 -0.001719 0.018294 0.000077 -0.004349 -0.002715 -0.015250
# 3 -0.009252 0.000077 0.015664 -0.002505 -0.005257 0.024071
# 4 0.000824 -0.004349 -0.002505 0.030460 -0.000415 -0.002500
# 5 0.006078 -0.002715 -0.005257 -0.000415 0.023085 -0.014236
# 6 -0.023683 -0.015250 0.024071 -0.002500 -0.014236 0.149927
#
#
# Mechanical properties :
#
#
# Convention : Reuss Voigt Hill
#
# Bulk Modulus (GPa) = 30.23300 35.38408 32.80854
# Shear Modulus (GPa) = 17.17310 32.99486 25.08398
#
# Velocity S-wave (km/s) = 2.79141 3.86921 3.37363
# Velocity P-wave (km/s) = 4.90988 6.00133 5.48283
#
# Compressibility (1/GPa) = 0.03307644
#
# Stress axis : x y z
#
# Youngs Moduli (GPa) = 47.82936 54.66144 63.84236
#
# Poissons Ratio (x) = 0.09398 0.59070
# Poissons Ratio (y) = 0.08223 -0.00492
# Poissons Ratio (z) = 0.44254 -0.00422
#
# Static dielectric constant tensor:
#      x y z
#    x 3.868490 0.238440 -0.086740 
#    y 0.238440 4.001930 -0.255530 
#    z -0.086740 -0.255530 4.394650 
# 
# 
# High freq. dielectric constant tensor:
#      x y z
#    x 1.847150 0.015410 0.000670 
#    y 0.015410 1.884280 -0.010210 
#    z 0.000670 -0.010210 1.892490 
# 
# From -- ./inp_files/461796.got.cif
#   From: 2010.06.25/outbox.cif.g09.slc.cpg/sg2_231_cif.got.tgz:461796.got - 2010.06.27 13:26:56.
