data_PCOD8032534
_publ_section_title
;
Structure prediction by ZEFSAII (Michael W. Deem and Ramdas Pophale) SiO2 
 PCOD8032534
Probable space group: P -1
;
_chemical_formula_sum "Si O2"
_cell_formula_units_Z 12
_cell_length_a 8.242450
_cell_length_b 13.538561
_cell_length_c 13.110112
_cell_angle_alpha 146.604861
_cell_angle_beta 144.528567
_cell_angle_gamma 47.993927
_cell_volume 467.010285
_symmetry_space_group_name_H-M "P -1"
_symmetry_group_IT_number 2
_symmetry_cell_setting 'triclinic'
loop_
_space_group_symop_operation_xyz
x,y,z
-x,-y,-z
loop_
_atom_site_type_symbol
_atom_site_label
_atom_site_fract_x
_atom_site_fract_y
_atom_site_fract_z
Si Si1 0.816406 0.000425 0.805228
Si Si2 0.688568 0.496311 0.904096
Si Si3 0.161592 0.356805 0.596528
Si Si4 0.214259 0.154915 0.654232
Si Si5 0.464378 0.576987 0.659190
Si Si6 0.940016 0.831536 0.132439
O O1 0.740762 0.795895 0.562405
O O2 0.528153 0.092385 0.758269
O O3 0.973073 0.088306 0.863867
O O4 0.000000 0.000000 0.000000
O O5 0.404233 0.510554 0.838131
O O6 0.618319 0.451193 0.711261
O O7 0.893657 0.351814 0.928601
O O8 0.824330 0.704678 0.150130
O O9 0.151188 0.291726 0.649727
O O10 0.856442 0.423901 0.470098
O O11 0.999769 0.980607 0.382414
O O12 0.500000 0.500000 0.500000
O O13 0.608954 0.778539 0.911100
#
# Coordination Sequence:
#
# PCOD8032534 Si02
#       6
#     2   2   2   2   2   2
#     4  11  23  42  74 110 139 185 242 300 353 420
#     4  12  24  47  78 103 141 196 243 288 354 435
#     4  11  23  46  72 106 142 189 244 290 350 434
#     4  11  23  44  76 107 138 188 246 295 353 419
#     4  12  29  44  69 113 149 189 236 298 366 416
#     4  11  25  47  71 104 152 185 237 300 355 426
#
# _framework density 25.695366
#
# number of rings (size 3 to 8) (size 9 to 14) (size 15 to 20)
#    0.000    0.667    3.333    4.500    4.667    3.333 
#    0.000    1.667    0.000    0.000    0.000    0.000 
#    0.000    0.000    0.000    0.000    0.000    0.000 
#
# Total GULP energy -148745.503729 kJ/mol
# GULP energy per Si atom -12395.458644 kJ/mol
# Density = 2.563688 g / cm^3
# Si number density = 25.695366 Si / 1000 Ang^3
#
#
#
# Elastic Constant Matrix: (Units=GPa)
#
#
# Indices 1 2 3 4 5 6 
#
# 1 35.8357 21.7319 35.1981 0.0398 0.1225 -22.4871
# 2 21.7319 85.5274 43.5129 6.9613 -8.4848 7.5886
# 3 35.1981 43.5129 147.9765 7.7257 8.7360 -9.9269
# 4 0.0398 6.9613 7.7257 40.4204 0.8041 -1.1632
# 5 0.1225 -8.4848 8.7360 0.8041 66.0959 -9.1393
# 6 -22.4871 7.5886 -9.9269 -1.1632 -9.1393 29.6097
#
#
#
# Elastic Compliance Matrix: (Units=1/GPa)
#
#
# Indices 1 2 3 4 5 6 
#
# 1 0.132307 -0.035319 -0.015123 0.011729 0.012101 0.108658
# 2 -0.035319 0.024286 -0.000674 -0.004967 -0.001353 -0.033886
# 3 -0.015123 -0.000674 0.010224 -0.002024 -0.002597 -0.008766
# 4 0.011729 -0.004967 -0.002024 0.026265 0.000778 0.010774
# 5 0.012101 -0.001353 -0.002597 0.000778 0.017204 0.014007
# 6 0.108658 -0.033886 -0.008766 0.010774 0.014007 0.126786
#
#
# Mechanical properties :
#
#
# Convention : Reuss Voigt Hill
#
# Bulk Modulus (GPa) = 15.48357 52.24727 33.86542
# Shear Modulus (GPa) = 10.84991 38.48499 24.66745
#
# Velocity S-wave (km/s) = 2.05711 3.87426 3.10174
# Velocity P-wave (km/s) = 3.41777 6.35537 5.10254
#
# Compressibility (1/GPa) = 0.06458457
#
# Stress axis : x y z
#
# Youngs Moduli (GPa) = 7.55819 41.17542 97.80713
#
# Poissons Ratio (x) = 1.45429 1.47910
# Poissons Ratio (y) = 0.26695 0.06595
# Poissons Ratio (z) = 0.11430 0.02777
#
# Static dielectric constant tensor:
#      x y z
#    x 4.771630 0.165810 0.174820 
#    y 0.165810 4.626480 -0.009440 
#    z 0.174820 -0.009440 5.567920 
# 
# 
# High freq. dielectric constant tensor:
#      x y z
#    x 2.043820 0.016340 0.002430 
#    y 0.016340 2.023700 -0.003940 
#    z 0.002430 -0.003940 2.050250 
# 
# From -- ./inp_files/173276.got.cif
#   From: 2010.06.25/outbox.cif.g09.slc.cpg/sg2_87_cif.got.tgz:173276.got - 2010.06.27 13:26:56.
