data_PCOD8032639
_publ_section_title
;
Structure prediction by ZEFSAII (Michael W. Deem and Ramdas Pophale) SiO2 
 PCOD8032639
Probable space group: P -1
;
_chemical_formula_sum "Si O2"
_cell_formula_units_Z 16
_cell_length_a 9.734736
_cell_length_b 9.112545
_cell_length_c 20.696732
_cell_angle_alpha 61.823856
_cell_angle_beta 131.089268
_cell_angle_gamma 78.081033
_cell_volume 766.385257
_symmetry_space_group_name_H-M "P -1"
_symmetry_group_IT_number 2
_symmetry_cell_setting 'triclinic'
loop_
_space_group_symop_operation_xyz
x,y,z
-x,-y,-z
loop_
_atom_site_type_symbol
_atom_site_label
_atom_site_fract_x
_atom_site_fract_y
_atom_site_fract_z
Si Si1 0.512249 0.721171 0.236181
Si Si2 0.759925 0.406175 0.764444
Si Si3 0.365604 0.934183 0.005855
Si Si4 0.982121 0.492861 0.096328
Si Si5 0.912744 0.871664 0.493698
Si Si6 0.580443 0.919550 0.777317
Si Si7 0.703689 0.464744 0.116651
Si Si8 0.303539 0.984965 0.465186
O O1 0.305490 0.716869 0.192605
O O2 0.405673 0.899001 0.103292
O O3 0.826710 0.432693 0.378852
O O4 0.525297 0.829726 0.280219
O O5 0.844577 0.467739 0.836344
O O6 0.486790 0.681742 0.584276
O O7 0.016382 0.191880 0.835932
O O8 0.504141 0.670079 0.071707
O O9 0.500000 0.000000 0.000000
O O10 0.816603 0.543240 0.096745
O O11 0.211775 0.200156 0.196286
O O12 0.743486 0.698940 0.927004
O O13 0.777293 0.902573 0.511430
O O14 0.686895 0.009378 0.337532
O O15 0.000000 0.000000 0.500000
O O16 0.001318 0.164646 0.295699
O O17 0.500000 0.500000 0.000000
O O18 0.500000 0.000000 0.500000
#
# Coordination Sequence:
#
# PCOD8032639 Si02
#       8
#     2   2   2   2   2   2   2   2
#     4  12  25  41  71 103 139 179 232 296 348 416
#     4  12  24  44  70 104 136 186 235 280 359 418
#     4  12  24  46  68 102 139 183 228 288 355 418
#     4  11  23  43  68  99 136 186 229 290 344 425
#     4  12  24  44  69  99 136 185 231 291 349 422
#     4  11  24  41  68 101 140 171 234 293 351 406
#     4  12  27  43  72 103 136 183 239 289 349 416
#     4  12  23  47  73  98 138 188 233 279 353 425
#
# _framework density 20.877229
#
# number of rings (size 3 to 8) (size 9 to 14) (size 15 to 20)
#    0.000    0.250    7.500    0.750    3.500    1.000 
#    0.000    0.625    0.000    0.000    0.000    0.000 
#    0.000    0.000    0.000    0.000    0.000    0.000 
#
# Total GULP energy -198358.994024 kJ/mol
# GULP energy per Si atom -12397.437126 kJ/mol
# Density = 2.082971 g / cm^3
# Si number density = 20.877229 Si / 1000 Ang^3
#
#
#
# Elastic Constant Matrix: (Units=GPa)
#
#
# Indices 1 2 3 4 5 6 
#
# 1 134.8429 50.0791 44.0864 -3.2552 6.5952 -0.0663
# 2 50.0791 138.0986 58.3959 -0.5685 15.8194 -3.1159
# 3 44.0864 58.3959 163.3194 -0.7986 13.5644 2.3398
# 4 -3.2552 -0.5685 -0.7986 46.9667 -7.7983 11.8534
# 5 6.5952 15.8194 13.5644 -7.7983 28.0780 -8.0674
# 6 -0.0663 -3.1159 2.3398 11.8534 -8.0674 35.2304
#
#
#
# Elastic Compliance Matrix: (Units=1/GPa)
#
#
# Indices 1 2 3 4 5 6 
#
# 1 0.008877 -0.002626 -0.001467 0.000667 0.000203 -0.000296
# 2 -0.002626 0.009664 -0.002445 -0.000840 -0.003755 0.000435
# 3 -0.001467 -0.002445 0.007604 -0.000078 -0.002326 -0.001231
# 4 0.000667 -0.000840 -0.000078 0.023915 0.004993 -0.006971
# 5 0.000203 -0.003755 -0.002326 0.004993 0.042453 0.007864
# 6 -0.000296 0.000435 -0.001231 -0.006971 0.007864 0.032650
#
#
# Mechanical properties :
#
#
# Convention : Reuss Voigt Hill
#
# Bulk Modulus (GPa) = 76.51721 82.37599 79.44660
# Shear Modulus (GPa) = 35.06457 40.96832 38.01644
#
# Velocity S-wave (km/s) = 4.10269 4.43464 4.27189
# Velocity P-wave (km/s) = 7.69242 8.10953 7.90373
#
# Compressibility (1/GPa) = 0.01306895
#
# Stress axis : x y z
#
# Youngs Moduli (GPa) = 112.65249 103.47812 131.51752
#
# Poissons Ratio (x) = 0.27174 0.19289
# Poissons Ratio (y) = 0.29584 0.32156
# Poissons Ratio (z) = 0.16522 0.25300
#
# Static dielectric constant tensor:
#      x y z
#    x 3.868610 -0.342600 0.129880 
#    y -0.342600 3.915310 -0.156290 
#    z 0.129880 -0.156290 4.231460 
# 
# 
# High freq. dielectric constant tensor:
#      x y z
#    x 1.821530 -0.013730 0.011420 
#    y -0.013730 1.812960 -0.013410 
#    z 0.011420 -0.013410 1.835070 
# 
# From -- ./inp_files/262777.got.cif
#   From: 2010.06.25/outbox.cif.g09.slc.cpg/sg2_132_cif.got.tgz:262777.got - 2010.06.27 13:26:56.
