data_PCOD8032897
_publ_section_title
;
Structure prediction by ZEFSAII (Michael W. Deem and Ramdas Pophale) SiO2 
 PCOD8032897
Probable space group: P -1
;
_chemical_formula_sum "Si O2"
_cell_formula_units_Z 14
_cell_length_a 9.404617
_cell_length_b 9.095881
_cell_length_c 24.510511
_cell_angle_alpha 30.883700
_cell_angle_beta 143.679339
_cell_angle_gamma 131.118279
_cell_volume 633.492831
_symmetry_space_group_name_H-M "P -1"
_symmetry_group_IT_number 2
_symmetry_cell_setting 'triclinic'
loop_
_space_group_symop_operation_xyz
x,y,z
-x,-y,-z
loop_
_atom_site_type_symbol
_atom_site_label
_atom_site_fract_x
_atom_site_fract_y
_atom_site_fract_z
Si Si1 0.923607 0.187113 0.690300
Si Si2 0.558098 0.374871 0.145071
Si Si3 0.171468 0.719150 0.627869
Si Si4 0.582725 0.857729 0.627341
Si Si5 0.208650 0.771392 0.111233
Si Si6 0.358623 0.912197 0.844827
Si Si7 0.063584 0.207730 0.081734
O O1 0.982861 0.512598 0.611068
O O2 0.675139 0.123699 0.605161
O O3 0.918438 0.069228 0.787015
O O4 0.113990 0.014165 0.765508
O O5 0.693663 0.396061 0.237912
O O6 0.712852 0.194546 0.203380
O O7 0.314451 0.220230 0.123839
O O8 0.504030 0.686986 0.002322
O O9 0.364339 0.758438 0.627718
O O10 0.000000 0.000000 0.500000
O O11 0.783619 0.578537 0.766013
O O12 0.500000 0.000000 0.500000
O O13 0.472768 0.833748 0.191429
O O14 0.163999 0.821994 0.017527
O O15 0.000000 0.000000 0.000000
O O16 0.000000 0.500000 0.000000
#
# Coordination Sequence:
#
# PCOD8032897 Si02
#       7
#     2   2   2   2   2   2   2
#     4  12  26  48  76 105 141 191 240 301 367 427
#     4  11  23  44  67 110 144 180 239 296 359 432
#     4  12  29  51  73 103 144 196 248 295 359 440
#     4  12  29  49  74 107 150 193 246 300 363 436
#     4  12  24  44  72 113 146 189 242 302 362 427
#     4  11  24  40  76 108 143 185 234 300 364 427
#     4  12  21  41  73 103 146 181 233 301 364 421
#
# _framework density 22.099696999999999
#
# number of rings (size 3 to 8) (size 9 to 14) (size 15 to 20)
#    0.000    0.286    7.143    0.857    4.000    4.571 
#    0.000    0.000    0.000    0.000    0.000    0.000 
#    0.000    0.000    0.000    0.000    0.000    0.000 
#
# Total GULP energy -173458.293301 kJ/mol
# GULP energy per Si atom -12389.878093 kJ/mol
# Density = 2.204940 g / cm^3
# Si number density = 22.099697 Si / 1000 Ang^3
#
#
#
# Elastic Constant Matrix: (Units=GPa)
#
#
# Indices 1 2 3 4 5 6 
#
# 1 110.4526 25.1623 47.9582 -19.0493 -7.9609 -9.6525
# 2 25.1623 154.8714 41.3171 -6.0736 -19.2303 -6.5937
# 3 47.9582 41.3171 99.1754 -5.7011 -13.7636 -17.8729
# 4 -19.0493 -6.0736 -5.7011 39.5297 -14.7694 -6.4243
# 5 -7.9609 -19.2303 -13.7636 -14.7694 41.9961 4.8435
# 6 -9.6525 -6.5937 -17.8729 -6.4243 4.8435 41.9451
#
#
#
# Elastic Compliance Matrix: (Units=1/GPa)
#
#
# Indices 1 2 3 4 5 6 
#
# 1 0.012784 -0.000020 -0.005114 0.006757 0.002947 0.001454
# 2 -0.000020 0.007651 -0.002588 0.002056 0.003372 0.000021
# 3 -0.005114 -0.002588 0.014873 0.000979 0.002532 0.004611
# 4 0.006757 0.002056 0.000979 0.035326 0.014268 0.006058
# 5 0.002947 0.003372 0.002532 0.014268 0.031668 0.000816
# 6 0.001454 0.000021 0.004611 0.006058 0.000816 0.026977
#
#
# Mechanical properties :
#
#
# Convention : Reuss Voigt Hill
#
# Bulk Modulus (GPa) = 50.34240 65.93050 58.13645
# Shear Modulus (GPa) = 33.03742 41.36496 37.20119
#
# Velocity S-wave (km/s) = 3.87062 4.33106 4.10730
# Velocity P-wave (km/s) = 6.54253 7.41004 6.98976
#
# Compressibility (1/GPa) = 0.01986397
#
# Stress axis : x y z
#
# Youngs Moduli (GPa) = 78.22583 130.70486 67.23631
#
# Poissons Ratio (x) = 0.00259 0.34385
# Poissons Ratio (y) = 0.00155 0.17400
# Poissons Ratio (z) = 0.40005 0.33824
#
# Static dielectric constant tensor:
#      x y z
#    x 4.531030 0.075110 -0.079330 
#    y 0.075110 4.349370 -0.014930 
#    z -0.079330 -0.014930 3.860990 
# 
# 
# High freq. dielectric constant tensor:
#      x y z
#    x 1.883120 -0.007620 -0.004900 
#    y -0.007620 1.890250 -0.002570 
#    z -0.004900 -0.002570 1.849370 
# 
# From -- ./inp_files/168192.got.cif
#   From: 2010.06.25/outbox.cif.g09.slc.cpg/sg2_85_cif.got.tgz:168192.got - 2010.06.27 13:26:56.
