data_PCOD8032637
_publ_section_title
;
Structure prediction by ZEFSAII (Michael W. Deem and Ramdas Pophale) SiO2 
 PCOD8032637
Probable space group: P -1
;
_chemical_formula_sum "Si O2"
_cell_formula_units_Z 14
_cell_length_a 8.162681
_cell_length_b 8.753660
_cell_length_c 12.737066
_cell_angle_alpha 61.364077
_cell_angle_beta 133.918561
_cell_angle_gamma 103.580834
_cell_volume 568.487276
_symmetry_space_group_name_H-M "P -1"
_symmetry_group_IT_number 2
_symmetry_cell_setting 'triclinic'
loop_
_space_group_symop_operation_xyz
x,y,z
-x,-y,-z
loop_
_atom_site_type_symbol
_atom_site_label
_atom_site_fract_x
_atom_site_fract_y
_atom_site_fract_z
Si Si1 0.151472 0.735876 0.765461
Si Si2 0.256547 0.847620 0.224456
Si Si3 0.943857 0.445302 0.871822
Si Si4 0.975341 0.305234 0.516315
Si Si5 0.882349 0.849019 0.799109
Si Si6 0.503583 0.268340 0.427029
Si Si7 0.418455 0.020980 0.838974
O O1 0.147455 0.545157 0.881209
O O2 0.996619 0.876238 0.728076
O O3 0.049625 0.719912 0.610930
O O4 0.382960 0.827612 0.838175
O O5 0.083775 0.711659 0.168068
O O6 0.458796 0.770885 0.420223
O O7 0.378296 0.908231 0.156026
O O8 0.079561 0.008792 0.143944
O O9 0.686810 0.556861 0.724349
O O10 0.023620 0.351797 0.051135
O O11 0.747781 0.269706 0.484097
O O12 0.000000 0.500000 0.500000
O O13 0.194034 0.168427 0.691653
O O14 0.609516 0.876286 0.642708
O O15 0.500000 0.000000 0.000000
#
# Coordination Sequence:
#
# PCOD8032637 Si02
#       7
#     2   2   2   2   2   2   2
#     4  11  24  45  71 102 142 183 229 288 346 410
#     4  12  24  44  71 101 136 184 233 284 344 417
#     4  11  24  45  71 101 137 181 233 287 341 412
#     4  12  26  46  72 104 141 185 234 289 350 414
#     4  11  24  44  71 102 135 182 235 287 343 410
#     4  11  23  43  68  99 134 182 231 279 345 420
#     4  12  27  47  71 107 144 181 230 292 349 409
#
# _framework density 24.626760999999998
#
# number of rings (size 3 to 8) (size 9 to 14) (size 15 to 20)
#    0.000    0.571    0.000    9.429    0.000    4.571 
#    0.000    5.714    0.000    0.000    0.000    0.000 
#    0.000    0.000    0.000    0.000    0.000    0.000 
#
# Total GULP energy -173467.109629 kJ/mol
# GULP energy per Si atom -12390.507831 kJ/mol
# Density = 2.457071 g / cm^3
# Si number density = 24.626761 Si / 1000 Ang^3
#
#
#
# Elastic Constant Matrix: (Units=GPa)
#
#
# Indices 1 2 3 4 5 6 
#
# 1 77.9961 26.8119 21.4267 -2.0324 -25.3432 -6.5751
# 2 26.8119 147.8373 30.6529 7.3015 -16.2851 0.9275
# 3 21.4267 30.6529 158.1447 6.3245 -26.2091 -17.7556
# 4 -2.0324 7.3015 6.3245 33.7547 -10.2345 0.9016
# 5 -25.3432 -16.2851 -26.2091 -10.2345 39.0181 5.3288
# 6 -6.5751 0.9275 -17.7556 0.9016 5.3288 42.6163
#
#
#
# Elastic Compliance Matrix: (Units=1/GPa)
#
#
# Indices 1 2 3 4 5 6 
#
# 1 0.017593 -0.002143 -0.000114 0.005037 0.011619 0.001154
# 2 -0.002143 0.007541 -0.001099 -0.001277 0.000822 -0.001029
# 3 -0.000114 -0.001099 0.007538 0.000014 0.004176 0.002624
# 4 0.005037 -0.001277 0.000014 0.033819 0.011807 -0.001381
# 5 0.011619 0.000822 0.004176 0.011807 0.039653 -0.001693
# 6 0.001154 -0.001029 0.002624 -0.001381 -0.001693 0.025000
#
#
# Mechanical properties :
#
#
# Convention : Reuss Voigt Hill
#
# Bulk Modulus (GPa) = 38.52322 60.19568 49.35945
# Shear Modulus (GPa) = 34.12717 43.41694 38.77206
#
# Velocity S-wave (km/s) = 3.72664 4.20336 3.97216
# Velocity P-wave (km/s) = 5.84756 6.93210 6.41279
#
# Compressibility (1/GPa) = 0.02595837
#
# Stress axis : x y z
#
# Youngs Moduli (GPa) = 56.83984 132.60950 132.66081
#
# Poissons Ratio (x) = 0.28419 0.01519
# Poissons Ratio (y) = 0.12181 0.14585
# Poissons Ratio (z) = 0.00651 0.14579
#
# Static dielectric constant tensor:
#      x y z
#    x 4.240620 0.134350 -0.079790 
#    y 0.134350 5.479490 0.048030 
#    z -0.079790 0.048030 4.598010 
# 
# 
# High freq. dielectric constant tensor:
#      x y z
#    x 1.971240 0.001340 -0.013630 
#    y 0.001340 2.017110 0.010780 
#    z -0.013630 0.010780 1.997740 
# 
# From -- ./inp_files/381524.got.cif
#   From: 2010.06.25/outbox.cif.g09.slc.cpg/sg2_191_cif.got.tgz:381524.got - 2010.06.27 13:26:56.
