data_PCOD8032507
_publ_section_title
;
Structure prediction by ZEFSAII (Michael W. Deem and Ramdas Pophale) SiO2 
 PCOD8032507
Probable space group: P -1
;
_chemical_formula_sum "Si O2"
_cell_formula_units_Z 16
_cell_length_a 8.037659
_cell_length_b 8.822135
_cell_length_c 15.333647
_cell_angle_alpha 137.140998
_cell_angle_beta 90.719226
_cell_angle_gamma 109.886407
_cell_volume 634.504986
_symmetry_space_group_name_H-M "P -1"
_symmetry_group_IT_number 2
_symmetry_cell_setting 'triclinic'
loop_
_space_group_symop_operation_xyz
x,y,z
-x,-y,-z
loop_
_atom_site_type_symbol
_atom_site_label
_atom_site_fract_x
_atom_site_fract_y
_atom_site_fract_z
Si Si1 0.295564 0.076698 0.695634
Si Si2 0.326309 0.934394 0.825897
Si Si3 0.351550 0.382609 0.118727
Si Si4 0.008191 0.406058 0.056604
Si Si5 0.320053 0.130749 0.182263
Si Si6 0.964300 0.147490 0.650662
Si Si7 0.988027 0.606665 0.423536
Si Si8 0.277315 0.296376 0.429585
O O1 0.350622 0.077523 0.795750
O O2 0.482316 0.316117 0.754750
O O3 0.120565 0.131519 0.706402
O O4 0.216173 0.784547 0.529499
O O5 0.459238 0.802676 0.774016
O O6 0.101319 0.690512 0.735228
O O7 0.400541 0.164200 0.994568
O O8 0.173408 0.332515 0.035708
O O9 0.308797 0.328167 0.198064
O O10 0.052991 0.610658 0.218647
O O11 0.000000 0.500000 0.000000
O O12 0.801103 0.161575 0.977067
O O13 0.210115 0.136001 0.271359
O O14 0.021621 0.202012 0.570765
O O15 0.755099 0.895111 0.569229
O O16 0.854545 0.577870 0.495438
O O17 0.500000 0.500000 0.500000
#
# Coordination Sequence:
#
# PCOD8032507 Si02
#       8
#     2   2   2   2   2   2   2   2
#     4  11  24  44  71 107 138 185 238 288 350 426
#     4  12  24  46  71 105 140 191 234 290 354 427
#     4  12  27  44  73 107 141 185 244 291 349 424
#     4  12  24  47  71 105 140 186 234 298 354 412
#     4  12  25  44  71 100 144 184 236 292 358 415
#     4  11  24  47  75 101 143 188 236 289 355 423
#     4  11  25  46  75 102 143 189 238 287 359 422
#     4  11  23  42  73 102 140 185 237 290 353 416
#
# _framework density 25.216508999999999
#
# number of rings (size 3 to 8) (size 9 to 14) (size 15 to 20)
#    0.000    0.500    2.500    6.750    3.500    0.000 
#    2.250    0.625    0.000    0.000    0.000    0.000 
#    0.000    0.000    0.000    0.000    0.000    0.000 
#
# Total GULP energy -198273.327763 kJ/mol
# GULP energy per Si atom -12392.082985 kJ/mol
# Density = 2.515912 g / cm^3
# Si number density = 25.216509 Si / 1000 Ang^3
#
#
#
# Elastic Constant Matrix: (Units=GPa)
#
#
# Indices 1 2 3 4 5 6 
#
# 1 68.2264 34.6222 21.3737 -12.5270 11.8498 0.0936
# 2 34.6222 188.2702 45.8315 3.6127 14.6449 18.1698
# 3 21.3737 45.8315 109.9043 21.4227 14.8121 23.4544
# 4 -12.5270 3.6127 21.4227 54.9129 9.9069 11.7893
# 5 11.8498 14.6449 14.8121 9.9069 30.2294 1.1165
# 6 0.0936 18.1698 23.4544 11.7893 1.1165 40.1222
#
#
#
# Elastic Compliance Matrix: (Units=1/GPa)
#
#
# Indices 1 2 3 4 5 6 
#
# 1 0.019483 -0.002447 -0.003429 0.006962 -0.007098 0.001219
# 2 -0.002447 0.006464 -0.001672 0.000351 -0.001394 -0.002009
# 3 -0.003429 -0.001672 0.012754 -0.004015 -0.002579 -0.005439
# 4 0.006962 0.000351 -0.004015 0.023880 -0.008588 -0.004606
# 5 -0.007098 -0.001394 -0.002579 -0.008588 0.040485 0.003552
# 6 0.001219 -0.002009 -0.005439 -0.004606 0.003552 0.030265
#
#
# Mechanical properties :
#
#
# Convention : Reuss Voigt Hill
#
# Bulk Modulus (GPa) = 42.36439 63.33955 52.85197
# Shear Modulus (GPa) = 31.99100 42.69113 37.34107
#
# Velocity S-wave (km/s) = 3.56568 4.11905 3.85231
# Velocity P-wave (km/s) = 5.81282 6.91339 6.38685
#
# Compressibility (1/GPa) = 0.02360473
#
# Stress axis : x y z
#
# Youngs Moduli (GPa) = 51.32801 154.70205 78.40966
#
# Poissons Ratio (x) = 0.37858 0.26886
# Poissons Ratio (y) = 0.12561 0.13107
# Poissons Ratio (z) = 0.17600 0.25859
#
# Static dielectric constant tensor:
#      x y z
#    x 4.176020 0.135920 0.011160 
#    y 0.135920 4.847040 0.078810 
#    z 0.011160 0.078810 5.101680 
# 
# 
# High freq. dielectric constant tensor:
#      x y z
#    x 1.968150 0.000040 0.001810 
#    y 0.000040 2.032890 0.011050 
#    z 0.001810 0.011050 2.024140 
# 
# From -- ./inp_files/495744.got.cif
#   From: 2010.06.25/outbox.cif.g09.slc.cpg/sg2_248_cif.got.tgz:495744.got - 2010.06.27 13:26:56.
