data_PCOD8032947
_publ_section_title
;
Structure prediction by ZEFSAII (Michael W. Deem and Ramdas Pophale) SiO2 
 PCOD8032947
Probable space group: P -1
;
_chemical_formula_sum "Si O2"
_cell_formula_units_Z 14
_cell_length_a 13.147906
_cell_length_b 9.724409
_cell_length_c 11.913009
_cell_angle_alpha 52.134465
_cell_angle_beta 132.733275
_cell_angle_gamma 145.193992
_cell_volume 632.747930
_symmetry_space_group_name_H-M "P -1"
_symmetry_group_IT_number 2
_symmetry_cell_setting 'triclinic'
loop_
_space_group_symop_operation_xyz
x,y,z
-x,-y,-z
loop_
_atom_site_type_symbol
_atom_site_label
_atom_site_fract_x
_atom_site_fract_y
_atom_site_fract_z
Si Si1 0.980347 0.291748 0.137631
Si Si2 0.663527 0.159100 0.636152
Si Si3 0.075176 0.638822 0.695745
Si Si4 0.305783 0.489149 0.957919
Si Si5 0.365985 0.458322 0.274858
Si Si6 0.286873 0.109177 0.042470
Si Si7 0.389867 0.139742 0.574631
O O1 0.904447 0.239109 0.233759
O O2 0.184278 0.375688 0.245954
O O3 0.000000 0.500000 0.000000
O O4 0.831077 0.049052 0.075580
O O5 0.570909 0.174028 0.666331
O O6 0.850355 0.429110 0.594426
O O7 0.500000 0.000000 0.500000
O O8 0.743840 0.045573 0.797521
O O9 0.155192 0.513736 0.831526
O O10 0.195353 0.854763 0.586508
O O11 0.488025 0.698803 0.914332
O O12 0.370899 0.507232 0.123992
O O13 0.211395 0.232887 0.962268
O O14 0.361368 0.245646 0.395455
O O15 0.559482 0.709258 0.349920
#
# Coordination Sequence:
#
# PCOD8032947 Si02
#       7
#     2   2   2   2   2   2   2
#     4  12  22  42  74 101 133 178 234 283 338 405
#     4  12  25  45  68  97 144 183 227 281 348 416
#     4  12  25  45  76 103 133 187 233 284 345 408
#     4  11  24  43  72 104 136 183 232 289 345 401
#     4  11  23  44  69 102 144 182 225 290 344 405
#     4  11  24  44  68 106 141 176 237 287 341 411
#     4  11  25  45  67 102 144 182 231 278 348 416
#
# _framework density 22.125716000000001
#
# number of rings (size 3 to 8) (size 9 to 14) (size 15 to 20)
#    0.000    0.571    5.714    1.714    0.000    5.714 
#    7.714    0.000    0.000    0.000    0.000    0.000 
#    0.000    0.000    0.000    0.000    0.000    0.000 
#
# Total GULP energy -173646.728580 kJ/mol
# GULP energy per Si atom -12403.337756 kJ/mol
# Density = 2.207536 g / cm^3
# Si number density = 22.125716 Si / 1000 Ang^3
#
#
#
# Elastic Constant Matrix: (Units=GPa)
#
#
# Indices 1 2 3 4 5 6 
#
# 1 79.1182 38.0220 10.4294 -0.0202 6.5326 -5.5648
# 2 38.0220 153.6918 45.5677 4.0493 5.8829 1.9277
# 3 10.4294 45.5677 76.7606 0.2269 1.4847 -7.1233
# 4 -0.0202 4.0493 0.2269 40.3298 -4.2096 -4.9226
# 5 6.5326 5.8829 1.4847 -4.2096 27.3908 3.5820
# 6 -5.5648 1.9277 -7.1233 -4.9226 3.5820 44.4831
#
#
#
# Elastic Compliance Matrix: (Units=1/GPa)
#
#
# Indices 1 2 3 4 5 6 
#
# 1 0.014780 -0.003722 0.000478 0.000354 -0.003007 0.002368
# 2 -0.003722 0.008980 -0.004967 -0.001161 -0.000725 -0.001720
# 3 0.000478 -0.004967 0.016188 0.000749 -0.000197 0.002966
# 4 0.000354 -0.001161 0.000749 0.025631 0.003704 0.002753
# 5 -0.003007 -0.000725 -0.000197 0.003704 0.038361 -0.003055
# 6 0.002368 -0.001720 0.002966 0.002753 -0.003055 0.023877
#
#
# Mechanical properties :
#
#
# Convention : Reuss Voigt Hill
#
# Bulk Modulus (GPa) = 42.50644 55.28988 48.89816
# Shear Modulus (GPa) = 32.87722 36.81083 34.84403
#
# Velocity S-wave (km/s) = 3.85896 4.08329 3.97271
# Velocity P-wave (km/s) = 6.25367 6.87562 6.57201
#
# Compressibility (1/GPa) = 0.02352585
#
# Stress axis : x y z
#
# Youngs Moduli (GPa) = 67.65917 111.35796 61.77353
#
# Poissons Ratio (x) = 0.41450 -0.02955
# Poissons Ratio (y) = 0.25184 0.30685
# Poissons Ratio (z) = -0.03236 0.55315
#
# Static dielectric constant tensor:
#      x y z
#    x 4.305950 -0.230990 0.075580 
#    y -0.230990 4.164220 -0.017960 
#    z 0.075580 -0.017960 3.746330 
# 
# 
# High freq. dielectric constant tensor:
#      x y z
#    x 1.880450 -0.005830 0.005840 
#    y -0.005830 1.883440 -0.001950 
#    z 0.005840 -0.001950 1.860330 
# 
# From -- ./inp_files/183458.got.cif
#   From: 2010.06.25/outbox.cif.g09.slc.cpg/sg2_92_cif.got.tgz:183458.got - 2010.06.27 13:26:56.
