data_PCOD8032510
_publ_section_title
;
Structure prediction by ZEFSAII (Michael W. Deem and Ramdas Pophale) SiO2 
 PCOD8032510
Probable space group: P -1
;
_chemical_formula_sum "Si O2"
_cell_formula_units_Z 14
_cell_length_a 8.871372
_cell_length_b 11.103580
_cell_length_c 17.136805
_cell_angle_alpha 38.121201
_cell_angle_beta 40.511073
_cell_angle_gamma 66.985982
_cell_volume 579.604563
_symmetry_space_group_name_H-M "P -1"
_symmetry_group_IT_number 2
_symmetry_cell_setting 'triclinic'
loop_
_space_group_symop_operation_xyz
x,y,z
-x,-y,-z
loop_
_atom_site_type_symbol
_atom_site_label
_atom_site_fract_x
_atom_site_fract_y
_atom_site_fract_z
Si Si1 0.714275 0.531559 0.780312
Si Si2 0.253675 0.111866 0.786602
Si Si3 0.771166 0.465268 0.479998
Si Si4 0.029063 0.658514 0.014960
Si Si5 0.207687 0.949473 0.657672
Si Si6 0.824462 0.710722 0.803504
Si Si7 0.408052 0.426441 0.365865
O O1 0.848174 0.741320 0.683846
O O2 0.591722 0.566710 0.731741
O O3 0.934175 0.466508 0.701488
O O4 0.463918 0.331250 0.030263
O O5 0.543843 0.219474 0.661401
O O6 0.274787 0.327865 0.625275
O O7 0.218344 0.909771 0.848596
O O8 0.000000 0.000000 0.000000
O O9 0.734762 0.451145 0.596823
O O10 0.146613 0.505408 0.074859
O O11 0.712358 0.537915 0.223669
O O12 0.048484 0.708477 0.888684
O O13 0.058496 0.931559 0.643125
O O14 0.500000 0.000000 0.500000
O O15 0.230378 0.156979 0.593107
#
# Coordination Sequence:
#
# PCOD8032510 Si02
#       7
#     2   2   2   2   2   2   2
#     4  11  26  47  67  99 150 184 221 286 350 417
#     4  11  23  42  73 104 132 176 230 292 340 395
#     4  11  25  45  70 105 139 178 235 279 346 426
#     4  12  23  45  73 104 136 178 234 291 340 402
#     4  12  24  41  74 105 132 184 235 288 340 403
#     4  11  25  47  70 101 144 182 232 285 345 410
#     4  12  24  46  71 105 141 179 233 285 346 415
#
# _framework density 24.154398
#
# number of rings (size 3 to 8) (size 9 to 14) (size 15 to 20)
#    0.000    0.571    5.714    2.571    4.000    0.571 
#    7.714    1.429    0.000    0.000    0.000    0.000 
#    0.000    0.000    0.000    0.000    0.000    0.000 
#
# Total GULP energy -173468.446341 kJ/mol
# GULP energy per Si atom -12390.603310 kJ/mol
# Density = 2.409942 g / cm^3
# Si number density = 24.154398 Si / 1000 Ang^3
#
#
#
# Elastic Constant Matrix: (Units=GPa)
#
#
# Indices 1 2 3 4 5 6 
#
# 1 92.9029 39.3397 33.5635 5.8272 -23.3640 24.6144
# 2 39.3397 108.7380 51.8712 10.2554 -27.5007 18.8203
# 3 33.5635 51.8712 91.3614 8.9311 -25.2679 10.8704
# 4 5.8272 10.2554 8.9311 57.5449 4.7313 -4.6775
# 5 -23.3640 -27.5007 -25.2679 4.7313 47.0877 1.8175
# 6 24.6144 18.8203 10.8704 -4.6775 1.8175 38.1595
#
#
#
# Elastic Compliance Matrix: (Units=1/GPa)
#
#
# Indices 1 2 3 4 5 6 
#
# 1 0.016677 -0.001286 -0.001958 -0.002572 0.007126 -0.010220
# 2 -0.001286 0.014915 -0.005546 -0.002574 0.005569 -0.005528
# 3 -0.001958 -0.005546 0.016479 -0.001865 0.004864 -0.001156
# 4 -0.002572 -0.002574 -0.001865 0.019374 -0.005963 0.006119
# 5 0.007126 0.005569 0.004864 -0.005963 0.031658 -0.010968
# 6 -0.010220 -0.005528 -0.001156 0.006119 -0.010968 0.037126
#
#
# Mechanical properties :
#
#
# Convention : Reuss Voigt Hill
#
# Bulk Modulus (GPa) = 32.79700 60.28345 46.54023
# Shear Modulus (GPa) = 30.49267 39.77362 35.13314
#
# Velocity S-wave (km/s) = 3.55689 4.06228 3.81796
# Velocity P-wave (km/s) = 5.52052 6.85672 6.22458
#
# Compressibility (1/GPa) = 0.03049059
#
# Stress axis : x y z
#
# Youngs Moduli (GPa) = 59.96239 67.04534 60.68308
#
# Poissons Ratio (x) = 0.08619 0.11885
# Poissons Ratio (y) = 0.07708 0.33658
# Poissons Ratio (z) = 0.11743 0.37186
#
# Static dielectric constant tensor:
#      x y z
#    x 4.645660 0.690850 -0.058360 
#    y 0.690850 5.222690 -0.570970 
#    z -0.058360 -0.570970 5.060470 
# 
# 
# High freq. dielectric constant tensor:
#      x y z
#    x 1.961180 0.031800 -0.011820 
#    y 0.031800 1.962230 0.009020 
#    z -0.011820 0.009020 1.959520 
# 
# From -- ./inp_files/68937.got.cif
#   From: 2010.06.25/outbox.cif.g09.slc.cpg/sg2_35_cif.got.tgz:68937.got - 2010.06.27 13:26:56.
