data_PCOD8032438
_publ_section_title
;
Structure prediction by ZEFSAII (Michael W. Deem and Ramdas Pophale) SiO2 
 PCOD8032438
Probable space group: P -1
;
_chemical_formula_sum "Si O2"
_cell_formula_units_Z 16
_cell_length_a 8.881488
_cell_length_b 9.204244
_cell_length_c 11.606958
_cell_angle_alpha 102.724873
_cell_angle_beta 78.166553
_cell_angle_gamma 128.407648
_cell_volume 722.363484
_symmetry_space_group_name_H-M "P -1"
_symmetry_group_IT_number 2
_symmetry_cell_setting 'triclinic'
loop_
_space_group_symop_operation_xyz
x,y,z
-x,-y,-z
loop_
_atom_site_type_symbol
_atom_site_label
_atom_site_fract_x
_atom_site_fract_y
_atom_site_fract_z
Si Si1 0.679503 0.998331 0.444921
Si Si2 0.278115 0.485413 0.657306
Si Si3 0.226641 0.506857 0.187209
Si Si4 0.366710 0.280584 0.758576
Si Si5 0.891747 0.669727 0.587780
Si Si6 0.884378 0.241620 0.808941
Si Si7 0.054227 0.189224 0.973813
Si Si8 0.319444 0.149201 0.351115
O O1 0.652864 0.903987 0.307920
O O2 0.692547 0.874276 0.514113
O O3 0.500000 0.000000 0.500000
O O4 0.880470 0.204615 0.451062
O O5 0.364374 0.374599 0.657417
O O6 0.224739 0.459768 0.526332
O O7 0.454350 0.703225 0.693958
O O8 0.092326 0.408821 0.751901
O O9 0.444027 0.578471 0.173140
O O10 0.139142 0.458190 0.321611
O O11 0.232272 0.673007 0.158749
O O12 0.118064 0.327574 0.092866
O O13 0.202453 0.243074 0.859581
O O14 0.815187 0.790281 0.654191
O O15 0.889165 0.184075 0.929955
O O16 0.770449 0.052900 0.721227
O O17 0.000000 0.000000 0.000000
#
# Coordination Sequence:
#
# PCOD8032438 Si02
#       8
#     2   2   2   2   2   2   2   2
#     4  12  25  39  66 108 149 180 227 292 351 420
#     4  11  23  42  70 104 140 193 228 282 348 433
#     4  12  25  45  69 102 140 182 232 299 348 399
#     4  11  23  44  70 102 138 181 235 285 345 425
#     4  12  23  43  71 100 148 190 235 278 350 426
#     4  11  26  45  70 102 145 180 231 296 358 403
#     4  11  25  49  75  97 130 186 244 286 345 416
#     4  12  22  43  68 100 143 187 235 271 351 427
#
# _framework density 22.149512999999999
#
# number of rings (size 3 to 8) (size 9 to 14) (size 15 to 20)
#    0.000    0.500    3.750    6.000    1.750    0.500 
#    2.250    0.625    0.000    0.000    0.000    0.000 
#    0.000    0.000    0.000    0.000    0.000    0.000 
#
# Total GULP energy -198369.145515 kJ/mol
# GULP energy per Si atom -12398.071595 kJ/mol
# Density = 2.209910 g / cm^3
# Si number density = 22.149513 Si / 1000 Ang^3
#
#
#
# Elastic Constant Matrix: (Units=GPa)
#
#
# Indices 1 2 3 4 5 6 
#
# 1 94.8454 42.3017 38.8048 2.6754 16.3716 0.5333
# 2 42.3017 99.5916 25.2977 -1.7476 17.2912 7.6181
# 3 38.8048 25.2977 97.5891 0.6285 29.2375 -8.7682
# 4 2.6754 -1.7476 0.6285 26.9837 -11.8752 10.4719
# 5 16.3716 17.2912 29.2375 -11.8752 26.4874 -0.2916
# 6 0.5333 7.6181 -8.7682 10.4719 -0.2916 38.5061
#
#
#
# Elastic Compliance Matrix: (Units=1/GPa)
#
#
# Indices 1 2 3 4 5 6 
#
# 1 0.014906 -0.004930 -0.003297 -0.003940 -0.004110 0.001058
# 2 -0.004930 0.013329 0.000009 -0.000201 -0.005782 -0.002556
# 3 -0.003297 0.000009 0.020871 -0.015977 -0.028070 0.008929
# 4 -0.003940 -0.000201 -0.015977 0.068594 0.050715 -0.021814
# 5 -0.004110 -0.005782 -0.028070 0.050715 0.097590 -0.018244
# 6 0.001058 -0.002556 0.008929 -0.021814 -0.018244 0.034288
#
#
# Mechanical properties :
#
#
# Convention : Reuss Voigt Hill
#
# Bulk Modulus (GPa) = 30.61031 56.09271 43.35151
# Shear Modulus (GPa) = 18.05683 30.77025 24.41354
#
# Velocity S-wave (km/s) = 2.85831 3.73125 3.32357
# Velocity P-wave (km/s) = 4.97425 6.62892 5.86027
#
# Compressibility (1/GPa) = 0.03266873
#
# Stress axis : x y z
#
# Youngs Moduli (GPa) = 67.08666 75.02605 47.91405
#
# Poissons Ratio (x) = 0.36991 0.15799
# Poissons Ratio (y) = 0.33076 -0.00045
# Poissons Ratio (z) = 0.22121 -0.00070
#
# Static dielectric constant tensor:
#      x y z
#    x 4.029780 0.332340 0.038680 
#    y 0.332340 3.485930 0.455550 
#    z 0.038680 0.455550 3.359370 
# 
# 
# High freq. dielectric constant tensor:
#      x y z
#    x 1.879890 0.001180 0.018040 
#    y 0.001180 1.877100 0.001290 
#    z 0.018040 0.001290 1.863570 
# 
# From -- ./inp_files/206525.got.cif
#   From: 2010.06.25/outbox.cif.g09.slc.cpg/sg2_104_cif.got.tgz:206525.got - 2010.06.27 13:26:56.
