data_PCOD8032279
_publ_section_title
;
Structure prediction by ZEFSAII (Michael W. Deem and Ramdas Pophale) SiO2 
 PCOD8032279
Probable space group: P -1
;
_chemical_formula_sum "Si O2"
_cell_formula_units_Z 16
_cell_length_a 5.859202
_cell_length_b 9.079209
_cell_length_c 18.005676
_cell_angle_alpha 76.408520
_cell_angle_beta 51.808198
_cell_angle_gamma 78.572441
_cell_volume 729.981278
_symmetry_space_group_name_H-M "P -1"
_symmetry_group_IT_number 2
_symmetry_cell_setting 'triclinic'
loop_
_space_group_symop_operation_xyz
x,y,z
-x,-y,-z
loop_
_atom_site_type_symbol
_atom_site_label
_atom_site_fract_x
_atom_site_fract_y
_atom_site_fract_z
Si Si1 0.680144 0.381911 0.527941
Si Si2 0.239902 0.918634 0.518592
Si Si3 0.248635 0.795238 0.075651
Si Si4 0.179851 0.643660 0.960246
Si Si5 0.883468 0.241511 0.294385
Si Si6 0.335662 0.429161 0.353493
Si Si7 0.269913 0.502504 0.194044
Si Si8 0.885051 0.874356 0.888536
O O1 0.500000 0.500000 0.500000
O O2 0.586121 0.212485 0.550054
O O3 0.613580 0.427583 0.620546
O O4 0.016006 0.379517 0.438369
O O5 0.053721 0.846190 0.630599
O O6 0.500000 0.000000 0.500000
O O7 0.000000 0.000000 0.500000
O O8 0.227830 0.680046 0.162052
O O9 0.080740 0.952308 0.115028
O O10 0.087439 0.722426 0.047295
O O11 0.576479 0.820101 0.982636
O O12 0.516087 0.583075 0.898905
O O13 0.134757 0.768651 0.890406
O O14 0.000000 0.500000 0.000000
O O15 0.538497 0.273975 0.345772
O O16 0.978072 0.414694 0.258863
O O17 0.059040 0.141362 0.208681
O O18 0.399858 0.490670 0.251687
#
# Coordination Sequence:
#
# PCOD8032279 Si02
#       8
#     2   2   2   2   2   2   2   2
#     4  11  23  46  75 100 136 186 235 300 358 434
#     4  12  28  48  75 108 151 191 239 303 384 447
#     4  11  25  42  63 105 135 183 230 296 352 418
#     4  12  22  40  68  97 136 192 236 286 352 429
#     4  12  24  46  70 103 138 193 239 297 355 448
#     4  11  23  41  75 102 137 178 252 295 359 426
#     4  12  23  40  72  99 138 180 251 288 349 433
#     4  11  24  44  67  95 148 180 227 293 362 414
#
# _framework density 21.918372000000002
#
# number of rings (size 3 to 8) (size 9 to 14) (size 15 to 20)
#    0.000    0.500    6.250    2.250    1.750    1.000 
#    2.250    0.000    0.000    0.000    0.000    0.000 
#    0.000    0.000    0.000    0.000    0.000    0.000 
#
# Total GULP energy -198336.317393 kJ/mol
# GULP energy per Si atom -12396.019837 kJ/mol
# Density = 2.186848 g / cm^3
# Si number density = 21.918372 Si / 1000 Ang^3
#
#
#
# Elastic Constant Matrix: (Units=GPa)
#
#
# Indices 1 2 3 4 5 6 
#
# 1 110.0760 56.7654 31.6995 -2.3400 13.7888 -0.2955
# 2 56.7654 167.4290 46.1824 4.1376 15.2681 6.6493
# 3 31.6995 46.1824 99.4376 0.7738 20.3969 0.2778
# 4 -2.3400 4.1376 0.7738 31.6887 1.5679 11.6536
# 5 13.7888 15.2681 20.3969 1.5679 47.6313 3.0817
# 6 -0.2955 6.6493 0.2778 11.6536 3.0817 44.9022
#
#
#
# Elastic Compliance Matrix: (Units=1/GPa)
#
#
# Indices 1 2 3 4 5 6 
#
# 1 0.011544 -0.003312 -0.001833 0.001277 -0.001560 0.000353
# 2 -0.003312 0.007883 -0.002514 -0.000852 -0.000404 -0.000925
# 3 -0.001833 -0.002514 0.012652 -0.000133 -0.004116 0.000599
# 4 0.001277 -0.000852 -0.000133 0.035079 -0.000617 -0.008926
# 5 -0.001560 -0.000404 -0.004116 -0.000617 0.023448 -0.001374
# 6 0.000353 -0.000925 0.000599 -0.008926 -0.001374 0.024817
#
#
# Mechanical properties :
#
#
# Convention : Reuss Voigt Hill
#
# Bulk Modulus (GPa) = 59.65498 71.80413 65.72956
# Shear Modulus (GPa) = 36.67668 40.99747 38.83707
#
# Velocity S-wave (km/s) = 4.09507 4.32957 4.21396
# Velocity P-wave (km/s) = 7.04525 7.60424 7.33008
#
# Compressibility (1/GPa) = 0.01676306
#
# Stress axis : x y z
#
# Youngs Moduli (GPa) = 86.62702 126.84906 79.03979
#
# Poissons Ratio (x) = 0.42007 0.14487
# Poissons Ratio (y) = 0.28687 0.19867
# Poissons Ratio (z) = 0.15878 0.31884
#
# Static dielectric constant tensor:
#      x y z
#    x 4.103560 0.099680 0.082530 
#    y 0.099680 4.220770 0.150480 
#    z 0.082530 0.150480 4.220220 
# 
# 
# High freq. dielectric constant tensor:
#      x y z
#    x 1.869620 0.004560 0.011210 
#    y 0.004560 1.866180 0.009370 
#    z 0.011210 0.009370 1.859810 
# 
# From -- ./inp_files/89864.got.cif
#   From: 2010.06.25/outbox.cif.g09.slc.cpg/sg2_45_cif.got.tgz:89864.got - 2010.06.27 13:26:56.
