data_PCOD8032745
_publ_section_title
;
Structure prediction by ZEFSAII (Michael W. Deem and Ramdas Pophale) SiO2 
 PCOD8032745
Probable space group: P -1
;
_chemical_formula_sum "Si O2"
_cell_formula_units_Z 12
_cell_length_a 6.728302
_cell_length_b 9.404954
_cell_length_c 11.797013
_cell_angle_alpha 74.025965
_cell_angle_beta 117.267036
_cell_angle_gamma 130.364251
_cell_volume 505.336790
_symmetry_space_group_name_H-M "P -1"
_symmetry_group_IT_number 2
_symmetry_cell_setting 'triclinic'
loop_
_space_group_symop_operation_xyz
x,y,z
-x,-y,-z
loop_
_atom_site_type_symbol
_atom_site_label
_atom_site_fract_x
_atom_site_fract_y
_atom_site_fract_z
Si Si1 0.397396 0.466038 0.295276
Si Si2 0.937974 0.129317 0.393512
Si Si3 0.040209 0.681204 0.439650
Si Si4 0.503313 0.369601 0.118235
Si Si5 0.862572 0.333806 0.769177
Si Si6 0.459393 0.018531 0.116125
O O1 0.729299 0.625273 0.360449
O O2 0.323689 0.346202 0.186545
O O3 0.299119 0.594962 0.234059
O O4 0.240496 0.315622 0.388720
O O5 0.712558 0.043860 0.250005
O O6 0.802419 0.175632 0.446793
O O7 0.000000 0.000000 0.500000
O O8 0.000000 0.500000 0.500000
O O9 0.234978 0.766552 0.358385
O O10 0.408184 0.172517 0.087465
O O11 0.825967 0.481106 0.213745
O O12 0.500000 0.500000 0.000000
O O13 0.830044 0.181745 0.879207
O O14 0.500000 0.000000 0.000000
#
# Coordination Sequence:
#
# PCOD8032745 Si02
#       6
#     2   2   2   2   2   2
#     4  11  23  46  71 105 148 190 240 304 366 429
#     4  12  26  43  73 112 147 191 243 300 363 435
#     4  11  23  43  71 105 142 192 242 292 372 427
#     4  11  26  47  74 105 143 198 244 300 365 431
#     4  11  25  47  74 104 148 189 242 303 361 439
#     4  12  28  49  74 108 147 196 247 298 364 436
#
# _framework density 23.74654
#
# number of rings (size 3 to 8) (size 9 to 14) (size 15 to 20)
#    0.000    0.667    3.333    3.500    7.000    4.000 
#    0.000    0.000    0.000    0.000    0.000    0.000 
#    0.000    0.000    0.000    0.000    0.000    0.000 
#
# Total GULP energy -148716.854586 kJ/mol
# GULP energy per Si atom -12393.071216 kJ/mol
# Density = 2.369249 g / cm^3
# Si number density = 23.746540 Si / 1000 Ang^3
#
#
#
# Elastic Constant Matrix: (Units=GPa)
#
#
# Indices 1 2 3 4 5 6 
#
# 1 127.6275 49.0655 50.5424 -2.4424 -32.9056 -41.7147
# 2 49.0655 138.4392 42.1704 -25.4178 -24.9475 -37.3738
# 3 50.5424 42.1704 130.3401 -9.5504 -35.5758 -36.3018
# 4 -2.4424 -25.4178 -9.5504 48.3748 -4.3826 -0.5607
# 5 -32.9056 -24.9475 -35.5758 -4.3826 59.0670 3.3269
# 6 -41.7147 -37.3738 -36.3018 -0.5607 3.3269 45.6613
#
#
#
# Elastic Compliance Matrix: (Units=1/GPa)
#
#
# Indices 1 2 3 4 5 6 
#
# 1 0.013552 -0.000102 0.000106 0.001424 0.007006 0.011888
# 2 -0.000102 0.012040 0.001070 0.007161 0.005625 0.010291
# 3 0.000106 0.001070 0.012623 0.003889 0.007811 0.010486
# 4 0.001424 0.007161 0.003889 0.026073 0.007530 0.010026
# 5 0.007006 0.005625 0.007811 0.007530 0.027611 0.015296
# 6 0.011888 0.010291 0.010486 0.010026 0.015296 0.048530
#
#
# Mechanical properties :
#
#
# Convention : Reuss Voigt Hill
#
# Bulk Modulus (GPa) = 24.77532 75.55148 50.16340
# Shear Modulus (GPa) = 32.95237 47.59584 40.27411
#
# Velocity S-wave (km/s) = 3.72919 4.48183 4.12272
# Velocity P-wave (km/s) = 5.38501 7.65945 6.62063
#
# Compressibility (1/GPa) = 0.04036275
#
# Stress axis : x y z
#
# Youngs Moduli (GPa) = 73.79033 83.05589 79.22245
#
# Poissons Ratio (x) = 0.00845 -0.00837
# Poissons Ratio (y) = 0.00751 -0.08478
# Poissons Ratio (z) = -0.00780 -0.08888
#
# Static dielectric constant tensor:
#      x y z
#    x 4.332040 -0.075090 -0.296620 
#    y -0.075090 4.330390 0.047100 
#    z -0.296620 0.047100 4.404410 
# 
# 
# High freq. dielectric constant tensor:
#      x y z
#    x 1.949740 -0.012150 -0.017500 
#    y -0.012150 1.945540 -0.007240 
#    z -0.017500 -0.007240 1.948230 
# 
# From -- ./inp_files/26369.got.cif
#   From: 2010.06.25/outbox.cif.g09.slc.cpg/sg2_14_cif.got.tgz:26369.got - 2010.06.27 13:26:56.
