data_PCOD8032933
_publ_section_title
;
Structure prediction by ZEFSAII (Michael W. Deem and Ramdas Pophale) SiO2 
 PCOD8032933
Probable space group: P -1
;
_chemical_formula_sum "Si O2"
_cell_formula_units_Z 16
_cell_length_a 8.923053
_cell_length_b 18.835452
_cell_length_c 6.745419
_cell_angle_alpha 78.022259
_cell_angle_beta 128.470431
_cell_angle_gamma 122.942525
_cell_volume 729.992469
_symmetry_space_group_name_H-M "P -1"
_symmetry_group_IT_number 2
_symmetry_cell_setting 'triclinic'
loop_
_space_group_symop_operation_xyz
x,y,z
-x,-y,-z
loop_
_atom_site_type_symbol
_atom_site_label
_atom_site_fract_x
_atom_site_fract_y
_atom_site_fract_z
Si Si1 0.201203 0.228139 0.528566
Si Si2 0.758402 0.415847 0.364707
Si Si3 0.185530 0.789106 0.524604
Si Si4 0.963622 0.946588 0.701142
Si Si5 0.661343 0.300460 0.023679
Si Si6 0.080387 0.671766 0.176833
Si Si7 0.634719 0.959557 0.720286
Si Si8 0.390553 0.409982 0.344488
O O1 0.117776 0.153055 0.341292
O O2 0.297176 0.323130 0.452658
O O3 0.998250 0.195459 0.537953
O O4 0.396063 0.228498 0.817429
O O5 0.669238 0.381730 0.087527
O O6 0.803242 0.349596 0.543943
O O7 0.580015 0.426161 0.334049
O O8 0.000000 0.500000 0.500000
O O9 0.185994 0.720710 0.708432
O O10 0.110207 0.758181 0.250153
O O11 0.441883 0.869013 0.703076
O O12 0.770053 0.947916 0.663749
O O13 0.000000 0.000000 0.500000
O O14 0.196803 0.986131 0.993118
O O15 0.771041 0.319868 0.889927
O O16 0.818134 0.602307 0.950845
O O17 0.500000 0.000000 0.500000
O O18 0.500000 0.500000 0.500000
#
# Coordination Sequence:
#
# PCOD8032933 Si02
#       8
#     2   2   2   2   2   2   2   2
#     4  12  25  44  73 100 143 187 229 291 349 415
#     4  11  26  43  70  97 133 184 235 296 350 406
#     4  11  25  43  70 105 135 183 234 282 354 419
#     4  11  26  48  72 108 144 185 238 290 360 426
#     4  11  23  44  68  99 134 182 234 285 352 411
#     4  11  24  45  70  96 138 178 235 293 344 416
#     4  11  26  45  74 105 145 184 232 297 354 434
#     4  12  27  44  69 102 140 187 237 285 350 412
#
# _framework density 21.918035
#
# number of rings (size 3 to 8) (size 9 to 14) (size 15 to 20)
#    0.000    0.750    2.500    3.750    7.000    5.500 
#    0.000    0.000    0.000    0.000    0.000    0.000 
#    0.000    0.000    0.000    0.000    0.000    0.000 
#
# Total GULP energy -198246.184171 kJ/mol
# GULP energy per Si atom -12390.386511 kJ/mol
# Density = 2.186815 g / cm^3
# Si number density = 21.918035 Si / 1000 Ang^3
#
#
#
# Elastic Constant Matrix: (Units=GPa)
#
#
# Indices 1 2 3 4 5 6 
#
# 1 168.1685 46.3833 79.3689 27.4552 2.8726 11.4934
# 2 46.3833 102.3003 41.5720 27.8176 -17.3638 -0.9407
# 3 79.3689 41.5720 135.1721 34.9511 -5.6307 -4.5415
# 4 27.4552 27.8176 34.9511 47.9483 0.8650 -0.3096
# 5 2.8726 -17.3638 -5.6307 0.8650 40.3137 6.3047
# 6 11.4934 -0.9407 -4.5415 -0.3096 6.3047 39.7587
#
#
#
# Elastic Compliance Matrix: (Units=1/GPa)
#
#
# Indices 1 2 3 4 5 6 
#
# 1 0.009136 -0.002494 -0.004684 -0.000354 -0.001913 -0.002935
# 2 -0.002494 0.014030 -0.001023 -0.006079 0.006224 -0.000098
# 3 -0.004684 -0.001023 0.012020 -0.005494 0.001306 0.002453
# 4 -0.000354 -0.006079 -0.005494 0.028664 -0.004005 0.000189
# 5 -0.001913 0.006224 0.001306 -0.004005 0.028469 -0.003696
# 6 -0.002935 -0.000098 0.002453 0.000189 -0.003696 0.026865
#
#
# Mechanical properties :
#
#
# Convention : Reuss Voigt Hill
#
# Bulk Modulus (GPa) = 53.23457 82.25436 67.74446
# Shear Modulus (GPa) = 35.24901 41.49193 38.37047
#
# Velocity S-wave (km/s) = 4.01461 4.35564 4.18860
# Velocity P-wave (km/s) = 6.76980 7.93127 7.37344
#
# Compressibility (1/GPa) = 0.01878479
#
# Stress axis : x y z
#
# Youngs Moduli (GPa) = 109.45579 71.27564 83.19276
#
# Poissons Ratio (x) = 0.17778 0.38967
# Poissons Ratio (y) = 0.27300 0.08508
# Poissons Ratio (z) = 0.51269 0.07289
#
# Static dielectric constant tensor:
#      x y z
#    x 4.429460 -0.067140 -0.154340 
#    y -0.067140 4.181600 0.256880 
#    z -0.154340 0.256880 4.191420 
# 
# 
# High freq. dielectric constant tensor:
#      x y z
#    x 1.888340 0.000570 -0.001810 
#    y 0.000570 1.852850 0.014170 
#    z -0.001810 0.014170 1.881170 
# 
# From -- ./inp_files/48413.got.cif
#   From: 2010.06.25/outbox.cif.g09.slc.cpg/sg2_25_cif.got.tgz:48413.got - 2010.06.27 13:26:56.
