data_PCOD8032876
_publ_section_title
;
Structure prediction by ZEFSAII (Michael W. Deem and Ramdas Pophale) SiO2 
 PCOD8032876
Probable space group: P -1
;
_chemical_formula_sum "Si O2"
_cell_formula_units_Z 16
_cell_length_a 9.006678
_cell_length_b 12.482988
_cell_length_c 7.842176
_cell_angle_alpha 101.411204
_cell_angle_beta 88.016333
_cell_angle_gamma 131.213679
_cell_volume 644.649330
_symmetry_space_group_name_H-M "P -1"
_symmetry_group_IT_number 2
_symmetry_cell_setting 'triclinic'
loop_
_space_group_symop_operation_xyz
x,y,z
-x,-y,-z
loop_
_atom_site_type_symbol
_atom_site_label
_atom_site_fract_x
_atom_site_fract_y
_atom_site_fract_z
Si Si1 0.118247 0.975708 0.136232
Si Si2 0.800502 0.758125 0.629433
Si Si3 0.254568 0.284413 0.764240
Si Si4 0.600692 0.426226 0.238104
Si Si5 0.951642 0.396026 0.659633
Si Si6 0.958139 0.323169 0.277916
Si Si7 0.603393 0.832951 0.089863
Si Si8 0.728507 0.170401 0.896777
O O1 0.123897 0.081948 0.292965
O O2 0.171875 0.038275 0.957474
O O3 0.286443 0.967446 0.176213
O O4 0.911899 0.807331 0.108888
O O5 0.846593 0.756377 0.429743
O O6 0.563613 0.632905 0.628249
O O7 0.912486 0.724496 0.731860
O O8 0.381266 0.456020 0.843560
O O9 0.384789 0.236895 0.763993
O O10 0.530962 0.292544 0.083768
O O11 0.809464 0.499865 0.339876
O O12 0.905506 0.503041 0.715393
O O13 0.883135 0.300330 0.800622
O O14 0.855530 0.298110 0.459644
O O15 0.795456 0.227362 0.106253
O O16 0.493112 0.892335 0.153680
#
# Coordination Sequence:
#
# PCOD8032876 Si02
#       8
#     2   2   2   2   2   2   2   2
#     4  11  26  48  67  99 140 185 235 283 341 422
#     4  11  26  44  71 104 139 182 229 292 351 402
#     4  12  24  44  72 102 139 180 233 287 352 416
#     4  11  23  44  65 106 139 174 232 292 339 411
#     4  11  24  44  69 110 139 182 230 288 350 420
#     4  11  25  42  73 103 145 179 229 291 349 414
#     4  11  27  43  68 103 138 183 233 285 349 411
#     4  12  25  46  72  98 143 189 232 280 355 410
#
# _framework density 24.819697000000001
#
# number of rings (size 3 to 8) (size 9 to 14) (size 15 to 20)
#    0.000    0.750    3.750    2.250    7.000    1.000 
#    0.000    0.625    0.000    0.000    0.000    0.000 
#    0.000    0.000    0.000    0.000    0.000    0.000 
#
# Total GULP energy -198339.523218 kJ/mol
# GULP energy per Si atom -12396.220201 kJ/mol
# Density = 2.476321 g / cm^3
# Si number density = 24.819697 Si / 1000 Ang^3
#
#
#
# Elastic Constant Matrix: (Units=GPa)
#
#
# Indices 1 2 3 4 5 6 
#
# 1 91.9275 27.5945 29.8271 -5.6244 1.8886 -25.6891
# 2 27.5945 111.1739 30.5949 -16.0625 -10.7156 -21.7582
# 3 29.8271 30.5949 88.3623 -12.7157 13.9935 -5.9729
# 4 -5.6244 -16.0625 -12.7157 35.1778 -8.8381 -3.9906
# 5 1.8886 -10.7156 13.9935 -8.8381 31.7253 -4.4727
# 6 -25.6891 -21.7582 -5.9729 -3.9906 -4.4727 57.6976
#
#
#
# Elastic Compliance Matrix: (Units=1/GPa)
#
#
# Indices 1 2 3 4 5 6 
#
# 1 0.014165 -0.000804 -0.004203 0.001540 0.001989 0.005829
# 2 -0.000804 0.013468 -0.004443 0.007399 0.009393 0.005501
# 3 -0.004203 -0.004443 0.015491 0.000525 -0.008296 -0.002550
# 4 0.001540 0.007399 0.000525 0.036389 0.013311 0.007079
# 5 0.001989 0.009393 -0.008296 0.013311 0.043046 0.007827
# 6 0.005829 0.005501 -0.002550 0.007079 0.007827 0.022834
#
#
# Mechanical properties :
#
#
# Convention : Reuss Voigt Hill
#
# Bulk Modulus (GPa) = 41.27916 51.94407 46.61161
# Shear Modulus (GPa) = 29.00771 38.48331 33.74551
#
# Velocity S-wave (km/s) = 3.42239 3.94193 3.69131
# Velocity P-wave (km/s) = 5.68196 6.45697 6.08182
#
# Compressibility (1/GPa) = 0.02422530
#
# Stress axis : x y z
#
# Youngs Moduli (GPa) = 70.59410 74.24876 64.55356
#
# Poissons Ratio (x) = 0.05973 0.27129
# Poissons Ratio (y) = 0.05679 0.28679
# Poissons Ratio (z) = 0.29668 0.32987
#
# Static dielectric constant tensor:
#      x y z
#    x 4.773890 -0.450620 -0.018010 
#    y -0.450620 4.668000 -0.225430 
#    z -0.018010 -0.225430 4.138830 
# 
# 
# High freq. dielectric constant tensor:
#      x y z
#    x 2.003090 -0.031910 0.005040 
#    y -0.031910 1.991250 -0.014700 
#    z 0.005040 -0.014700 1.971590 
# 
# From -- ./inp_files/187720.got.cif
#   From: 2010.06.25/outbox.cif.g09.slc.cpg/sg2_94_cif.got.tgz:187720.got - 2010.06.27 13:26:56.
