data_PCOD8032020
_publ_section_title
;
Structure prediction by ZEFSAII (Michael W. Deem and Ramdas Pophale) SiO2 
 PCOD8032020
Probable space group: P -1
;
_chemical_formula_sum "Si O2"
_cell_formula_units_Z 16
_cell_length_a 11.937507
_cell_length_b 16.292578
_cell_length_c 10.892277
_cell_angle_alpha 24.442273
_cell_angle_beta 89.382817
_cell_angle_gamma 103.208235
_cell_volume 716.548139
_symmetry_space_group_name_H-M "P -1"
_symmetry_group_IT_number 2
_symmetry_cell_setting 'triclinic'
loop_
_space_group_symop_operation_xyz
x,y,z
-x,-y,-z
loop_
_atom_site_type_symbol
_atom_site_label
_atom_site_fract_x
_atom_site_fract_y
_atom_site_fract_z
Si Si1 0.631544 0.936313 0.681257
Si Si2 0.302916 0.598847 0.839345
Si Si3 0.728585 0.784041 0.476257
Si Si4 0.811878 0.154752 0.160740
Si Si5 0.074215 0.278443 0.089654
Si Si6 0.703313 0.634991 0.212918
Si Si7 0.312153 0.553058 0.262694
Si Si8 0.502246 0.201018 0.650690
O O1 0.693179 0.220982 0.306630
O O2 0.690997 0.937291 0.544748
O O3 0.705361 0.875315 0.867547
O O4 0.466032 0.753301 0.936980
O O5 0.419013 0.778337 0.499823
O O6 0.344613 0.433944 0.126656
O O7 0.156995 0.436086 0.993383
O O8 0.777043 0.678334 0.513948
O O9 0.642320 0.865462 0.299594
O O10 0.838235 0.027032 0.220542
O O11 0.957394 0.321601 0.001501
O O12 0.768004 0.324842 0.880468
O O13 0.169450 0.347585 0.874586
O O14 0.000000 0.000000 0.500000
O O15 0.683698 0.558423 0.457562
O O16 0.567750 0.441719 0.401382
O O17 0.500000 0.000000 0.000000
#
# Coordination Sequence:
#
# PCOD8032020 Si02
#       8
#     2   2   2   2   2   2   2   2
#     4  12  23  42  70 103 140 172 224 282 339 408
#     4  11  24  40  69 102 127 181 229 274 341 394
#     4  12  24  40  68  99 140 175 222 276 339 400
#     4  12  25  45  70  99 134 183 229 281 328 398
#     4  11  23  48  72  90 133 182 236 278 327 397
#     4  11  24  45  67  97 139 182 218 278 341 398
#     4  12  27  43  67 107 142 172 222 280 346 405
#     4  11  23  40  66 100 136 179 218 272 343 413
#
# _framework density 22.329274000000002
#
# number of rings (size 3 to 8) (size 9 to 14) (size 15 to 20)
#    0.000    0.500    5.000    4.125    3.500    1.000 
#    2.250    0.625    0.000    0.000    0.000    0.000 
#    0.000    0.000    0.000    0.000    0.000    0.000 
#
# Total GULP energy -198297.113655 kJ/mol
# GULP energy per Si atom -12393.569603 kJ/mol
# Density = 2.227845 g / cm^3
# Si number density = 22.329274 Si / 1000 Ang^3
#
#
#
# Elastic Constant Matrix: (Units=GPa)
#
#
# Indices 1 2 3 4 5 6 
#
# 1 78.2201 13.5712 19.0261 0.4179 25.5014 7.3666
# 2 13.5712 86.7537 4.7301 -6.0341 3.4439 -17.3700
# 3 19.0261 4.7301 55.6091 3.6232 25.5941 -1.2677
# 4 0.4179 -6.0341 3.6232 39.0825 1.7253 16.7414
# 5 25.5014 3.4439 25.5941 1.7253 37.1042 9.0940
# 6 7.3666 -17.3700 -1.2677 16.7414 9.0940 17.4248
#
#
#
# Elastic Compliance Matrix: (Units=1/GPa)
#
#
# Indices 1 2 3 4 5 6 
#
# 1 0.017990 -0.005410 -0.004294 0.007119 -0.004922 -0.017583
# 2 -0.005410 0.021526 0.010359 -0.018970 -0.017217 0.051711
# 3 -0.004294 0.010359 0.039581 -0.026246 -0.038935 0.060559
# 4 0.007119 -0.018970 -0.026246 0.071884 0.039443 -0.113480
# 5 -0.004922 -0.017217 -0.038935 0.039443 0.080994 -0.098082
# 6 -0.017583 0.051711 0.060559 -0.113480 -0.098082 0.280996
#
#
# Mechanical properties :
#
#
# Convention : Reuss Voigt Hill
#
# Bulk Modulus (GPa) = 12.43681 32.80420 22.62050
# Shear Modulus (GPa) = 9.28567 30.93934 20.11250
#
# Velocity S-wave (km/s) = 2.04146 3.72640 3.00446
# Velocity P-wave (km/s) = 3.33745 5.76522 4.71043
#
# Compressibility (1/GPa) = 0.08040650
#
# Stress axis : x y z
#
# Youngs Moduli (GPa) = 55.58633 46.45535 25.26449
#
# Poissons Ratio (x) = 0.25132 0.10850
# Poissons Ratio (y) = 0.30072 -0.26171
# Poissons Ratio (z) = 0.23871 -0.48123
#
# Static dielectric constant tensor:
#      x y z
#    x 4.029680 0.123980 -0.059840 
#    y 0.123980 4.347430 -0.044430 
#    z -0.059840 -0.044430 3.503550 
# 
# 
# High freq. dielectric constant tensor:
#      x y z
#    x 1.865310 0.004220 0.029990 
#    y 0.004220 1.895870 0.005570 
#    z 0.029990 0.005570 1.872210 
# 
# From -- ./inp_files/333662.got.cif
#   From: 2010.06.25/outbox.cif.g09.slc.cpg/sg2_167_cif.got.tgz:333662.got - 2010.06.27 13:26:56.
