data_PCOD8032158
_publ_section_title
;
Structure prediction by ZEFSAII (Michael W. Deem and Ramdas Pophale) SiO2 
 PCOD8032158
Probable space group: P -1
;
_chemical_formula_sum "Si O2"
_cell_formula_units_Z 16
_cell_length_a 13.873557
_cell_length_b 8.432509
_cell_length_c 8.791564
_cell_angle_alpha 71.803343
_cell_angle_beta 53.234391
_cell_angle_gamma 66.368357
_cell_volume 751.163395
_symmetry_space_group_name_H-M "P -1"
_symmetry_group_IT_number 2
_symmetry_cell_setting 'triclinic'
loop_
_space_group_symop_operation_xyz
x,y,z
-x,-y,-z
loop_
_atom_site_type_symbol
_atom_site_label
_atom_site_fract_x
_atom_site_fract_y
_atom_site_fract_z
Si Si1 0.301915 0.928789 0.480616
Si Si2 0.216489 0.469717 0.039909
Si Si3 0.117590 0.194127 0.055193
Si Si4 0.865995 0.478924 0.582027
Si Si5 0.444886 0.346223 0.641545
Si Si6 0.859956 0.090481 0.650880
Si Si7 0.261696 0.253242 0.613429
Si Si8 0.102718 0.827242 0.893300
O O1 0.444574 0.816541 0.359342
O O2 0.234701 0.932900 0.382460
O O3 0.230345 0.855162 0.701626
O O4 0.306671 0.118238 0.473732
O O5 0.130717 0.354329 0.093293
O O6 0.231993 0.437665 0.215383
O O7 0.350722 0.408787 0.851627
O O8 0.142914 0.673466 0.024659
O O9 0.967644 0.235464 0.162058
O O10 0.174372 0.007668 0.139322
O O11 0.184146 0.179191 0.833000
O O12 0.855824 0.285503 0.633127
O O13 0.826259 0.572595 0.431052
O O14 0.000000 0.500000 0.500000
O O15 0.500000 0.500000 0.500000
O O16 0.379212 0.294843 0.570496
O O17 0.000000 0.000000 0.500000
O O18 0.000000 0.000000 0.000000
#
# Coordination Sequence:
#
# PCOD8032158 Si02
#       8
#     2   2   2   2   2   2   2   2
#     4  12  24  43  70  99 141 180 231 280 341 410
#     4  11  25  43  69 100 142 182 231 281 345 412
#     4  11  23  41  67 104 139 177 225 285 354 409
#     4  12  26  44  68 105 143 178 227 291 353 409
#     4  11  24  47  70  99 137 190 237 278 335 415
#     4  12  25  42  67 105 141 179 225 288 352 410
#     4  11  25  45  71 101 138 181 232 287 341 410
#     4  12  22  38  69 104 139 176 225 284 350 408
#
# _framework density 21.30029
#
# number of rings (size 3 to 8) (size 9 to 14) (size 15 to 20)
#    0.000    0.500    3.750    5.250    1.750    0.000 
#    0.000    9.375    0.000    0.000    0.000    0.000 
#    0.000    0.000    0.000    0.000    0.000    0.000 
#
# Total GULP energy -198401.942058 kJ/mol
# GULP energy per Si atom -12400.121379 kJ/mol
# Density = 2.125181 g / cm^3
# Si number density = 21.300290 Si / 1000 Ang^3
#
#
#
# Elastic Constant Matrix: (Units=GPa)
#
#
# Indices 1 2 3 4 5 6 
#
# 1 152.1422 50.2287 59.0974 2.2621 0.6917 -5.9320
# 2 50.2287 136.3109 67.9516 -1.7673 0.8744 -3.9706
# 3 59.0974 67.9516 117.5314 -7.5615 11.5130 1.6386
# 4 2.2621 -1.7673 -7.5615 42.8129 -2.6797 3.7201
# 5 0.6917 0.8744 11.5130 -2.6797 35.0076 -4.0808
# 6 -5.9320 -3.9706 1.6386 3.7201 -4.0808 42.6295
#
#
#
# Elastic Compliance Matrix: (Units=1/GPa)
#
#
# Indices 1 2 3 4 5 6 
#
# 1 0.008519 -0.001234 -0.003784 -0.001220 0.001181 0.001435
# 2 -0.001234 0.010694 -0.005786 -0.000514 0.001768 0.001261
# 3 -0.003784 -0.005786 0.014393 0.002413 -0.004594 -0.002269
# 4 -0.001220 -0.000514 0.002413 0.024081 0.000815 -0.002334
# 5 0.001181 0.001768 -0.004594 0.000815 0.030461 0.003350
# 6 0.001435 0.001261 -0.002269 -0.002334 0.003350 0.024387
#
#
# Mechanical properties :
#
#
# Convention : Reuss Voigt Hill
#
# Bulk Modulus (GPa) = 83.35168 84.50443 83.92805
# Shear Modulus (GPa) = 36.19437 39.33711 37.76574
#
# Velocity S-wave (km/s) = 4.12666 4.30209 4.21529
# Velocity P-wave (km/s) = 7.86908 8.02722 7.94855
#
# Compressibility (1/GPa) = 0.01199736
#
# Stress axis : x y z
#
# Youngs Moduli (GPa) = 117.38602 93.50958 69.47719
#
# Poissons Ratio (x) = 0.11542 0.26291
# Poissons Ratio (y) = 0.14489 0.40200
# Poissons Ratio (z) = 0.44420 0.54105
#
# Static dielectric constant tensor:
#      x y z
#    x 4.369270 0.290800 0.081660 
#    y 0.290800 4.258890 0.003630 
#    z 0.081660 0.003630 4.157890 
# 
# 
# High freq. dielectric constant tensor:
#      x y z
#    x 1.842790 0.018170 0.006600 
#    y 0.018170 1.846040 -0.009360 
#    z 0.006600 -0.009360 1.836940 
# 
# From -- ./inp_files/189920.got.cif
#   From: 2010.06.25/outbox.cif.g09.slc.cpg/sg2_95_cif.got.tgz:189920.got - 2010.06.27 13:26:56.
