data_PCOD8032193
_publ_section_title
;
Structure prediction by ZEFSAII (Michael W. Deem and Ramdas Pophale) SiO2 
 PCOD8032193
Probable space group: P -1
;
_chemical_formula_sum "Si O2"
_cell_formula_units_Z 16
_cell_length_a 9.938870
_cell_length_b 12.511323
_cell_length_c 11.750597
_cell_angle_alpha 135.607860
_cell_angle_beta 56.815232
_cell_angle_gamma 135.547815
_cell_volume 713.775592
_symmetry_space_group_name_H-M "P -1"
_symmetry_group_IT_number 2
_symmetry_cell_setting 'triclinic'
loop_
_space_group_symop_operation_xyz
x,y,z
-x,-y,-z
loop_
_atom_site_type_symbol
_atom_site_label
_atom_site_fract_x
_atom_site_fract_y
_atom_site_fract_z
Si Si1 0.915958 0.879270 0.058276
Si Si2 0.492305 0.946093 0.833722
Si Si3 0.101759 0.984490 0.285853
Si Si4 0.593156 0.490430 0.683958
Si Si5 0.800439 0.480475 0.788046
Si Si6 0.187275 0.290092 0.635190
Si Si7 0.525073 0.750452 0.060865
Si Si8 0.188975 0.526204 0.632042
O O1 0.696041 0.824858 0.132427
O O2 0.059742 0.996781 0.183056
O O3 0.917446 0.698377 0.909418
O O4 0.000000 0.000000 0.000000
O O5 0.309687 0.745328 0.736129
O O6 0.686586 0.955739 0.732338
O O7 0.478762 0.083815 0.862769
O O8 0.500000 0.000000 0.000000
O O9 0.949732 0.775594 0.240216
O O10 0.072006 0.129008 0.473567
O O11 0.658264 0.409955 0.692279
O O12 0.390031 0.323662 0.604364
O O13 0.746264 0.559612 0.561715
O O14 0.568133 0.649854 0.864263
O O15 0.678055 0.387396 0.888430
O O16 0.960167 0.434518 0.657120
O O17 0.226002 0.475132 0.701565
#
# Coordination Sequence:
#
# PCOD8032193 Si02
#       8
#     2   2   2   2   2   2   2   2
#     4  11  23  41  69 100 131 172 224 273 325 389
#     4  12  25  42  67  99 133 171 219 277 326 396
#     4  11  24  43  64  99 134 171 220 268 332 398
#     4  11  23  43  70  98 131 172 226 272 330 393
#     4  11  24  44  68  97 133 179 220 274 329 396
#     4  11  24  42  68  94 134 177 212 271 336 396
#     4  11  24  44  71  97 133 175 225 271 332 394
#     4  12  25  43  66 100 135 172 225 270 336 387
#
# _framework density 22.416008000000001
#
# number of rings (size 3 to 8) (size 9 to 14) (size 15 to 20)
#    0.000    0.750    1.250    7.500    5.250    0.000 
#    2.250    4.375    0.000    0.000    0.000    0.000 
#    0.000    0.000    0.000    0.000    0.000    0.000 
#
# Total GULP energy -198407.385055 kJ/mol
# GULP energy per Si atom -12400.461566 kJ/mol
# Density = 2.236499 g / cm^3
# Si number density = 22.416008 Si / 1000 Ang^3
#
#
#
# Elastic Constant Matrix: (Units=GPa)
#
#
# Indices 1 2 3 4 5 6 
#
# 1 149.7110 51.2160 44.4805 -4.2119 4.9529 5.6582
# 2 51.2160 139.9944 50.4695 -12.6227 -11.1031 -4.9588
# 3 44.4805 50.4695 73.0609 -5.8004 5.1874 -1.5686
# 4 -4.2119 -12.6227 -5.8004 30.8201 6.4499 -3.4001
# 5 4.9529 -11.1031 5.1874 6.4499 32.0861 -6.5691
# 6 5.6582 -4.9588 -1.5686 -3.4001 -6.5691 38.8916
#
#
#
# Elastic Compliance Matrix: (Units=1/GPa)
#
#
# Indices 1 2 3 4 5 6 
#
# 1 0.008624 -0.002020 -0.003788 -0.000207 -0.001782 -0.001984
# 2 -0.002020 0.010901 -0.006445 0.002162 0.005202 0.002491
# 3 -0.003788 -0.006445 0.020981 0.001914 -0.005459 -0.000179
# 4 -0.000207 0.002162 0.001914 0.035210 -0.006110 0.002429
# 5 -0.001782 0.005202 -0.005459 -0.006110 0.036654 0.006359
# 6 -0.001984 0.002491 -0.000179 0.002429 0.006359 0.027598
#
#
# Mechanical properties :
#
#
# Convention : Reuss Voigt Hill
#
# Bulk Modulus (GPa) = 62.49448 72.78868 67.64158
# Shear Modulus (GPa) = 29.44512 34.79957 32.12235
#
# Velocity S-wave (km/s) = 3.62826 3.94438 3.78962
# Velocity P-wave (km/s) = 6.74480 7.29975 7.02776
#
# Compressibility (1/GPa) = 0.01600141
#
# Stress axis : x y z
#
# Youngs Moduli (GPa) = 115.95549 91.73210 47.66232
#
# Poissons Ratio (x) = 0.18529 0.18053
# Poissons Ratio (y) = 0.23422 0.30718
# Poissons Ratio (z) = 0.43919 0.59120
#
# Static dielectric constant tensor:
#      x y z
#    x 3.971170 0.131920 0.091120 
#    y 0.131920 4.196850 -0.160630 
#    z 0.091120 -0.160630 3.951920 
# 
# 
# High freq. dielectric constant tensor:
#      x y z
#    x 1.897840 0.004590 0.003040 
#    y 0.004590 1.894010 -0.009130 
#    z 0.003040 -0.009130 1.869810 
# 
# From -- ./inp_files/299414.got.cif
#   From: 2010.06.25/outbox.cif.g09.slc.cpg/sg2_150_cif.got.tgz:299414.got - 2010.06.27 13:26:56.
