data_PCOD8032866
_publ_section_title
;
Structure prediction by ZEFSAII (Michael W. Deem and Ramdas Pophale) SiO2 
 PCOD8032866
Probable space group: P -1
;
_chemical_formula_sum "Si O2"
_cell_formula_units_Z 16
_cell_length_a 17.164952
_cell_length_b 9.657616
_cell_length_c 5.470170
_cell_angle_alpha 75.460792
_cell_angle_beta 126.616536
_cell_angle_gamma 102.892425
_cell_volume 701.383729
_symmetry_space_group_name_H-M "P -1"
_symmetry_group_IT_number 2
_symmetry_cell_setting 'triclinic'
loop_
_space_group_symop_operation_xyz
x,y,z
-x,-y,-z
loop_
_atom_site_type_symbol
_atom_site_label
_atom_site_fract_x
_atom_site_fract_y
_atom_site_fract_z
Si Si1 0.969504 0.881337 0.302074
Si Si2 0.840572 0.034851 0.638569
Si Si3 0.494505 0.144622 0.070838
Si Si4 0.292859 0.820893 0.359956
Si Si5 0.289472 0.106759 0.935659
Si Si6 0.238055 0.501542 0.277940
Si Si7 0.823867 0.642277 0.268709
Si Si8 0.455702 0.433126 0.695010
O O1 0.931074 0.730876 0.424318
O O2 0.065953 0.865665 0.331901
O O3 0.000000 0.000000 0.500000
O O4 0.878043 0.935432 0.964550
O O5 0.764574 0.151317 0.509998
O O6 0.783290 0.911594 0.421803
O O7 0.592421 0.185975 0.387390
O O8 0.404262 0.130626 0.091816
O O9 0.479821 0.268686 0.793920
O O10 0.500000 0.000000 0.000000
O O11 0.249455 0.674276 0.218819
O O12 0.268664 0.956811 0.099402
O O13 0.261200 0.248931 0.958477
O O14 0.183797 0.447290 0.451816
O O15 0.341220 0.437927 0.492309
O O16 0.182099 0.456415 0.942126
O O17 0.500000 0.500000 0.500000
O O18 0.500000 0.500000 0.000000
#
# Coordination Sequence:
#
# PCOD8032866 Si02
#       8
#     2   2   2   2   2   2   2   2
#     4  11  23  43  78 111 139 183 245 318 373 433
#     4  11  23  44  74 107 146 183 244 302 384 428
#     4  12  27  43  72 110 148 193 252 309 355 431
#     4  12  27  46  70 107 152 203 234 306 373 438
#     4  12  25  45  74 109 145 190 254 309 361 435
#     4  12  29  47  73 103 159 197 245 294 373 444
#     4  12  26  48  75 110 139 194 250 305 355 445
#     4  12  27  47  69 101 146 203 246 287 360 443
#
# _framework density 22.812048000000001
#
# number of rings (size 3 to 8) (size 9 to 14) (size 15 to 20)
#    0.000    0.250    6.250    1.875    7.000    0.000 
#    0.000    1.250    0.000    0.000    0.000    0.000 
#    0.000    0.000    0.000    0.000    0.000    0.000 
#
# Total GULP energy -198357.619687 kJ/mol
# GULP energy per Si atom -12397.351230 kJ/mol
# Density = 2.276013 g / cm^3
# Si number density = 22.812048 Si / 1000 Ang^3
#
#
#
# Elastic Constant Matrix: (Units=GPa)
#
#
# Indices 1 2 3 4 5 6 
#
# 1 127.7289 41.0324 34.6515 5.8175 -2.3647 20.9309
# 2 41.0324 146.3694 19.0594 1.9783 -18.2405 5.4960
# 3 34.6515 19.0594 68.3152 8.6974 -13.9132 3.9588
# 4 5.8175 1.9783 8.6974 38.5799 1.5610 2.6191
# 5 -2.3647 -18.2405 -13.9132 1.5610 46.3705 -0.2898
# 6 20.9309 5.4960 3.9588 2.6191 -0.2898 33.2568
#
#
#
# Elastic Compliance Matrix: (Units=1/GPa)
#
#
# Indices 1 2 3 4 5 6 
#
# 1 0.010858 -0.002425 -0.004887 0.000065 -0.001906 -0.005873
# 2 -0.002425 0.007912 -0.000398 -0.000087 0.002874 0.000298
# 3 -0.004887 -0.000398 0.018723 -0.003765 0.005347 0.001256
# 4 0.000065 -0.000087 -0.003765 0.026965 -0.002079 -0.001720
# 5 -0.001906 0.002874 0.005347 -0.002079 0.024276 0.000463
# 6 -0.005873 0.000298 0.001256 -0.001720 0.000463 0.033706
#
#
# Mechanical properties :
#
#
# Convention : Reuss Voigt Hill
#
# Bulk Modulus (GPa) = 45.30464 59.10000 52.20232
# Shear Modulus (GPa) = 34.43093 40.15279 37.29186
#
# Velocity S-wave (km/s) = 3.88923 4.19997 4.04758
# Velocity P-wave (km/s) = 6.33018 7.03444 6.69158
#
# Compressibility (1/GPa) = 0.02207280
#
# Stress axis : x y z
#
# Youngs Moduli (GPa) = 92.09650 126.39183 53.40919
#
# Poissons Ratio (x) = 0.30655 0.26100
# Poissons Ratio (y) = 0.22337 0.02126
# Poissons Ratio (z) = 0.45007 0.05031
#
# Static dielectric constant tensor:
#      x y z
#    x 6.465380 0.979560 0.801100 
#    y 0.979560 4.553520 0.410240 
#    z 0.801100 0.410240 4.424370 
# 
# 
# High freq. dielectric constant tensor:
#      x y z
#    x 1.917670 0.007600 -0.001320 
#    y 0.007600 1.907130 0.007940 
#    z -0.001320 0.007940 1.892560 
# 
# From -- ./inp_files/106809.got.cif
#   From: 2010.06.25/outbox.cif.g09.slc.cpg/sg2_54_cif.got.tgz:106809.got - 2010.06.27 13:26:56.
