data_PCOD8032998
_publ_section_title
;
Structure prediction by ZEFSAII (Michael W. Deem and Ramdas Pophale) SiO2 
 PCOD8032998
Probable space group: P -1
;
_chemical_formula_sum "Si O2"
_cell_formula_units_Z 14
_cell_length_a 8.675663
_cell_length_b 18.646429
_cell_length_c 7.237669
_cell_angle_alpha 139.890375
_cell_angle_beta 125.973941
_cell_angle_gamma 39.323141
_cell_volume 477.978941
_symmetry_space_group_name_H-M "P -1"
_symmetry_group_IT_number 2
_symmetry_cell_setting 'triclinic'
loop_
_space_group_symop_operation_xyz
x,y,z
-x,-y,-z
loop_
_atom_site_type_symbol
_atom_site_label
_atom_site_fract_x
_atom_site_fract_y
_atom_site_fract_z
Si Si1 0.309094 0.714265 0.308687
Si Si2 0.910314 0.990332 0.116480
Si Si3 0.413932 0.099450 0.372004
Si Si4 0.841738 0.494030 0.722199
Si Si5 0.761714 0.660203 0.580069
Si Si6 0.817777 0.810311 0.228646
Si Si7 0.314116 0.682131 0.841681
O O1 0.575406 0.624880 0.414782
O O2 0.108157 0.715887 0.279793
O O3 0.192282 0.880847 0.562315
O O4 0.365397 0.632449 0.992446
O O5 0.698706 0.974995 0.925169
O O6 0.151554 0.848895 0.090070
O O7 0.000000 0.000000 0.000000
O O8 0.365487 0.217671 0.429941
O O9 0.295464 0.181507 0.641114
O O10 0.698099 0.964363 0.351497
O O11 0.558423 0.630035 0.803590
O O12 0.835195 0.359899 0.457319
O O13 0.971651 0.476623 0.581070
O O14 0.000000 0.500000 0.000000
O O15 0.777375 0.717529 0.894933
#
# Coordination Sequence:
#
# PCOD8032998 Si02
#       7
#     2   2   2   2   2   2   2
#     4  12  24  39  70 103 138 177 235 292 355 427
#     4  12  24  42  68 107 145 179 224 295 366 424
#     4  11  24  42  64 100 150 185 226 289 355 428
#     4  11  23  44  70  97 137 187 244 292 339 420
#     4  12  24  42  69  99 137 185 237 290 346 420
#     4  11  24  41  62 102 145 182 230 289 355 423
#     4  11  25  41  70 104 134 186 240 286 354 423
#
# _framework density 29.289995999999999
#
# number of rings (size 3 to 8) (size 9 to 14) (size 15 to 20)
#    0.000    0.571    7.143    0.857    4.000    0.000 
#    0.000    0.000    3.143    5.143    0.000    0.000 
#    0.000    0.000    0.000    0.000    0.000    0.000 
#
# Total GULP energy -173478.772120 kJ/mol
# GULP energy per Si atom -12391.340866 kJ/mol
# Density = 2.922333 g / cm^3
# Si number density = 29.289996 Si / 1000 Ang^3
#
#
#
# Elastic Constant Matrix: (Units=GPa)
#
#
# Indices 1 2 3 4 5 6 
#
# 1 108.1858 47.5505 48.0433 -14.8776 -14.9388 -42.9114
# 2 47.5505 94.7791 47.4519 0.0121 -0.1064 -46.2275
# 3 48.0433 47.4519 189.4157 -24.6763 -23.4427 -17.9100
# 4 -14.8776 0.0121 -24.6763 46.1641 -7.2130 -0.0537
# 5 -14.9388 -0.1064 -23.4427 -7.2130 51.9675 2.0179
# 6 -42.9114 -46.2275 -17.9100 -0.0537 2.0179 60.3225
#
#
#
# Elastic Compliance Matrix: (Units=1/GPa)
#
#
# Indices 1 2 3 4 5 6 
#
# 1 0.015799 -0.003337 -0.001180 0.005159 0.004401 0.008189
# 2 -0.003337 0.020033 -0.003998 -0.003784 -0.003709 0.011912
# 3 -0.001180 -0.003998 0.007397 0.004140 0.003635 -0.001825
# 4 0.005159 -0.003784 0.004140 0.026630 0.006970 0.001790
# 5 0.004401 -0.003709 0.003635 0.006970 0.023084 0.000601
# 6 0.008189 0.011912 -0.001825 0.001790 0.000601 0.030971
#
#
# Mechanical properties :
#
#
# Convention : Reuss Voigt Hill
#
# Bulk Modulus (GPa) = 38.17069 75.38578 56.77823
# Shear Modulus (GPa) = 33.40522 48.31312 40.85917
#
# Velocity S-wave (km/s) = 3.38079 4.06578 3.73900
# Velocity P-wave (km/s) = 5.31977 6.91624 6.16986
#
# Compressibility (1/GPa) = 0.02619811
#
# Stress axis : x y z
#
# Youngs Moduli (GPa) = 63.29334 49.91809 135.19040
#
# Poissons Ratio (x) = 0.16660 0.15957
# Poissons Ratio (y) = 0.21124 0.54046
# Poissons Ratio (z) = 0.07471 0.19956
#
# Static dielectric constant tensor:
#      x y z
#    x 5.720530 -0.403600 -0.064570 
#    y -0.403600 5.984020 -0.021050 
#    z -0.064570 -0.021050 5.769490 
# 
# 
# High freq. dielectric constant tensor:
#      x y z
#    x 2.200050 -0.020160 -0.009800 
#    y -0.020160 2.202490 0.003140 
#    z -0.009800 0.003140 2.217670 
# 
# From -- ./inp_files/226815.got.cif
#   From: 2010.06.25/outbox.cif.g09.slc.cpg/sg2_114_cif.got.tgz:226815.got - 2010.06.27 13:26:56.
