data_PCOD8032765
_publ_section_title
;
Structure prediction by ZEFSAII (Michael W. Deem and Ramdas Pophale) SiO2 
 PCOD8032765
Probable space group: P -1
;
_chemical_formula_sum "Si O2"
_cell_formula_units_Z 16
_cell_length_a 8.600527
_cell_length_b 11.584596
_cell_length_c 14.186574
_cell_angle_alpha 128.915579
_cell_angle_beta 43.319340
_cell_angle_gamma 127.967058
_cell_volume 720.625809
_symmetry_space_group_name_H-M "P -1"
_symmetry_group_IT_number 2
_symmetry_cell_setting 'triclinic'
loop_
_space_group_symop_operation_xyz
x,y,z
-x,-y,-z
loop_
_atom_site_type_symbol
_atom_site_label
_atom_site_fract_x
_atom_site_fract_y
_atom_site_fract_z
Si Si1 0.663497 0.835445 0.094722
Si Si2 0.819465 0.168365 0.138629
Si Si3 0.249851 0.514987 0.646107
Si Si4 0.520041 0.407115 0.096086
Si Si5 0.667793 0.173460 0.007970
Si Si6 0.852003 0.657568 0.200197
Si Si7 0.121658 0.565799 0.384139
Si Si8 0.534625 0.841939 0.369338
O O1 0.651408 0.841679 0.215192
O O2 0.631737 0.998651 0.154883
O O3 0.471719 0.683293 0.054436
O O4 0.919044 0.827850 0.941689
O O5 0.739085 0.306761 0.291720
O O6 0.828347 0.209703 0.046890
O O7 0.500000 0.500000 0.500000
O O8 0.184524 0.454278 0.750075
O O9 0.054088 0.414743 0.609900
O O10 0.760973 0.545590 0.089241
O O11 0.294563 0.468832 0.223327
O O12 0.487048 0.276148 0.125550
O O13 0.873202 0.234412 0.868462
O O14 0.500000 0.000000 0.000000
O O15 0.690462 0.774494 0.339045
O O16 0.265920 0.739604 0.433420
O O17 0.000000 0.500000 0.500000
O O18 0.500000 0.000000 0.500000
#
# Coordination Sequence:
#
# PCOD8032765 Si02
#       8
#     2   2   2   2   2   2   2   2
#     4  11  24  43  72 107 140 191 236 296 360 421
#     4  11  24  42  69 106 146 183 236 294 356 426
#     4  12  26  46  72 104 147 189 240 292 356 429
#     4  11  23  43  72 100 141 179 243 291 355 422
#     4  12  24  42  65 105 143 179 227 297 359 423
#     4  11  26  45  71 105 141 188 236 297 360 425
#     4  11  27  45  70 104 137 189 238 289 353 423
#     4  11  27  48  71  98 145 189 237 295 354 427
#
# _framework density 22.202926000000001
#
# number of rings (size 3 to 8) (size 9 to 14) (size 15 to 20)
#    0.000    0.750    5.000    1.875    5.250    3.000 
#    0.000    0.625    0.000    0.000    0.000    0.000 
#    0.000    0.000    0.000    0.000    0.000    0.000 
#
# Total GULP energy -198222.448579 kJ/mol
# GULP energy per Si atom -12388.903036 kJ/mol
# Density = 2.215239 g / cm^3
# Si number density = 22.202926 Si / 1000 Ang^3
#
#
#
# Elastic Constant Matrix: (Units=GPa)
#
#
# Indices 1 2 3 4 5 6 
#
# 1 126.5731 41.1691 37.1611 6.3749 -9.8295 1.1964
# 2 41.1691 150.9738 66.8279 21.3202 -14.1328 7.8042
# 3 37.1611 66.8279 83.1174 7.3958 -0.2980 9.6648
# 4 6.3749 21.3202 7.3958 40.7117 -1.8085 -4.1150
# 5 -9.8295 -14.1328 -0.2980 -1.8085 33.0656 -0.0499
# 6 1.1964 7.8042 9.6648 -4.1150 -0.0499 41.1987
#
#
#
# Elastic Compliance Matrix: (Units=1/GPa)
#
#
# Indices 1 2 3 4 5 6 
#
# 1 0.009410 -0.000702 -0.003693 -0.000255 0.002451 0.000704
# 2 -0.000702 0.011685 -0.008612 -0.004307 0.004471 -0.000597
# 3 -0.003693 -0.008612 0.020880 0.000781 -0.004552 -0.003087
# 4 -0.000255 -0.004307 0.000781 0.027035 -0.000426 0.003340
# 5 0.002451 0.004471 -0.004552 -0.000426 0.032819 0.000147
# 6 0.000704 -0.000597 -0.003087 0.003340 0.000147 0.025423
#
#
# Mechanical properties :
#
#
# Convention : Reuss Voigt Hill
#
# Bulk Modulus (GPa) = 62.65711 72.33116 67.49414
# Shear Modulus (GPa) = 31.52875 37.36229 34.44552
#
# Velocity S-wave (km/s) = 3.77241 4.10660 3.94305
# Velocity P-wave (km/s) = 6.87432 7.42520 7.15506
#
# Compressibility (1/GPa) = 0.01595988
#
# Stress axis : x y z
#
# Youngs Moduli (GPa) = 106.27371 85.57992 47.89355
#
# Poissons Ratio (x) = 0.06011 0.17685
# Poissons Ratio (y) = 0.07464 0.41247
# Poissons Ratio (z) = 0.39243 0.73703
#
# Static dielectric constant tensor:
#      x y z
#    x -2.824240 -1.069750 -0.381780 
#    y -1.069750 4.124290 0.121370 
#    z -0.381780 0.121370 3.817740 
# 
# 
# High freq. dielectric constant tensor:
#      x y z
#    x 1.894660 -0.007910 -0.008930 
#    y -0.007910 1.889140 0.011200 
#    z -0.008930 0.011200 1.844280 
# 
# From -- ./inp_files/416332.got.cif
#   From: 2010.06.25/outbox.cif.g09.slc.cpg/sg2_209_cif.got.tgz:416332.got - 2010.06.27 13:26:56.
