data_PCOD8032760
_publ_section_title
;
Structure prediction by ZEFSAII (Michael W. Deem and Ramdas Pophale) SiO2 
 PCOD8032760
Probable space group: P -1
;
_chemical_formula_sum "Si O2"
_cell_formula_units_Z 14
_cell_length_a 17.131864
_cell_length_b 11.944933
_cell_length_c 14.461675
_cell_angle_alpha 152.380036
_cell_angle_beta 30.694732
_cell_angle_gamma 133.274637
_cell_volume 662.846295
_symmetry_space_group_name_H-M "P -1"
_symmetry_group_IT_number 2
_symmetry_cell_setting 'triclinic'
loop_
_space_group_symop_operation_xyz
x,y,z
-x,-y,-z
loop_
_atom_site_type_symbol
_atom_site_label
_atom_site_fract_x
_atom_site_fract_y
_atom_site_fract_z
Si Si1 0.544511 0.381502 0.131091
Si Si2 0.090990 0.530254 0.338059
Si Si3 0.610888 0.285706 0.795088
Si Si4 0.915917 0.947182 0.684568
Si Si5 0.645900 0.845978 0.305003
Si Si6 0.807980 0.885956 0.550654
Si Si7 0.655700 0.459487 0.376443
O O1 0.626464 0.595914 0.187513
O O2 0.386599 0.497001 0.439317
O O3 0.512968 0.285462 0.990577
O O4 0.658208 0.145377 0.900347
O O5 0.221649 0.667638 0.325695
O O6 0.000000 0.500000 0.500000
O O7 0.185565 0.248702 0.993216
O O8 0.958725 0.706053 0.532231
O O9 0.658791 0.011860 0.500088
O O10 0.500000 0.500000 0.000000
O O11 0.060826 0.067322 0.618018
O O12 0.881367 0.831147 0.538122
O O13 0.763073 0.167781 0.041226
O O14 0.500000 0.000000 0.500000
O O15 0.753128 0.655339 0.396001
O O16 0.500000 0.500000 0.500000
#
# Coordination Sequence:
#
# PCOD8032760 Si02
#       7
#     2   2   2   2   2   2   2
#     4  11  24  42  69 104 133 176 236 286 338 406
#     4  11  26  45  68 107 138 175 232 286 342 407
#     4  11  23  43  71  97 135 185 226 281 336 408
#     4  11  25  46  69  99 144 184 225 286 349 411
#     4  11  23  45  70  96 135 184 228 273 348 410
#     4  11  24  48  68  98 143 181 233 283 349 413
#     4  12  27  42  71 106 137 182 232 287 349 411
#
# _framework density 21.121036
#
# number of rings (size 3 to 8) (size 9 to 14) (size 15 to 20)
#    0.000    0.857    7.143    0.857    4.000    2.857 
#    0.000    0.000    0.000    0.000    0.000    0.000 
#    0.000    0.000    0.000    0.000    0.000    0.000 
#
# Total GULP energy -173585.252512 kJ/mol
# GULP energy per Si atom -12398.946608 kJ/mol
# Density = 2.107296 g / cm^3
# Si number density = 21.121036 Si / 1000 Ang^3
#
#
#
# Elastic Constant Matrix: (Units=GPa)
#
#
# Indices 1 2 3 4 5 6 
#
# 1 115.7251 45.7703 47.7781 5.0245 11.2622 -9.7306
# 2 45.7703 73.9132 31.8422 -0.5554 4.7387 -15.8657
# 3 47.7781 31.8422 156.6974 0.5693 14.1168 -14.9191
# 4 5.0245 -0.5554 0.5693 40.6229 -8.0784 6.4903
# 5 11.2622 4.7387 14.1168 -8.0784 48.8721 5.1572
# 6 -9.7306 -15.8657 -14.9191 6.4903 5.1572 44.1670
#
#
#
# Elastic Compliance Matrix: (Units=1/GPa)
#
#
# Indices 1 2 3 4 5 6 
#
# 1 0.012479 -0.006615 -0.002268 -0.002005 -0.001924 0.000126
# 2 -0.006615 0.019338 -0.001393 0.000208 -0.000446 0.005040
# 3 -0.002268 -0.001393 0.007706 -0.000518 -0.001854 0.001895
# 4 -0.002005 0.000208 -0.000518 0.026801 0.005563 -0.005130
# 5 -0.001924 -0.000446 -0.001854 0.005563 0.022899 -0.004701
# 6 0.000126 0.005040 0.001895 -0.005130 -0.004701 0.026423
#
#
# Mechanical properties :
#
#
# Convention : Reuss Voigt Hill
#
# Bulk Modulus (GPa) = 52.71609 66.34633 59.53121
# Shear Modulus (GPa) = 35.08268 41.46207 38.27237
#
# Velocity S-wave (km/s) = 4.08000 4.43546 4.26144
# Velocity P-wave (km/s) = 6.87084 7.59682 7.24293
#
# Compressibility (1/GPa) = 0.01896954
#
# Stress axis : x y z
#
# Youngs Moduli (GPa) = 80.13672 51.71193 129.77329
#
# Poissons Ratio (x) = 0.34207 0.29433
# Poissons Ratio (y) = 0.53010 0.18083
# Poissons Ratio (z) = 0.18175 0.07206
#
# Static dielectric constant tensor:
#      x y z
#    x 4.054090 -0.284100 0.290250 
#    y -0.284100 3.975590 -0.098580 
#    z 0.290250 -0.098580 4.217830 
# 
# 
# High freq. dielectric constant tensor:
#      x y z
#    x 1.832790 -0.010490 0.006790 
#    y -0.010490 1.819390 0.003810 
#    z 0.006790 0.003810 1.843890 
# 
# From -- ./inp_files/538334.got.cif
#   From: 2010.06.25/outbox.cif.g09.slc.cpg/sg2_270_cif.got.tgz:538334.got - 2010.06.27 13:26:56.
