data_PCOD8032012
_publ_section_title
;
Structure prediction by ZEFSAII (Michael W. Deem and Ramdas Pophale) SiO2 
 PCOD8032012
Probable space group: P -1
;
_chemical_formula_sum "Si O2"
_cell_formula_units_Z 12
_cell_length_a 15.712615
_cell_length_b 9.031898
_cell_length_c 9.101642
_cell_angle_alpha 107.005279
_cell_angle_beta 50.675152
_cell_angle_gamma 141.591114
_cell_volume 561.989243
_symmetry_space_group_name_H-M "P -1"
_symmetry_group_IT_number 2
_symmetry_cell_setting 'triclinic'
loop_
_space_group_symop_operation_xyz
x,y,z
-x,-y,-z
loop_
_atom_site_type_symbol
_atom_site_label
_atom_site_fract_x
_atom_site_fract_y
_atom_site_fract_z
Si Si1 0.629812 0.042753 0.065300
Si Si2 0.005516 0.972069 0.812542
Si Si3 0.365867 0.630082 0.998499
Si Si4 0.020373 0.720740 0.163920
Si Si5 0.263367 0.849534 0.708485
Si Si6 0.383953 0.235952 0.469176
O O1 0.811141 0.137584 0.869047
O O2 0.447701 0.760389 0.108002
O O3 0.677950 0.262943 0.008440
O O4 0.593322 0.022188 0.275059
O O5 0.021925 0.146155 0.749133
O O6 0.823536 0.679064 0.867600
O O7 0.178954 0.062848 0.606461
O O8 0.000000 0.000000 0.000000
O O9 0.515391 0.692923 0.770618
O O10 0.828384 0.413502 0.328257
O O11 0.087492 0.752233 0.933232
O O12 0.374606 0.068604 0.526509
O O13 0.500000 0.500000 0.500000
#
# Coordination Sequence:
#
# PCOD8032012 Si02
#       6
#     2   2   2   2   2   2
#     4   9  20  41  62  88 123 169 195 248 312 356
#     4  12  20  39  62  87 127 161 196 253 307 354
#     4  11  23  40  65  90 125 159 206 249 306 361
#     4   9  18  36  64  88 115 166 202 240 300 363
#     4   9  18  37  63  87 118 159 207 244 295 357
#     4  12  24  38  63  99 116 158 210 254 296 367
#
# _framework density 21.352720999999999
#
# number of rings (size 3 to 8) (size 9 to 14) (size 15 to 20)
#    1.000    0.667    3.333    2.000    0.000    1.333 
#    0.000    8.333    0.000    0.000    0.000    0.000 
#    0.000    0.000    0.000    0.000    0.000    0.000 
#
# Total GULP energy -148777.712559 kJ/mol
# GULP energy per Si atom -12398.142713 kJ/mol
# Density = 2.130412 g / cm^3
# Si number density = 21.352721 Si / 1000 Ang^3
#
#
#
# Elastic Constant Matrix: (Units=GPa)
#
#
# Indices 1 2 3 4 5 6 
#
# 1 141.0639 72.4853 27.3209 -5.8385 -14.5494 -2.3134
# 2 72.4853 182.0667 30.3251 -28.5750 6.4293 -2.5331
# 3 27.3209 30.3251 47.9444 -15.1186 -13.8785 3.1222
# 4 -5.8385 -28.5750 -15.1186 27.9513 0.5111 1.1127
# 5 -14.5494 6.4293 -13.8785 0.5111 20.0667 -2.3242
# 6 -2.3134 -2.5331 3.1222 1.1127 -2.3242 36.4957
#
#
#
# Elastic Compliance Matrix: (Units=1/GPa)
#
#
# Indices 1 2 3 4 5 6 
#
# 1 0.010626 -0.004786 -0.002011 -0.003954 0.008081 0.001149
# 2 -0.004786 0.009413 -0.003776 0.006756 -0.009283 -0.000124
# 3 -0.002011 -0.003776 0.036276 0.014996 0.024180 -0.002410
# 4 -0.003954 0.006756 0.014996 0.049992 0.003795 -0.002347
# 5 0.008081 -0.009283 0.024180 0.003795 0.075583 0.002497
# 6 0.001149 -0.000124 -0.002410 -0.002347 0.002497 0.027901
#
#
# Mechanical properties :
#
#
# Convention : Reuss Voigt Hill
#
# Bulk Modulus (GPa) = 28.43194 70.14864 49.29029
# Shear Modulus (GPa) = 20.60498 32.96565 26.78531
#
# Velocity S-wave (km/s) = 3.10979 3.93346 3.54562
# Velocity P-wave (km/s) = 5.12237 7.31800 6.31632
#
# Compressibility (1/GPa) = 0.03517172
#
# Stress axis : x y z
#
# Youngs Moduli (GPa) = 94.10783 106.23602 27.56620
#
# Poissons Ratio (x) = 0.50839 0.05543
# Poissons Ratio (y) = 0.45035 0.10408
# Poissons Ratio (z) = 0.18923 0.40110
#
# Static dielectric constant tensor:
#      x y z
#    x 3.878660 -0.089720 -0.152930 
#    y -0.089720 3.928770 -0.046880 
#    z -0.152930 -0.046880 3.492620 
# 
# 
# High freq. dielectric constant tensor:
#      x y z
#    x 1.845760 -0.006430 -0.015500 
#    y -0.006430 1.844010 -0.012940 
#    z -0.015500 -0.012940 1.802210 
# 
# From -- ./inp_files/290565.got.cif
#   From: 2010.06.25/outbox.cif.g09.slc.cpg/sg2_146_cif.got.tgz:290565.got - 2010.06.27 13:26:56.
