data_PCOD8032905
_publ_section_title
;
Structure prediction by ZEFSAII (Michael W. Deem and Ramdas Pophale) SiO2 
 PCOD8032905
Probable space group: P -1
;
_chemical_formula_sum "Si O2"
_cell_formula_units_Z 14
_cell_length_a 23.690020
_cell_length_b 8.239665
_cell_length_c 11.142788
_cell_angle_alpha 42.538939
_cell_angle_beta 148.931013
_cell_angle_gamma 146.902615
_cell_volume 611.511771
_symmetry_space_group_name_H-M "P -1"
_symmetry_group_IT_number 2
_symmetry_cell_setting 'triclinic'
loop_
_space_group_symop_operation_xyz
x,y,z
-x,-y,-z
loop_
_atom_site_type_symbol
_atom_site_label
_atom_site_fract_x
_atom_site_fract_y
_atom_site_fract_z
Si Si1 0.701254 0.355509 0.191133
Si Si2 0.560750 0.597327 0.926038
Si Si3 0.944123 0.680928 0.614734
Si Si4 0.685908 0.799402 0.453973
Si Si5 0.194572 0.317907 0.040017
Si Si6 0.110062 0.208515 0.290630
Si Si7 0.800535 0.288697 0.985606
O O1 0.842734 0.452224 0.454654
O O2 0.630364 0.004389 0.236859
O O3 0.625963 0.423340 0.112851
O O4 0.722942 0.545823 0.007807
O O5 0.445050 0.514646 0.663554
O O6 0.500000 0.500000 0.000000
O O7 0.673322 0.950352 0.932420
O O8 0.872513 0.643971 0.630340
O O9 0.066279 0.655332 0.860201
O O10 0.000000 0.000000 0.500000
O O11 0.725106 0.758462 0.682298
O O12 0.812647 0.945445 0.508076
O O13 0.179167 0.572425 0.920613
O O14 0.046628 0.008877 0.915852
O O15 0.213049 0.493395 0.238850
#
# Coordination Sequence:
#
# PCOD8032905 Si02
#       7
#     2   2   2   2   2   2   2
#     4  12  25  44  71  98 133 177 220 280 333 395
#     4  12  26  46  68  97 134 176 231 270 325 402
#     4  12  22  39  69 101 133 171 215 274 340 385
#     4  11  26  44  68  97 136 182 222 271 333 389
#     4  11  24  44  70 102 136 169 222 279 335 400
#     4  11  23  44  68 100 137 170 222 277 332 401
#     4  11  24  42  68  99 133 176 220 278 331 393
#
# _framework density 22.894079999999999
#
# number of rings (size 3 to 8) (size 9 to 14) (size 15 to 20)
#    0.000    0.571    2.857    6.000    2.000    5.143 
#    0.000    2.857    0.000    0.000    0.000    0.000 
#    0.000    0.000    0.000    0.000    0.000    0.000 
#
# Total GULP energy -173493.592526 kJ/mol
# GULP energy per Si atom -12392.399466 kJ/mol
# Density = 2.284197 g / cm^3
# Si number density = 22.894080 Si / 1000 Ang^3
#
#
#
# Elastic Constant Matrix: (Units=GPa)
#
#
# Indices 1 2 3 4 5 6 
#
# 1 149.6578 43.3559 32.2583 -8.6824 5.6462 5.4816
# 2 43.3559 119.3011 37.3113 0.8072 -8.3298 -0.6000
# 3 32.2583 37.3113 84.1550 0.5350 -8.8225 3.2043
# 4 -8.6824 0.8072 0.5350 31.2394 -11.7097 0.9363
# 5 5.6462 -8.3298 -8.8225 -11.7097 39.5694 -2.4657
# 6 5.4816 -0.6000 3.2043 0.9363 -2.4657 30.0591
#
#
#
# Elastic Compliance Matrix: (Units=1/GPa)
#
#
# Indices 1 2 3 4 5 6 
#
# 1 0.008061 -0.002392 -0.002164 0.001742 -0.001713 -0.001482
# 2 -0.002392 0.010508 -0.003602 -0.000255 0.001748 0.001181
# 3 -0.002164 -0.003602 0.014645 0.000341 0.002853 -0.001015
# 4 0.001742 -0.000255 0.000341 0.036459 0.010524 -0.000631
# 5 -0.001713 0.001748 0.002853 0.010524 0.029770 0.002157
# 6 -0.001482 0.001181 -0.001015 -0.000631 0.002157 0.033866
#
#
# Mechanical properties :
#
#
# Convention : Reuss Voigt Hill
#
# Bulk Modulus (GPa) = 59.17645 64.32943 61.75294
# Shear Modulus (GPa) = 32.20472 36.18615 34.19543
#
# Velocity S-wave (km/s) = 3.75465 3.97998 3.86895
# Velocity P-wave (km/s) = 6.68585 7.01997 6.85494
#
# Compressibility (1/GPa) = 0.01689862
#
# Stress axis : x y z
#
# Youngs Moduli (GPa) = 124.05208 95.16955 68.28319
#
# Poissons Ratio (x) = 0.22761 0.14776
# Poissons Ratio (y) = 0.29669 0.24595
# Poissons Ratio (z) = 0.26843 0.34280
#
# Static dielectric constant tensor:
#      x y z
#    x 4.046830 -0.052110 -0.004980 
#    y -0.052110 4.108820 0.045390 
#    z -0.004980 0.045390 3.953830 
# 
# 
# High freq. dielectric constant tensor:
#      x y z
#    x 1.920310 -0.013830 0.006260 
#    y -0.013830 1.907330 0.002830 
#    z 0.006260 0.002830 1.903510 
# 
# From -- ./inp_files/259763.got.cif
#   From: 2010.06.25/outbox.cif.g09.slc.cpg/sg2_130_cif.got.tgz:259763.got - 2010.06.27 13:26:56.
