data_PCOD8032369
_publ_section_title
;
Structure prediction by ZEFSAII (Michael W. Deem and Ramdas Pophale) SiO2 
 PCOD8032369
Probable space group: P -1
;
_chemical_formula_sum "Si O2"
_cell_formula_units_Z 16
_cell_length_a 15.606664
_cell_length_b 10.858467
_cell_length_c 6.649133
_cell_angle_alpha 108.190947
_cell_angle_beta 135.348387
_cell_angle_gamma 88.674899
_cell_volume 718.144840
_symmetry_space_group_name_H-M "P -1"
_symmetry_group_IT_number 2
_symmetry_cell_setting 'triclinic'
loop_
_space_group_symop_operation_xyz
x,y,z
-x,-y,-z
loop_
_atom_site_type_symbol
_atom_site_label
_atom_site_fract_x
_atom_site_fract_y
_atom_site_fract_z
Si Si1 0.332934 0.030998 0.282437
Si Si2 0.034372 0.577312 0.389398
Si Si3 0.805929 0.549983 0.698355
Si Si4 0.484235 0.904390 0.732927
Si Si5 0.692005 0.745788 0.390874
Si Si6 0.915071 0.126612 0.377394
Si Si7 0.906120 0.956944 0.634238
Si Si8 0.528388 0.398858 0.328182
O O1 0.392502 0.030012 0.163107
O O2 0.379561 0.181562 0.534766
O O3 0.361635 0.916561 0.412947
O O4 0.181864 0.988594 0.977738
O O5 0.131987 0.520602 0.401635
O O6 0.113760 0.732631 0.637568
O O7 0.000000 0.500000 0.500000
O O8 0.902785 0.577965 0.061101
O O9 0.793039 0.687676 0.647574
O O10 0.665126 0.463192 0.486992
O O11 0.469701 0.747006 0.662622
O O12 0.500000 0.000000 0.000000
O O13 0.766774 0.864338 0.422583
O O14 0.585468 0.626124 0.038495
O O15 0.051463 0.131925 0.513035
O O16 0.900717 0.092645 0.575491
O O17 0.000000 0.000000 0.000000
O O18 0.500000 0.500000 0.500000
#
# Coordination Sequence:
#
# PCOD8032369 Si02
#       8
#     2   2   2   2   2   2   2   2
#     4  11  25  42  72 105 141 183 238 306 358 431
#     4  11  27  49  70 100 146 193 237 303 357 441
#     4  11  28  47  71 103 144 193 246 290 362 444
#     4  11  25  47  69 104 146 189 238 296 364 431
#     4  12  24  48  73 106 151 185 242 306 366 427
#     4  11  25  39  71 103 133 183 238 288 365 427
#     4  11  23  42  68 105 141 178 231 301 357 427
#     4  12  28  46  77 107 148 199 244 299 369 439
#
# _framework density 22.279627999999999
#
# number of rings (size 3 to 8) (size 9 to 14) (size 15 to 20)
#    0.000    0.750    2.500    3.375    8.750    1.000 
#    0.000    0.000    0.000    0.000    0.000    0.000 
#    0.000    0.000    0.000    0.000    0.000    0.000 
#
# Total GULP energy -198361.358059 kJ/mol
# GULP energy per Si atom -12397.584879 kJ/mol
# Density = 2.222892 g / cm^3
# Si number density = 22.279628 Si / 1000 Ang^3
#
#
#
# Elastic Constant Matrix: (Units=GPa)
#
#
# Indices 1 2 3 4 5 6 
#
# 1 140.9305 52.1469 68.6907 -5.0455 -12.4299 1.6749
# 2 52.1469 168.0759 49.6416 -12.7121 -20.1851 -6.3099
# 3 68.6907 49.6416 112.9313 6.3358 -8.5748 0.8988
# 4 -5.0455 -12.7121 6.3358 35.5962 -2.9377 -4.7875
# 5 -12.4299 -20.1851 -8.5748 -2.9377 36.8772 -0.4904
# 6 1.6749 -6.3099 0.8988 -4.7875 -0.4904 40.4342
#
#
#
# Elastic Compliance Matrix: (Units=1/GPa)
#
#
# Indices 1 2 3 4 5 6 
#
# 1 0.010679 -0.001175 -0.005973 0.002274 0.001746 -0.000203
# 2 -0.001175 0.007892 -0.002701 0.003675 0.003613 0.001819
# 3 -0.005973 -0.002701 0.013886 -0.004472 -0.000632 -0.001020
# 4 0.002274 0.003675 -0.004472 0.031465 0.004303 0.004356
# 5 0.001746 0.003613 -0.000632 0.004303 0.029897 0.001378
# 6 -0.000203 0.001819 -0.001020 0.004356 0.001378 0.025579
#
#
# Mechanical properties :
#
#
# Convention : Reuss Voigt Hill
#
# Bulk Modulus (GPa) = 78.36722 84.76624 81.56673
# Shear Modulus (GPa) = 34.87995 39.34542 37.11268
#
# Velocity S-wave (km/s) = 3.96100 4.20692 4.08581
# Velocity P-wave (km/s) = 7.49467 7.85663 7.67779
#
# Compressibility (1/GPa) = 0.01276044
#
# Stress axis : x y z
#
# Youngs Moduli (GPa) = 93.63759 126.70838 72.01560
#
# Poissons Ratio (x) = 0.14892 0.43012
# Poissons Ratio (y) = 0.11005 0.19449
# Poissons Ratio (z) = 0.55926 0.34220
#
# Static dielectric constant tensor:
#      x y z
#    x 4.093410 0.015410 -0.051690 
#    y 0.015410 4.245360 -0.164840 
#    z -0.051690 -0.164840 4.062910 
# 
# 
# High freq. dielectric constant tensor:
#      x y z
#    x 1.890550 -0.002280 -0.005390 
#    y -0.002280 1.887170 -0.011720 
#    z -0.005390 -0.011720 1.882040 
# 
# From -- ./inp_files/95432.got.cif
#   From: 2010.06.25/outbox.cif.g09.slc.cpg/sg2_48_cif.got.tgz:95432.got - 2010.06.27 13:26:56.
