data_PCOD8032707
_publ_section_title
;
Structure prediction by ZEFSAII (Michael W. Deem and Ramdas Pophale) SiO2 
 PCOD8032707
Probable space group: P -1
;
_chemical_formula_sum "Si O2"
_cell_formula_units_Z 16
_cell_length_a 12.163952
_cell_length_b 16.928310
_cell_length_c 8.657918
_cell_angle_alpha 29.712672
_cell_angle_beta 51.864891
_cell_angle_gamma 56.132769
_cell_volume 694.032992
_symmetry_space_group_name_H-M "P -1"
_symmetry_group_IT_number 2
_symmetry_cell_setting 'triclinic'
loop_
_space_group_symop_operation_xyz
x,y,z
-x,-y,-z
loop_
_atom_site_type_symbol
_atom_site_label
_atom_site_fract_x
_atom_site_fract_y
_atom_site_fract_z
Si Si1 0.511672 0.641196 0.124261
Si Si2 0.304384 0.817434 0.787110
Si Si3 0.841460 0.970857 0.205062
Si Si4 0.742556 0.112799 0.742484
Si Si5 0.796179 0.795280 0.088367
Si Si6 0.561333 0.881147 0.927738
Si Si7 0.764913 0.654153 0.676096
Si Si8 0.892270 0.329371 0.047461
O O1 0.500000 0.500000 0.500000
O O2 0.369943 0.685103 0.074915
O O3 0.548974 0.805534 0.896305
O O4 0.628778 0.585386 0.991520
O O5 0.212989 0.721622 0.909340
O O6 0.205774 0.958167 0.710627
O O7 0.421080 0.926242 0.422696
O O8 0.825303 0.781777 0.525120
O O9 0.752034 0.066307 0.991411
O O10 0.000000 0.000000 0.000000
O O11 0.836080 0.261581 0.373165
O O12 0.576523 0.145227 0.803964
O O13 0.810506 0.983040 0.784752
O O14 0.726054 0.731096 0.413675
O O15 0.689055 0.776738 0.072812
O O16 0.947322 0.715826 0.052308
O O17 0.883786 0.518130 0.763577
#
# Coordination Sequence:
#
# PCOD8032707 Si02
#       8
#     2   2   2   2   2   2   2   2
#     4  12  27  47  71 107 145 186 237 299 360 421
#     4  12  24  45  75  99 147 185 244 290 354 423
#     4  11  24  45  74 101 140 193 245 291 349 427
#     4  11  23  43  70 106 140 182 246 287 358 422
#     4  11  25  44  72 102 146 183 242 287 357 425
#     4  12  24  45  72 108 139 188 238 299 347 426
#     4  11  26  47  70 103 147 185 239 292 360 418
#     4  12  27  45  70 107 145 191 230 301 358 422
#
# _framework density 23.053660000000001
#
# number of rings (size 3 to 8) (size 9 to 14) (size 15 to 20)
#    0.000    0.500    3.750    5.250    5.250    0.500 
#    0.000    1.250    0.000    0.000    0.000    0.000 
#    0.000    0.000    0.000    0.000    0.000    0.000 
#
# Total GULP energy -198374.213769 kJ/mol
# GULP energy per Si atom -12398.388361 kJ/mol
# Density = 2.300119 g / cm^3
# Si number density = 23.053660 Si / 1000 Ang^3
#
#
#
# Elastic Constant Matrix: (Units=GPa)
#
#
# Indices 1 2 3 4 5 6 
#
# 1 81.8030 41.5542 31.3198 0.1665 -0.4814 -19.6970
# 2 41.5542 136.3050 33.1558 0.1736 -4.2514 -11.3862
# 3 31.3198 33.1558 107.4344 6.8615 -0.4297 -9.5607
# 4 0.1665 0.1736 6.8615 43.0166 -2.3062 -4.7134
# 5 -0.4814 -4.2514 -0.4297 -2.3062 19.7538 -0.2823
# 6 -19.6970 -11.3862 -9.5607 -4.7134 -0.2823 37.2352
#
#
#
# Elastic Compliance Matrix: (Units=1/GPa)
#
#
# Indices 1 2 3 4 5 6 
#
# 1 0.017158 -0.003845 -0.003253 0.001247 -0.000231 0.007221
# 2 -0.003845 0.008995 -0.001640 0.000379 0.001856 0.000357
# 3 -0.003253 -0.001640 0.010902 -0.001701 -0.000389 0.000358
# 4 0.001247 0.000379 -0.001701 0.024042 0.002930 0.003404
# 5 -0.000231 0.001856 -0.000389 0.002930 0.051366 0.001106
# 6 0.007221 0.000357 0.000358 0.003404 0.001106 0.031317
#
#
# Mechanical properties :
#
#
# Convention : Reuss Voigt Hill
#
# Bulk Modulus (GPa) = 51.07797 59.73355 55.40576
# Shear Modulus (GPa) = 29.80045 34.63531 32.21788
#
# Velocity S-wave (km/s) = 3.59925 3.88026 3.74239
# Velocity P-wave (km/s) = 6.28308 6.78543 6.53908
#
# Compressibility (1/GPa) = 0.01957791
#
# Stress axis : x y z
#
# Youngs Moduli (GPa) = 58.28104 111.17424 91.73019
#
# Poissons Ratio (x) = 0.42747 0.29843
# Poissons Ratio (y) = 0.22410 0.15044
# Poissons Ratio (z) = 0.18961 0.18232
#
# Static dielectric constant tensor:
#      x y z
#    x 3.902160 -0.053120 -0.024550 
#    y -0.053120 4.163640 -0.065870 
#    z -0.024550 -0.065870 4.164570 
# 
# 
# High freq. dielectric constant tensor:
#      x y z
#    x 1.902670 -0.001250 0.006290 
#    y -0.001250 1.923770 0.008600 
#    z 0.006290 0.008600 1.911480 
# 
# From -- ./inp_files/278648.got.cif
#   From: 2010.06.25/outbox.cif.g09.slc.cpg/sg2_140_cif.got.tgz:278648.got - 2010.06.27 13:26:56.
