data_PCOD8032547
_publ_section_title
;
Structure prediction by ZEFSAII (Michael W. Deem and Ramdas Pophale) SiO2 
 PCOD8032547
Probable space group: P -1
;
_chemical_formula_sum "Si O2"
_cell_formula_units_Z 16
_cell_length_a 15.370021
_cell_length_b 14.736656
_cell_length_c 15.404960
_cell_angle_alpha 144.251806
_cell_angle_beta 153.739892
_cell_angle_gamma 27.596447
_cell_volume 712.744965
_symmetry_space_group_name_H-M "P -1"
_symmetry_group_IT_number 2
_symmetry_cell_setting 'triclinic'
loop_
_space_group_symop_operation_xyz
x,y,z
-x,-y,-z
loop_
_atom_site_type_symbol
_atom_site_label
_atom_site_fract_x
_atom_site_fract_y
_atom_site_fract_z
Si Si1 0.763756 0.312008 0.831680
Si Si2 0.479122 0.264581 0.100374
Si Si3 0.483467 0.692933 0.639994
Si Si4 0.746283 0.728216 0.742609
Si Si5 0.961491 0.015358 0.628660
Si Si6 0.091343 0.316790 0.662846
Si Si7 0.754157 0.082687 0.792366
Si Si8 0.625048 0.885036 0.400012
O O1 0.546471 0.543036 0.802179
O O2 0.780179 0.176620 0.665050
O O3 0.694832 0.261542 0.820296
O O4 0.030288 0.264083 0.032209
O O5 0.415839 0.290078 0.165564
O O6 0.288035 0.250913 0.865443
O O7 0.755405 0.060044 0.173632
O O8 0.500000 0.500000 0.500000
O O9 0.645043 0.705357 0.723216
O O10 0.187928 0.875447 0.508971
O O11 0.846031 0.539677 0.625734
O O12 0.539937 0.918945 0.652855
O O13 0.990500 0.819746 0.515716
O O14 0.208581 0.297439 0.658359
O O15 0.532239 0.163508 0.724365
O O16 0.790496 0.909998 0.632483
O O17 0.000000 0.000000 0.000000
#
# Coordination Sequence:
#
# PCOD8032547 Si02
#       8
#     2   2   2   2   2   2   2   2
#     4  11  23  47  71  98 140 185 223 291 343 409
#     4  11  27  44  67 104 140 180 236 280 342 404
#     4  12  24  46  70 102 140 189 233 279 340 407
#     4  11  24  45  72  99 143 181 231 281 347 401
#     4  12  24  44  72  96 141 185 227 283 344 403
#     4  11  25  43  71 103 137 183 224 286 342 406
#     4  11  23  42  76 100 132 183 230 275 351 412
#     4  11  23  46  69 101 138 179 225 285 343 414
#
# _framework density 22.448422999999998
#
# number of rings (size 3 to 8) (size 9 to 14) (size 15 to 20)
#    0.000    0.750    5.000    1.875    1.750    2.500 
#    2.250    6.250    0.000    0.000    0.000    0.000 
#    0.000    0.000    0.000    0.000    0.000    0.000 
#
# Total GULP energy -198401.357543 kJ/mol
# GULP energy per Si atom -12400.084846 kJ/mol
# Density = 2.239733 g / cm^3
# Si number density = 22.448423 Si / 1000 Ang^3
#
#
#
# Elastic Constant Matrix: (Units=GPa)
#
#
# Indices 1 2 3 4 5 6 
#
# 1 146.5858 31.9966 25.2825 -1.2005 -1.7197 8.0918
# 2 31.9966 76.2319 -11.4971 2.0829 1.7073 -6.1878
# 3 25.2825 -11.4971 74.1029 2.9808 -3.1982 7.4027
# 4 -1.2005 2.0829 2.9808 30.4104 0.2292 0.1363
# 5 -1.7197 1.7073 -3.1982 0.2292 38.8867 9.0319
# 6 8.0918 -6.1878 7.4027 0.1363 9.0319 33.1503
#
#
#
# Elastic Compliance Matrix: (Units=1/GPa)
#
#
# Indices 1 2 3 4 5 6 
#
# 1 0.008482 -0.004299 -0.003328 0.000960 0.000833 -0.002361
# 2 -0.004299 0.015828 0.003566 -0.001609 -0.001418 0.003600
# 3 -0.003328 0.003566 0.015568 -0.001902 0.001548 -0.002412
# 4 0.000960 -0.001609 -0.001902 0.033220 -0.000194 -0.000193
# 5 0.000833 -0.001418 0.001548 -0.000194 0.027898 -0.008414
# 6 -0.002361 0.003600 -0.002412 -0.000193 -0.008414 0.034246
#
#
# Mechanical properties :
#
#
# Convention : Reuss Voigt Hill
#
# Bulk Modulus (GPa) = 31.48869 43.16496 37.32682
# Shear Modulus (GPa) = 32.47863 37.23205 34.85534
#
# Velocity S-wave (km/s) = 3.80782 4.07696 3.94469
# Velocity P-wave (km/s) = 5.77843 6.43680 6.11648
#
# Compressibility (1/GPa) = 0.03175744
#
# Stress axis : x y z
#
# Youngs Moduli (GPa) = 117.89538 63.17972 64.23548
#
# Poissons Ratio (x) = 0.27158 0.21376
# Poissons Ratio (y) = 0.50678 -0.22907
# Poissons Ratio (z) = 0.39232 -0.22530
#
# Static dielectric constant tensor:
#      x y z
#    x 4.299790 -0.009500 -0.145750 
#    y -0.009500 4.110610 -0.032120 
#    z -0.145750 -0.032120 4.225320 
# 
# 
# High freq. dielectric constant tensor:
#      x y z
#    x 1.889610 0.000840 -0.000460 
#    y 0.000840 1.879290 0.000500 
#    z -0.000460 0.000500 1.902260 
# 
# From -- ./inp_files/533862.got.cif
#   From: 2010.06.25/outbox.cif.g09.slc.cpg/sg2_267_cif.got.tgz:533862.got - 2010.06.27 13:26:56.
