data_PCOD8032114
_publ_section_title
;
Structure prediction by ZEFSAII (Michael W. Deem and Ramdas Pophale) SiO2 
 PCOD8032114
Probable space group: P -1
;
_chemical_formula_sum "Si O2"
_cell_formula_units_Z 12
_cell_length_a 8.593605
_cell_length_b 14.126683
_cell_length_c 9.054702
_cell_angle_alpha 102.155963
_cell_angle_beta 31.510364
_cell_angle_gamma 111.360973
_cell_volume 523.646168
_symmetry_space_group_name_H-M "P -1"
_symmetry_group_IT_number 2
_symmetry_cell_setting 'triclinic'
loop_
_space_group_symop_operation_xyz
x,y,z
-x,-y,-z
loop_
_atom_site_type_symbol
_atom_site_label
_atom_site_fract_x
_atom_site_fract_y
_atom_site_fract_z
Si Si1 0.817190 0.297420 0.766765
Si Si2 0.076741 0.016015 0.614459
Si Si3 0.096368 0.232877 0.792430
Si Si4 0.508552 0.105513 0.767258
Si Si5 0.721115 0.613819 0.813685
Si Si6 0.265317 0.747298 0.630036
O O1 0.769636 0.188450 0.688544
O O2 0.942372 0.295209 0.830078
O O3 0.083412 0.390427 0.493346
O O4 0.484257 0.315336 0.035613
O O5 0.102463 0.129137 0.677453
O O6 0.409287 0.997902 0.356748
O O7 0.000000 0.000000 0.500000
O O8 0.831222 0.928196 0.888311
O O9 0.471670 0.301247 0.543587
O O10 0.880572 0.207217 0.104488
O O11 0.514437 0.158652 0.621684
O O12 0.971792 0.661619 0.757917
O O13 0.500000 0.500000 0.000000
#
# Coordination Sequence:
#
# PCOD8032114 Si02
#       6
#     2   2   2   2   2   2
#     4  11  23  42  70  96 129 174 220 260 332 392
#     4  12  24  38  64  95 133 177 236 257 300 384
#     4  12  25  41  65 100 138 173 214 279 326 366
#     4  11  23  41  64  91 132 184 224 259 308 386
#     4  11  24  47  73  95 123 171 221 265 327 420
#     4  11  25  44  64  97 137 169 215 279 339 373
#
# _framework density 22.916238
#
# number of rings (size 3 to 8) (size 9 to 14) (size 15 to 20)
#    0.000    0.667    1.667    8.000    2.333    4.000 
#    0.000    5.000    0.000    0.000    0.000    0.000 
#    0.000    0.000    0.000    0.000    0.000    0.000 
#
# Total GULP energy -148784.792769 kJ/mol
# GULP energy per Si atom -12398.732731 kJ/mol
# Density = 2.286408 g / cm^3
# Si number density = 22.916238 Si / 1000 Ang^3
#
#
#
# Elastic Constant Matrix: (Units=GPa)
#
#
# Indices 1 2 3 4 5 6 
#
# 1 160.1551 38.9280 53.7499 3.1777 -11.7931 10.0213
# 2 38.9280 57.1753 19.3559 -8.7929 1.2543 0.6060
# 3 53.7499 19.3559 130.2712 7.1505 -1.3288 12.5235
# 4 3.1777 -8.7929 7.1505 33.6479 -0.0863 -2.4494
# 5 -11.7931 1.2543 -1.3288 -0.0863 48.8064 7.3262
# 6 10.0213 0.6060 12.5235 -2.4494 7.3262 16.4389
#
#
#
# Elastic Compliance Matrix: (Units=1/GPa)
#
#
# Indices 1 2 3 4 5 6 
#
# 1 0.008969 -0.005723 -0.002187 -0.002254 0.003043 -0.005282
# 2 -0.005723 0.023292 -0.002200 0.007582 -0.003048 0.006794
# 3 -0.002187 -0.002200 0.009728 -0.002928 0.000807 -0.006792
# 4 -0.002254 0.007582 -0.002928 0.033202 -0.002146 0.009229
# 5 0.003043 -0.003048 0.000807 -0.002146 0.023280 -0.013053
# 6 -0.005282 0.006794 -0.006792 0.009229 -0.013053 0.076167
#
#
# Mechanical properties :
#
#
# Convention : Reuss Voigt Hill
#
# Bulk Modulus (GPa) = 45.94014 63.51881 54.72947
# Shear Modulus (GPa) = 24.73841 35.48316 30.11079
#
# Velocity S-wave (km/s) = 3.28916 3.93922 3.62878
# Velocity P-wave (km/s) = 5.87497 6.96189 6.44140
#
# Compressibility (1/GPa) = 0.02176746
#
# Stress axis : x y z
#
# Youngs Moduli (GPa) = 111.50065 42.93272 102.80047
#
# Poissons Ratio (x) = 0.24571 0.22487
# Poissons Ratio (y) = 0.63814 0.22614
# Poissons Ratio (z) = 0.24391 0.09444
#
# Static dielectric constant tensor:
#      x y z
#    x 4.464090 -0.004900 -0.026540 
#    y -0.004900 3.806920 0.107520 
#    z -0.026540 0.107520 4.475090 
# 
# 
# High freq. dielectric constant tensor:
#      x y z
#    x 1.917600 -0.000030 -0.001730 
#    y -0.000030 1.866230 0.007400 
#    z -0.001730 0.007400 1.932920 
# 
# From -- ./inp_files/126405.got.cif
#   From: 2010.06.25/outbox.cif.g09.slc.cpg/sg2_64_cif.got.tgz:126405.got - 2010.06.27 13:26:56.
