data_PCOD8032584
_publ_section_title
;
Structure prediction by ZEFSAII (Michael W. Deem and Ramdas Pophale) SiO2 
 PCOD8032584
Probable space group: P -1
;
_chemical_formula_sum "Si O2"
_cell_formula_units_Z 16
_cell_length_a 15.146748
_cell_length_b 27.368757
_cell_length_c 9.349872
_cell_angle_alpha 36.142796
_cell_angle_beta 133.991725
_cell_angle_gamma 159.265711
_cell_volume 774.397489
_symmetry_space_group_name_H-M "P -1"
_symmetry_group_IT_number 2
_symmetry_cell_setting 'triclinic'
loop_
_space_group_symop_operation_xyz
x,y,z
-x,-y,-z
loop_
_atom_site_type_symbol
_atom_site_label
_atom_site_fract_x
_atom_site_fract_y
_atom_site_fract_z
Si Si1 0.845147 0.835282 0.402577
Si Si2 0.040298 0.270893 0.133864
Si Si3 0.784722 0.532987 0.884836
Si Si4 0.984976 0.735432 0.370246
Si Si5 0.872294 0.395639 0.746124
Si Si6 0.791828 0.796668 0.096860
Si Si7 0.525874 0.045473 0.086626
Si Si8 0.272217 0.511716 0.568342
O O1 0.957016 0.826148 0.644406
O O2 0.814480 0.795368 0.294965
O O3 0.576633 0.694260 0.514848
O O4 0.035953 0.025523 0.186316
O O5 0.255978 0.429942 0.114129
O O6 0.753595 0.122660 0.222261
O O7 0.099010 0.355676 0.854024
O O8 0.992737 0.700189 0.618713
O O9 0.503492 0.355215 0.916429
O O10 0.917523 0.527196 0.101714
O O11 0.903447 0.782884 0.173625
O O12 0.758356 0.552065 0.465784
O O13 0.254932 0.874875 0.266234
O O14 0.803071 0.437137 0.656757
O O15 0.000000 0.500000 0.500000
O O16 0.621056 0.195006 0.880609
O O17 0.500000 0.000000 0.000000
#
# Coordination Sequence:
#
# PCOD8032584 Si02
#       8
#     2   2   2   2   2   2   2   2
#     4  11  24  43  67  99 134 168 221 273 332 386
#     4  11  23  44  68  95 133 175 215 269 334 386
#     4  11  23  44  70  95 129 179 218 268 330 390
#     4  12  23  43  71  96 131 176 224 265 330 392
#     4  11  23  43  66  97 137 172 214 271 328 385
#     4  11  24  44  66  99 135 167 217 284 320 390
#     4  11  23  43  66  99 135 173 216 269 326 389
#     4  12  23  44  68  98 132 177 215 272 328 391
#
# _framework density 20.661224000000001
#
# number of rings (size 3 to 8) (size 9 to 14) (size 15 to 20)
#    0.000    0.750    6.250    2.250    0.000    4.500 
#    4.500    1.250    0.000    0.000    0.000    0.000 
#    0.000    0.000    0.000    0.000    0.000    0.000 
#
# Total GULP energy -198263.327523 kJ/mol
# GULP energy per Si atom -12391.457970 kJ/mol
# Density = 2.061420 g / cm^3
# Si number density = 20.661224 Si / 1000 Ang^3
#
#
#
# Elastic Constant Matrix: (Units=GPa)
#
#
# Indices 1 2 3 4 5 6 
#
# 1 119.0891 40.3962 49.8948 0.9006 26.6981 9.6197
# 2 40.3962 98.6673 46.2579 -6.4269 11.1753 10.3612
# 3 49.8948 46.2579 120.8064 6.0422 24.6352 18.4995
# 4 0.9006 -6.4269 6.0422 33.1352 5.2642 -3.0937
# 5 26.6981 11.1753 24.6352 5.2642 41.7647 -2.0272
# 6 9.6197 10.3612 18.4995 -3.0937 -2.0272 44.3856
#
#
#
# Elastic Compliance Matrix: (Units=1/GPa)
#
#
# Indices 1 2 3 4 5 6 
#
# 1 0.011697 -0.002884 -0.002498 0.000327 -0.005324 -0.001041
# 2 -0.002884 0.013493 -0.004096 0.003357 0.000198 -0.000575
# 3 -0.002498 -0.004096 0.012583 -0.002678 -0.004593 -0.004143
# 4 0.000327 0.003357 -0.002678 0.032078 -0.003457 0.002340
# 5 -0.005324 0.000198 -0.004593 -0.003457 0.030642 0.004180
# 6 -0.001041 -0.000575 -0.004143 0.002340 0.004180 0.024970
#
#
# Mechanical properties :
#
#
# Convention : Reuss Voigt Hill
#
# Bulk Modulus (GPa) = 53.14380 67.96228 60.55304
# Shear Modulus (GPa) = 33.18065 37.32468 35.25267
#
# Velocity S-wave (km/s) = 4.01176 4.25492 4.13513
# Velocity P-wave (km/s) = 6.87287 7.55673 7.22290
#
# Compressibility (1/GPa) = 0.01881687
#
# Stress axis : x y z
#
# Youngs Moduli (GPa) = 85.49049 74.11459 79.47485
#
# Poissons Ratio (x) = 0.21377 0.19852
# Poissons Ratio (y) = 0.24658 0.32549
# Poissons Ratio (z) = 0.21355 0.30354
#
# Static dielectric constant tensor:
#      x y z
#    x 3.524590 -0.020990 -0.154240 
#    y -0.020990 3.611990 -0.027470 
#    z -0.154240 -0.027470 3.595080 
# 
# 
# High freq. dielectric constant tensor:
#      x y z
#    x 1.817760 0.001290 0.003520 
#    y 0.001290 1.813630 -0.004960 
#    z 0.003520 -0.004960 1.811000 
# 
# From -- ./inp_files/320675.got.cif
#   From: 2010.06.25/outbox.cif.g09.slc.cpg/sg2_161_cif.got.tgz:320675.got - 2010.06.27 13:26:56.
