data_PCOD8032427
_publ_section_title
;
Structure prediction by ZEFSAII (Michael W. Deem and Ramdas Pophale) SiO2 
 PCOD8032427
Probable space group: P -1
;
_chemical_formula_sum "Si O2"
_cell_formula_units_Z 16
_cell_length_a 11.484213
_cell_length_b 8.532168
_cell_length_c 13.574203
_cell_angle_alpha 98.634326
_cell_angle_beta 59.911483
_cell_angle_gamma 137.152220
_cell_volume 727.242665
_symmetry_space_group_name_H-M "P -1"
_symmetry_group_IT_number 2
_symmetry_cell_setting 'triclinic'
loop_
_space_group_symop_operation_xyz
x,y,z
-x,-y,-z
loop_
_atom_site_type_symbol
_atom_site_label
_atom_site_fract_x
_atom_site_fract_y
_atom_site_fract_z
Si Si1 0.517391 0.316184 0.152428
Si Si2 0.766238 0.054956 0.917480
Si Si3 0.140728 0.182669 0.047204
Si Si4 0.840404 0.155700 0.268713
Si Si5 0.840049 0.995799 0.586026
Si Si6 0.767018 0.263191 0.113672
Si Si7 0.549092 0.729861 0.499982
Si Si8 0.086452 0.452090 0.663319
O O1 0.426645 0.112207 0.091689
O O2 0.656522 0.334675 0.168364
O O3 0.328253 0.224279 0.285162
O O4 0.640380 0.567303 0.070375
O O5 0.823322 0.924226 0.901535
O O6 0.973757 0.319838 0.804373
O O7 0.676120 0.058641 0.052529
O O8 0.039448 0.236789 0.154236
O O9 0.000000 0.000000 0.000000
O O10 0.735582 0.155013 0.222355
O O11 0.916429 0.359490 0.333820
O O12 0.666086 0.881754 0.363179
O O13 0.966250 0.259371 0.604796
O O14 0.711867 0.928207 0.536123
O O15 0.000000 0.000000 0.500000
O O16 0.000000 0.500000 0.000000
O O17 0.500000 0.500000 0.500000
O O18 0.328062 0.618864 0.587809
#
# Coordination Sequence:
#
# PCOD8032427 Si02
#       8
#     2   2   2   2   2   2   2   2
#     4  11  25  42  69 101 142 185 231 295 365 413
#     4  11  23  42  70 101 144 182 232 296 357 423
#     4  12  24  41  67 106 139 185 236 289 353 428
#     4  12  26  42  73 106 141 189 241 292 358 431
#     4  11  26  47  72 104 137 190 240 298 354 423
#     4  12  21  44  70 102 140 180 233 285 357 432
#     4  12  26  46  75 102 143 191 244 300 361 421
#     4  11  24  47  71 102 144 188 243 296 356 428
#
# _framework density 22.000910000000001
#
# number of rings (size 3 to 8) (size 9 to 14) (size 15 to 20)
#    0.000    0.500    5.000    2.625    5.250    1.500 
#    0.000    1.250    0.000    0.000    0.000    0.000 
#    0.000    0.000    0.000    0.000    0.000    0.000 
#
# Total GULP energy -198401.571402 kJ/mol
# GULP energy per Si atom -12400.098213 kJ/mol
# Density = 2.195084 g / cm^3
# Si number density = 22.000910 Si / 1000 Ang^3
#
#
#
# Elastic Constant Matrix: (Units=GPa)
#
#
# Indices 1 2 3 4 5 6 
#
# 1 78.2606 40.0235 21.4373 -9.7090 2.0602 -7.0084
# 2 40.0235 108.5487 66.0756 -1.5911 -5.5178 -7.2097
# 3 21.4373 66.0756 113.4952 -16.1083 2.5411 -3.8276
# 4 -9.7090 -1.5911 -16.1083 46.3530 -6.0013 2.0647
# 5 2.0602 -5.5178 2.5411 -6.0013 45.5009 1.0903
# 6 -7.0084 -7.2097 -3.8276 2.0647 1.0903 47.7766
#
#
#
# Elastic Compliance Matrix: (Units=1/GPa)
#
#
# Indices 1 2 3 4 5 6 
#
# 1 0.016493 -0.006898 0.001472 0.003508 -0.001236 0.001373
# 2 -0.006898 0.017730 -0.009594 -0.003896 0.002460 0.001007
# 3 0.001472 -0.009594 0.014847 0.004968 -0.001399 -0.000225
# 4 0.003508 -0.003896 0.004968 0.024234 0.002306 -0.000775
# 5 -0.001236 0.002460 -0.001399 0.002306 0.022727 -0.000540
# 6 0.001373 0.001007 -0.000225 -0.000775 -0.000540 0.021312
#
#
# Mechanical properties :
#
#
# Convention : Reuss Voigt Hill
#
# Bulk Modulus (GPa) = 52.54226 61.70856 57.12541
# Shear Modulus (GPa) = 32.52555 39.44396 35.98476
#
# Velocity S-wave (km/s) = 3.84913 4.23878 4.04865
# Velocity P-wave (km/s) = 6.60970 7.21564 6.91930
#
# Compressibility (1/GPa) = 0.01903230
#
# Stress axis : x y z
#
# Youngs Moduli (GPa) = 60.63273 56.40019 67.35380
#
# Poissons Ratio (x) = 0.38902 -0.09917
# Poissons Ratio (y) = 0.41822 0.64618
# Poissons Ratio (z) = -0.08928 0.54109
#
# Static dielectric constant tensor:
#      x y z
#    x 3.937640 0.192660 -0.045970 
#    y 0.192660 4.217120 0.132640 
#    z -0.045970 0.132640 4.339490 
# 
# 
# High freq. dielectric constant tensor:
#      x y z
#    x 1.862190 0.002400 -0.003140 
#    y 0.002400 1.877050 0.005050 
#    z -0.003140 0.005050 1.875010 
# 
# From -- ./inp_files/434241.got.cif
#   From: 2010.06.25/outbox.cif.g09.slc.cpg/sg2_218_cif.got.tgz:434241.got - 2010.06.27 13:26:56.
