data_PCOD8032072
_publ_section_title
;
Structure prediction by ZEFSAII (Michael W. Deem and Ramdas Pophale) SiO2 
 PCOD8032072
Probable space group: P -1
;
_chemical_formula_sum "Si O2"
_cell_formula_units_Z 16
_cell_length_a 9.159449
_cell_length_b 5.897484
_cell_length_c 17.553133
_cell_angle_alpha 131.072945
_cell_angle_beta 84.581791
_cell_angle_gamma 82.575627
_cell_volume 688.119611
_symmetry_space_group_name_H-M "P -1"
_symmetry_group_IT_number 2
_symmetry_cell_setting 'triclinic'
loop_
_space_group_symop_operation_xyz
x,y,z
-x,-y,-z
loop_
_atom_site_type_symbol
_atom_site_label
_atom_site_fract_x
_atom_site_fract_y
_atom_site_fract_z
Si Si1 0.587007 0.207742 0.988979
Si Si2 0.003295 0.209188 0.768533
Si Si3 0.493273 0.068383 0.316617
Si Si4 0.740413 0.327483 0.304265
Si Si5 0.649916 0.909212 0.519653
Si Si6 0.888809 0.248946 0.613301
Si Si7 0.752847 0.465783 0.169450
Si Si8 0.239415 0.048967 0.215117
O O1 0.699953 0.951763 0.874356
O O2 0.500000 0.500000 0.000000
O O3 0.694798 0.331076 0.067941
O O4 0.500000 0.000000 0.000000
O O5 0.076236 0.497683 0.846621
O O6 0.945976 0.192044 0.682894
O O7 0.142754 0.916027 0.706139
O O8 0.862871 0.200048 0.828779
O O9 0.566472 0.322245 0.329181
O O10 0.393263 0.227577 0.428404
O O11 0.387099 0.938464 0.235760
O O12 0.630743 0.779063 0.270514
O O13 0.766549 0.652673 0.405888
O O14 0.770141 0.252228 0.196740
O O15 0.500000 0.000000 0.500000
O O16 0.721812 0.194004 0.598519
O O17 0.865313 0.615562 0.678271
O O18 0.000000 0.000000 0.500000
#
# Coordination Sequence:
#
# PCOD8032072 Si02
#       8
#     2   2   2   2   2   2   2   2
#     4  12  29  50  85 120 152 199 258 330 397 452
#     4  11  26  46  70  99 151 197 252 298 387 455
#     4  11  23  40  70 100 147 184 246 308 379 449
#     4  11  24  43  67 101 144 197 241 316 371 455
#     4  12  23  39  68 103 141 187 250 304 382 445
#     4  12  28  45  67 106 155 200 251 309 379 465
#     4  11  24  48  72 106 146 190 248 315 382 452
#     4  12  26  47  74 108 147 198 253 313 383 461
#
# _framework density 23.251773
#
# number of rings (size 3 to 8) (size 9 to 14) (size 15 to 20)
#    0.000    0.500    3.750    4.125    8.750    1.500 
#    0.000    2.500    0.000    0.000    0.000    0.000 
#    0.000    0.000    0.000    0.000    0.000    0.000 
#
# Total GULP energy -198230.405703 kJ/mol
# GULP energy per Si atom -12389.400356 kJ/mol
# Density = 2.319885 g / cm^3
# Si number density = 23.251773 Si / 1000 Ang^3
#
#
#
# Elastic Constant Matrix: (Units=GPa)
#
#
# Indices 1 2 3 4 5 6 
#
# 1 151.5393 53.2342 46.7600 -22.0199 28.5680 18.8813
# 2 53.2342 99.1471 26.4114 -17.5234 13.9142 14.8571
# 3 46.7600 26.4114 101.1976 -23.8288 19.9609 10.1356
# 4 -22.0199 -17.5234 -23.8288 36.1817 -6.7019 -1.9795
# 5 28.5680 13.9142 19.9609 -6.7019 42.9654 -4.9987
# 6 18.8813 14.8571 10.1356 -1.9795 -4.9987 45.2294
#
#
#
# Elastic Compliance Matrix: (Units=1/GPa)
#
#
# Indices 1 2 3 4 5 6 
#
# 1 0.009943 -0.003330 -0.002020 0.002087 -0.004621 -0.003024
# 2 -0.003330 0.013308 -0.000458 0.003652 -0.001650 -0.002901
# 3 -0.002020 -0.000458 0.013491 0.006572 -0.004005 -0.002185
# 4 0.002087 0.003652 0.006572 0.034812 -0.000434 -0.002068
# 5 -0.004621 -0.001650 -0.004005 -0.000434 0.029443 0.006604
# 6 -0.003024 -0.002901 -0.002185 -0.002068 0.006604 0.025454
#
#
# Mechanical properties :
#
#
# Convention : Reuss Voigt Hill
#
# Bulk Modulus (GPa) = 39.79990 67.18837 53.49414
# Shear Modulus (GPa) = 34.14321 39.90719 37.02520
#
# Velocity S-wave (km/s) = 3.83615 4.14733 3.99477
# Velocity P-wave (km/s) = 6.06428 7.20365 6.65838
#
# Compressibility (1/GPa) = 0.02512569
#
# Stress axis : x y z
#
# Youngs Moduli (GPa) = 100.57234 75.14256 74.12418
#
# Poissons Ratio (x) = 0.25024 0.14970
# Poissons Ratio (y) = 0.33493 0.03398
# Poissons Ratio (z) = 0.20311 0.03444
#
# Static dielectric constant tensor:
#      x y z
#    x 4.437800 0.718150 -1.334490 
#    y 0.718150 3.903270 1.845090 
#    z -1.334490 1.845090 -1.027580 
# 
# 
# High freq. dielectric constant tensor:
#      x y z
#    x 1.940940 0.001610 0.013800 
#    y 0.001610 1.921040 -0.013830 
#    z 0.013800 -0.013830 1.905950 
# 
# From -- ./inp_files/47898.got.cif
#   From: 2010.06.25/outbox.cif.g09.slc.cpg/sg2_24_cif.got.tgz:47898.got - 2010.06.27 13:26:56.
