data_PCOD8032747
_publ_section_title
;
Structure prediction by ZEFSAII (Michael W. Deem and Ramdas Pophale) SiO2 
 PCOD8032747
Probable space group: P -1
;
_chemical_formula_sum "Si O2"
_cell_formula_units_Z 16
_cell_length_a 8.961453
_cell_length_b 12.474733
_cell_length_c 18.327588
_cell_angle_alpha 150.416622
_cell_angle_beta 48.326328
_cell_angle_gamma 129.504868
_cell_volume 746.157089
_symmetry_space_group_name_H-M "P -1"
_symmetry_group_IT_number 2
_symmetry_cell_setting 'triclinic'
loop_
_space_group_symop_operation_xyz
x,y,z
-x,-y,-z
loop_
_atom_site_type_symbol
_atom_site_label
_atom_site_fract_x
_atom_site_fract_y
_atom_site_fract_z
Si Si1 0.135615 0.171172 0.450613
Si Si2 0.476051 0.745686 0.365572
Si Si3 0.936218 0.480756 0.592871
Si Si4 0.836601 0.933733 0.953012
Si Si5 0.631970 0.125572 0.883598
Si Si6 0.055822 0.725774 0.002585
Si Si7 0.622402 0.555514 0.066238
Si Si8 0.848604 0.735509 0.331841
O O1 0.196981 0.251883 0.559865
O O2 0.080204 0.371557 0.537649
O O3 0.327590 0.092037 0.301578
O O4 0.956163 0.963563 0.395752
O O5 0.270644 0.681999 0.437130
O O6 0.471786 0.632919 0.220682
O O7 0.641503 0.663542 0.314026
O O8 0.500000 0.000000 0.500000
O O9 0.898787 0.719392 0.770037
O O10 0.000000 0.500000 0.500000
O O11 0.861677 0.140892 0.015359
O O12 0.603302 0.894625 0.030872
O O13 0.000000 0.000000 0.000000
O O14 0.789061 0.170439 0.925151
O O15 0.694167 0.330211 0.932000
O O16 0.820753 0.746323 0.108639
O O17 0.033571 0.466259 0.840405
O O18 0.500000 0.500000 0.000000
#
# Coordination Sequence:
#
# PCOD8032747 Si02
#       8
#     2   2   2   2   2   2   2   2
#     4  11  25  42  72 103 144 180 239 295 356 418
#     4  12  26  44  71 103 144 185 239 293 360 427
#     4  12  27  48  69 104 147 191 237 292 359 428
#     4  12  27  47  71 100 144 189 237 290 354 428
#     4  12  24  46  69 104 136 187 236 292 352 424
#     4  12  24  44  73 100 138 182 238 293 359 419
#     4  12  26  42  72 106 141 184 243 298 352 425
#     4  11  23  43  71 106 136 184 233 302 354 417
#
# _framework density 21.443204000000001
#
# number of rings (size 3 to 8) (size 9 to 14) (size 15 to 20)
#    0.000    0.250    5.000    3.750    5.250    2.000 
#    0.000    1.875    0.000    0.000    0.000    0.000 
#    0.000    0.000    0.000    0.000    0.000    0.000 
#
# Total GULP energy -198336.734539 kJ/mol
# GULP energy per Si atom -12396.045909 kJ/mol
# Density = 2.139440 g / cm^3
# Si number density = 21.443204 Si / 1000 Ang^3
#
#
#
# Elastic Constant Matrix: (Units=GPa)
#
#
# Indices 1 2 3 4 5 6 
#
# 1 141.2124 60.4313 34.5501 -22.2671 16.4277 -7.0060
# 2 60.4313 127.6269 43.0728 -17.5801 5.1782 0.3922
# 3 34.5501 43.0728 101.4584 -30.2679 -8.6369 1.9415
# 4 -22.2671 -17.5801 -30.2679 34.8075 -8.4398 -0.6336
# 5 16.4277 5.1782 -8.6369 -8.4398 31.4943 0.8592
# 6 -7.0060 0.3922 1.9415 -0.6336 0.8592 45.0044
#
#
#
# Elastic Compliance Matrix: (Units=1/GPa)
#
#
# Indices 1 2 3 4 5 6 
#
# 1 0.010020 -0.003729 -0.001652 0.002013 -0.004575 0.001779
# 2 -0.003729 0.010762 -0.003378 -0.000080 -0.000758 -0.000515
# 3 -0.001652 -0.003378 0.017033 0.014453 0.009987 -0.000950
# 4 0.002013 -0.000080 0.014453 0.046260 0.015322 0.000049
# 5 -0.004575 -0.000758 0.009987 0.015322 0.041154 -0.001706
# 6 0.001779 -0.000515 -0.000950 0.000049 -0.001706 0.022576
#
#
# Mechanical properties :
#
#
# Convention : Reuss Voigt Hill
#
# Bulk Modulus (GPa) = 49.26846 71.82290 60.54568
# Shear Modulus (GPa) = 29.05479 37.74415 33.39947
#
# Velocity S-wave (km/s) = 3.68498 4.20002 3.95090
# Velocity P-wave (km/s) = 6.41339 7.55562 7.00781
#
# Compressibility (1/GPa) = 0.02029696
#
# Stress axis : x y z
#
# Youngs Moduli (GPa) = 99.80479 92.91605 58.71039
#
# Poissons Ratio (x) = 0.34652 0.09698
# Poissons Ratio (y) = 0.37221 0.19831
# Poissons Ratio (z) = 0.16486 0.31384
#
# Static dielectric constant tensor:
#      x y z
#    x 3.937400 -0.266240 0.083380 
#    y -0.266240 3.965730 -0.389630 
#    z 0.083380 -0.389630 4.782070 
# 
# 
# High freq. dielectric constant tensor:
#      x y z
#    x 1.851390 -0.006850 -0.002670 
#    y -0.006850 1.850050 -0.001770 
#    z -0.002670 -0.001770 1.855600 
# 
# From -- ./inp_files/333715.got.cif
#   From: 2010.06.25/outbox.cif.g09.slc.cpg/sg2_167_cif.got.tgz:333715.got - 2010.06.27 13:26:56.
