data_PCOD8032243
_publ_section_title
;
Structure prediction by ZEFSAII (Michael W. Deem and Ramdas Pophale) SiO2 
 PCOD8032243
Probable space group: P -1
;
_chemical_formula_sum "Si O2"
_cell_formula_units_Z 16
_cell_length_a 9.025783
_cell_length_b 12.208995
_cell_length_c 27.161419
_cell_angle_alpha 31.010945
_cell_angle_beta 27.918458
_cell_angle_gamma 42.330284
_cell_volume 719.981185
_symmetry_space_group_name_H-M "P -1"
_symmetry_group_IT_number 2
_symmetry_cell_setting 'triclinic'
loop_
_space_group_symop_operation_xyz
x,y,z
-x,-y,-z
loop_
_atom_site_type_symbol
_atom_site_label
_atom_site_fract_x
_atom_site_fract_y
_atom_site_fract_z
Si Si1 0.879527 0.849978 0.814595
Si Si2 0.726992 0.533263 0.129845
Si Si3 0.889988 0.034088 0.139031
Si Si4 0.236429 0.187887 0.638938
Si Si5 0.325067 0.703061 0.096130
Si Si6 0.923332 0.604560 0.596205
Si Si7 0.791386 0.979277 0.685336
Si Si8 0.052917 0.707030 0.629938
O O1 0.905609 0.844394 0.749988
O O2 0.096433 0.682877 0.840891
O O3 0.511600 0.797971 0.957342
O O4 0.992064 0.088024 0.708426
O O5 0.579831 0.589698 0.098645
O O6 0.436885 0.491824 0.269772
O O7 0.977423 0.722066 0.000521
O O8 0.584861 0.994838 0.208580
O O9 0.769254 0.980806 0.249994
O O10 0.176427 0.890880 0.097114
O O11 0.577693 0.223106 0.499405
O O12 0.152650 0.414971 0.596980
O O13 0.040320 0.531306 0.230101
O O14 0.956199 0.712833 0.598809
O O15 0.021904 0.787325 0.457453
O O16 0.855813 0.864764 0.659112
#
# Coordination Sequence:
#
# PCOD8032243 Si02
#       8
#     2   2   2   2   2   2   2   2
#     4  12  28  45  66 102 145 181 218 276 347 406
#     4  11  23  41  71 103 135 173 226 285 331 398
#     4  12  23  43  75 102 131 177 233 283 331 399
#     4  12  23  43  75 102 131 177 233 283 331 399
#     4  11  23  43  72 105 130 176 233 283 333 393
#     4  11  23  43  72 105 130 176 233 283 333 393
#     4  12  28  45  66 102 145 181 218 276 347 406
#     4  11  23  41  71 103 135 173 226 285 331 398
#
# _framework density 22.222802000000001
#
# number of rings (size 3 to 8) (size 9 to 14) (size 15 to 20)
#    0.000    0.500    5.000    4.500    3.500    5.000 
#    0.000    2.500    0.000    0.000    0.000    0.000 
#    0.000    0.000    0.000    0.000    0.000    0.000 
#
# Total GULP energy -198420.649702 kJ/mol
# GULP energy per Si atom -12401.290606 kJ/mol
# Density = 2.217222 g / cm^3
# Si number density = 22.222802 Si / 1000 Ang^3
#
#
#
# Elastic Constant Matrix: (Units=GPa)
#
#
# Indices 1 2 3 4 5 6 
#
# 1 69.6379 44.7282 41.7353 -0.3886 8.8698 0.4553
# 2 44.7282 96.5129 39.4942 0.7105 11.9054 0.2077
# 3 41.7353 39.4942 192.7898 3.3829 -14.1289 -0.0903
# 4 -0.3886 0.7105 3.3829 37.2555 -0.6284 -6.2799
# 5 8.8698 11.9054 -14.1289 -0.6284 23.6267 0.2354
# 6 0.4553 0.2077 -0.0903 -6.2799 0.2354 16.4499
#
#
#
# Elastic Compliance Matrix: (Units=1/GPa)
#
#
# Indices 1 2 3 4 5 6 
#
# 1 0.022698 -0.008180 -0.003733 0.000582 -0.006614 -0.000229
# 2 -0.008180 0.015650 -0.001865 -0.000318 -0.005939 -0.000018
# 3 -0.003733 -0.001865 0.006858 -0.000540 0.006429 -0.000134
# 4 0.000582 -0.000318 -0.000540 0.028755 0.000274 0.010958
# 5 -0.006614 -0.005939 0.006429 0.000274 0.051656 -0.000341
# 6 -0.000229 -0.000018 -0.000134 0.010958 -0.000341 0.064985
#
#
# Mechanical properties :
#
#
# Convention : Reuss Voigt Hill
#
# Bulk Modulus (GPa) = 56.65456 67.87288 62.26372
# Shear Modulus (GPa) = 22.31737 30.99862 26.65800
#
# Velocity S-wave (km/s) = 3.17244 3.73889 3.46725
# Velocity P-wave (km/s) = 6.24247 7.01765 6.64138
#
# Compressibility (1/GPa) = 0.01765083
#
# Stress axis : x y z
#
# Youngs Moduli (GPa) = 44.05625 63.89690 145.81936
#
# Poissons Ratio (x) = 0.52265 0.54437
# Poissons Ratio (y) = 0.36036 0.27195
# Poissons Ratio (z) = 0.16447 0.11917
#
# Static dielectric constant tensor:
#      x y z
#    x 3.529040 -0.003630 -0.193500 
#    y -0.003630 3.853740 0.033870 
#    z -0.193500 0.033870 4.626950 
# 
# 
# High freq. dielectric constant tensor:
#      x y z
#    x 1.830050 0.000100 -0.012440 
#    y 0.000100 1.876930 0.001450 
#    z -0.012440 0.001450 1.908650 
# 
# From -- ./inp_files/306771.got.cif
#   From: 2010.06.25/outbox.cif.g09.slc.cpg/sg2_154_cif.got.tgz:306771.got - 2010.06.27 13:26:56.
