data_PCOD8032902
_publ_section_title
;
Structure prediction by ZEFSAII (Michael W. Deem and Ramdas Pophale) SiO2 
 PCOD8032902
Probable space group: P -1
;
_chemical_formula_sum "Si O2"
_cell_formula_units_Z 16
_cell_length_a 15.370384
_cell_length_b 12.907870
_cell_length_c 8.855144
_cell_angle_alpha 108.894565
_cell_angle_beta 27.664000
_cell_angle_gamma 116.503813
_cell_volume 719.092755
_symmetry_space_group_name_H-M "P -1"
_symmetry_group_IT_number 2
_symmetry_cell_setting 'triclinic'
loop_
_space_group_symop_operation_xyz
x,y,z
-x,-y,-z
loop_
_atom_site_type_symbol
_atom_site_label
_atom_site_fract_x
_atom_site_fract_y
_atom_site_fract_z
Si Si1 0.871082 0.566563 0.152692
Si Si2 0.714306 0.175559 0.709365
Si Si3 0.925101 0.596349 0.724405
Si Si4 0.616410 0.065428 0.115759
Si Si5 0.613968 0.813638 0.977309
Si Si6 0.986163 0.190179 0.779130
Si Si7 0.821068 0.031797 0.225231
Si Si8 0.528397 0.575527 0.145549
O O1 0.938702 0.693332 0.184058
O O2 0.641003 0.492904 0.507316
O O3 0.894316 0.580519 0.943982
O O4 0.000000 0.500000 0.000000
O O5 0.785620 0.130089 0.427899
O O6 0.902576 0.282650 0.529598
O O7 0.640363 0.074971 0.902443
O O8 0.528090 0.214797 0.966800
O O9 0.000000 0.500000 0.500000
O O10 0.732178 0.591612 0.925728
O O11 0.399560 0.072588 0.498608
O O12 0.793148 0.178114 0.966297
O O13 0.625233 0.938439 0.090734
O O14 0.836370 0.820592 0.599198
O O15 0.519808 0.704156 0.185247
O O16 0.899050 0.076362 0.962274
O O17 0.000000 0.000000 0.000000
O O18 0.500000 0.500000 0.000000
#
# Coordination Sequence:
#
# PCOD8032902 Si02
#       8
#     2   2   2   2   2   2   2   2
#     4  12  27  48  70 105 143 183 241 292 353 421
#     4  11  23  45  70 102 138 186 234 284 353 418
#     4  12  27  48  74 103 139 187 240 291 356 426
#     4  11  25  43  70 106 138 189 234 280 357 416
#     4  11  23  44  75 100 146 184 234 287 350 423
#     4  12  24  44  68 103 143 177 234 293 346 416
#     4  11  23  44  67  98 143 181 231 288 345 414
#     4  12  25  47  75 105 141 187 232 295 356 414
#
# _framework density 22.250257000000001
#
# number of rings (size 3 to 8) (size 9 to 14) (size 15 to 20)
#    0.000    0.500    2.500    7.125    3.500    1.000 
#    2.250    0.000    0.000    0.000    0.000    0.000 
#    0.000    0.000    0.000    0.000    0.000    0.000 
#
# Total GULP energy -198348.343193 kJ/mol
# GULP energy per Si atom -12396.771450 kJ/mol
# Density = 2.219961 g / cm^3
# Si number density = 22.250257 Si / 1000 Ang^3
#
#
#
# Elastic Constant Matrix: (Units=GPa)
#
#
# Indices 1 2 3 4 5 6 
#
# 1 127.7073 44.2557 39.3243 -11.3420 -27.1213 -7.4444
# 2 44.2557 79.7450 38.8535 -12.4435 -7.2599 -6.4406
# 3 39.3243 38.8535 122.8605 -19.3640 -27.3824 2.1486
# 4 -11.3420 -12.4435 -19.3640 35.3500 -3.5930 -3.9643
# 5 -27.1213 -7.2599 -27.3824 -3.5930 55.5890 -5.6271
# 6 -7.4444 -6.4406 2.1486 -3.9643 -5.6271 35.3203
#
#
#
# Elastic Compliance Matrix: (Units=1/GPa)
#
#
# Indices 1 2 3 4 5 6 
#
# 1 0.011086 -0.004849 -0.000610 0.002295 0.004879 0.002524
# 2 -0.004849 0.017645 -0.004032 0.002558 -0.001632 0.002468
# 3 -0.000610 -0.004032 0.011603 0.005254 0.005216 -0.000149
# 4 0.002295 0.002558 0.005254 0.034117 0.006808 0.005544
# 5 0.004879 -0.001632 0.005216 0.006808 0.023666 0.004948
# 6 0.002524 0.002468 -0.000149 0.005544 0.004948 0.030714
#
#
# Mechanical properties :
#
#
# Convention : Reuss Voigt Hill
#
# Bulk Modulus (GPa) = 46.83372 63.90887 55.37129
# Shear Modulus (GPa) = 32.27265 39.11048 35.69156
#
# Velocity S-wave (km/s) = 3.81260 4.19711 4.00946
# Velocity P-wave (km/s) = 6.36204 7.22999 6.80985
#
# Compressibility (1/GPa) = 0.02135214
#
# Stress axis : x y z
#
# Youngs Moduli (GPa) = 90.20727 56.67256 86.18630
#
# Poissons Ratio (x) = 0.27480 0.05257
# Poissons Ratio (y) = 0.43740 0.34750
# Poissons Ratio (z) = 0.05502 0.22850
#
# Static dielectric constant tensor:
#      x y z
#    x 5.731960 2.591170 -2.098510 
#    y 2.591170 8.693580 -2.878990 
#    z -2.098510 -2.878990 5.688880 
# 
# 
# High freq. dielectric constant tensor:
#      x y z
#    x 1.892580 -0.001480 -0.010820 
#    y -0.001480 1.870110 -0.018070 
#    z -0.010820 -0.018070 1.896080 
# 
# From -- ./inp_files/245951.got.cif
#   From: 2010.06.25/outbox.cif.g09.slc.cpg/sg2_123_cif.got.tgz:245951.got - 2010.06.27 13:26:56.
