data_PCOD8032505
_publ_section_title
;
Structure prediction by ZEFSAII (Michael W. Deem and Ramdas Pophale) SiO2 
 PCOD8032505
Probable space group: P -1
;
_chemical_formula_sum "Si O2"
_cell_formula_units_Z 14
_cell_length_a 9.544405
_cell_length_b 18.484402
_cell_length_c 9.001997
_cell_angle_alpha 30.114854
_cell_angle_beta 63.462535
_cell_angle_gamma 53.991139
_cell_volume 637.069983
_symmetry_space_group_name_H-M "P -1"
_symmetry_group_IT_number 2
_symmetry_cell_setting 'triclinic'
loop_
_space_group_symop_operation_xyz
x,y,z
-x,-y,-z
loop_
_atom_site_type_symbol
_atom_site_label
_atom_site_fract_x
_atom_site_fract_y
_atom_site_fract_z
Si Si1 0.638525 0.861662 0.282445
Si Si2 0.935502 0.539162 0.626894
Si Si3 0.417535 0.681310 0.782705
Si Si4 0.355110 0.733358 0.054075
Si Si5 0.845345 0.332152 0.245422
Si Si6 0.267421 0.501232 0.698456
Si Si7 0.137744 0.045451 0.768027
O O1 0.800749 0.728354 0.351007
O O2 0.541967 0.768961 0.573871
O O3 0.717611 0.943524 0.214273
O O4 0.500000 0.000000 0.000000
O O5 0.000000 0.500000 0.500000
O O6 0.093115 0.491023 0.754390
O O7 0.849116 0.428843 0.923656
O O8 0.255537 0.770575 0.583226
O O9 0.500000 0.500000 0.000000
O O10 0.337065 0.694986 0.960191
O O11 0.266084 0.648834 0.346018
O O12 0.560289 0.664930 0.123462
O O13 0.247668 0.921233 0.808020
O O14 0.730776 0.465411 0.185759
O O15 0.031963 0.216031 0.433395
O O16 0.000000 0.000000 0.000000
#
# Coordination Sequence:
#
# PCOD8032505 Si02
#       7
#     2   2   2   2   2   2   2
#     4  12  28  45  74 107 151 190 240 306 371 422
#     4  12  26  43  70 108 144 188 251 296 359 435
#     4  12  25  46  72 107 145 188 242 300 360 431
#     4  11  25  42  73 103 143 187 241 295 368 429
#     4  12  24  45  76  97 149 193 234 302 365 426
#     4  11  23  42  73 102 136 195 248 289 358 435
#     4  12  26  48  72 108 149 189 240 306 368 431
#
# _framework density 21.975605999999999
#
# number of rings (size 3 to 8) (size 9 to 14) (size 15 to 20)
#    0.000    0.286    5.714    2.143    4.000    2.286 
#    0.000    0.000    0.000    0.000    0.000    0.000 
#    0.000    0.000    0.000    0.000    0.000    0.000 
#
# Total GULP energy -173574.949554 kJ/mol
# GULP energy per Si atom -12398.210682 kJ/mol
# Density = 2.192559 g / cm^3
# Si number density = 21.975606 Si / 1000 Ang^3
#
#
#
# Elastic Constant Matrix: (Units=GPa)
#
#
# Indices 1 2 3 4 5 6 
#
# 1 148.8769 38.7776 25.4118 1.8659 -1.3098 13.3953
# 2 38.7776 166.2344 50.7142 2.3372 -1.4503 12.0035
# 3 25.4118 50.7142 93.8885 2.4223 2.4534 2.6054
# 4 1.8659 2.3372 2.4223 44.7110 -7.3874 9.3584
# 5 -1.3098 -1.4503 2.4534 -7.3874 35.0546 -1.7367
# 6 13.3953 12.0035 2.6054 9.3584 -1.7367 34.6573
#
#
#
# Elastic Compliance Matrix: (Units=1/GPa)
#
#
# Indices 1 2 3 4 5 6 
#
# 1 0.007468 -0.001156 -0.001346 0.000387 0.000284 -0.002475
# 2 -0.001156 0.007568 -0.003743 0.000350 0.000508 -0.001962
# 3 -0.001346 -0.003743 0.013064 -0.000874 -0.001254 0.001008
# 4 0.000387 0.000350 -0.000874 0.024575 0.004942 -0.006593
# 5 0.000284 0.000508 -0.001254 0.004942 0.029686 -0.000039
# 6 -0.002475 -0.001962 0.001008 -0.006593 -0.000039 0.032193
#
#
# Mechanical properties :
#
#
# Convention : Reuss Voigt Hill
#
# Bulk Modulus (GPa) = 64.05509 70.97855 67.51682
# Shear Modulus (GPa) = 37.80773 42.49101 40.14937
#
# Velocity S-wave (km/s) = 4.15232 4.40199 4.27898
# Velocity P-wave (km/s) = 7.22500 7.62926 7.42988
#
# Compressibility (1/GPa) = 0.01561156
#
# Stress axis : x y z
#
# Youngs Moduli (GPa) = 133.90363 132.12917 76.54405
#
# Poissons Ratio (x) = 0.15271 0.10301
# Poissons Ratio (y) = 0.15476 0.28651
# Poissons Ratio (z) = 0.18020 0.49458
#
# Static dielectric constant tensor:
#      x y z
#    x 4.497330 -0.039570 0.081370 
#    y -0.039570 4.013660 -0.040130 
#    z 0.081370 -0.040130 3.900100 
# 
# 
# High freq. dielectric constant tensor:
#      x y z
#    x 1.888660 -0.006620 0.009670 
#    y -0.006620 1.868420 0.002990 
#    z 0.009670 0.002990 1.857830 
# 
# From -- ./inp_files/191001.got.cif
#   From: 2010.06.25/outbox.cif.g09.slc.cpg/sg2_96_cif.got.tgz:191001.got - 2010.06.27 13:26:56.
