data_PCOD8032597
_publ_section_title
;
Structure prediction by ZEFSAII (Michael W. Deem and Ramdas Pophale) SiO2 
 PCOD8032597
Probable space group: P -1
;
_chemical_formula_sum "Si O2"
_cell_formula_units_Z 16
_cell_length_a 18.572835
_cell_length_b 6.594021
_cell_length_c 13.579399
_cell_angle_alpha 49.080345
_cell_angle_beta 138.722304
_cell_angle_gamma 137.836547
_cell_volume 718.211263
_symmetry_space_group_name_H-M "P -1"
_symmetry_group_IT_number 2
_symmetry_cell_setting 'triclinic'
loop_
_space_group_symop_operation_xyz
x,y,z
-x,-y,-z
loop_
_atom_site_type_symbol
_atom_site_label
_atom_site_fract_x
_atom_site_fract_y
_atom_site_fract_z
Si Si1 0.979125 0.891595 0.900001
Si Si2 0.610801 0.919918 0.645526
Si Si3 0.203957 0.809357 0.087860
Si Si4 0.101224 0.808372 0.452293
Si Si5 0.374723 0.158933 0.970624
Si Si6 0.669954 0.132788 0.441002
Si Si7 0.719447 0.775398 0.337656
Si Si8 0.499873 0.780206 0.209905
O O1 0.864639 0.544299 0.903789
O O2 0.949042 0.088903 0.726697
O O3 0.104515 0.916822 0.976839
O O4 0.000000 0.000000 0.000000
O O5 0.575198 0.587734 0.757016
O O6 0.500000 0.000000 0.500000
O O7 0.719297 0.181486 0.740001
O O8 0.669308 0.923344 0.597222
O O9 0.303653 0.042487 0.037296
O O10 0.207983 0.741635 0.541586
O O11 0.000000 0.500000 0.500000
O O12 0.156396 0.062271 0.517113
O O13 0.415227 0.922435 0.040360
O O14 0.500000 0.500000 0.000000
O O15 0.267614 0.149159 0.790119
O O16 0.662318 0.408512 0.401373
O O17 0.541628 0.920061 0.317908
O O18 0.624070 0.888500 0.239059
#
# Coordination Sequence:
#
# PCOD8032597 Si02
#       8
#     2   2   2   2   2   2   2   2
#     4  11  27  53  74 102 143 197 256 305 362 428
#     4  12  23  43  74 107 147 182 233 298 370 437
#     4  11  28  46  74 105 143 195 248 302 362 441
#     4  11  28  44  73 104 137 188 251 308 366 424
#     4  12  25  45  72 106 153 190 240 296 372 442
#     4  11  23  43  67 102 141 182 236 297 361 435
#     4  11  24  45  67 102 146 187 236 300 361 438
#     4  11  24  41  68 106 144 194 228 288 366 444
#
# _framework density 22.277567000000001
#
# number of rings (size 3 to 8) (size 9 to 14) (size 15 to 20)
#    0.000    0.750    2.500    3.750    8.750    1.500 
#    0.000    0.000    0.000    0.000    0.000    0.000 
#    0.000    0.000    0.000    0.000    0.000    0.000 
#
# Total GULP energy -198285.231628 kJ/mol
# GULP energy per Si atom -12392.826977 kJ/mol
# Density = 2.222686 g / cm^3
# Si number density = 22.277567 Si / 1000 Ang^3
#
#
#
# Elastic Constant Matrix: (Units=GPa)
#
#
# Indices 1 2 3 4 5 6 
#
# 1 82.4947 43.5058 21.1483 -1.8548 -6.9897 13.5414
# 2 43.5058 134.2525 51.2979 9.8700 -1.9259 -4.4631
# 3 21.1483 51.2979 142.8161 14.1187 -13.3536 -0.2675
# 4 -1.8548 9.8700 14.1187 44.5819 -6.4465 -3.7981
# 5 -6.9897 -1.9259 -13.3536 -6.4465 39.4460 -5.5351
# 6 13.5414 -4.4631 -0.2675 -3.7981 -5.5351 38.5292
#
#
#
# Elastic Compliance Matrix: (Units=1/GPa)
#
#
# Indices 1 2 3 4 5 6 
#
# 1 0.016254 -0.005383 -0.000482 0.001797 0.001922 -0.005886
# 2 -0.005383 0.010504 -0.002937 -0.001574 -0.001307 0.002745
# 3 -0.000482 -0.002937 0.008521 -0.001719 0.002384 0.000061
# 4 0.001797 -0.001574 -0.001719 0.024143 0.003902 0.002115
# 5 0.001922 -0.001307 0.002384 0.003902 0.027568 0.003535
# 6 -0.005886 0.002745 0.000061 0.002115 0.003535 0.029058
#
#
# Mechanical properties :
#
#
# Convention : Reuss Voigt Hill
#
# Bulk Modulus (GPa) = 56.58120 65.71858 61.14989
# Shear Modulus (GPa) = 35.83088 40.75218 38.29153
#
# Velocity S-wave (km/s) = 4.01482 4.28166 4.15038
# Velocity P-wave (km/s) = 6.85165 7.34898 7.10467
#
# Compressibility (1/GPa) = 0.01767372
#
# Stress axis : x y z
#
# Youngs Moduli (GPa) = 61.52295 95.20492 117.35316
#
# Poissons Ratio (x) = 0.51251 0.05660
# Poissons Ratio (y) = 0.33119 0.34468
# Poissons Ratio (z) = 0.02967 0.27963
#
# Static dielectric constant tensor:
#      x y z
#    x 4.059090 -0.130980 -0.066350 
#    y -0.130980 4.058930 0.088930 
#    z -0.066350 0.088930 4.336740 
# 
# 
# High freq. dielectric constant tensor:
#      x y z
#    x 1.880500 -0.007500 -0.012270 
#    y -0.007500 1.879410 0.003870 
#    z -0.012270 0.003870 1.893210 
# 
# From -- ./inp_files/459446.got.cif
#   From: 2010.06.25/outbox.cif.g09.slc.cpg/sg2_230_cif.got.tgz:459446.got - 2010.06.27 13:26:56.
