data_PCOD8032040
_publ_section_title
;
Structure prediction by ZEFSAII (Michael W. Deem and Ramdas Pophale) SiO2 
 PCOD8032040
Probable space group: P -1
;
_chemical_formula_sum "Si O2"
_cell_formula_units_Z 16
_cell_length_a 9.459944
_cell_length_b 12.675897
_cell_length_c 10.870186
_cell_angle_alpha 87.661836
_cell_angle_beta 120.389600
_cell_angle_gamma 133.745324
_cell_volume 705.393423
_symmetry_space_group_name_H-M "P -1"
_symmetry_group_IT_number 2
_symmetry_cell_setting 'triclinic'
loop_
_space_group_symop_operation_xyz
x,y,z
-x,-y,-z
loop_
_atom_site_type_symbol
_atom_site_label
_atom_site_fract_x
_atom_site_fract_y
_atom_site_fract_z
Si Si1 0.535919 0.390556 0.936400
Si Si2 0.458470 0.079408 0.394069
Si Si3 0.110188 0.251049 0.920664
Si Si4 0.967298 0.072939 0.085893
Si Si5 0.260213 0.858360 0.719772
Si Si6 0.551745 0.166371 0.985191
Si Si7 0.684636 0.620033 0.405137
Si Si8 0.448999 0.306978 0.439076
O O1 0.340546 0.288930 0.971811
O O2 0.622642 0.314657 0.950209
O O3 0.380422 0.374391 0.761083
O O4 0.802288 0.585518 0.080536
O O5 0.618410 0.150455 0.334956
O O6 0.554162 0.238517 0.489958
O O7 0.500000 0.000000 0.500000
O O8 0.149604 0.923321 0.246970
O O9 0.074101 0.230598 0.053884
O O10 0.144650 0.143679 0.279117
O O11 0.676276 0.942816 0.008597
O O12 0.000000 0.000000 0.000000
O O13 0.994231 0.779296 0.560278
O O14 0.470582 0.054167 0.839087
O O15 0.214235 0.765523 0.830065
O O16 0.597725 0.454938 0.397420
O O17 0.530191 0.625657 0.423364
#
# Coordination Sequence:
#
# PCOD8032040 Si02
#       8
#     2   2   2   2   2   2   2   2
#     4  11  24  40  69 103 129 168 229 280 324 382
#     4  12  26  43  65  98 135 179 218 273 334 399
#     4  11  23  40  67  98 130 166 224 271 326 393
#     4  12  18  40  71  92 121 176 222 264 326 392
#     4  11  25  42  65  95 135 176 223 262 345 397
#     4  11  23  41  66  96 133 177 216 274 328 402
#     4  11  25  43  68 101 134 174 221 282 331 394
#     4  11  24  43  69  96 133 178 224 268 337 396
#
# _framework density 22.682376999999999
#
# number of rings (size 3 to 8) (size 9 to 14) (size 15 to 20)
#    0.000    0.750    6.250    0.750    1.750    2.000 
#    0.000    0.625    0.000    0.000    0.000    0.000 
#    0.000    0.000    0.000    0.000    0.000    0.000 
#
# Total GULP energy -198276.762159 kJ/mol
# GULP energy per Si atom -12392.297635 kJ/mol
# Density = 2.263075 g / cm^3
# Si number density = 22.682377 Si / 1000 Ang^3
#
#
#
# Elastic Constant Matrix: (Units=GPa)
#
#
# Indices 1 2 3 4 5 6 
#
# 1 84.9055 41.8647 3.7518 8.0268 -16.8195 -21.9504
# 2 41.8647 105.4834 23.8799 -9.1649 -0.8817 -33.3914
# 3 3.7518 23.8799 61.3159 -6.2676 -5.6108 -12.2049
# 4 8.0268 -9.1649 -6.2676 27.1373 -3.0706 2.6395
# 5 -16.8195 -0.8817 -5.6108 -3.0706 24.4808 0.6431
# 6 -21.9504 -33.3914 -12.2049 2.6395 0.6431 50.5059
#
#
#
# Elastic Compliance Matrix: (Units=1/GPa)
#
#
# Indices 1 2 3 4 5 6 
#
# 1 0.019775 -0.007605 0.003168 -0.006644 0.013087 0.004513
# 2 -0.007605 0.015777 -0.004436 0.005403 -0.005149 0.005837
# 3 0.003168 -0.004436 0.019283 0.002492 0.006673 0.002889
# 4 -0.006644 0.005403 0.002492 0.041464 0.001426 -0.000898
# 5 0.013087 -0.005149 0.006673 0.001426 0.051279 0.003168
# 6 0.004513 0.005837 0.002889 -0.000898 0.003168 0.026324
#
#
# Mechanical properties :
#
#
# Convention : Reuss Voigt Hill
#
# Bulk Modulus (GPa) = 26.96192 43.41084 35.18638
# Shear Modulus (GPa) = 24.50859 32.57203 28.54031
#
# Velocity S-wave (km/s) = 3.29068 3.79358 3.55104
# Velocity P-wave (km/s) = 5.13329 6.19423 5.68854
#
# Compressibility (1/GPa) = 0.03708935
#
# Stress axis : x y z
#
# Youngs Moduli (GPa) = 50.56970 63.38452 51.85848
#
# Poissons Ratio (x) = 0.48203 -0.16431
# Poissons Ratio (y) = 0.38458 0.23005
# Poissons Ratio (z) = -0.16023 0.28118
#
# Static dielectric constant tensor:
#      x y z
#    x 3.966620 0.187780 -0.337680 
#    y 0.187780 3.665410 0.374570 
#    z -0.337680 0.374570 3.738480 
# 
# 
# High freq. dielectric constant tensor:
#      x y z
#    x 1.890810 -0.010910 -0.008840 
#    y -0.010910 1.897930 -0.001390 
#    z -0.008840 -0.001390 1.886400 
# 
# From -- ./inp_files/262909.got.cif
#   From: 2010.06.25/outbox.cif.g09.slc.cpg/sg2_132_cif.got.tgz:262909.got - 2010.06.27 13:26:56.
