data_PCOD8032345
_publ_section_title
;
Structure prediction by ZEFSAII (Michael W. Deem and Ramdas Pophale) SiO2 
 PCOD8032345
Probable space group: P -1
;
_chemical_formula_sum "Si O2"
_cell_formula_units_Z 14
_cell_length_a 22.400502
_cell_length_b 9.359752
_cell_length_c 22.158092
_cell_angle_alpha 26.913963
_cell_angle_beta 17.873022
_cell_angle_gamma 27.378065
_cell_volume 618.983148
_symmetry_space_group_name_H-M "P -1"
_symmetry_group_IT_number 2
_symmetry_cell_setting 'triclinic'
loop_
_space_group_symop_operation_xyz
x,y,z
-x,-y,-z
loop_
_atom_site_type_symbol
_atom_site_label
_atom_site_fract_x
_atom_site_fract_y
_atom_site_fract_z
Si Si1 0.495105 0.348517 0.350623
Si Si2 0.035190 0.506148 0.893720
Si Si3 0.641786 0.167110 0.516163
Si Si4 0.560090 0.226195 0.909391
Si Si5 0.211706 0.734455 0.001531
Si Si6 0.816275 0.584378 0.477200
Si Si7 0.596092 0.845334 0.140940
O O1 0.300373 0.455700 0.455829
O O2 0.478606 0.577424 0.338178
O O3 0.500000 0.000000 0.500000
O O4 0.699699 0.372448 0.110249
O O5 0.177750 0.741576 0.655643
O O6 0.000000 0.500000 0.000000
O O7 0.832210 0.666490 0.991291
O O8 0.135639 0.127049 0.922528
O O9 0.500000 0.500000 0.500000
O O10 0.516099 0.001742 0.746388
O O11 0.728933 0.927951 0.466669
O O12 0.397545 0.591884 0.923367
O O13 0.557512 0.104685 0.025827
O O14 0.784000 0.281730 0.662765
O O15 0.500000 0.000000 0.000000
O O16 0.044786 0.552511 0.249564
#
# Coordination Sequence:
#
# PCOD8032345 Si02
#       7
#     2   2   2   2   2   2   2
#     4  11  23  42  67 106 140 177 239 289 351 407
#     4  12  24  43  71 106 142 176 230 287 353 411
#     4  12  23  43  71 104 143 182 228 293 353 415
#     4  11  25  51  66 100 147 188 232 289 350 416
#     4  11  23  44  74  99 142 184 229 291 348 409
#     4  11  24  42  71  98 139 188 233 289 348 410
#     4  12  26  45  71 103 140 188 232 286 355 415
#
# _framework density 22.617740000000001
#
# number of rings (size 3 to 8) (size 9 to 14) (size 15 to 20)
#    0.000    0.571    5.714    4.286    0.000    5.714 
#    0.000    1.429    0.000    0.000    0.000    0.000 
#    0.000    0.000    0.000    0.000    0.000    0.000 
#
# Total GULP energy -173466.972482 kJ/mol
# GULP energy per Si atom -12390.498034 kJ/mol
# Density = 2.256626 g / cm^3
# Si number density = 22.617740 Si / 1000 Ang^3
#
#
#
# Elastic Constant Matrix: (Units=GPa)
#
#
# Indices 1 2 3 4 5 6 
#
# 1 99.0509 14.1880 26.9349 10.5694 0.4494 -17.6987
# 2 14.1880 47.6895 11.0455 6.9710 -4.6472 -14.3799
# 3 26.9349 11.0455 141.2774 -3.1600 4.5581 -11.0794
# 4 10.5694 6.9710 -3.1600 34.2359 1.4424 2.3609
# 5 0.4494 -4.6472 4.5581 1.4424 48.2642 -9.1220
# 6 -17.6987 -14.3799 -11.0794 2.3609 -9.1220 34.0161
#
#
#
# Elastic Compliance Matrix: (Units=1/GPa)
#
#
# Indices 1 2 3 4 5 6 
#
# 1 0.012264 -0.000583 -0.001949 -0.004326 0.001305 0.006150
# 2 -0.000583 0.026627 -0.001313 -0.006436 0.005224 0.012373
# 3 -0.001949 -0.001313 0.007660 0.001566 -0.000763 0.000613
# 4 -0.004326 -0.006436 0.001566 0.032654 -0.003134 -0.007569
# 5 0.001305 0.005224 -0.000763 -0.003134 0.023086 0.009048
# 6 0.006150 0.012373 0.000613 -0.007569 0.009048 0.040979
#
#
# Mechanical properties :
#
#
# Convention : Reuss Voigt Hill
#
# Bulk Modulus (GPa) = 25.73256 43.59496 34.66376
# Shear Modulus (GPa) = 30.50371 39.02652 34.76511
#
# Velocity S-wave (km/s) = 3.67640 4.15840 3.92481
# Velocity P-wave (km/s) = 5.42430 6.50945 5.99149
#
# Compressibility (1/GPa) = 0.03886127
#
# Stress axis : x y z
#
# Youngs Moduli (GPa) = 81.53929 37.55547 130.54474
#
# Poissons Ratio (x) = 0.02190 0.25445
# Poissons Ratio (y) = 0.04755 0.17138
# Poissons Ratio (z) = 0.15893 0.04930
#
# Static dielectric constant tensor:
#      x y z
#    x 3.613430 0.559310 -0.235360 
#    y 0.559310 3.961200 -0.036940 
#    z -0.235360 -0.036940 4.669110 
# 
# 
# High freq. dielectric constant tensor:
#      x y z
#    x 1.892830 0.007380 0.005120 
#    y 0.007380 1.878030 -0.006270 
#    z 0.005120 -0.006270 1.914680 
# 
# From -- ./inp_files/601260.got.cif
#   From: 2010.06.25/outbox.cif.g09.slc.cpg/sg2_301_cif.got.tgz:601260.got - 2010.06.27 13:26:56.
