data_PCOD8032748
_publ_section_title
;
Structure prediction by ZEFSAII (Michael W. Deem and Ramdas Pophale) SiO2 
 PCOD8032748
Probable space group: P -1
;
_chemical_formula_sum "Si O2"
_cell_formula_units_Z 16
_cell_length_a 20.235885
_cell_length_b 9.064436
_cell_length_c 11.208078
_cell_angle_alpha 129.540086
_cell_angle_beta 151.013296
_cell_angle_gamma 42.371076
_cell_volume 671.133748
_symmetry_space_group_name_H-M "P -1"
_symmetry_group_IT_number 2
_symmetry_cell_setting 'triclinic'
loop_
_space_group_symop_operation_xyz
x,y,z
-x,-y,-z
loop_
_atom_site_type_symbol
_atom_site_label
_atom_site_fract_x
_atom_site_fract_y
_atom_site_fract_z
Si Si1 0.681954 0.371082 0.050457
Si Si2 0.647545 0.489697 0.434322
Si Si3 0.366337 0.439416 0.293129
Si Si4 0.891915 0.412468 0.594262
Si Si5 0.639747 0.786090 0.053878
Si Si6 0.836548 0.992582 0.531756
Si Si7 0.001429 0.740994 0.887372
Si Si8 0.911750 0.938048 0.109285
O O1 0.798347 0.324885 0.320278
O O2 0.672512 0.560830 0.049151
O O3 0.739700 0.145310 0.950436
O O4 0.507991 0.434078 0.851537
O O5 0.608817 0.636278 0.568514
O O6 0.775821 0.521766 0.580680
O O7 0.699231 0.243165 0.436301
O O8 0.500000 0.500000 0.500000
O O9 0.392127 0.233058 0.145984
O O10 0.185574 0.633375 0.093309
O O11 0.932720 0.575142 0.670062
O O12 0.055024 0.224164 0.809681
O O13 0.790911 0.813835 0.324099
O O14 0.500000 0.000000 0.000000
O O15 0.906666 0.945716 0.753982
O O16 0.971705 0.960505 0.636959
O O17 0.958369 0.810011 0.992023
#
# Coordination Sequence:
#
# PCOD8032748 Si02
#       8
#     2   2   2   2   2   2   2   2
#     4  12  24  45  73 103 145 191 235 287 358 424
#     4  11  25  48  73 103 147 190 235 289 357 425
#     4  12  25  44  73 103 144 185 234 290 359 412
#     4  11  25  49  71 103 146 193 235 290 351 425
#     4  12  25  43  71 109 143 179 238 302 353 411
#     4  11  23  43  71 106 136 189 233 297 350 412
#     4  12  25  45  77 104 146 185 239 296 352 421
#     4  11  26  43  72 103 146 185 242 287 358 415
#
# _framework density 23.840257999999999
#
# number of rings (size 3 to 8) (size 9 to 14) (size 15 to 20)
#    0.000    0.500    6.250    2.250    3.500    2.000 
#    0.000    0.625    0.000    0.000    0.000    0.000 
#    0.000    0.000    0.000    0.000    0.000    0.000 
#
# Total GULP energy -198322.451111 kJ/mol
# GULP energy per Si atom -12395.153194 kJ/mol
# Density = 2.378600 g / cm^3
# Si number density = 23.840258 Si / 1000 Ang^3
#
#
#
# Elastic Constant Matrix: (Units=GPa)
#
#
# Indices 1 2 3 4 5 6 
#
# 1 81.2089 26.2862 22.8591 -5.7726 -4.2704 -11.4871
# 2 26.2862 96.1697 27.7265 -23.4291 0.8823 -15.8244
# 3 22.8591 27.7265 119.0430 -7.2363 2.9631 -15.4589
# 4 -5.7726 -23.4291 -7.2363 29.2028 -1.5902 -3.2512
# 5 -4.2704 0.8823 2.9631 -1.5902 44.3785 3.4266
# 6 -11.4871 -15.8244 -15.4589 -3.2512 3.4266 35.8604
#
#
#
# Elastic Compliance Matrix: (Units=1/GPa)
#
#
# Indices 1 2 3 4 5 6 
#
# 1 0.014184 -0.002892 -0.001746 0.000395 0.001366 0.002420
# 2 -0.002892 0.015710 -0.001490 0.012361 -0.000553 0.006538
# 3 -0.001746 -0.001490 0.009579 0.001126 -0.000978 0.003108
# 4 0.000395 0.012361 0.001126 0.045679 0.000570 0.010154
# 5 0.001366 -0.000553 -0.000978 0.000570 0.022944 -0.002369
# 6 0.002420 0.006538 0.003108 0.010154 -0.002369 0.034033
#
#
# Mechanical properties :
#
#
# Convention : Reuss Voigt Hill
#
# Bulk Modulus (GPa) = 36.73929 50.01836 43.37883
# Shear Modulus (GPa) = 30.58910 36.52499 33.55705
#
# Velocity S-wave (km/s) = 3.58591 3.91842 3.75584
# Velocity P-wave (km/s) = 5.70868 6.44191 6.08634
#
# Compressibility (1/GPa) = 0.02721882
#
# Stress axis : x y z
#
# Youngs Moduli (GPa) = 70.50429 63.65171 104.39538
#
# Poissons Ratio (x) = 0.18405 0.18226
# Poissons Ratio (y) = 0.20387 0.15552
# Poissons Ratio (z) = 0.12309 0.09482
#
# Static dielectric constant tensor:
#      x y z
#    x 4.320080 -0.095520 0.065040 
#    y -0.095520 4.224770 0.124550 
#    z 0.065040 0.124550 4.693710 
# 
# 
# High freq. dielectric constant tensor:
#      x y z
#    x 1.942600 -0.007280 -0.000130 
#    y -0.007280 1.928130 0.000580 
#    z -0.000130 0.000580 1.962160 
# 
# From -- ./inp_files/470162.got.cif
#   From: 2010.06.25/outbox.cif.g09.slc.cpg/sg2_236_cif.got.tgz:470162.got - 2010.06.27 13:26:56.
