data_PCOD8032501
_publ_section_title
;
Structure prediction by ZEFSAII (Michael W. Deem and Ramdas Pophale) SiO2 
 PCOD8032501
Probable space group: P -1
;
_chemical_formula_sum "Si O2"
_cell_formula_units_Z 16
_cell_length_a 9.710458
_cell_length_b 14.102585
_cell_length_c 8.405576
_cell_angle_alpha 136.127988
_cell_angle_beta 114.754337
_cell_angle_gamma 76.444972
_cell_volume 720.275929
_symmetry_space_group_name_H-M "P -1"
_symmetry_group_IT_number 2
_symmetry_cell_setting 'triclinic'
loop_
_space_group_symop_operation_xyz
x,y,z
-x,-y,-z
loop_
_atom_site_type_symbol
_atom_site_label
_atom_site_fract_x
_atom_site_fract_y
_atom_site_fract_z
Si Si1 0.643319 0.101307 0.231821
Si Si2 0.461394 0.375743 0.952732
Si Si3 0.423542 0.870267 0.405682
Si Si4 0.972033 0.036276 0.213671
Si Si5 0.118477 0.776115 0.981744
Si Si6 0.115187 0.324393 0.760029
Si Si7 0.055431 0.455651 0.209788
Si Si8 0.306420 0.664131 0.693380
O O1 0.636402 0.100431 0.415763
O O2 0.796369 0.040044 0.176549
O O3 0.621176 0.248127 0.316106
O O4 0.500000 0.000000 0.000000
O O5 0.454016 0.239584 0.673790
O O6 0.291600 0.374378 0.933462
O O7 0.500000 0.500000 0.000000
O O8 0.571920 0.370813 0.155555
O O9 0.278857 0.785399 0.156073
O O10 0.500000 0.000000 0.500000
O O11 0.077769 0.167530 0.492866
O O12 0.030867 0.900793 0.154771
O O13 0.000000 0.000000 0.000000
O O14 0.174231 0.760504 0.806075
O O15 0.015764 0.632810 0.785263
O O16 0.046584 0.419927 0.712856
O O17 0.040143 0.350964 0.926133
O O18 0.227617 0.518711 0.412171
#
# Coordination Sequence:
#
# PCOD8032501 Si02
#       8
#     2   2   2   2   2   2   2   2
#     4  12  26  45  73 105 146 195 241 305 374 434
#     4  11  26  44  72 103 146 192 245 297 370 438
#     4  11  25  46  71 100 146 192 239 298 375 440
#     4  12  25  44  72 108 143 186 254 307 358 438
#     4  11  23  42  73 100 139 189 238 300 365 433
#     4  11  24  44  71 101 143 193 242 306 364 435
#     4  11  24  43  72 102 145 186 247 301 368 439
#     4  11  24  47  71 106 149 193 242 302 374 435
#
# _framework density 22.213708
#
# number of rings (size 3 to 8) (size 9 to 14) (size 15 to 20)
#    0.000    0.750    2.500    4.875    5.250    5.500 
#    0.000    0.000    0.000    0.000    0.000    0.000 
#    0.000    0.000    0.000    0.000    0.000    0.000 
#
# Total GULP energy -198221.218421 kJ/mol
# GULP energy per Si atom -12388.826151 kJ/mol
# Density = 2.216315 g / cm^3
# Si number density = 22.213708 Si / 1000 Ang^3
#
#
#
# Elastic Constant Matrix: (Units=GPa)
#
#
# Indices 1 2 3 4 5 6 
#
# 1 110.1798 52.3459 41.2497 -3.9831 15.0548 11.5514
# 2 52.3459 123.3617 41.3640 11.1686 5.9445 18.3004
# 3 41.2497 41.3640 135.1177 6.6125 13.0288 11.8457
# 4 -3.9831 11.1686 6.6125 31.8244 7.9455 4.7908
# 5 15.0548 5.9445 13.0288 7.9455 47.0850 1.7738
# 6 11.5514 18.3004 11.8457 4.7908 1.7738 41.5734
#
#
#
# Elastic Compliance Matrix: (Units=1/GPa)
#
#
# Indices 1 2 3 4 5 6 
#
# 1 0.013051 -0.004858 -0.002270 0.004926 -0.003715 -0.001250
# 2 -0.004858 0.011469 -0.001712 -0.004206 0.001394 -0.002786
# 3 -0.002270 -0.001712 0.008880 -0.001058 -0.001300 -0.000968
# 4 0.004926 -0.004206 -0.001058 0.035866 -0.006688 -0.003064
# 5 -0.003715 0.001394 -0.001300 -0.006688 0.023718 0.000548
# 6 -0.001250 -0.002786 -0.000968 -0.003064 0.000548 0.026233
#
#
# Mechanical properties :
#
#
# Convention : Reuss Voigt Hill
#
# Bulk Modulus (GPa) = 63.61874 70.95317 67.28596
# Shear Modulus (GPa) = 35.17732 39.67654 37.42693
#
# Velocity S-wave (km/s) = 3.98375 4.23085 4.10915
# Velocity P-wave (km/s) = 7.06130 7.47511 7.27115
#
# Compressibility (1/GPa) = 0.01571864
#
# Stress axis : x y z
#
# Youngs Moduli (GPa) = 76.62305 87.19434 112.60970
#
# Poissons Ratio (x) = 0.42360 0.25565
# Poissons Ratio (y) = 0.37225 0.19281
# Poissons Ratio (z) = 0.17395 0.14929
#
# Static dielectric constant tensor:
#      x y z
#    x 4.353920 -0.349420 -0.208380 
#    y -0.349420 4.041030 0.195090 
#    z -0.208380 0.195090 4.123150 
# 
# 
# High freq. dielectric constant tensor:
#      x y z
#    x 1.881960 0.004040 -0.000560 
#    y 0.004040 1.877630 0.001350 
#    z -0.000560 0.001350 1.890280 
# 
# From -- ./inp_files/209569.got.cif
#   From: 2010.06.25/outbox.cif.g09.slc.cpg/sg2_105_cif.got.tgz:209569.got - 2010.06.27 13:26:56.
