data_PCOD8032290
_publ_section_title
;
Structure prediction by ZEFSAII (Michael W. Deem and Ramdas Pophale) SiO2 
 PCOD8032290
Probable space group: P -1
;
_chemical_formula_sum "Si O2"
_cell_formula_units_Z 16
_cell_length_a 8.673360
_cell_length_b 8.235389
_cell_length_c 15.389441
_cell_angle_alpha 62.872494
_cell_angle_beta 110.678793
_cell_angle_gamma 128.030346
_cell_volume 766.509013
_symmetry_space_group_name_H-M "P -1"
_symmetry_group_IT_number 2
_symmetry_cell_setting 'triclinic'
loop_
_space_group_symop_operation_xyz
x,y,z
-x,-y,-z
loop_
_atom_site_type_symbol
_atom_site_label
_atom_site_fract_x
_atom_site_fract_y
_atom_site_fract_z
Si Si1 0.762433 0.312649 0.246857
Si Si2 0.050455 0.944441 0.899517
Si Si3 0.218940 0.075573 0.717676
Si Si4 0.802356 0.967427 0.614187
Si Si5 0.192937 0.658506 0.553880
Si Si6 0.490060 0.538828 0.589032
Si Si7 0.679657 0.909850 0.791883
Si Si8 0.960631 0.250558 0.885946
O O1 0.830505 0.409720 0.333285
O O2 0.924123 0.491432 0.169357
O O3 0.751905 0.089378 0.291030
O O4 0.548891 0.268793 0.192000
O O5 0.818310 0.813454 0.856593
O O6 0.101815 0.167006 0.904231
O O7 0.194118 0.009020 0.830298
O O8 0.085715 0.797854 0.008588
O O9 0.407242 0.318931 0.681623
O O10 0.033925 0.077602 0.645550
O O11 0.764003 0.099649 0.502527
O O12 0.703635 0.984730 0.678488
O O13 0.707559 0.718615 0.624513
O O14 0.368063 0.649527 0.549840
O O15 0.000000 0.500000 0.500000
O O16 0.500000 0.500000 0.500000
O O17 0.758312 0.118539 0.821228
#
# Coordination Sequence:
#
# PCOD8032290 Si02
#       8
#     2   2   2   2   2   2   2   2
#     4  12  24  37  64  90 125 160 206 249 306 359
#     4   8  19  43  66  85 126 154 203 252 304 362
#     4  11  25  42  57  94 126 158 202 256 298 357
#     4  11  23  42  63  83 125 167 205 242 304 360
#     4  12  24  42  63  89 122 167 204 252 299 362
#     4  12  26  40  61  89 122 158 206 254 297 354
#     4   9  20  38  62  93 113 159 204 246 294 370
#     4   9  19  41  67  89 119 161 199 252 305 364
#
# _framework density 20.873858999999999
#
# number of rings (size 3 to 8) (size 9 to 14) (size 15 to 20)
#    0.750    0.750    2.500    2.625    3.500    3.000 
#    0.000    0.625    0.000    0.000    0.000    0.000 
#    0.000    0.000    0.000    0.000    0.000    0.000 
#
# Total GULP energy -198366.561455 kJ/mol
# GULP energy per Si atom -12397.910091 kJ/mol
# Density = 2.082635 g / cm^3
# Si number density = 20.873859 Si / 1000 Ang^3
#
#
#
# Elastic Constant Matrix: (Units=GPa)
#
#
# Indices 1 2 3 4 5 6 
#
# 1 33.6896 11.8510 25.5782 -0.2581 -11.5496 -7.7732
# 2 11.8510 121.7163 53.7767 -11.8433 0.2790 9.6224
# 3 25.5782 53.7767 140.9119 -5.6839 -13.6668 5.0752
# 4 -0.2581 -11.8433 -5.6839 27.1904 -3.0847 0.0237
# 5 -11.5496 0.2790 -13.6668 -3.0847 23.6995 -0.0201
# 6 -7.7732 9.6224 5.0752 0.0237 -0.0201 27.7551
#
#
#
# Elastic Compliance Matrix: (Units=1/GPa)
#
#
# Indices 1 2 3 4 5 6 
#
# 1 0.044853 -0.003051 -0.005700 0.000005 0.018621 0.014675
# 2 -0.003051 0.010758 -0.003579 0.003547 -0.003219 -0.003935
# 3 -0.005700 -0.003579 0.009907 0.000809 0.003081 -0.002165
# 4 0.000005 0.003547 0.000809 0.039119 0.005518 -0.001406
# 5 0.018621 -0.003219 0.003081 0.005518 0.053807 0.005802
# 6 0.014675 -0.003935 -0.002165 -0.001406 0.005802 0.041905
#
#
# Mechanical properties :
#
#
# Convention : Reuss Voigt Hill
#
# Bulk Modulus (GPa) = 24.47532 53.19219 38.83376
# Shear Modulus (GPa) = 20.95311 29.40312 25.17812
#
# Velocity S-wave (km/s) = 3.17171 3.75722 3.47681
# Velocity P-wave (km/s) = 5.01635 6.66035 5.89593
#
# Compressibility (1/GPa) = 0.04085748
#
# Stress axis : x y z
#
# Youngs Moduli (GPa) = 22.29498 92.95551 100.94325
#
# Poissons Ratio (x) = 0.28364 0.57533
# Poissons Ratio (y) = 0.06803 0.36129
# Poissons Ratio (z) = 0.12707 0.33270
#
# Static dielectric constant tensor:
#      x y z
#    x 3.554640 0.159470 -0.026590 
#    y 0.159470 4.076300 0.165690 
#    z -0.026590 0.165690 3.807700 
# 
# 
# High freq. dielectric constant tensor:
#      x y z
#    x 1.791770 0.006030 -0.007380 
#    y 0.006030 1.813080 0.005600 
#    z -0.007380 0.005600 1.818930 
# 
# From -- ./inp_files/494694.got.cif
#   From: 2010.06.25/outbox.cif.g09.slc.cpg/sg2_248_cif.got.tgz:494694.got - 2010.06.27 13:26:56.
