data_PCOD8032683
_publ_section_title
;
Structure prediction by ZEFSAII (Michael W. Deem and Ramdas Pophale) SiO2 
 PCOD8032683
Probable space group: P -1
;
_chemical_formula_sum "Si O2"
_cell_formula_units_Z 16
_cell_length_a 9.612666
_cell_length_b 5.314961
_cell_length_c 14.967010
_cell_angle_alpha 84.010930
_cell_angle_beta 118.776935
_cell_angle_gamma 98.551672
_cell_volume 662.316243
_symmetry_space_group_name_H-M "P -1"
_symmetry_group_IT_number 2
_symmetry_cell_setting 'triclinic'
loop_
_space_group_symop_operation_xyz
x,y,z
-x,-y,-z
loop_
_atom_site_type_symbol
_atom_site_label
_atom_site_fract_x
_atom_site_fract_y
_atom_site_fract_z
Si Si1 0.332547 0.271612 0.176137
Si Si2 0.650969 0.958091 0.489485
Si Si3 0.975127 0.274115 0.123265
Si Si4 0.029013 0.093559 0.330334
Si Si5 0.860238 0.319822 0.418597
Si Si6 0.231877 0.313872 0.763794
Si Si7 0.210677 0.266898 0.954938
Si Si8 0.513398 0.793502 0.277400
O O1 0.146026 0.229093 0.140648
O O2 0.405654 0.532424 0.233858
O O3 0.411225 0.030808 0.247070
O O4 0.348344 0.285942 0.072460
O O5 0.736187 0.213708 0.459826
O O6 0.500000 0.000000 0.500000
O O7 0.779768 0.864357 0.601423
O O8 0.599106 0.758774 0.401256
O O9 0.981615 0.291984 0.233544
O O10 0.918671 0.540576 0.062783
O O11 0.859158 0.028998 0.063213
O O12 0.949675 0.110626 0.402445
O O13 0.953127 0.814121 0.284016
O O14 0.756861 0.441093 0.305683
O O15 0.000000 0.500000 0.500000
O O16 0.288970 0.370047 0.881168
O O17 0.354240 0.136865 0.761727
#
# Coordination Sequence:
#
# PCOD8032683 Si02
#       8
#     2   2   2   2   2   2   2   2
#     4  12  26  46  69 104 151 192 235 310 377 428
#     4  12  26  46  71 110 148 191 244 307 379 439
#     4  11  23  44  74 107 140 183 252 301 367 440
#     4  11  23  43  70 100 138 186 242 298 357 439
#     4  12  22  42  73  98 139 193 243 295 362 435
#     4  11  24  44  70 102 138 187 254 295 355 443
#     4  11  24  44  75 105 138 191 248 306 360 439
#     4  12  27  45  69 101 150 193 239 300 371 441
#
# _framework density 24.157644999999999
#
# number of rings (size 3 to 8) (size 9 to 14) (size 15 to 20)
#    0.000    0.500    3.750    4.875    0.000    3.000 
#    0.000    3.750    0.000    0.000    0.000    0.000 
#    0.000    0.000    0.000    0.000    0.000    0.000 
#
# Total GULP energy -198353.766615 kJ/mol
# GULP energy per Si atom -12397.110413 kJ/mol
# Density = 2.410266 g / cm^3
# Si number density = 24.157645 Si / 1000 Ang^3
#
#
#
# Elastic Constant Matrix: (Units=GPa)
#
#
# Indices 1 2 3 4 5 6 
#
# 1 97.4935 12.3912 -9.8523 7.4508 -8.3183 4.0735
# 2 12.3912 113.4385 29.7525 18.8395 11.9839 1.3073
# 3 -9.8523 29.7525 86.0982 12.9935 -7.2643 14.2006
# 4 7.4508 18.8395 12.9935 30.4756 -5.9153 3.2570
# 5 -8.3183 11.9839 -7.2643 -5.9153 35.4589 -1.4007
# 6 4.0735 1.3073 14.2006 3.2570 -1.4007 36.8051
#
#
#
# Elastic Compliance Matrix: (Units=1/GPa)
#
#
# Indices 1 2 3 4 5 6 
#
# 1 0.011341 -0.002051 0.002917 -0.001842 0.003565 -0.002009
# 2 -0.002051 0.011862 -0.004183 -0.006469 -0.006357 0.001750
# 3 0.002917 -0.004183 0.015163 -0.003130 0.004462 -0.005578
# 4 -0.001842 -0.006469 -0.003130 0.040279 0.007768 -0.001627
# 5 0.003565 -0.006357 0.004462 0.007768 0.033345 -0.001309
# 6 -0.002009 0.001750 -0.005578 -0.001627 -0.001309 0.029577
#
#
# Mechanical properties :
#
#
# Convention : Reuss Voigt Hill
#
# Bulk Modulus (GPa) = 31.51437 40.17922 35.84679
# Shear Modulus (GPa) = 31.49048 38.19718 34.84383
#
# Velocity S-wave (km/s) = 3.61438 3.98070 3.80195
# Velocity P-wave (km/s) = 5.52195 6.14786 5.84329
#
# Compressibility (1/GPa) = 0.03173156
#
# Stress axis : x y z
#
# Youngs Moduli (GPa) = 88.17218 84.30093 65.95194
#
# Poissons Ratio (x) = 0.17294 -0.19237
# Poissons Ratio (y) = 0.18088 0.27586
# Poissons Ratio (z) = -0.25718 0.35260
#
# Static dielectric constant tensor:
#      x y z
#    x 4.452050 -0.040890 -0.072880 
#    y -0.040890 4.139900 0.038360 
#    z -0.072880 0.038360 5.004250 
# 
# 
# High freq. dielectric constant tensor:
#      x y z
#    x 1.954290 -0.002290 -0.005520 
#    y -0.002290 1.948790 0.004520 
#    z -0.005520 0.004520 1.983070 
# 
# From -- ./inp_files/488469.got.cif
#   From: 2010.06.25/outbox.cif.g09.slc.cpg/sg2_245_cif.got.tgz:488469.got - 2010.06.27 13:26:56.
