data_PCOD8032262
_publ_section_title
;
Structure prediction by ZEFSAII (Michael W. Deem and Ramdas Pophale) SiO2 
 PCOD8032262
Probable space group: P -1
;
_chemical_formula_sum "Si O2"
_cell_formula_units_Z 14
_cell_length_a 15.775937
_cell_length_b 9.664279
_cell_length_c 15.344502
_cell_angle_alpha 35.151778
_cell_angle_beta 141.755793
_cell_angle_gamma 150.395423
_cell_volume 642.178489
_symmetry_space_group_name_H-M "P -1"
_symmetry_group_IT_number 2
_symmetry_cell_setting 'triclinic'
loop_
_space_group_symop_operation_xyz
x,y,z
-x,-y,-z
loop_
_atom_site_type_symbol
_atom_site_label
_atom_site_fract_x
_atom_site_fract_y
_atom_site_fract_z
Si Si1 0.530712 0.201688 0.004426
Si Si2 0.057234 0.337795 0.875044
Si Si3 0.288495 0.315594 0.691947
Si Si4 0.129074 0.628888 0.455930
Si Si5 0.375517 0.676072 0.272173
Si Si6 0.552124 0.708161 0.563131
Si Si7 0.993441 0.591711 0.849665
O O1 0.731528 0.415116 0.088568
O O2 0.408242 0.970048 0.103740
O O3 0.468144 0.408030 0.833794
O O4 0.500000 0.000000 0.000000
O O5 0.974919 0.406638 0.695958
O O6 0.989980 0.362618 0.900224
O O7 0.000000 0.000000 0.000000
O O8 0.195494 0.427999 0.609754
O O9 0.358760 0.491785 0.565070
O O10 0.153558 0.942326 0.768361
O O11 0.000000 0.500000 0.500000
O O12 0.301827 0.988051 0.419813
O O13 0.530283 0.802474 0.402157
O O14 0.379974 0.487131 0.294888
O O15 0.186280 0.456660 0.280324
O O16 0.000000 0.500000 0.000000
#
# Coordination Sequence:
#
# PCOD8032262 Si02
#       7
#     2   2   2   2   2   2   2
#     4  12  22  46  71 104 138 193 243 295 360 436
#     4  12  28  46  76 108 150 192 245 305 370 433
#     4  12  25  44  76  97 147 190 242 298 370 431
#     4  12  28  47  70 108 153 191 242 308 373 427
#     4  11  23  41  73 101 138 189 249 293 359 446
#     4  11  24  44  69 103 145 188 239 304 368 435
#     4  12  25  45  73 108 141 188 250 299 364 431
#
# _framework density 21.800794
#
# number of rings (size 3 to 8) (size 9 to 14) (size 15 to 20)
#    0.000    0.286    4.286    3.857    4.000    5.714 
#    0.000    2.143    0.000    0.000    0.000    0.000 
#    0.000    0.000    0.000    0.000    0.000    0.000 
#
# Total GULP energy -173632.261862 kJ/mol
# GULP energy per Si atom -12402.304419 kJ/mol
# Density = 2.175117 g / cm^3
# Si number density = 21.800794 Si / 1000 Ang^3
#
#
#
# Elastic Constant Matrix: (Units=GPa)
#
#
# Indices 1 2 3 4 5 6 
#
# 1 158.6959 53.7623 54.1088 -7.8214 13.6439 -0.4692
# 2 53.7623 135.9934 42.7827 2.4583 -0.7643 1.7444
# 3 54.1088 42.7827 132.6996 5.9254 6.9375 -11.3012
# 4 -7.8214 2.4583 5.9254 38.5026 5.5124 0.4066
# 5 13.6439 -0.7643 6.9375 5.5124 46.5669 -2.4743
# 6 -0.4692 1.7444 -11.3012 0.4066 -2.4743 40.0207
#
#
#
# Elastic Compliance Matrix: (Units=1/GPa)
#
#
# Indices 1 2 3 4 5 6 
#
# 1 0.008408 -0.002539 -0.002660 0.002639 -0.002460 -0.000721
# 2 -0.002539 0.009012 -0.001969 -0.000958 0.001251 -0.000891
# 3 -0.002660 -0.001969 0.009591 -0.001875 -0.000313 0.002763
# 4 0.002639 -0.000958 -0.001875 0.027413 -0.003806 -0.000971
# 5 -0.002460 0.001251 -0.000313 -0.003806 0.022781 0.001275
# 6 -0.000721 -0.000891 0.002763 -0.000971 0.001275 0.025886
#
#
# Mechanical properties :
#
#
# Convention : Reuss Voigt Hill
#
# Bulk Modulus (GPa) = 78.90054 80.96626 79.93340
# Shear Modulus (GPa) = 41.10045 43.46703 42.28374
#
# Velocity S-wave (km/s) = 4.34668 4.47007 4.40881
# Velocity P-wave (km/s) = 7.83975 7.99136 7.91592
#
# Compressibility (1/GPa) = 0.01267418
#
# Stress axis : x y z
#
# Youngs Moduli (GPa) = 118.93246 110.95940 104.26769
#
# Poissons Ratio (x) = 0.28176 0.27740
# Poissons Ratio (y) = 0.30201 0.20527
# Poissons Ratio (z) = 0.31641 0.21845
#
# Static dielectric constant tensor:
#      x y z
#    x 4.017720 0.219010 0.134610 
#    y 0.219010 4.344260 0.149260 
#    z 0.134610 0.149260 4.192690 
# 
# 
# High freq. dielectric constant tensor:
#      x y z
#    x 1.866130 0.015360 0.002290 
#    y 0.015360 1.855900 0.002260 
#    z 0.002290 0.002260 1.873540 
# 
# From -- ./inp_files/157198.got.cif
#   From: 2010.06.25/outbox.cif.g09.slc.cpg/sg2_79_cif.got.tgz:157198.got - 2010.06.27 13:26:56.
