data_PCOD8032342
_publ_section_title
;
Structure prediction by ZEFSAII (Michael W. Deem and Ramdas Pophale) SiO2 
 PCOD8032342
Probable space group: P -1
;
_chemical_formula_sum "Si O2"
_cell_formula_units_Z 16
_cell_length_a 14.508337
_cell_length_b 9.237201
_cell_length_c 8.043537
_cell_angle_alpha 99.920251
_cell_angle_beta 97.854503
_cell_angle_gamma 131.264112
_cell_volume 751.187895
_symmetry_space_group_name_H-M "P -1"
_symmetry_group_IT_number 2
_symmetry_cell_setting 'triclinic'
loop_
_space_group_symop_operation_xyz
x,y,z
-x,-y,-z
loop_
_atom_site_type_symbol
_atom_site_label
_atom_site_fract_x
_atom_site_fract_y
_atom_site_fract_z
Si Si1 0.277321 0.090325 0.724759
Si Si2 0.778274 0.448978 0.184180
Si Si3 0.028650 0.869633 0.428251
Si Si4 0.741028 0.092217 0.999053
Si Si5 0.110491 0.014530 0.106749
Si Si6 0.501510 0.208346 0.659668
Si Si7 0.475330 0.851435 0.705734
Si Si8 0.698278 0.611786 0.979627
O O1 0.360583 0.130660 0.592998
O O2 0.128636 0.920029 0.598338
O O3 0.322244 0.294416 0.857516
O O4 0.304523 0.991138 0.842559
O O5 0.643339 0.306829 0.226899
O O6 0.905062 0.622862 0.362964
O O7 0.795133 0.317678 0.059700
O O8 0.789707 0.587054 0.074154
O O9 0.092670 0.956730 0.281274
O O10 0.000000 0.000000 0.500000
O O11 0.862129 0.116023 0.993884
O O12 0.611983 0.934849 0.820886
O O13 0.241277 0.249302 0.143678
O O14 0.000000 0.000000 0.000000
O O15 0.563103 0.267954 0.502653
O O16 0.568107 0.392349 0.842052
O O17 0.498949 0.048259 0.716423
#
# Coordination Sequence:
#
# PCOD8032342 Si02
#       8
#     2   2   2   2   2   2   2   2
#     4  11  23  44  66 101 136 179 227 279 332 403
#     4  12  23  44  71 100 133 191 219 273 343 400
#     4  12  25  45  68  97 142 177 227 279 334 401
#     4  11  23  45  72  99 136 179 227 279 338 400
#     4  11  24  47  67 100 136 175 225 284 332 398
#     4  11  23  42  67 104 135 175 223 283 341 398
#     4  11  24  42  68 102 144 167 225 288 332 402
#     4  11  23  42  72  98 132 177 226 275 347 396
#
# _framework density 21.299599000000001
#
# number of rings (size 3 to 8) (size 9 to 14) (size 15 to 20)
#    0.000    0.750    5.000    3.000    1.750    2.000 
#    0.000    3.750    0.000    0.000    0.000    0.000 
#    0.000    0.000    0.000    0.000    0.000    0.000 
#
# Total GULP energy -198222.816904 kJ/mol
# GULP energy per Si atom -12388.926057 kJ/mol
# Density = 2.125112 g / cm^3
# Si number density = 21.299599 Si / 1000 Ang^3
#
#
#
# Elastic Constant Matrix: (Units=GPa)
#
#
# Indices 1 2 3 4 5 6 
#
# 1 127.4259 29.0184 40.4959 2.0027 -2.8243 -1.4579
# 2 29.0184 87.2077 36.9175 -2.2853 -11.1891 -6.7797
# 3 40.4959 36.9175 101.7785 4.6185 8.0639 2.6678
# 4 2.0027 -2.2853 4.6185 28.7764 5.8223 2.8390
# 5 -2.8243 -11.1891 8.0639 5.8223 35.9627 -3.5233
# 6 -1.4579 -6.7797 2.6678 2.8390 -3.5233 30.5076
#
#
#
# Elastic Compliance Matrix: (Units=1/GPa)
#
#
# Indices 1 2 3 4 5 6 
#
# 1 0.009257 -0.001557 -0.003196 -0.000532 0.001099 0.000552
# 2 -0.001557 0.015573 -0.005676 0.000519 0.006359 0.004569
# 3 -0.003196 -0.005676 0.013699 -0.001063 -0.005222 -0.003116
# 4 -0.000532 0.000519 -0.001063 0.036589 -0.005949 -0.003909
# 5 0.001099 0.006359 -0.005222 -0.005949 0.032617 0.006243
# 6 0.000552 0.004569 -0.003116 -0.003909 0.006243 0.035178
#
#
# Mechanical properties :
#
#
# Convention : Reuss Voigt Hill
#
# Bulk Modulus (GPa) = 56.59127 58.80841 57.69984
# Shear Modulus (GPa) = 29.47057 33.04802 31.25929
#
# Velocity S-wave (km/s) = 3.72374 3.94328 3.83508
# Velocity P-wave (km/s) = 6.71678 6.95720 6.83805
#
# Compressibility (1/GPa) = 0.01767057
#
# Stress axis : x y z
#
# Youngs Moduli (GPa) = 108.02632 64.21530 72.99665
#
# Poissons Ratio (x) = 0.10001 0.23328
# Poissons Ratio (y) = 0.16824 0.41433
# Poissons Ratio (z) = 0.34522 0.36449
#
# Static dielectric constant tensor:
#      x y z
#    x 3.409740 -0.161390 -0.013580 
#    y -0.161390 3.903840 0.012070 
#    z -0.013580 0.012070 3.714010 
# 
# 
# High freq. dielectric constant tensor:
#      x y z
#    x 1.852300 -0.008470 -0.002470 
#    y -0.008470 1.831650 -0.002830 
#    z -0.002470 -0.002830 1.834720 
# 
# From -- ./inp_files/274378.got.cif
#   From: 2010.06.25/outbox.cif.g09.slc.cpg/sg2_138_cif.got.tgz:274378.got - 2010.06.27 13:26:56.
