data_PCOD8032975
_publ_section_title
;
Structure prediction by ZEFSAII (Michael W. Deem and Ramdas Pophale) SiO2 
 PCOD8032975
Probable space group: P -1
;
_chemical_formula_sum "Si O2"
_cell_formula_units_Z 12
_cell_length_a 11.765253
_cell_length_b 9.783802
_cell_length_c 13.897363
_cell_angle_alpha 27.945035
_cell_angle_beta 141.375218
_cell_angle_gamma 142.949172
_cell_volume 434.925807
_symmetry_space_group_name_H-M "P -1"
_symmetry_group_IT_number 2
_symmetry_cell_setting 'triclinic'
loop_
_space_group_symop_operation_xyz
x,y,z
-x,-y,-z
loop_
_atom_site_type_symbol
_atom_site_label
_atom_site_fract_x
_atom_site_fract_y
_atom_site_fract_z
Si Si1 0.751580 0.635739 0.715827
Si Si2 0.916774 0.311320 0.725728
Si Si3 0.071580 0.805939 0.976587
Si Si4 0.319237 0.759205 0.737652
Si Si5 0.636125 0.616846 0.301692
Si Si6 0.626066 0.749958 0.798179
O O1 0.889615 0.515401 0.817116
O O2 0.539057 0.352252 0.768053
O O3 0.714151 0.920202 0.459507
O O4 0.860761 0.758210 0.816195
O O5 0.928090 0.144188 0.939066
O O6 0.791706 0.533299 0.520458
O O7 0.132755 0.528376 0.697166
O O8 0.828686 0.056656 0.740294
O O9 0.252635 0.085419 0.875658
O O10 0.520386 0.824516 0.775133
O O11 0.328678 0.571642 0.958432
O O12 0.514544 0.298701 0.356708
#
# Coordination Sequence:
#
# PCOD8032975 Si02
#       6
#     2   2   2   2   2   2
#     4  11  25  47  70 100 135 180 223 280 335 395
#     4  12  25  45  71 102 134 181 223 276 338 398
#     4  11  26  48  69  99 138 175 229 277 332 400
#     4  11  23  44  70 101 132 181 224 270 342 394
#     4  12  25  46  71 100 137 179 224 276 339 397
#     4  11  25  45  66 102 140 174 224 277 333 402
#
# _framework density 27.590914000000001
#
# number of rings (size 3 to 8) (size 9 to 14) (size 15 to 20)
#    0.000    0.667    3.333    4.500    0.000    3.333 
#    3.000    0.000    0.000    0.000    0.000    0.000 
#    0.000    0.000    0.000    0.000    0.000    0.000 
#
# Total GULP energy -148791.788306 kJ/mol
# GULP energy per Si atom -12399.315692 kJ/mol
# Density = 2.752812 g / cm^3
# Si number density = 27.590914 Si / 1000 Ang^3
#
#
#
# Elastic Constant Matrix: (Units=GPa)
#
#
# Indices 1 2 3 4 5 6 
#
# 1 25.7276 9.9272 12.8708 3.3468 -4.5332 13.9731
# 2 9.9272 117.7561 21.5833 5.5005 -2.3893 28.0746
# 3 12.8708 21.5833 118.0326 1.2988 2.6241 11.8236
# 4 3.3468 5.5005 1.2988 44.0803 10.1129 -1.3813
# 5 -4.5332 -2.3893 2.6241 10.1129 36.7382 4.2650
# 6 13.9731 28.0746 11.8236 -1.3813 4.2650 46.7168
#
#
#
# Elastic Compliance Matrix: (Units=1/GPa)
#
#
# Indices 1 2 3 4 5 6 
#
# 1 0.052307 0.000788 -0.004387 -0.006877 0.010590 -0.016178
# 2 0.000788 0.010327 -0.001364 -0.002002 0.002155 -0.006353
# 3 -0.004387 -0.001364 0.009232 0.000559 -0.001437 -0.000057
# 4 -0.006877 -0.002002 0.000559 0.025559 -0.008595 0.004659
# 5 0.010590 0.002155 -0.001437 -0.008595 0.031979 -0.007273
# 6 -0.016178 -0.006353 -0.000057 0.004659 -0.007273 0.030878
#
#
# Mechanical properties :
#
#
# Convention : Reuss Voigt Hill
#
# Bulk Modulus (GPa) = 16.14477 38.91990 27.53233
# Shear Modulus (GPa) = 26.19780 39.98273 33.09027
#
# Velocity S-wave (km/s) = 3.08475 3.81087 3.46687
# Velocity P-wave (km/s) = 4.30718 5.78795 5.10157
#
# Compressibility (1/GPa) = 0.06193955
#
# Stress axis : x y z
#
# Youngs Moduli (GPa) = 19.11794 96.82892 108.32472
#
# Poissons Ratio (x) = -0.07627 0.47522
# Poissons Ratio (y) = -0.01506 0.14774
# Poissons Ratio (z) = 0.08387 0.13206
#
# Static dielectric constant tensor:
#      x y z
#    x 4.688270 0.502390 0.164710 
#    y 0.502390 5.099560 0.242710 
#    z 0.164710 0.242710 5.183020 
# 
# 
# High freq. dielectric constant tensor:
#      x y z
#    x 2.096710 0.034360 0.017180 
#    y 0.034360 2.116180 0.014720 
#    z 0.017180 0.014720 2.136470 
# 
# From -- ./inp_files/270329.got.cif
#   From: 2010.06.25/outbox.cif.g09.slc.cpg/sg2_136_cif.got.tgz:270329.got - 2010.06.27 13:26:56.
