data_PCOD8032416
_publ_section_title
;
Structure prediction by ZEFSAII (Michael W. Deem and Ramdas Pophale) SiO2 
 PCOD8032416
Probable space group: P -1
;
_chemical_formula_sum "Si O2"
_cell_formula_units_Z 14
_cell_length_a 9.570189
_cell_length_b 10.161092
_cell_length_c 8.532874
_cell_angle_alpha 116.597618
_cell_angle_beta 107.780153
_cell_angle_gamma 68.016206
_cell_volume 678.444711
_symmetry_space_group_name_H-M "P -1"
_symmetry_group_IT_number 2
_symmetry_cell_setting 'triclinic'
loop_
_space_group_symop_operation_xyz
x,y,z
-x,-y,-z
loop_
_atom_site_type_symbol
_atom_site_label
_atom_site_fract_x
_atom_site_fract_y
_atom_site_fract_z
Si Si1 0.826200 0.234962 0.220175
Si Si2 0.393129 0.887002 0.408428
Si Si3 0.530549 0.323665 0.963244
Si Si4 0.045401 0.959748 0.313459
Si Si5 0.021461 0.675413 0.960260
Si Si6 0.240126 0.434436 0.094364
Si Si7 0.353662 0.633650 0.475115
O O1 0.762771 0.337215 0.403857
O O2 0.687672 0.239300 0.057770
O O3 0.947628 0.292351 0.191521
O O4 0.918522 0.066239 0.215037
O O5 0.473956 0.762697 0.243446
O O6 0.216645 0.977407 0.357335
O O7 0.394586 0.790389 0.519959
O O8 0.500000 0.000000 0.500000
O O9 0.500000 0.500000 0.000000
O O10 0.395133 0.312193 0.026179
O O11 0.044132 0.791753 0.165752
O O12 0.000000 0.000000 0.500000
O O13 0.137693 0.509888 0.950815
O O14 0.848271 0.664936 0.890987
O O15 0.269993 0.575229 0.274742
O O16 0.500000 0.500000 0.500000
#
# Coordination Sequence:
#
# PCOD8032416 Si02
#       7
#     2   2   2   2   2   2   2
#     4  12  23  41  74  94 134 183 223 276 349 404
#     4  12  27  46  69 102 140 183 227 284 350 409
#     4  12  21  45  72  96 133 184 226 281 341 409
#     4  12  24  46  65  92 140 179 220 282 346 402
#     4  11  24  42  67 100 128 177 226 278 335 408
#     4  11  23  42  69  97 133 172 228 279 335 405
#     4  12  23  44  68 100 137 174 228 288 336 402
#
# _framework density 20.635432000000002
#
# number of rings (size 3 to 8) (size 9 to 14) (size 15 to 20)
#    0.000    0.286    8.571    0.429    2.000    1.714 
#    0.000    1.429    0.000    0.000    0.000    0.000 
#    0.000    0.000    0.000    0.000    0.000    0.000 
#
# Total GULP energy -173526.424537 kJ/mol
# GULP energy per Si atom -12394.744610 kJ/mol
# Density = 2.058847 g / cm^3
# Si number density = 20.635432 Si / 1000 Ang^3
#
#
#
# Elastic Constant Matrix: (Units=GPa)
#
#
# Indices 1 2 3 4 5 6 
#
# 1 161.2026 69.5844 45.1734 5.8987 -6.5000 16.4243
# 2 69.5844 119.2892 36.9752 -14.7738 3.3619 -9.7039
# 3 45.1734 36.9752 91.4746 6.3568 -23.2644 15.1294
# 4 5.8987 -14.7738 6.3568 35.0782 -2.3671 0.5698
# 5 -6.5000 3.3619 -23.2644 -2.3671 45.0769 -5.5771
# 6 16.4243 -9.7039 15.1294 0.5698 -5.5771 39.0505
#
#
#
# Elastic Compliance Matrix: (Units=1/GPa)
#
#
# Indices 1 2 3 4 5 6 
#
# 1 0.009987 -0.006455 -0.001035 -0.004090 0.000521 -0.005270
# 2 -0.006455 0.015917 -0.006202 0.008518 -0.003832 0.008402
# 3 -0.001035 -0.006202 0.017491 -0.004943 0.008261 -0.006631
# 4 -0.004090 0.008518 -0.004943 0.033503 -0.001390 0.005065
# 5 0.000521 -0.003832 0.008261 -0.001390 0.026668 -0.000543
# 6 -0.005270 0.008402 -0.006631 0.005065 -0.000543 0.032330
#
#
# Mechanical properties :
#
#
# Convention : Reuss Voigt Hill
#
# Bulk Modulus (GPa) = 62.45486 75.04803 68.75144
# Shear Modulus (GPa) = 29.65287 38.52336 34.08811
#
# Velocity S-wave (km/s) = 3.79487 4.32540 4.06879
# Velocity P-wave (km/s) = 7.03797 7.83536 7.44734
#
# Compressibility (1/GPa) = 0.01601157
#
# Stress axis : x y z
#
# Youngs Moduli (GPa) = 100.12833 62.82475 57.17172
#
# Poissons Ratio (x) = 0.40553 0.05915
# Poissons Ratio (y) = 0.64632 0.35461
# Poissons Ratio (z) = 0.10359 0.38967
#
# Static dielectric constant tensor:
#      x y z
#    x 4.192500 0.067400 -0.101860 
#    y 0.067400 3.986160 0.100420 
#    z -0.101860 0.100420 4.221850 
# 
# 
# High freq. dielectric constant tensor:
#      x y z
#    x 1.824070 -0.015650 -0.019470 
#    y -0.015650 1.804610 -0.009280 
#    z -0.019470 -0.009280 1.802440 
# 
# From -- ./inp_files/159739.got.cif
#   From: 2010.06.25/outbox.cif.g09.slc.cpg/sg2_80_cif.got.tgz:159739.got - 2010.06.27 13:26:56.
