data_PCOD8032704
_publ_section_title
;
Structure prediction by ZEFSAII (Michael W. Deem and Ramdas Pophale) SiO2 
 PCOD8032704
Probable space group: P -1
;
_chemical_formula_sum "Si O2"
_cell_formula_units_Z 16
_cell_length_a 11.844951
_cell_length_b 23.370628
_cell_length_c 5.538542
_cell_angle_alpha 112.604604
_cell_angle_beta 89.552101
_cell_angle_gamma 34.759680
_cell_volume 636.447441
_symmetry_space_group_name_H-M "P -1"
_symmetry_group_IT_number 2
_symmetry_cell_setting 'triclinic'
loop_
_space_group_symop_operation_xyz
x,y,z
-x,-y,-z
loop_
_atom_site_type_symbol
_atom_site_label
_atom_site_fract_x
_atom_site_fract_y
_atom_site_fract_z
Si Si1 0.933542 0.894364 0.718569
Si Si2 0.915843 0.358764 0.157105
Si Si3 0.583796 0.131626 0.431879
Si Si4 0.221386 0.846362 0.318826
Si Si5 0.778900 0.365648 0.676155
Si Si6 0.107313 0.402007 0.644286
Si Si7 0.485423 0.076573 0.721743
Si Si8 0.685204 0.589704 0.625992
O O1 0.107361 0.842200 0.435857
O O2 0.109488 0.755422 0.602708
O O3 0.670744 0.989975 0.805444
O O4 0.843745 0.992278 0.059571
O O5 0.781568 0.398667 0.468478
O O6 0.759070 0.497042 0.295479
O O7 0.933665 0.311716 0.827583
O O8 0.198698 0.234669 0.040481
O O9 0.586528 0.203771 0.615636
O O10 0.318910 0.250660 0.492418
O O11 0.599130 0.074444 0.549737
O O12 0.388062 0.735627 0.920719
O O13 0.000000 0.000000 0.500000
O O14 0.500000 0.500000 0.000000
O O15 0.246533 0.374599 0.395141
O O16 0.868498 0.481787 0.674514
O O17 0.000000 0.500000 0.000000
O O18 0.500000 0.000000 0.500000
#
# Coordination Sequence:
#
# PCOD8032704 Si02
#       8
#     2   2   2   2   2   2   2   2
#     4  12  27  47  75 105 152 197 255 313 378 453
#     4  12  28  48  81 112 154 199 257 313 383 451
#     4  12  26  45  77 104 149 195 251 312 378 454
#     4  12  25  47  70 106 147 197 246 308 378 450
#     4  12  29  52  78 113 152 203 256 312 378 457
#     4  11  23  43  70 105 144 192 249 308 381 449
#     4  12  26  48  75 110 149 195 252 317 376 450
#     4  11  26  43  70 106 149 191 247 315 377 454
#
# _framework density 25.139544999999998
#
# number of rings (size 3 to 8) (size 9 to 14) (size 15 to 20)
#    0.000    0.250    3.750    4.500    7.000    3.000 
#    0.000    0.000    0.000    0.000    0.000    0.000 
#    0.000    0.000    0.000    0.000    0.000    0.000 
#
# Total GULP energy -198230.756989 kJ/mol
# GULP energy per Si atom -12389.422312 kJ/mol
# Density = 2.508233 g / cm^3
# Si number density = 25.139545 Si / 1000 Ang^3
#
#
#
# Elastic Constant Matrix: (Units=GPa)
#
#
# Indices 1 2 3 4 5 6 
#
# 1 81.0363 0.7165 4.5436 8.3284 -0.7340 6.2282
# 2 0.7165 78.3014 10.2239 23.4376 1.5377 0.6120
# 3 4.5436 10.2239 120.9880 30.8946 -4.6763 1.7214
# 4 8.3284 23.4376 30.8946 57.6659 2.5727 5.0470
# 5 -0.7340 1.5377 -4.6763 2.5727 40.0056 12.0482
# 6 6.2282 0.6120 1.7214 5.0470 12.0482 33.1136
#
#
#
# Elastic Compliance Matrix: (Units=1/GPa)
#
#
# Indices 1 2 3 4 5 6 
#
# 1 0.012729 0.000435 0.000040 -0.001865 0.001100 -0.002520
# 2 0.000435 0.014584 0.000313 -0.006205 -0.000327 0.000697
# 3 0.000040 0.000313 0.009669 -0.005359 0.001542 -0.000260
# 4 -0.001865 -0.006205 -0.005359 0.023264 -0.001207 -0.002363
# 5 0.001100 -0.000327 0.001542 -0.001207 0.028432 -0.010442
# 6 -0.002520 0.000697 -0.000260 -0.002363 -0.010442 0.034833
#
#
# Mechanical properties :
#
#
# Convention : Reuss Voigt Hill
#
# Bulk Modulus (GPa) = 25.93491 34.58818 30.26154
# Shear Modulus (GPa) = 37.09478 43.81312 40.45395
#
# Velocity S-wave (km/s) = 3.84546 4.17921 4.01581
# Velocity P-wave (km/s) = 5.48229 6.08901 5.79360
#
# Compressibility (1/GPa) = 0.03855807
#
# Stress axis : x y z
#
# Youngs Moduli (GPa) = 78.55814 68.56608 103.42186
#
# Poissons Ratio (x) = -0.02980 -0.00412
# Poissons Ratio (y) = -0.03414 -0.03238
# Poissons Ratio (z) = -0.00313 -0.02146
#
# Static dielectric constant tensor:
#      x y z
#    x 4.700900 -0.029210 -0.134210 
#    y -0.029210 5.009500 -0.180820 
#    z -0.134210 -0.180820 4.758110 
# 
# 
# High freq. dielectric constant tensor:
#      x y z
#    x 2.004100 0.000590 0.003130 
#    y 0.000590 2.004430 0.023340 
#    z 0.003130 0.023340 2.015290 
# 
# From -- ./inp_files/84428.got.cif
#   From: 2010.06.25/outbox.cif.g09.slc.cpg/sg2_43_cif.got.tgz:84428.got - 2010.06.27 13:26:56.
