data_PCOD8032718
_publ_section_title
;
Structure prediction by ZEFSAII (Michael W. Deem and Ramdas Pophale) SiO2 
 PCOD8032718
Probable space group: P -1
;
_chemical_formula_sum "Si O2"
_cell_formula_units_Z 16
_cell_length_a 16.112480
_cell_length_b 12.865164
_cell_length_c 9.247215
_cell_angle_alpha 50.057937
_cell_angle_beta 114.799862
_cell_angle_gamma 147.088702
_cell_volume 764.937611
_symmetry_space_group_name_H-M "P -1"
_symmetry_group_IT_number 2
_symmetry_cell_setting 'triclinic'
loop_
_space_group_symop_operation_xyz
x,y,z
-x,-y,-z
loop_
_atom_site_type_symbol
_atom_site_label
_atom_site_fract_x
_atom_site_fract_y
_atom_site_fract_z
Si Si1 0.088875 0.228840 0.430360
Si Si2 0.946244 0.327381 0.230184
Si Si3 0.939747 0.016811 0.810316
Si Si4 0.403514 0.509599 0.989440
Si Si5 0.601386 0.238533 0.439189
Si Si6 0.413402 0.695914 0.108701
Si Si7 0.948679 0.571965 0.470381
Si Si8 0.389533 0.973934 0.783373
O O1 0.273276 0.460465 0.312808
O O2 0.983788 0.223953 0.291835
O O3 0.074895 0.192227 0.626672
O O4 0.000000 0.000000 0.500000
O O5 0.759524 0.125003 0.303626
O O6 0.055488 0.468161 0.327126
O O7 0.000000 0.500000 0.000000
O O8 0.922839 0.154052 0.722349
O O9 0.773688 0.757121 0.863515
O O10 0.000000 0.000000 0.000000
O O11 0.465992 0.654696 0.055904
O O12 0.500000 0.500000 0.000000
O O13 0.404487 0.626250 0.766555
O O14 0.780406 0.407064 0.429195
O O15 0.500000 0.000000 0.500000
O O16 0.538573 0.186056 0.601205
O O17 0.567972 0.915815 0.124789
O O18 0.352117 0.766872 0.939898
O O19 0.000000 0.500000 0.500000
#
# Coordination Sequence:
#
# PCOD8032718 Si02
#       8
#     2   2   2   2   2   2   2   2
#     4  11  23  43  70  97 137 181 229 286 354 417
#     4  11  24  42  68 103 135 178 237 288 342 418
#     4  11  24  46  69  98 139 186 232 288 351 417
#     4  12  28  47  70 103 145 189 238 291 364 431
#     4  12  25  44  73 104 143 191 232 292 364 424
#     4  11  24  46  70 103 141 183 236 297 359 421
#     4  11  26  43  70 102 136 182 240 287 340 421
#     4  11  24  43  73 103 141 181 236 298 358 414
#
# _framework density 20.916739
#
# number of rings (size 3 to 8) (size 9 to 14) (size 15 to 20)
#    0.000    0.750    5.000    2.250    7.000    1.000 
#    2.250    1.250    0.000    0.000    0.000    0.000 
#    0.000    0.000    0.000    0.000    0.000    0.000 
#
# Total GULP energy -198323.327032 kJ/mol
# GULP energy per Si atom -12395.207940 kJ/mol
# Density = 2.086913 g / cm^3
# Si number density = 20.916739 Si / 1000 Ang^3
#
#
#
# Elastic Constant Matrix: (Units=GPa)
#
#
# Indices 1 2 3 4 5 6 
#
# 1 131.9823 47.0193 51.2175 4.9930 14.9958 -21.3978
# 2 47.0193 104.1686 37.6738 -0.4219 14.7109 -17.8282
# 3 51.2175 37.6738 156.5465 0.2013 12.9071 -11.3195
# 4 4.9930 -0.4219 0.2013 37.3600 3.0410 4.3151
# 5 14.9958 14.7109 12.9071 3.0410 36.3353 -4.3874
# 6 -21.3978 -17.8282 -11.3195 4.3151 -4.3874 38.3732
#
#
#
# Elastic Compliance Matrix: (Units=1/GPa)
#
#
# Indices 1 2 3 4 5 6 
#
# 1 0.010384 -0.003000 -0.002266 -0.001704 -0.001673 0.003728
# 2 -0.003000 0.012489 -0.001547 0.000406 -0.002905 0.003296
# 3 -0.002266 -0.001547 0.007603 0.000328 -0.001156 0.000092
# 4 -0.001704 0.000406 0.000328 0.027658 -0.002381 -0.004047
# 5 -0.001673 -0.002905 -0.001156 -0.002381 0.030129 0.001089
# 6 0.003728 0.003296 0.000092 -0.004047 0.001089 0.030277
#
#
# Mechanical properties :
#
#
# Convention : Reuss Voigt Hill
#
# Bulk Modulus (GPa) = 59.34351 73.83540 66.58946
# Shear Modulus (GPa) = 36.28908 39.53282 37.91095
#
# Velocity S-wave (km/s) = 4.16977 4.35214 4.26193
# Velocity P-wave (km/s) = 7.18439 7.78660 7.49155
#
# Compressibility (1/GPa) = 0.01685104
#
# Stress axis : x y z
#
# Youngs Moduli (GPa) = 96.30378 80.06831 131.52964
#
# Poissons Ratio (x) = 0.24022 0.29799
# Poissons Ratio (y) = 0.28893 0.20345
# Poissons Ratio (z) = 0.21818 0.12385
#
# Static dielectric constant tensor:
#      x y z
#    x 1.775470 -0.200860 0.725410 
#    y -0.200860 4.311010 0.031730 
#    z 0.725410 0.031730 3.873340 
# 
# 
# High freq. dielectric constant tensor:
#      x y z
#    x 1.815700 -0.012930 0.004250 
#    y -0.012930 1.825290 -0.006430 
#    z 0.004250 -0.006430 1.835600 
# 
# From -- ./inp_files/306554.got.cif
#   From: 2010.06.25/outbox.cif.g09.slc.cpg/sg2_154_cif.got.tgz:306554.got - 2010.06.27 13:26:56.
