data_PCOD8032281
_publ_section_title
;
Structure prediction by ZEFSAII (Michael W. Deem and Ramdas Pophale) SiO2 
 PCOD8032281
Probable space group: P -1
;
_chemical_formula_sum "Si O2"
_cell_formula_units_Z 14
_cell_length_a 17.956950
_cell_length_b 6.709362
_cell_length_c 9.435226
_cell_angle_alpha 75.077257
_cell_angle_beta 44.127529
_cell_angle_gamma 52.015407
_cell_volume 587.609267
_symmetry_space_group_name_H-M "P -1"
_symmetry_group_IT_number 2
_symmetry_cell_setting 'triclinic'
loop_
_space_group_symop_operation_xyz
x,y,z
-x,-y,-z
loop_
_atom_site_type_symbol
_atom_site_label
_atom_site_fract_x
_atom_site_fract_y
_atom_site_fract_z
Si Si1 0.857735 0.827505 0.485768
Si Si2 0.099785 0.781693 0.283798
Si Si3 0.861269 0.616234 0.238090
Si Si4 0.647237 0.817586 0.918979
Si Si5 0.537723 0.102470 0.300325
Si Si6 0.267722 0.630976 0.596851
Si Si7 0.263000 0.855480 0.841633
O O1 0.870091 0.622834 0.395474
O O2 0.740962 0.903867 0.744098
O O3 0.010571 0.696599 0.361449
O O4 0.797018 0.098211 0.441657
O O5 0.250462 0.508591 0.183668
O O6 0.132927 0.918285 0.096172
O O7 0.000000 0.000000 0.500000
O O8 0.847382 0.402280 0.241496
O O9 0.754421 0.908683 0.262918
O O10 0.000000 0.500000 0.000000
O O11 0.500000 0.000000 0.000000
O O12 0.611970 0.870998 0.123531
O O13 0.394831 0.372251 0.383836
O O14 0.617389 0.219686 0.201390
O O15 0.500000 0.000000 0.500000
O O16 0.310859 0.628749 0.700870
#
# Coordination Sequence:
#
# PCOD8032281 Si02
#       7
#     2   2   2   2   2   2   2
#     4  11  27  47  75 110 152 198 249 312 378 450
#     4  12  28  49  77 107 152 200 253 308 382 451
#     4  11  23  41  75 105 152 190 249 310 374 443
#     4  12  30  49  77 112 152 201 253 311 380 446
#     4  12  25  46  77 106 154 200 249 312 377 446
#     4  11  24  45  75 110 151 193 249 310 379 440
#     4  11  25  44  73 113 144 196 251 310 371 449
#
# _framework density 23.825354999999998
#
# number of rings (size 3 to 8) (size 9 to 14) (size 15 to 20)
#    0.000    0.571    1.429    5.143   12.000    2.857 
#    0.000    0.000    0.000    0.000    0.000    0.000 
#    0.000    0.000    0.000    0.000    0.000    0.000 
#
# Total GULP energy -173446.422564 kJ/mol
# GULP energy per Si atom -12389.030183 kJ/mol
# Density = 2.377113 g / cm^3
# Si number density = 23.825355 Si / 1000 Ang^3
#
#
#
# Elastic Constant Matrix: (Units=GPa)
#
#
# Indices 1 2 3 4 5 6 
#
# 1 111.9363 42.7743 44.5527 -5.8883 -9.7870 7.6419
# 2 42.7743 91.1787 40.5930 17.2168 8.1029 13.3715
# 3 44.5527 40.5930 154.3902 2.1512 -1.0499 11.2724
# 4 -5.8883 17.2168 2.1512 43.0682 6.5054 -14.2940
# 5 -9.7870 8.1029 -1.0499 6.5054 39.3467 2.6012
# 6 7.6419 13.3715 11.2724 -14.2940 2.6012 41.5492
#
#
#
# Elastic Compliance Matrix: (Units=1/GPa)
#
#
# Indices 1 2 3 4 5 6 
#
# 1 0.012643 -0.006354 -0.002129 0.004358 0.003572 0.001573
# 2 -0.006354 0.018216 -0.002307 -0.009962 -0.003264 -0.007291
# 3 -0.002129 -0.002307 0.007777 -0.000139 0.000245 -0.001039
# 4 0.004358 -0.009962 -0.000139 0.032931 -0.003237 0.013974
# 5 0.003572 -0.003264 0.000245 -0.003237 0.027684 -0.002520
# 6 0.001573 -0.007291 -0.001039 0.013974 -0.002520 0.031372
#
#
# Mechanical properties :
#
#
# Convention : Reuss Voigt Hill
#
# Bulk Modulus (GPa) = 58.62952 68.14946 63.38949
# Shear Modulus (GPa) = 31.66765 40.09852 35.88309
#
# Velocity S-wave (km/s) = 3.64972 4.10691 3.88505
# Velocity P-wave (km/s) = 6.51322 7.15226 6.84021
#
# Compressibility (1/GPa) = 0.01705626
#
# Stress axis : x y z
#
# Youngs Moduli (GPa) = 79.09212 54.89725 128.57635
#
# Poissons Ratio (x) = 0.34884 0.27375
# Poissons Ratio (y) = 0.50259 0.29660
# Poissons Ratio (z) = 0.16839 0.12664
#
# Static dielectric constant tensor:
#      x y z
#    x 4.633430 0.130390 -0.049660 
#    y 0.130390 3.882330 -0.032460 
#    z -0.049660 -0.032460 4.447120 
# 
# 
# High freq. dielectric constant tensor:
#      x y z
#    x 1.948840 0.006440 -0.011570 
#    y 0.006440 1.950150 -0.002810 
#    z -0.011570 -0.002810 1.956010 
# 
# From -- ./inp_files/323510.got.cif
#   From: 2010.06.25/outbox.cif.g09.slc.cpg/sg2_162_cif.got.tgz:323510.got - 2010.06.27 13:26:56.
