data_PCOD8032858
_publ_section_title
;
Structure prediction by ZEFSAII (Michael W. Deem and Ramdas Pophale) SiO2 
 PCOD8032858
Probable space group: P -1
;
_chemical_formula_sum "Si O2"
_cell_formula_units_Z 16
_cell_length_a 9.130175
_cell_length_b 8.060332
_cell_length_c 22.770401
_cell_angle_alpha 148.685821
_cell_angle_beta 131.346614
_cell_angle_gamma 56.126305
_cell_volume 653.721396
_symmetry_space_group_name_H-M "P -1"
_symmetry_group_IT_number 2
_symmetry_cell_setting 'triclinic'
loop_
_space_group_symop_operation_xyz
x,y,z
-x,-y,-z
loop_
_atom_site_type_symbol
_atom_site_label
_atom_site_fract_x
_atom_site_fract_y
_atom_site_fract_z
Si Si1 0.333920 0.404506 0.294107
Si Si2 0.057060 0.809986 0.398984
Si Si3 0.257580 0.324312 0.522290
Si Si4 0.952999 0.183896 0.315184
Si Si5 0.246465 0.661997 0.810295
Si Si6 0.037018 0.491252 0.136107
Si Si7 0.351642 0.690348 0.060007
Si Si8 0.677996 0.644465 0.926484
O O1 0.218307 0.521704 0.357937
O O2 0.508196 0.666276 0.410258
O O3 0.177900 0.431451 0.208908
O O4 0.418070 0.043872 0.208020
O O5 0.855501 0.630825 0.268866
O O6 0.150348 0.049748 0.449093
O O7 0.000000 0.000000 0.500000
O O8 0.192654 0.664535 0.631124
O O9 0.178276 0.281918 0.421430
O O10 0.900321 0.296987 0.270477
O O11 0.916197 0.813541 0.204177
O O12 0.463958 0.570342 0.819580
O O13 0.268799 0.978438 0.951263
O O14 0.163635 0.533620 0.123255
O O15 0.855888 0.238251 0.005874
O O16 0.314816 0.461885 0.036621
O O17 0.500000 0.500000 0.000000
#
# Coordination Sequence:
#
# PCOD8032858 Si02
#       8
#     2   2   2   2   2   2   2   2
#     4  12  28  47  74 108 151 190 248 296 368 433
#     4  12  26  44  75 103 147 191 248 296 361 427
#     4  11  25  48  71 103 142 201 240 303 355 433
#     4  11  23  43  76  97 145 187 245 292 366 427
#     4  11  25  47  71 104 142 194 237 301 364 432
#     4  12  25  45  75 107 148 192 235 305 366 436
#     4  12  28  46  74 113 150 189 242 301 367 441
#     4  11  27  45  76 103 148 186 245 297 376 433
#
# _framework density 24.475256999999999
#
# number of rings (size 3 to 8) (size 9 to 14) (size 15 to 20)
#    0.000    0.500    3.750    3.375    7.000    2.000 
#    0.000    0.625    0.000    0.000    0.000    0.000 
#    0.000    0.000    0.000    0.000    0.000    0.000 
#
# Total GULP energy -198223.606978 kJ/mol
# GULP energy per Si atom -12388.975436 kJ/mol
# Density = 2.441955 g / cm^3
# Si number density = 24.475257 Si / 1000 Ang^3
#
#
#
# Elastic Constant Matrix: (Units=GPa)
#
#
# Indices 1 2 3 4 5 6 
#
# 1 148.8399 41.1483 79.9731 6.2880 8.8915 -15.5161
# 2 41.1483 80.9360 43.3064 -11.5826 8.1695 -11.6818
# 3 79.9731 43.3064 139.0555 8.8831 26.9867 -13.6176
# 4 6.2880 -11.5826 8.8831 51.3351 -12.5879 -4.2672
# 5 8.8915 8.1695 26.9867 -12.5879 53.6034 1.1514
# 6 -15.5161 -11.6818 -13.6176 -4.2672 1.1514 26.6011
#
#
#
# Elastic Compliance Matrix: (Units=1/GPa)
#
#
# Indices 1 2 3 4 5 6 
#
# 1 0.010334 -0.002332 -0.005184 -0.000440 0.001100 0.002232
# 2 -0.002332 0.017104 -0.004051 0.005501 0.001006 0.004916
# 3 -0.005184 -0.004051 0.012993 -0.003877 -0.006006 0.001487
# 4 -0.000440 0.005501 -0.003877 0.023365 0.006595 0.003637
# 5 0.001100 0.001006 -0.006006 0.006595 0.022934 -0.001926
# 6 0.002232 0.004916 0.001487 0.003637 -0.001926 0.042481
#
#
# Mechanical properties :
#
#
# Convention : Reuss Voigt Hill
#
# Bulk Modulus (GPa) = 57.81003 77.52077 67.66540
# Shear Modulus (GPa) = 31.62346 39.93483 35.77914
#
# Velocity S-wave (km/s) = 3.59842 4.04374 3.82756
# Velocity P-wave (km/s) = 6.39812 7.31740 6.87314
#
# Compressibility (1/GPa) = 0.01729804
#
# Stress axis : x y z
#
# Youngs Moduli (GPa) = 96.76558 58.46695 76.96359
#
# Poissons Ratio (x) = 0.13635 0.39897
# Poissons Ratio (y) = 0.22566 0.31175
# Poissons Ratio (z) = 0.50162 0.23682
#
# Static dielectric constant tensor:
#      x y z
#    x 4.609390 -0.352380 -0.054160 
#    y -0.352380 4.385410 0.174350 
#    z -0.054160 0.174350 5.099210 
# 
# 
# High freq. dielectric constant tensor:
#      x y z
#    x 1.972480 -0.018970 0.004270 
#    y -0.018970 1.960270 0.011410 
#    z 0.004270 0.011410 1.997200 
# 
# From -- ./inp_files/606951.got.cif
#   From: 2010.06.25/outbox.cif.g09.slc.cpg/sg2_304_cif.got.tgz:606951.got - 2010.06.27 13:26:56.
