data_PCOD8032027
_publ_section_title
;
Structure prediction by ZEFSAII (Michael W. Deem and Ramdas Pophale) SiO2 
 PCOD8032027
Probable space group: P -1
;
_chemical_formula_sum "Si O2"
_cell_formula_units_Z 12
_cell_length_a 10.969648
_cell_length_b 8.027776
_cell_length_c 7.920748
_cell_angle_alpha 63.493212
_cell_angle_beta 124.877035
_cell_angle_gamma 122.701418
_cell_volume 471.899185
_symmetry_space_group_name_H-M "P -1"
_symmetry_group_IT_number 2
_symmetry_cell_setting 'triclinic'
loop_
_space_group_symop_operation_xyz
x,y,z
-x,-y,-z
loop_
_atom_site_type_symbol
_atom_site_label
_atom_site_fract_x
_atom_site_fract_y
_atom_site_fract_z
Si Si1 0.364729 0.364283 0.674288
Si Si2 0.058305 0.592304 0.781866
Si Si3 0.194430 0.004452 0.247752
Si Si4 0.285371 0.439615 0.209086
Si Si5 0.753867 0.336377 0.431292
Si Si6 0.895346 0.010703 0.179919
O O1 0.281100 0.367508 0.429410
O O2 0.546603 0.375276 0.787676
O O3 0.378770 0.567436 0.694077
O O4 0.257753 0.165031 0.780074
O O5 0.201518 0.639653 0.739225
O O6 0.898616 0.443670 0.630801
O O7 0.040050 0.798266 0.729826
O O8 0.127403 0.494795 0.034833
O O9 0.272571 0.245032 0.177355
O O10 0.311670 0.903012 0.465639
O O11 0.150370 0.913591 0.066641
O O12 0.038239 0.934078 0.282645
#
# Coordination Sequence:
#
# PCOD8032027 Si02
#       6
#     2   2   2   2   2   2
#     4  11  25  44  66  95 131 169 211 263 321 378
#     4  11  23  41  67  96 128 168 214 263 316 377
#     4  11  23  40  66  97 127 167 215 262 316 377
#     4  11  25  44  66  95 131 169 211 263 321 378
#     4  11  23  40  66  97 127 167 215 262 316 377
#     4  11  23  41  67  96 128 168 214 263 316 377
#
# _framework density 25.429162000000002
#
# number of rings (size 3 to 8) (size 9 to 14) (size 15 to 20)
#    0.000    1.000    0.000    8.000    0.000    8.000 
#    0.000    0.000    0.000    0.000    0.000    0.000 
#    0.000    0.000    0.000    0.000    0.000    0.000 
#
# Total GULP energy -148757.784999 kJ/mol
# GULP energy per Si atom -12396.482083 kJ/mol
# Density = 2.537128 g / cm^3
# Si number density = 25.429162 Si / 1000 Ang^3
#
#
#
# Elastic Constant Matrix: (Units=GPa)
#
#
# Indices 1 2 3 4 5 6 
#
# 1 95.5957 36.2437 16.4227 -0.0047 -3.0725 10.4284
# 2 36.2437 96.8286 12.9744 -17.1974 1.1012 4.3087
# 3 16.4227 12.9744 25.1729 0.0222 6.3005 4.5112
# 4 -0.0047 -17.1974 0.0222 33.2234 -14.3994 -1.6157
# 5 -3.0725 1.1012 6.3005 -14.3994 29.0135 0.2216
# 6 10.4284 4.3087 4.5112 -1.6157 0.2216 49.1481
#
#
#
# Elastic Compliance Matrix: (Units=1/GPa)
#
#
# Indices 1 2 3 4 5 6 
#
# 1 0.013575 -0.004318 -0.006912 -0.001237 0.002503 -0.001919
# 2 -0.004318 0.014383 -0.005969 0.009680 0.005093 0.000498
# 3 -0.006912 -0.005969 0.052155 -0.010692 -0.017114 -0.003071
# 4 -0.001237 0.009680 -0.010692 0.045851 0.024566 0.001792
# 5 0.002503 0.005093 -0.017114 0.024566 0.050438 0.001173
# 6 -0.001919 0.000498 -0.003071 0.001792 0.001173 0.021046
#
#
# Mechanical properties :
#
#
# Convention : Reuss Voigt Hill
#
# Bulk Modulus (GPa) = 21.87491 38.76430 30.31961
# Shear Modulus (GPa) = 20.23614 32.40742 26.32178
#
# Velocity S-wave (km/s) = 2.82403 3.57377 3.22079
# Velocity P-wave (km/s) = 4.38799 5.68386 5.07744
#
# Compressibility (1/GPa) = 0.04571448
#
# Stress axis : x y z
#
# Youngs Moduli (GPa) = 73.66479 69.52856 19.17379
#
# Poissons Ratio (x) = 0.30021 0.13254
# Poissons Ratio (y) = 0.31807 0.11444
# Poissons Ratio (z) = 0.50920 0.41500
#
# Static dielectric constant tensor:
#      x y z
#    x 4.730920 -0.312910 -0.257730 
#    y -0.312910 4.383820 0.008040 
#    z -0.257730 0.008040 4.539370 
# 
# 
# High freq. dielectric constant tensor:
#      x y z
#    x 2.021710 -0.013480 -0.022070 
#    y -0.013480 2.004180 -0.007290 
#    z -0.022070 -0.007290 2.018510 
# 
# From -- ./inp_files/242727.got.cif
#   From: 2010.06.25/outbox.cif.g09.slc.cpg/sg2_122_cif.got.tgz:242727.got - 2010.06.27 13:26:56.
