data_PCOD8032055
_publ_section_title
;
Structure prediction by ZEFSAII (Michael W. Deem and Ramdas Pophale) SiO2 
 PCOD8032055
Probable space group: P -1
;
_chemical_formula_sum "Si O2"
_cell_formula_units_Z 14
_cell_length_a 10.116321
_cell_length_b 8.786006
_cell_length_c 9.541142
_cell_angle_alpha 62.829654
_cell_angle_beta 116.199797
_cell_angle_gamma 117.250715
_cell_volume 641.108863
_symmetry_space_group_name_H-M "P -1"
_symmetry_group_IT_number 2
_symmetry_cell_setting 'triclinic'
loop_
_space_group_symop_operation_xyz
x,y,z
-x,-y,-z
loop_
_atom_site_type_symbol
_atom_site_label
_atom_site_fract_x
_atom_site_fract_y
_atom_site_fract_z
Si Si1 0.553857 0.963018 0.196272
Si Si2 0.157438 0.462251 0.560867
Si Si3 0.735501 0.352294 0.755616
Si Si4 0.011760 0.835697 0.985863
Si Si5 0.103675 0.049924 0.665863
Si Si6 0.302627 0.439717 0.084638
Si Si7 0.429447 0.689088 0.790875
O O1 0.443218 0.772114 0.281759
O O2 0.726575 0.958306 0.278478
O O3 0.548397 0.103150 0.256781
O O4 0.500000 0.000000 0.000000
O O5 0.219864 0.523748 0.410578
O O6 0.123426 0.248443 0.651908
O O7 0.280821 0.582003 0.677076
O O8 0.000000 0.500000 0.500000
O O9 0.754942 0.492053 0.831076
O O10 0.840673 0.223212 0.878497
O O11 0.856415 0.672904 0.018141
O O12 0.020156 0.894614 0.803182
O O13 0.000000 0.000000 0.000000
O O14 0.000000 0.000000 0.500000
O O15 0.414233 0.317191 0.211981
O O16 0.406575 0.605034 0.971108
#
# Coordination Sequence:
#
# PCOD8032055 Si02
#       7
#     2   2   2   2   2   2   2
#     4  12  24  46  73 102 141 180 237 287 348 417
#     4  12  27  46  68 103 147 180 230 294 351 411
#     4  12  25  44  71 100 138 189 231 283 351 420
#     4  12  24  41  68  99 135 182 235 281 342 416
#     4  12  26  45  71 101 141 182 229 289 349 406
#     4  11  23  40  68  99 135 179 239 279 344 417
#     4  11  24  42  68 101 139 181 227 294 346 407
#
# _framework density 21.837163
#
# number of rings (size 3 to 8) (size 9 to 14) (size 15 to 20)
#    0.000    0.286    2.857    6.429    2.000    4.000 
#    0.000    0.000    0.000    0.000    0.000    0.000 
#    0.000    0.000    0.000    0.000    0.000    0.000 
#
# Total GULP energy -173637.429624 kJ/mol
# GULP energy per Si atom -12402.673545 kJ/mol
# Density = 2.178746 g / cm^3
# Si number density = 21.837163 Si / 1000 Ang^3
#
#
#
# Elastic Constant Matrix: (Units=GPa)
#
#
# Indices 1 2 3 4 5 6 
#
# 1 135.9019 22.0433 17.8355 7.5135 18.3957 -9.3913
# 2 22.0433 109.2710 -0.2019 17.5954 7.3741 -11.8702
# 3 17.8355 -0.2019 62.4683 6.2471 11.6816 -0.0421
# 4 7.5135 17.5954 6.2471 42.4371 9.2429 -1.7765
# 5 18.3957 7.3741 11.6816 9.2429 39.2627 -3.7323
# 6 -9.3913 -11.8702 -0.0421 -1.7765 -3.7323 51.5217
#
#
#
# Elastic Compliance Matrix: (Units=1/GPa)
#
#
# Indices 1 2 3 4 5 6 
#
# 1 0.008291 -0.001377 -0.001815 0.000067 -0.003009 0.000977
# 2 -0.001377 0.010316 0.000909 -0.003990 -0.000437 0.001957
# 3 -0.001815 0.000909 0.017480 -0.001743 -0.004155 -0.000468
# 4 0.000067 -0.003990 -0.001743 0.026548 -0.005047 -0.000359
# 5 -0.003009 -0.000437 -0.004155 -0.005047 0.029510 0.001311
# 6 0.000977 0.001957 -0.000468 -0.000359 0.001311 0.020120
#
#
# Mechanical properties :
#
#
# Convention : Reuss Voigt Hill
#
# Bulk Modulus (GPa) = 31.72653 42.99945 37.36299
# Shear Modulus (GPa) = 39.26517 44.50858 41.88688
#
# Velocity S-wave (km/s) = 4.24499 4.51954 4.38442
# Velocity P-wave (km/s) = 6.21183 6.85337 6.54047
#
# Compressibility (1/GPa) = 0.03151936
#
# Stress axis : x y z
#
# Youngs Moduli (GPa) = 120.61354 96.93972 57.20722
#
# Poissons Ratio (x) = 0.13353 0.10383
# Poissons Ratio (y) = 0.16614 -0.05198
# Poissons Ratio (z) = 0.21892 -0.08809
#
# Static dielectric constant tensor:
#      x y z
#    x 4.258220 -0.003000 -0.078370 
#    y -0.003000 4.108190 -0.076860 
#    z -0.078370 -0.076860 3.604360 
# 
# 
# High freq. dielectric constant tensor:
#      x y z
#    x 1.882960 -0.001240 -0.001520 
#    y -0.001240 1.877200 0.004940 
#    z -0.001520 0.004940 1.850470 
# 
# From -- ./inp_files/157013.got.cif
#   From: 2010.06.25/outbox.cif.g09.slc.cpg/sg2_79_cif.got.tgz:157013.got - 2010.06.27 13:26:56.
