data_PCOD8032574
_publ_section_title
;
Structure prediction by ZEFSAII (Michael W. Deem and Ramdas Pophale) SiO2 
 PCOD8032574
Probable space group: P -1
;
_chemical_formula_sum "Si O2"
_cell_formula_units_Z 16
_cell_length_a 11.330588
_cell_length_b 9.070533
_cell_length_c 15.858312
_cell_angle_alpha 48.831441
_cell_angle_beta 68.369638
_cell_angle_gamma 39.282817
_cell_volume 742.084139
_symmetry_space_group_name_H-M "P -1"
_symmetry_group_IT_number 2
_symmetry_cell_setting 'triclinic'
loop_
_space_group_symop_operation_xyz
x,y,z
-x,-y,-z
loop_
_atom_site_type_symbol
_atom_site_label
_atom_site_fract_x
_atom_site_fract_y
_atom_site_fract_z
Si Si1 0.986025 0.659754 0.253028
Si Si2 0.997821 0.922167 0.865228
Si Si3 0.323813 0.908390 0.202950
Si Si4 0.961223 0.797699 0.510978
Si Si5 0.439926 0.729493 0.861014
Si Si6 0.779737 0.585618 0.873738
Si Si7 0.728574 0.247328 0.555541
Si Si8 0.700663 0.308035 0.252177
O O1 0.013483 0.466929 0.392449
O O2 0.090219 0.466619 0.212852
O O3 0.065329 0.776861 0.221084
O O4 0.761472 0.939595 0.181841
O O5 0.147653 0.723855 0.821846
O O6 0.106375 0.725948 0.994981
O O7 0.808892 0.006657 0.872274
O O8 0.245893 0.873799 0.314071
O O9 0.552370 0.606476 0.236689
O O10 0.288870 0.178208 0.127123
O O11 0.177021 0.644822 0.505979
O O12 0.854562 0.981064 0.555975
O O13 0.823024 0.013556 0.387772
O O14 0.595031 0.720611 0.821292
O O15 0.422449 0.663482 0.796402
O O16 0.500000 0.500000 0.000000
O O17 0.500000 0.500000 0.500000
#
# Coordination Sequence:
#
# PCOD8032574 Si02
#       8
#     2   2   2   2   2   2   2   2
#     4  11  25  43  73  97 135 183 228 277 340 403
#     4  11  25  45  64 101 139 178 225 285 337 404
#     4  12  25  42  70 101 137 179 227 279 344 403
#     4  11  24  43  71 100 137 180 230 277 338 406
#     4  11  25  46  68 100 138 180 226 282 339 399
#     4  12  25  44  71 101 135 181 232 274 349 404
#     4  11  23  43  65  99 140 178 222 282 337 398
#     4  11  24  45  69  99 141 174 226 281 337 394
#
# _framework density 21.560898000000002
#
# number of rings (size 3 to 8) (size 9 to 14) (size 15 to 20)
#    0.000    0.750    6.250    1.500    3.500    3.500 
#    0.000    1.250    0.000    0.000    0.000    0.000 
#    0.000    0.000    0.000    0.000    0.000    0.000 
#
# Total GULP energy -198400.162910 kJ/mol
# GULP energy per Si atom -12400.010182 kJ/mol
# Density = 2.151182 g / cm^3
# Si number density = 21.560898 Si / 1000 Ang^3
#
#
#
# Elastic Constant Matrix: (Units=GPa)
#
#
# Indices 1 2 3 4 5 6 
#
# 1 98.0783 39.4331 40.2625 -17.1391 6.5132 3.5180
# 2 39.4331 99.8231 33.9512 -2.9230 -1.1168 -10.2338
# 3 40.2625 33.9512 115.9056 -5.0319 -0.5803 0.9269
# 4 -17.1391 -2.9230 -5.0319 33.9003 0.8847 -1.6824
# 5 6.5132 -1.1168 -0.5803 0.8847 36.4579 -4.1417
# 6 3.5180 -10.2338 0.9269 -1.6824 -4.1417 33.6594
#
#
#
# Elastic Compliance Matrix: (Units=1/GPa)
#
#
# Indices 1 2 3 4 5 6 
#
# 1 0.015118 -0.004938 -0.003510 0.006633 -0.003418 -0.003074
# 2 -0.004938 0.013193 -0.002244 -0.001504 0.001825 0.004739
# 3 -0.003510 -0.002244 0.010492 -0.000455 0.000675 -0.000544
# 4 0.006633 -0.001504 -0.000455 0.032719 -0.002004 0.000251
# 5 -0.003418 0.001825 0.000675 -0.002004 0.028645 0.004318
# 6 -0.003074 0.004739 -0.000544 0.000251 0.004318 0.032030
#
#
# Mechanical properties :
#
#
# Convention : Reuss Voigt Hill
#
# Bulk Modulus (GPa) = 57.39909 60.12228 58.76069
# Shear Modulus (GPa) = 31.36993 34.14756 32.75875
#
# Velocity S-wave (km/s) = 3.81851 3.98398 3.90212
# Velocity P-wave (km/s) = 6.79125 7.00773 6.90034
#
# Compressibility (1/GPa) = 0.01742188
#
# Stress axis : x y z
#
# Youngs Moduli (GPa) = 66.14446 75.79534 95.30962
#
# Poissons Ratio (x) = 0.37424 0.33453
# Poissons Ratio (y) = 0.32659 0.21383
# Poissons Ratio (z) = 0.23216 0.17005
#
# Static dielectric constant tensor:
#      x y z
#    x 3.953940 -0.164130 0.036320 
#    y -0.164130 3.957590 0.073760 
#    z 0.036320 0.073760 3.949350 
# 
# 
# High freq. dielectric constant tensor:
#      x y z
#    x 1.845930 -0.010540 0.005280 
#    y -0.010540 1.851350 0.005920 
#    z 0.005280 0.005920 1.850100 
# 
# From -- ./inp_files/258142.got.cif
#   From: 2010.06.25/outbox.cif.g09.slc.cpg/sg2_130_cif.got.tgz:258142.got - 2010.06.27 13:26:56.
