data_PCOD8032228
_publ_section_title
;
Structure prediction by ZEFSAII (Michael W. Deem and Ramdas Pophale) SiO2 
 PCOD8032228
Probable space group: P -1
;
_chemical_formula_sum "Si O2"
_cell_formula_units_Z 12
_cell_length_a 9.069716
_cell_length_b 9.887811
_cell_length_c 10.486395
_cell_angle_alpha 139.722298
_cell_angle_beta 69.745042
_cell_angle_gamma 102.259177
_cell_volume 568.293179
_symmetry_space_group_name_H-M "P -1"
_symmetry_group_IT_number 2
_symmetry_cell_setting 'triclinic'
loop_
_space_group_symop_operation_xyz
x,y,z
-x,-y,-z
loop_
_atom_site_type_symbol
_atom_site_label
_atom_site_fract_x
_atom_site_fract_y
_atom_site_fract_z
Si Si1 0.071371 0.229720 0.864072
Si Si2 0.897916 0.639428 0.535970
Si Si3 0.362663 0.651610 0.592348
Si Si4 0.107475 0.683942 0.265135
Si Si5 0.145018 0.948692 0.013655
Si Si6 0.345519 0.884034 0.502760
O O1 0.003818 0.190042 0.714521
O O2 0.919682 0.220562 0.993076
O O3 0.212716 0.052388 0.721553
O O4 0.143385 0.451120 0.027807
O O5 0.772644 0.487665 0.422877
O O6 0.000000 0.500000 0.500000
O O7 0.006893 0.705487 0.438204
O O8 0.813435 0.845216 0.775407
O O9 0.500000 0.500000 0.500000
O O10 0.386223 0.708772 0.476457
O O11 0.311035 0.867531 0.838854
O O12 0.274795 0.775567 0.319155
O O13 0.000000 0.000000 0.000000
O O14 0.500000 0.000000 0.500000
#
# Coordination Sequence:
#
# PCOD8032228 Si02
#       6
#     2   2   2   2   2   2
#     4  11  23  41  73 101 131 177 238 283 329 418
#     4  12  21  41  75  97 131 177 233 283 327 410
#     4  12  28  44  67 105 144 174 225 291 347 396
#     4  11  23  41  70 105 129 178 234 283 338 401
#     4  12  21  41  73 100 126 179 233 275 333 408
#     4  12  27  44  67  98 146 181 218 285 353 408
#
# _framework density 21.115863000000001
#
# number of rings (size 3 to 8) (size 9 to 14) (size 15 to 20)
#    0.000    0.333    8.333    0.500    2.333    1.333 
#    0.000    0.000    0.000    0.000    0.000    0.000 
#    0.000    0.000    0.000    0.000    0.000    0.000 
#
# Total GULP energy -148661.974540 kJ/mol
# GULP energy per Si atom -12388.497878 kJ/mol
# Density = 2.106780 g / cm^3
# Si number density = 21.115863 Si / 1000 Ang^3
#
#
#
# Elastic Constant Matrix: (Units=GPa)
#
#
# Indices 1 2 3 4 5 6 
#
# 1 113.3924 54.6689 47.9200 -1.6584 0.0268 -13.2702
# 2 54.6689 103.9547 25.8753 -9.8075 0.4110 -8.9660
# 3 47.9200 25.8753 108.9493 -0.3465 5.1492 -8.6724
# 4 -1.6584 -9.8075 -0.3465 33.8794 -0.4791 1.8291
# 5 0.0268 0.4110 5.1492 -0.4791 35.3202 8.9419
# 6 -13.2702 -8.9660 -8.6724 1.8291 8.9419 46.9149
#
#
#
# Elastic Compliance Matrix: (Units=1/GPa)
#
#
# Indices 1 2 3 4 5 6 
#
# 1 0.013891 -0.006133 -0.004514 -0.001243 0.000213 0.001931
# 2 -0.006133 0.013332 -0.000396 0.003517 -0.000208 0.000642
# 3 -0.004514 -0.000396 0.011441 -0.000308 -0.001954 0.001147
# 4 -0.001243 0.003517 -0.000308 0.030537 0.000687 -0.001058
# 5 0.000213 -0.000208 -0.001954 0.000687 0.030157 -0.006115
# 6 0.001931 0.000642 0.001147 -0.001058 -0.006115 0.023403
#
#
# Mechanical properties :
#
#
# Convention : Reuss Voigt Hill
#
# Bulk Modulus (GPa) = 60.32528 64.80275 62.56402
# Shear Modulus (GPa) = 33.25061 36.41172 34.83116
#
# Velocity S-wave (km/s) = 3.97252 4.15707 4.06584
# Velocity P-wave (km/s) = 7.04783 7.33467 7.19268
#
# Compressibility (1/GPa) = 0.01657680
#
# Stress axis : x y z
#
# Youngs Moduli (GPa) = 71.98868 75.00868 87.40766
#
# Poissons Ratio (x) = 0.46005 0.39452
# Poissons Ratio (y) = 0.44153 0.03466
# Poissons Ratio (z) = 0.32492 0.02974
#
# Static dielectric constant tensor:
#      x y z
#    x 3.716490 -0.117520 0.261090 
#    y -0.117520 4.043110 0.118500 
#    z 0.261090 0.118500 4.076690 
# 
# 
# High freq. dielectric constant tensor:
#      x y z
#    x 1.810370 -0.006210 0.011400 
#    y -0.006210 1.843740 0.007750 
#    z 0.011400 0.007750 1.836780 
# 
# From -- ./inp_files/158234.got.cif
#   From: 2010.06.25/outbox.cif.g09.slc.cpg/sg2_80_cif.got.tgz:158234.got - 2010.06.27 13:26:56.
