data_PCOD8032078
_publ_section_title
;
Structure prediction by ZEFSAII (Michael W. Deem and Ramdas Pophale) SiO2 
 PCOD8032078
Probable space group: P -1
;
_chemical_formula_sum "Si O2"
_cell_formula_units_Z 16
_cell_length_a 7.738616
_cell_length_b 18.102588
_cell_length_c 11.917548
_cell_angle_alpha 27.787742
_cell_angle_beta 121.255167
_cell_angle_gamma 109.169793
_cell_volume 628.594548
_symmetry_space_group_name_H-M "P -1"
_symmetry_group_IT_number 2
_symmetry_cell_setting 'triclinic'
loop_
_space_group_symop_operation_xyz
x,y,z
-x,-y,-z
loop_
_atom_site_type_symbol
_atom_site_label
_atom_site_fract_x
_atom_site_fract_y
_atom_site_fract_z
Si Si1 0.138330 0.410864 0.294022
Si Si2 0.642033 0.731003 0.907513
Si Si3 0.485688 0.996224 0.689856
Si Si4 0.914639 0.567308 0.512049
Si Si5 0.470682 0.871037 0.254700
Si Si6 0.919807 0.021982 0.318105
Si Si7 0.207111 0.671961 0.826697
Si Si8 0.146020 0.716678 0.237869
O O1 0.297469 0.269752 0.457670
O O2 0.206149 0.357625 0.515942
O O3 0.890118 0.423642 0.171448
O O4 0.168674 0.591013 0.040621
O O5 0.640886 0.859770 0.633582
O O6 0.454912 0.651733 0.923720
O O7 0.605613 0.829213 0.883738
O O8 0.862817 0.580445 0.185718
O O9 0.624935 0.056206 0.750947
O O10 0.328072 0.958074 0.781510
O O11 0.953623 0.722658 0.251395
O O12 0.769428 0.481268 0.505762
O O13 0.319311 0.775375 0.280266
O O14 0.500000 0.000000 0.000000
O O15 0.948050 0.176350 0.049543
O O16 0.000000 0.000000 0.500000
O O17 0.067863 0.865539 0.508329
#
# Coordination Sequence:
#
# PCOD8032078 Si02
#       8
#     2   2   2   2   2   2   2   2
#     4  11  25  43  69 104 140 188 230 289 350 414
#     4  11  25  44  71 107 138 189 231 289 350 410
#     4  11  24  42  70 105 140 176 238 291 343 418
#     4  11  27  48  66 102 147 187 233 285 349 426
#     4  12  25  47  71 107 139 187 237 288 355 416
#     4  12  21  45  74  99 136 183 236 294 342 416
#     4  11  23  40  70 106 137 178 238 285 350 405
#     4  11  26  47  69  99 144 188 234 288 351 420
#
# _framework density 25.453607000000002
#
# number of rings (size 3 to 8) (size 9 to 14) (size 15 to 20)
#    0.000    0.750    3.750    3.000    5.250    3.000 
#    0.000    1.875    0.000    0.000    0.000    0.000 
#    0.000    0.000    0.000    0.000    0.000    0.000 
#
# Total GULP energy -198236.771459 kJ/mol
# GULP energy per Si atom -12389.798216 kJ/mol
# Density = 2.539567 g / cm^3
# Si number density = 25.453607 Si / 1000 Ang^3
#
#
#
# Elastic Constant Matrix: (Units=GPa)
#
#
# Indices 1 2 3 4 5 6 
#
# 1 60.5160 34.3922 32.9142 -12.1457 -23.6451 7.4179
# 2 34.3922 133.8908 21.9307 10.0416 -14.0919 8.3877
# 3 32.9142 21.9307 90.0696 -3.4948 -25.0962 4.3214
# 4 -12.1457 10.0416 -3.4948 34.0501 -0.5680 -10.0968
# 5 -23.6451 -14.0919 -25.0962 -0.5680 50.9251 5.1612
# 6 7.4179 8.3877 4.3214 -10.0968 5.1612 51.2097
#
#
#
# Elastic Compliance Matrix: (Units=1/GPa)
#
#
# Indices 1 2 3 4 5 6 
#
# 1 0.029611 -0.006407 -0.006184 0.011566 0.009195 -0.001364
# 2 -0.006407 0.009653 -0.000232 -0.005672 -0.000307 -0.001721
# 3 -0.006184 -0.000232 0.014646 -0.000830 0.004365 -0.000906
# 4 0.011566 -0.005672 -0.000830 0.037002 0.003166 0.006300
# 5 0.009195 -0.000307 0.004365 0.003166 0.026381 -0.003685
# 6 -0.001364 -0.001721 -0.000906 0.006300 -0.003685 0.021697
#
#
# Mechanical properties :
#
#
# Convention : Reuss Voigt Hill
#
# Bulk Modulus (GPa) = 35.38156 51.43895 43.41026
# Shear Modulus (GPa) = 28.72578 40.25291 34.48935
#
# Velocity S-wave (km/s) = 3.36304 3.98102 3.68501
# Velocity P-wave (km/s) = 5.38615 6.43305 5.93274
#
# Compressibility (1/GPa) = 0.02826331
#
# Stress axis : x y z
#
# Youngs Moduli (GPa) = 33.77130 103.58970 68.27637
#
# Poissons Ratio (x) = 0.66373 0.42224
# Poissons Ratio (y) = 0.21638 0.01585
# Poissons Ratio (z) = 0.20885 0.02404
#
# Static dielectric constant tensor:
#      x y z
#    x 4.544470 0.220010 -0.370990 
#    y 0.220010 4.918400 -0.003260 
#    z -0.370990 -0.003260 4.583330 
# 
# 
# High freq. dielectric constant tensor:
#      x y z
#    x 2.001780 0.009890 -0.020480 
#    y 0.009890 2.028610 0.006760 
#    z -0.020480 0.006760 2.025520 
# 
# From -- ./inp_files/401718.got.cif
#   From: 2010.06.25/outbox.cif.g09.slc.cpg/sg2_201_cif.got.tgz:401718.got - 2010.06.27 13:26:56.
