data_PCOD8032413
_publ_section_title
;
Structure prediction by ZEFSAII (Michael W. Deem and Ramdas Pophale) SiO2 
 PCOD8032413
Probable space group: P -1
;
_chemical_formula_sum "Si O2"
_cell_formula_units_Z 16
_cell_length_a 8.054842
_cell_length_b 11.975247
_cell_length_c 8.098020
_cell_angle_alpha 110.459695
_cell_angle_beta 77.580848
_cell_angle_gamma 105.784516
_cell_volume 697.989559
_symmetry_space_group_name_H-M "P -1"
_symmetry_group_IT_number 2
_symmetry_cell_setting 'triclinic'
loop_
_space_group_symop_operation_xyz
x,y,z
-x,-y,-z
loop_
_atom_site_type_symbol
_atom_site_label
_atom_site_fract_x
_atom_site_fract_y
_atom_site_fract_z
Si Si1 0.868629 0.731488 0.295251
Si Si2 0.476634 0.482550 0.187117
Si Si3 0.374062 0.693438 0.495559
Si Si4 0.187608 0.533596 0.722763
Si Si5 0.973226 0.901173 0.811081
Si Si6 0.203250 0.874427 0.442158
Si Si7 0.330340 0.116670 0.374478
Si Si8 0.114882 0.340318 0.110078
O O1 0.859062 0.613117 0.353531
O O2 0.740314 0.812715 0.426927
O O3 0.059411 0.818420 0.308534
O O4 0.817634 0.694053 0.099375
O O5 0.498195 0.612678 0.342791
O O6 0.631506 0.421090 0.189894
O O7 0.282076 0.402718 0.217161
O O8 0.500000 0.500000 0.000000
O O9 0.220462 0.598077 0.570802
O O10 0.297219 0.765656 0.407821
O O11 0.478287 0.797900 0.653547
O O12 0.019596 0.573261 0.856893
O O13 0.781661 0.894573 0.773831
O O14 0.987362 0.774384 0.825098
O O15 0.116679 0.926505 0.647807
O O16 0.000000 0.000000 0.000000
O O17 0.337367 0.983869 0.378558
#
# Coordination Sequence:
#
# PCOD8032413 Si02
#       8
#     2   2   2   2   2   2   2   2
#     4  11  23  42  69  96 135 181 222 282 343 407
#     4  12  26  43  68 103 140 183 223 278 346 404
#     4  12  25  44  67 100 141 178 227 283 340 412
#     4  12  25  43  68 103 142 176 232 277 350 406
#     4  11  23  43  69  97 130 174 233 281 340 407
#     4  11  24  42  69 100 128 182 234 274 344 408
#     4  11  23  45  68  95 136 181 225 283 344 404
#     4  12  24  43  68 103 141 176 229 286 340 409
#
# _framework density 22.922982000000001
#
# number of rings (size 3 to 8) (size 9 to 14) (size 15 to 20)
#    0.000    0.500    3.750    5.625    5.250    1.000 
#    0.000    0.625    0.000    0.000    0.000    0.000 
#    0.000    0.000    0.000    0.000    0.000    0.000 
#
# Total GULP energy -198380.975795 kJ/mol
# GULP energy per Si atom -12398.810987 kJ/mol
# Density = 2.287081 g / cm^3
# Si number density = 22.922982 Si / 1000 Ang^3
#
#
#
# Elastic Constant Matrix: (Units=GPa)
#
#
# Indices 1 2 3 4 5 6 
#
# 1 89.7428 0.8137 10.4183 17.6190 9.1138 -2.0697
# 2 0.8137 130.3852 14.4853 0.6005 4.3906 2.6401
# 3 10.4183 14.4853 68.6674 12.0132 13.8109 2.2759
# 4 17.6190 0.6005 12.0132 28.3417 5.8413 7.4029
# 5 9.1138 4.3906 13.8109 5.8413 25.9703 3.8649
# 6 -2.0697 2.6401 2.2759 7.4029 3.8649 42.4903
#
#
#
# Elastic Compliance Matrix: (Units=1/GPa)
#
#
# Indices 1 2 3 4 5 6 
#
# 1 0.013107 0.000016 -0.000025 -0.008106 -0.003113 0.002334
# 2 0.000016 0.007880 -0.001673 0.000772 -0.000550 -0.000484
# 3 -0.000025 -0.001673 0.017509 -0.006002 -0.007807 0.000921
# 4 -0.008106 0.000772 -0.006002 0.045534 -0.003180 -0.007765
# 5 -0.003113 -0.000550 -0.007807 -0.003180 0.045040 -0.003242
# 6 0.002334 -0.000484 0.000921 -0.007765 -0.003242 0.025277
#
#
# Mechanical properties :
#
#
# Convention : Reuss Voigt Hill
#
# Bulk Modulus (GPa) = 28.46410 37.80333 33.13371
# Shear Modulus (GPa) = 29.51178 36.89901 33.20539
#
# Velocity S-wave (km/s) = 3.59197 4.01645 3.81013
# Velocity P-wave (km/s) = 5.44493 6.16737 5.81738
#
# Compressibility (1/GPa) = 0.03513197
#
# Stress axis : x y z
#
# Youngs Moduli (GPa) = 76.29426 126.90169 57.11210
#
# Poissons Ratio (x) = -0.00202 0.00143
# Poissons Ratio (y) = -0.00121 0.09556
# Poissons Ratio (z) = 0.00191 0.21233
#
# Static dielectric constant tensor:
#      x y z
#    x 4.597740 0.271530 0.207440 
#    y 0.271530 4.489710 0.148470 
#    z 0.207440 0.148470 3.880200 
# 
# 
# High freq. dielectric constant tensor:
#      x y z
#    x 1.908670 0.004320 0.012750 
#    y 0.004320 1.922510 0.002800 
#    z 0.012750 0.002800 1.885050 
# 
# From -- ./inp_files/189259.got.cif
#   From: 2010.06.25/outbox.cif.g09.slc.cpg/sg2_95_cif.got.tgz:189259.got - 2010.06.27 13:26:56.
