data_PCOD8032867
_publ_section_title
;
Structure prediction by ZEFSAII (Michael W. Deem and Ramdas Pophale) SiO2 
 PCOD8032867
Probable space group: P -1
;
_chemical_formula_sum "Si O2"
_cell_formula_units_Z 16
_cell_length_a 8.902314
_cell_length_b 17.808182
_cell_length_c 12.181124
_cell_angle_alpha 133.205361
_cell_angle_beta 132.456373
_cell_angle_gamma 29.939498
_cell_volume 684.536087
_symmetry_space_group_name_H-M "P -1"
_symmetry_group_IT_number 2
_symmetry_cell_setting 'triclinic'
loop_
_space_group_symop_operation_xyz
x,y,z
-x,-y,-z
loop_
_atom_site_type_symbol
_atom_site_label
_atom_site_fract_x
_atom_site_fract_y
_atom_site_fract_z
Si Si1 0.226736 0.023756 0.387472
Si Si2 0.911703 0.465703 0.180057
Si Si3 0.791697 0.266644 0.605197
Si Si4 0.298072 0.772746 0.251543
Si Si5 0.753073 0.505550 0.901392
Si Si6 0.810884 0.846436 0.939304
Si Si7 0.253043 0.527838 0.474027
Si Si8 0.051937 0.786956 0.764841
O O1 0.979560 0.152345 0.482583
O O2 0.067186 0.078337 0.242179
O O3 0.500000 0.000000 0.500000
O O4 0.356116 0.864098 0.325487
O O5 0.627727 0.590684 0.248674
O O6 0.152837 0.290679 0.170548
O O7 0.085766 0.509442 0.293214
O O8 0.750837 0.486185 0.010716
O O9 0.862545 0.170538 0.651370
O O10 0.873967 0.355562 0.753663
O O11 0.430939 0.396063 0.524371
O O12 0.096353 0.791586 0.082017
O O13 0.410094 0.668770 0.855968
O O14 0.000000 0.500000 0.000000
O O15 0.822297 0.871966 0.841463
O O16 0.500000 0.000000 0.000000
O O17 0.500000 0.500000 0.500000
O O18 0.014043 0.695246 0.584566
#
# Coordination Sequence:
#
# PCOD8032867 Si02
#       8
#     2   2   2   2   2   2   2   2
#     4  12  29  46  75 107 154 198 248 314 384 447
#     4  12  24  49  76 108 149 197 255 304 382 456
#     4  11  25  47  72 108 152 193 251 308 371 455
#     4  12  27  50  74 107 149 200 251 312 379 451
#     4  11  24  41  82 109 147 202 248 314 378 451
#     4  12  29  48  76 109 153 198 251 315 381 450
#     4  11  23  43  78 112 149 191 251 312 377 449
#     4  11  25  49  72 111 153 192 257 312 375 455
#
# _framework density 23.373493
#
# number of rings (size 3 to 8) (size 9 to 14) (size 15 to 20)
#    0.000    0.500    3.750    4.500    5.250    3.500 
#    0.000    0.000    0.000    0.000    0.000    0.000 
#    0.000    0.000    0.000    0.000    0.000    0.000 
#
# Total GULP energy -198398.227239 kJ/mol
# GULP energy per Si atom -12399.889202 kJ/mol
# Density = 2.332029 g / cm^3
# Si number density = 23.373493 Si / 1000 Ang^3
#
#
#
# Elastic Constant Matrix: (Units=GPa)
#
#
# Indices 1 2 3 4 5 6 
#
# 1 131.0435 57.9371 42.7574 7.4623 -17.1058 7.5197
# 2 57.9371 120.6723 34.8804 13.4326 -6.5169 5.2991
# 3 42.7574 34.8804 104.3277 -0.7261 -6.4202 1.8054
# 4 7.4623 13.4326 -0.7261 34.2207 -0.4394 -9.2931
# 5 -17.1058 -6.5169 -6.4202 -0.4394 56.8542 -3.7043
# 6 7.5197 5.2991 1.8054 -9.2931 -3.7043 39.6670
#
#
#
# Elastic Compliance Matrix: (Units=1/GPa)
#
#
# Indices 1 2 3 4 5 6 
#
# 1 0.010827 -0.004027 -0.002929 -0.001204 0.002362 -0.001443
# 2 -0.004027 0.011355 -0.002164 -0.004073 -0.000292 -0.001637
# 3 -0.002929 -0.002164 0.011524 0.001953 0.000239 0.000800
# 4 -0.001204 -0.004073 0.001953 0.033446 0.000206 0.008538
# 5 0.002362 -0.000292 0.000239 0.000206 0.018382 0.001345
# 6 -0.001443 -0.001637 0.000800 0.008538 0.001345 0.027792
#
#
# Mechanical properties :
#
#
# Convention : Reuss Voigt Hill
#
# Bulk Modulus (GPa) = 64.65829 69.68814 67.17321
# Shear Modulus (GPa) = 36.57097 40.84629 38.70863
#
# Velocity S-wave (km/s) = 3.95984 4.18490 4.07392
# Velocity P-wave (km/s) = 6.97354 7.29596 7.13657
#
# Compressibility (1/GPa) = 0.01546592
#
# Stress axis : x y z
#
# Youngs Moduli (GPa) = 92.36510 88.06538 86.77802
#
# Poissons Ratio (x) = 0.35460 0.25417
# Poissons Ratio (y) = 0.37191 0.18781
# Poissons Ratio (z) = 0.27054 0.19060
#
# Static dielectric constant tensor:
#      x y z
#    x 4.230160 0.249330 -0.171060 
#    y 0.249330 4.406940 -0.096380 
#    z -0.171060 -0.096380 4.557980 
# 
# 
# High freq. dielectric constant tensor:
#      x y z
#    x 1.926590 0.005700 -0.011040 
#    y 0.005700 1.922020 -0.003770 
#    z -0.011040 -0.003770 1.937690 
# 
# From -- ./inp_files/403285.got.cif
#   From: 2010.06.25/outbox.cif.g09.slc.cpg/sg2_202_cif.got.tgz:403285.got - 2010.06.27 13:26:56.
