data_PCOD8032260
_publ_section_title
;
Structure prediction by ZEFSAII (Michael W. Deem and Ramdas Pophale) SiO2 
 PCOD8032260
Probable space group: P -1
;
_chemical_formula_sum "Si O2"
_cell_formula_units_Z 14
_cell_length_a 24.082269
_cell_length_b 17.783079
_cell_length_c 8.796905
_cell_angle_alpha 29.198208
_cell_angle_beta 148.999242
_cell_angle_gamma 157.340706
_cell_volume 680.811316
_symmetry_space_group_name_H-M "P -1"
_symmetry_group_IT_number 2
_symmetry_cell_setting 'triclinic'
loop_
_space_group_symop_operation_xyz
x,y,z
-x,-y,-z
loop_
_atom_site_type_symbol
_atom_site_label
_atom_site_fract_x
_atom_site_fract_y
_atom_site_fract_z
Si Si1 0.928617 0.058499 0.123972
Si Si2 0.920005 0.325189 0.850841
Si Si3 0.351751 0.407219 0.735417
Si Si4 0.624297 0.050501 0.812616
Si Si5 0.191175 0.508756 0.371575
Si Si6 0.128654 0.377303 0.787500
Si Si7 0.435592 0.584834 0.281505
O O1 0.755016 0.848142 0.063777
O O2 0.950474 0.245983 0.920046
O O3 0.000000 0.000000 0.500000
O O4 0.013080 0.145083 0.006556
O O5 0.763198 0.119370 0.922271
O O6 0.907997 0.487590 0.477929
O O7 0.055724 0.452622 0.063348
O O8 0.272853 0.465639 0.536544
O O9 0.384888 0.496323 0.487540
O O10 0.500000 0.500000 0.000000
O O11 0.685803 0.241440 0.734901
O O12 0.500000 0.000000 0.500000
O O13 0.557597 0.842662 0.119150
O O14 0.118049 0.355419 0.618882
O O15 0.297190 0.505339 0.999580
O O16 0.500000 0.500000 0.500000
#
# Coordination Sequence:
#
# PCOD8032260 Si02
#       7
#     2   2   2   2   2   2   2
#     4  12  24  45  68  98 132 183 219 274 342 393
#     4  11  23  44  70  98 138 169 231 276 325 405
#     4  12  28  43  65 102 142 169 223 287 330 392
#     4  11  23  41  72  98 130 181 220 273 340 392
#     4  11  24  45  67 101 137 171 228 281 325 400
#     4  11  23  42  71  97 129 181 226 269 334 401
#     4  12  24  43  69 101 135 178 224 272 338 401
#
# _framework density 20.563701999999999
#
# number of rings (size 3 to 8) (size 9 to 14) (size 15 to 20)
#    0.000    0.571    5.714    3.857    2.000    3.429 
#    0.000    0.000    0.000    0.000    0.000    0.000 
#    0.000    0.000    0.000    0.000    0.000    0.000 
#
# Total GULP energy -173640.821685 kJ/mol
# GULP energy per Si atom -12402.915835 kJ/mol
# Density = 2.051690 g / cm^3
# Si number density = 20.563702 Si / 1000 Ang^3
#
#
#
# Elastic Constant Matrix: (Units=GPa)
#
#
# Indices 1 2 3 4 5 6 
#
# 1 136.4204 42.7888 56.3180 -16.8981 4.3320 0.6952
# 2 42.7888 148.8209 59.6620 4.8665 -14.1252 6.5899
# 3 56.3180 59.6620 125.2661 7.4167 9.1705 5.5638
# 4 -16.8981 4.8665 7.4167 48.1474 15.4855 -8.4019
# 5 4.3320 -14.1252 9.1705 15.4855 29.4579 -4.6576
# 6 0.6952 6.5899 5.5638 -8.4019 -4.6576 36.4898
#
#
#
# Elastic Compliance Matrix: (Units=1/GPa)
#
#
# Indices 1 2 3 4 5 6 
#
# 1 0.010476 -0.002187 -0.003784 0.006182 -0.004403 0.001634
# 2 -0.002187 0.009947 -0.004082 -0.003987 0.008301 -0.000991
# 3 -0.003784 -0.004082 0.012155 -0.001648 -0.004637 -0.002015
# 4 0.006182 -0.003987 -0.001648 0.030122 -0.017259 0.005586
# 5 -0.004403 0.008301 -0.004637 -0.017259 0.049347 0.001616
# 6 0.001634 -0.000991 -0.002015 0.005586 0.001616 0.029353
#
#
# Mechanical properties :
#
#
# Convention : Reuss Voigt Hill
#
# Bulk Modulus (GPa) = 80.18596 80.89388 80.53992
# Shear Modulus (GPa) = 30.18187 39.60162 34.89174
#
# Velocity S-wave (km/s) = 3.83525 4.39316 4.12365
# Velocity P-wave (km/s) = 7.66099 8.07197 7.86916
#
# Compressibility (1/GPa) = 0.01247101
#
# Stress axis : x y z
#
# Youngs Moduli (GPa) = 95.45844 100.53384 82.27029
#
# Poissons Ratio (x) = 0.21989 0.31134
# Poissons Ratio (y) = 0.20879 0.33581
# Poissons Ratio (z) = 0.36124 0.41036
#
# Static dielectric constant tensor:
#      x y z
#    x 3.774540 0.064490 -0.099090 
#    y 0.064490 4.097540 -0.032590 
#    z -0.099090 -0.032590 3.200900 
# 
# 
# High freq. dielectric constant tensor:
#      x y z
#    x 1.812750 0.008760 0.003250 
#    y 0.008760 1.815360 0.003680 
#    z 0.003250 0.003680 1.816340 
# 
# From -- ./inp_files/155489.got.cif
#   From: 2010.06.25/outbox.cif.g09.slc.cpg/sg2_78_cif.got.tgz:155489.got - 2010.06.27 13:26:56.
