data_PCOD8032348
_publ_section_title
;
Structure prediction by ZEFSAII (Michael W. Deem and Ramdas Pophale) SiO2 
 PCOD8032348
Probable space group: P -1
;
_chemical_formula_sum "Si O2"
_cell_formula_units_Z 14
_cell_length_a 18.560873
_cell_length_b 6.503829
_cell_length_c 24.924279
_cell_angle_alpha 139.109200
_cell_angle_beta 19.587377
_cell_angle_gamma 130.589318
_cell_volume 633.770556
_symmetry_space_group_name_H-M "P -1"
_symmetry_group_IT_number 2
_symmetry_cell_setting 'triclinic'
loop_
_space_group_symop_operation_xyz
x,y,z
-x,-y,-z
loop_
_atom_site_type_symbol
_atom_site_label
_atom_site_fract_x
_atom_site_fract_y
_atom_site_fract_z
Si Si1 0.008457 0.850337 0.735932
Si Si2 0.946676 0.187408 0.950935
Si Si3 0.843508 0.204596 0.603414
Si Si4 0.386148 0.794386 0.601035
Si Si5 0.391823 0.443015 0.009424
Si Si6 0.490327 0.583470 0.368697
Si Si7 0.896323 0.923645 0.710236
O O1 0.980590 0.993501 0.723710
O O2 0.246573 0.566912 0.516117
O O3 0.008239 0.143554 0.835447
O O4 0.815826 0.697143 0.861362
O O5 0.679636 0.238136 0.155808
O O6 0.112924 0.873091 0.802717
O O7 0.000000 0.500000 0.000000
O O8 0.588800 0.188862 0.787361
O O9 0.839487 0.581908 0.685761
O O10 0.921682 0.075425 0.463659
O O11 0.000000 0.000000 0.500000
O O12 0.500000 0.500000 0.500000
O O13 0.502072 0.670703 0.439278
O O14 0.447124 0.113455 0.644919
O O15 0.500000 0.500000 0.000000
O O16 0.320726 0.781789 0.093184
#
# Coordination Sequence:
#
# PCOD8032348 Si02
#       7
#     2   2   2   2   2   2   2
#     4  11  24  39  65  97 134 171 224 278 329 391
#     4   9  20  41  65  91 129 173 212 269 327 381
#     4  11  23  42  67  94 126 170 219 271 335 397
#     4   9  18  36  65  91 122 167 214 267 331 389
#     4  12  24  43  65  95 136 175 222 277 332 398
#     4   9  20  39  58  89 129 166 214 272 321 387
#     4  11  24  41  67  95 128 175 223 274 337 392
#
# _framework density 22.090012000000002
#
# number of rings (size 3 to 8) (size 9 to 14) (size 15 to 20)
#    0.000    1.714    2.857    1.286    0.000    6.286 
#    0.000    2.857    0.000    1.714    0.000    0.000 
#    0.000    0.000    0.000    0.000    0.000    0.000 
#
# Total GULP energy -173464.091767 kJ/mol
# GULP energy per Si atom -12390.292269 kJ/mol
# Density = 2.203973 g / cm^3
# Si number density = 22.090012 Si / 1000 Ang^3
#
#
#
# Elastic Constant Matrix: (Units=GPa)
#
#
# Indices 1 2 3 4 5 6 
#
# 1 146.5014 44.3784 73.0450 7.7951 -10.0984 -18.4111
# 2 44.3784 76.5667 50.5021 2.1770 -16.6482 -24.3216
# 3 73.0450 50.5021 227.2621 -1.9269 -20.4416 -22.1655
# 4 7.7951 2.1770 -1.9269 38.9781 -1.3238 -8.3599
# 5 -10.0984 -16.6482 -20.4416 -1.3238 36.9541 4.2555
# 6 -18.4111 -24.3216 -22.1655 -8.3599 4.2555 28.5918
#
#
#
# Elastic Compliance Matrix: (Units=1/GPa)
#
#
# Indices 1 2 3 4 5 6 
#
# 1 0.009147 -0.003770 -0.002095 -0.001596 -0.000492 0.000665
# 2 -0.003770 0.022577 -0.001696 0.002922 0.006541 0.015344
# 3 -0.002095 -0.001696 0.005791 0.001246 0.001703 0.001808
# 4 -0.001596 0.002922 0.001246 0.028162 0.001374 0.010453
# 5 -0.000492 0.006541 0.001703 0.001374 0.030586 0.002417
# 6 0.000665 0.015344 0.001808 0.010453 0.002417 0.052554
#
#
# Mechanical properties :
#
#
# Convention : Reuss Voigt Hill
#
# Bulk Modulus (GPa) = 44.65608 87.35345 66.00476
# Shear Modulus (GPa) = 29.17102 39.73179 34.45141
#
# Velocity S-wave (km/s) = 3.63788 4.24563 3.95345
# Velocity P-wave (km/s) = 6.15670 7.97897 7.12632
#
# Compressibility (1/GPa) = 0.02239337
#
# Stress axis : x y z
#
# Youngs Moduli (GPa) = 109.32345 44.29232 172.69576
#
# Poissons Ratio (x) = 0.16698 0.36182
# Poissons Ratio (y) = 0.41214 0.29285
# Poissons Ratio (z) = 0.22904 0.07511
#
# Static dielectric constant tensor:
#      x y z
#    x 4.024650 -0.250460 0.043580 
#    y -0.250460 3.332610 -0.065940 
#    z 0.043580 -0.065940 4.958500 
# 
# 
# High freq. dielectric constant tensor:
#      x y z
#    x 1.867260 -0.001460 -0.003660 
#    y -0.001460 1.836920 0.004180 
#    z -0.003660 0.004180 1.899020 
# 
# From -- ./inp_files/612722.got.cif
#   From: 2010.06.25/outbox.cif.g09.slc.cpg/sg2_307_cif.got.tgz:612722.got - 2010.06.27 13:26:56.
