data_PCOD8032642
_publ_section_title
;
Structure prediction by ZEFSAII (Michael W. Deem and Ramdas Pophale) SiO2 
 PCOD8032642
Probable space group: P -1
;
_chemical_formula_sum "Si O2"
_cell_formula_units_Z 16
_cell_length_a 13.838786
_cell_length_b 17.058499
_cell_length_c 5.501184
_cell_angle_alpha 83.871027
_cell_angle_beta 75.259914
_cell_angle_gamma 33.033079
_cell_volume 670.504459
_symmetry_space_group_name_H-M "P -1"
_symmetry_group_IT_number 2
_symmetry_cell_setting 'triclinic'
loop_
_space_group_symop_operation_xyz
x,y,z
-x,-y,-z
loop_
_atom_site_type_symbol
_atom_site_label
_atom_site_fract_x
_atom_site_fract_y
_atom_site_fract_z
Si Si1 0.445714 0.413114 0.924218
Si Si2 0.292648 0.633160 0.330294
Si Si3 0.793009 0.853602 0.280428
Si Si4 0.901403 0.358123 0.227693
Si Si5 0.483737 0.096712 0.089328
Si Si6 0.908926 0.641056 0.588062
Si Si7 0.717630 0.089230 0.879878
Si Si8 0.916304 0.926818 0.323865
O O1 0.553278 0.403919 0.678943
O O2 0.257300 0.504305 0.898002
O O3 0.575485 0.254362 0.962418
O O4 0.393789 0.494267 0.174749
O O5 0.176355 0.673175 0.612024
O O6 0.141179 0.782659 0.213255
O O7 0.819338 0.746429 0.382145
O O8 0.874072 0.861455 0.422307
O O9 0.577287 0.021051 0.321095
O O10 0.905250 0.791101 0.977083
O O11 0.935357 0.406639 0.377761
O O12 0.266910 0.264440 0.163741
O O13 0.599127 0.089734 0.891483
O O14 0.500000 0.000000 0.000000
O O15 0.000000 0.500000 0.500000
O O16 0.839832 0.024943 0.578406
O O17 0.833714 0.007584 0.086969
#
# Coordination Sequence:
#
# PCOD8032642 Si02
#       8
#     2   2   2   2   2   2   2   2
#     4  11  27  45  71 109 142 193 242 309 373 441
#     4  11  24  46  77 102 141 192 253 295 373 454
#     4  11  23  44  71  97 139 193 240 299 362 443
#     4  12  23  45  73  99 147 189 244 300 370 439
#     4  11  23  43  69 100 135 193 248 288 363 441
#     4  12  27  41  69 107 141 186 242 305 365 432
#     4  11  28  46  72 109 152 190 242 319 365 430
#     4  11  23  47  77 103 145 197 244 299 371 435
#
# _framework density 23.862632000000001
#
# number of rings (size 3 to 8) (size 9 to 14) (size 15 to 20)
#    0.000    0.750    3.750    3.000    5.250    4.500 
#    0.000    0.000    0.000    0.000    0.000    0.000 
#    0.000    0.000    0.000    0.000    0.000    0.000 
#
# Total GULP energy -198277.359272 kJ/mol
# GULP energy per Si atom -12392.334954 kJ/mol
# Density = 2.380832 g / cm^3
# Si number density = 23.862632 Si / 1000 Ang^3
#
#
#
# Elastic Constant Matrix: (Units=GPa)
#
#
# Indices 1 2 3 4 5 6 
#
# 1 90.1592 34.0295 10.0448 8.3275 3.0001 -10.8784
# 2 34.0295 123.0918 16.4073 25.8137 16.6181 14.6833
# 3 10.0448 16.4073 87.7972 8.8536 6.8560 7.0028
# 4 8.3275 25.8137 8.8536 33.6207 2.5016 -2.4557
# 5 3.0001 16.6181 6.8560 2.5016 25.6990 -0.6825
# 6 -10.8784 14.6833 7.0028 -2.4557 -0.6825 30.5195
#
#
#
# Elastic Compliance Matrix: (Units=1/GPa)
#
#
# Indices 1 2 3 4 5 6 
#
# 1 0.013998 -0.005202 -0.001580 0.001363 0.002232 0.008014
# 2 -0.005202 0.013643 0.000341 -0.009396 -0.007641 -0.009423
# 3 -0.001580 0.000341 0.012383 -0.003183 -0.003134 -0.003895
# 4 0.001363 -0.009396 -0.003183 0.037859 0.003316 0.008857
# 5 0.002232 -0.007641 -0.003134 0.003316 0.044277 0.006448
# 6 0.008014 -0.009423 -0.003895 0.008857 0.006448 0.041907
#
#
# Mechanical properties :
#
#
# Convention : Reuss Voigt Hill
#
# Bulk Modulus (GPa) = 36.84320 46.89016 41.86668
# Shear Modulus (GPa) = 26.88227 34.00562 30.44395
#
# Velocity S-wave (km/s) = 3.36004 3.77909 3.57571
# Velocity P-wave (km/s) = 5.52507 6.22372 5.88477
#
# Compressibility (1/GPa) = 0.02714205
#
# Stress axis : x y z
#
# Youngs Moduli (GPa) = 71.43895 73.29838 80.75444
#
# Poissons Ratio (x) = 0.38132 0.12761
# Poissons Ratio (y) = 0.37164 -0.02758
# Poissons Ratio (z) = 0.11289 -0.02503
#
# Static dielectric constant tensor:
#      x y z
#    x 4.564130 -0.361490 0.033540 
#    y -0.361490 4.565550 -0.048170 
#    z 0.033540 -0.048170 3.901550 
# 
# 
# High freq. dielectric constant tensor:
#      x y z
#    x 1.952780 -0.015270 -0.005310 
#    y -0.015270 1.958840 0.006330 
#    z -0.005310 0.006330 1.926980 
# 
# From -- ./inp_files/40020.got.cif
#   From: 2010.06.25/outbox.cif.g09.slc.cpg/sg2_21_cif.got.tgz:40020.got - 2010.06.27 13:26:56.
