data_PCOD8032282
_publ_section_title
;
Structure prediction by ZEFSAII (Michael W. Deem and Ramdas Pophale) SiO2 
 PCOD8032282
Probable space group: P -1
;
_chemical_formula_sum "Si O2"
_cell_formula_units_Z 16
_cell_length_a 5.504756
_cell_length_b 9.573445
_cell_length_c 14.149360
_cell_angle_alpha 102.355104
_cell_angle_beta 72.269096
_cell_angle_gamma 73.342113
_cell_volume 642.283244
_symmetry_space_group_name_H-M "P -1"
_symmetry_group_IT_number 2
_symmetry_cell_setting 'triclinic'
loop_
_space_group_symop_operation_xyz
x,y,z
-x,-y,-z
loop_
_atom_site_type_symbol
_atom_site_label
_atom_site_fract_x
_atom_site_fract_y
_atom_site_fract_z
Si Si1 0.814450 0.673213 0.076156
Si Si2 0.166409 0.163707 0.256489
Si Si3 0.780408 0.765396 0.398590
Si Si4 0.329871 0.530147 0.618592
Si Si5 0.216349 0.671193 0.190867
Si Si6 0.048173 0.141885 0.060616
Si Si7 0.522190 0.624099 0.786088
Si Si8 0.256694 0.005035 0.413425
O O1 0.506523 0.690964 0.146061
O O2 0.993469 0.722275 0.140227
O O3 0.754108 0.799895 0.017775
O O4 0.000000 0.500000 0.000000
O O5 0.177111 0.088422 0.141280
O O6 0.390365 0.241010 0.244130
O O7 0.223030 0.030599 0.308568
O O8 0.871103 0.292387 0.332553
O O9 0.831993 0.584876 0.374326
O O10 0.708995 0.844707 0.521366
O O11 0.055568 0.772030 0.316413
O O12 0.520254 0.849658 0.373931
O O13 0.500000 0.500000 0.500000
O O14 0.522010 0.507976 0.684243
O O15 0.280548 0.487845 0.174190
O O16 0.774254 0.294736 0.120523
O O17 0.000000 0.000000 0.000000
O O18 0.000000 0.000000 0.500000
#
# Coordination Sequence:
#
# PCOD8032282 Si02
#       8
#     2   2   2   2   2   2   2   2
#     4  12  26  48  81 112 153 206 264 333 396 464
#     4  11  25  47  77 107 151 202 256 325 389 478
#     4  11  26  46  72 115 155 204 259 322 391 478
#     4  11  23  41  75 111 150 201 259 317 390 467
#     4  12  26  46  82 114 151 202 269 330 388 468
#     4  11  28  51  75 111 155 205 261 329 405 472
#     4  11  24  45  74 112 152 194 265 328 386 471
#     4  11  27  47  74 109 162 204 255 315 401 483
#
# _framework density 24.911128999999999
#
# number of rings (size 3 to 8) (size 9 to 14) (size 15 to 20)
#    0.000    0.750    2.500    3.375    7.000    6.500 
#    0.000    0.000    0.000    0.000    0.000    0.000 
#    0.000    0.000    0.000    0.000    0.000    0.000 
#
# Total GULP energy -198396.618908 kJ/mol
# GULP energy per Si atom -12399.788682 kJ/mol
# Density = 2.485443 g / cm^3
# Si number density = 24.911129 Si / 1000 Ang^3
#
#
#
# Elastic Constant Matrix: (Units=GPa)
#
#
# Indices 1 2 3 4 5 6 
#
# 1 124.0584 22.0036 49.2756 -18.8682 -17.2145 1.8311
# 2 22.0036 96.1877 42.5073 -27.1750 0.6672 4.2165
# 3 49.2756 42.5073 141.9934 -19.6616 -3.8325 0.3364
# 4 -18.8682 -27.1750 -19.6616 47.0423 4.0507 3.1389
# 5 -17.2145 0.6672 -3.8325 4.0507 50.9911 -5.7694
# 6 1.8311 4.2165 0.3364 3.1389 -5.7694 41.6551
#
#
#
# Elastic Compliance Matrix: (Units=1/GPa)
#
#
# Indices 1 2 3 4 5 6 
#
# 1 0.010082 -0.000333 -0.002992 0.002354 0.002979 -0.000150
# 2 -0.000333 0.013882 -0.003125 0.006830 -0.001305 -0.002061
# 3 -0.002992 -0.003125 0.009120 0.000816 -0.000318 0.000269
# 4 0.002354 0.006830 0.000816 0.026840 -0.001712 -0.003061
# 5 0.002979 -0.001305 -0.000318 -0.001712 0.021092 0.003054
# 6 -0.000150 -0.002061 0.000269 -0.003061 0.003054 0.024873
#
#
# Mechanical properties :
#
#
# Convention : Reuss Voigt Hill
#
# Bulk Modulus (GPa) = 49.54354 65.53472 57.53913
# Shear Modulus (GPa) = 39.83503 44.50124 42.16814
#
# Velocity S-wave (km/s) = 4.00320 4.23117 4.11876
# Velocity P-wave (km/s) = 6.42641 7.08766 6.76512
#
# Compressibility (1/GPa) = 0.02018427
#
# Stress axis : x y z
#
# Youngs Moduli (GPa) = 99.18705 72.03377 109.64624
#
# Poissons Ratio (x) = 0.02398 0.32809
# Poissons Ratio (y) = 0.03302 0.34264
# Poissons Ratio (z) = 0.29680 0.22510
#
# Static dielectric constant tensor:
#      x y z
#    x 4.493550 0.042380 0.079610 
#    y 0.042380 4.479250 0.026330 
#    z 0.079610 0.026330 4.940530 
# 
# 
# High freq. dielectric constant tensor:
#      x y z
#    x 1.994990 0.000040 -0.005230 
#    y 0.000040 1.992000 0.001750 
#    z -0.005230 0.001750 2.008200 
# 
# From -- ./inp_files/480617.got.cif
#   From: 2010.06.25/outbox.cif.g09.slc.cpg/sg2_241_cif.got.tgz:480617.got - 2010.06.27 13:26:56.
