data_PCOD8032090
_publ_section_title
;
Structure prediction by ZEFSAII (Michael W. Deem and Ramdas Pophale) SiO2 
 PCOD8032090
Probable space group: P -1
;
_chemical_formula_sum "Si O2"
_cell_formula_units_Z 16
_cell_length_a 8.501410
_cell_length_b 12.763850
_cell_length_c 9.260982
_cell_angle_alpha 54.096398
_cell_angle_beta 76.159284
_cell_angle_gamma 102.040716
_cell_volume 708.329364
_symmetry_space_group_name_H-M "P -1"
_symmetry_group_IT_number 2
_symmetry_cell_setting 'triclinic'
loop_
_space_group_symop_operation_xyz
x,y,z
-x,-y,-z
loop_
_atom_site_type_symbol
_atom_site_label
_atom_site_fract_x
_atom_site_fract_y
_atom_site_fract_z
Si Si1 0.702105 0.932861 0.157005
Si Si2 0.819674 0.723040 0.448579
Si Si3 0.514602 0.222659 0.944491
Si Si4 0.895619 0.272050 0.821550
Si Si5 0.559401 0.022109 0.632120
Si Si6 0.068748 0.400461 0.978981
Si Si7 0.465649 0.485403 0.847717
Si Si8 0.025394 0.857941 0.579906
O O1 0.813820 0.847402 0.248828
O O2 0.620702 0.887484 0.052338
O O3 0.534916 0.890680 0.338269
O O4 0.835775 0.102022 0.993989
O O5 0.620977 0.598996 0.621320
O O6 0.947253 0.665212 0.384693
O O7 0.897138 0.780335 0.540150
O O8 0.723943 0.296907 0.785087
O O9 0.438291 0.331701 0.921022
O O10 0.514964 0.136197 0.157197
O O11 0.971853 0.362661 0.876981
O O12 0.772526 0.107476 0.535353
O O13 0.500000 0.000000 0.500000
O O14 0.032484 0.250292 0.185292
O O15 0.283564 0.497481 0.839152
O O16 0.000000 0.500000 0.000000
O O17 0.500000 0.500000 0.000000
O O18 0.000000 0.000000 0.500000
#
# Coordination Sequence:
#
# PCOD8032090 Si02
#       8
#     2   2   2   2   2   2   2   2
#     4  11  24  44  71 106 141 181 234 296 354 415
#     4  12  26  44  72 102 140 191 234 292 351 429
#     4  11  24  46  73 100 147 184 228 301 351 418
#     4  11  24  46  71 106 141 179 241 288 357 416
#     4  11  23  40  72 105 136 181 235 291 354 417
#     4  12  27  47  72 102 145 189 233 300 354 426
#     4  12  27  48  68  99 145 188 239 288 358 423
#     4  12  24  44  70 105 138 184 243 293 354 417
#
# _framework density 22.588360999999999
#
# number of rings (size 3 to 8) (size 9 to 14) (size 15 to 20)
#    0.000    0.500    1.250    8.625    3.500    2.500 
#    0.000    0.000    0.000    0.000    0.000    0.000 
#    0.000    0.000    0.000    0.000    0.000    0.000 
#
# Total GULP energy -198460.727427 kJ/mol
# GULP energy per Si atom -12403.795464 kJ/mol
# Density = 2.253695 g / cm^3
# Si number density = 22.588361 Si / 1000 Ang^3
#
#
#
# Elastic Constant Matrix: (Units=GPa)
#
#
# Indices 1 2 3 4 5 6 
#
# 1 87.0553 9.7522 2.1581 0.4724 -29.2033 -5.0793
# 2 9.7522 120.8557 9.9253 15.3468 -9.0774 -3.6271
# 3 2.1581 9.9253 71.1492 5.6371 -25.1138 -11.0121
# 4 0.4724 15.3468 5.6371 30.3282 2.1543 -3.5189
# 5 -29.2033 -9.0774 -25.1138 2.1543 48.3662 -0.3521
# 6 -5.0793 -3.6271 -11.0121 -3.5189 -0.3521 35.3937
#
#
#
# Elastic Compliance Matrix: (Units=1/GPa)
#
#
# Indices 1 2 3 4 5 6 
#
# 1 0.015548 -0.000476 0.004345 -0.001226 0.011635 0.003528
# 2 -0.000476 0.009038 -0.000325 -0.004572 0.001446 0.000317
# 3 0.004345 -0.000325 0.019910 -0.003777 0.013116 0.006540
# 4 -0.001226 -0.004572 -0.003777 0.036580 -0.005176 0.001766
# 5 0.011635 0.001446 0.013116 -0.005176 0.035055 0.005733
# 6 0.003528 0.000317 0.006540 0.001766 0.005733 0.031060
#
#
# Mechanical properties :
#
#
# Convention : Reuss Voigt Hill
#
# Bulk Modulus (GPa) = 19.38591 35.85906 27.62249
# Shear Modulus (GPa) = 31.78718 39.96592 35.87655
#
# Velocity S-wave (km/s) = 3.75539 4.21089 3.98964
# Velocity P-wave (km/s) = 5.23496 6.28900 5.78603
#
# Compressibility (1/GPa) = 0.05158385
#
# Stress axis : x y z
#
# Youngs Moduli (GPa) = 64.31683 110.64319 50.22720
#
# Poissons Ratio (x) = 0.05266 -0.21822
# Poissons Ratio (y) = 0.03061 0.01631
# Poissons Ratio (z) = -0.27944 0.03592
#
# Static dielectric constant tensor:
#      x y z
#    x 4.388500 -0.025270 -0.239910 
#    y -0.025270 3.830010 0.229560 
#    z -0.239910 0.229560 4.048130 
# 
# 
# High freq. dielectric constant tensor:
#      x y z
#    x 1.911850 0.001630 -0.014310 
#    y 0.001630 1.898110 0.008400 
#    z -0.014310 0.008400 1.891700 
# 
# From -- ./inp_files/185813.got.cif
#   From: 2010.06.25/outbox.cif.g09.slc.cpg/sg2_93_cif.got.tgz:185813.got - 2010.06.27 13:26:56.
