data_PCOD8032846
_publ_section_title
;
Structure prediction by ZEFSAII (Michael W. Deem and Ramdas Pophale) SiO2 
 PCOD8032846
Probable space group: P -1
;
_chemical_formula_sum "Si O2"
_cell_formula_units_Z 12
_cell_length_a 6.567066
_cell_length_b 14.495535
_cell_length_c 8.758232
_cell_angle_alpha 62.678737
_cell_angle_beta 77.352070
_cell_angle_gamma 120.255413
_cell_volume 518.151922
_symmetry_space_group_name_H-M "P -1"
_symmetry_group_IT_number 2
_symmetry_cell_setting 'triclinic'
loop_
_space_group_symop_operation_xyz
x,y,z
-x,-y,-z
loop_
_atom_site_type_symbol
_atom_site_label
_atom_site_fract_x
_atom_site_fract_y
_atom_site_fract_z
Si Si1 0.268718 0.332077 0.416753
Si Si2 0.286785 0.550751 0.338174
Si Si3 0.695814 0.413592 0.038499
Si Si4 0.635682 0.115684 0.597041
Si Si5 0.705741 0.840777 0.218651
Si Si6 0.661220 0.909761 0.639735
O O1 0.319526 0.438754 0.458374
O O2 0.521540 0.424414 0.178176
O O3 0.256440 0.215085 0.591159
O O4 0.978972 0.253069 0.426351
O O5 0.571609 0.717139 0.206591
O O6 0.000000 0.500000 0.500000
O O7 0.246817 0.519611 0.187276
O O8 0.516669 0.248912 0.152495
O O9 0.000000 0.500000 0.000000
O O10 0.516019 0.139869 0.740793
O O11 0.460028 0.096017 0.497226
O O12 0.595663 0.977380 0.723498
O O13 0.000000 0.000000 0.000000
O O14 0.000000 0.000000 0.500000
#
# Coordination Sequence:
#
# PCOD8032846 Si02
#       6
#     2   2   2   2   2   2
#     4  12  25  51  76 103 153 198 246 310 362 446
#     4  12  27  47  74 107 151 196 244 302 380 441
#     4  12  26  46  78 109 144 195 257 301 365 441
#     4  11  23  43  76 103 150 188 248 296 372 425
#     4  12  28  46  75 111 149 192 247 307 375 435
#     4  11  23  43  75 108 143 191 247 310 360 427
#
# _framework density 23.159231999999999
#
# number of rings (size 3 to 8) (size 9 to 14) (size 15 to 20)
#    0.000    0.333    5.000    3.000    4.667    3.333 
#    0.000    0.000    0.000    0.000    0.000    0.000 
#    0.000    0.000    0.000    0.000    0.000    0.000 
#
# Total GULP energy -148705.311257 kJ/mol
# GULP energy per Si atom -12392.109271 kJ/mol
# Density = 2.310652 g / cm^3
# Si number density = 23.159232 Si / 1000 Ang^3
#
#
#
# Elastic Constant Matrix: (Units=GPa)
#
#
# Indices 1 2 3 4 5 6 
#
# 1 140.6087 71.0613 46.0362 -1.3857 -34.1443 -10.4340
# 2 71.0613 154.2823 36.2394 -19.3016 -16.3822 -15.9702
# 3 46.0362 36.2394 108.7864 -2.7877 -23.7453 -1.9198
# 4 -1.3857 -19.3016 -2.7877 46.7238 1.0062 -0.4810
# 5 -34.1443 -16.3822 -23.7453 1.0062 38.9289 -2.6663
# 6 -10.4340 -15.9702 -1.9198 -0.4810 -2.6663 71.1297
#
#
#
# Elastic Compliance Matrix: (Units=1/GPa)
#
#
# Indices 1 2 3 4 5 6 
#
# 1 0.011784 -0.004286 -0.001959 -0.001688 0.007448 0.000981
# 2 -0.004286 0.009301 -0.001305 0.003666 -0.000639 0.001425
# 3 -0.001959 -0.001305 0.011487 -0.000015 0.004733 -0.000093
# 4 -0.001688 0.003666 -0.000015 0.022884 -0.000490 0.000711
# 5 0.007448 -0.000639 0.004733 -0.000490 0.035015 0.002386
# 6 0.000981 0.001425 -0.000093 0.000711 0.002386 0.014614
#
#
# Mechanical properties :
#
#
# Convention : Reuss Voigt Hill
#
# Bulk Modulus (GPa) = 57.23572 78.92792 68.08182
# Shear Modulus (GPa) = 39.67941 48.04586 43.86263
#
# Velocity S-wave (km/s) = 4.14373 4.55971 4.35669
# Velocity P-wave (km/s) = 6.90374 7.86611 7.40059
#
# Compressibility (1/GPa) = 0.01747161
#
# Stress axis : x y z
#
# Youngs Moduli (GPa) = 84.85723 107.51924 87.05340
#
# Poissons Ratio (x) = 0.46088 0.17056
# Poissons Ratio (y) = 0.36374 0.11357
# Poissons Ratio (z) = 0.16626 0.14027
#
# Static dielectric constant tensor:
#      x y z
#    x 4.600600 -0.402880 0.011020 
#    y -0.402880 4.745230 -0.254260 
#    z 0.011020 -0.254260 4.102730 
# 
# 
# High freq. dielectric constant tensor:
#      x y z
#    x 1.936440 -0.012650 -0.002620 
#    y -0.012650 1.944720 -0.015270 
#    z -0.002620 -0.015270 1.893420 
# 
# From -- ./inp_files/26014.got.cif
#   From: 2010.06.25/outbox.cif.g09.slc.cpg/sg2_14_cif.got.tgz:26014.got - 2010.06.27 13:26:56.
