data_PCOD8033882
_publ_section_title
;
Structure prediction by ZEFSAII (Michael W. Deem and Ramdas Pophale) SiO2 
 PCOD8033882
Probable space group: P -1
;
_chemical_formula_sum "Si O2"
_cell_formula_units_Z 14
_cell_length_a 9.258251
_cell_length_b 12.579698
_cell_length_c 15.889181
_cell_angle_alpha 44.748571
_cell_angle_beta 123.002914
_cell_angle_gamma 149.741718
_cell_volume 644.018178
_symmetry_space_group_name_H-M "P -1"
_symmetry_group_IT_number 2
_symmetry_cell_setting 'triclinic'
loop_
_space_group_symop_operation_xyz
x,y,z
-x,-y,-z
loop_
_atom_site_type_symbol
_atom_site_label
_atom_site_fract_x
_atom_site_fract_y
_atom_site_fract_z
Si Si1 0.846960 0.723902 0.487274
Si Si2 0.732593 0.390370 0.515704
Si Si3 0.554137 0.089635 0.214883
Si Si4 0.156914 0.417643 0.264131
Si Si5 0.623431 0.696514 0.693856
Si Si6 0.623808 0.444352 0.120548
Si Si7 0.708613 0.167930 0.893520
O O1 0.500000 0.500000 0.500000
O O2 0.899951 0.620196 0.502881
O O3 0.949655 0.769505 0.590276
O O4 0.045090 0.003612 0.359501
O O5 0.543065 0.336604 0.414623
O O6 0.000000 0.500000 0.500000
O O7 0.540226 0.130986 0.646983
O O8 0.468401 0.178905 0.190268
O O9 0.900933 0.316232 0.187149
O O10 0.417392 0.012266 0.123730
O O11 0.356460 0.466167 0.234114
O O12 0.313336 0.667014 0.222018
O O13 0.440452 0.581356 0.786309
O O14 0.967167 0.670399 0.082428
O O15 0.500000 0.500000 0.000000
O O16 0.500000 0.000000 0.000000
#
# Coordination Sequence:
#
# PCOD8033882 Si02
#       7
#     2   2   2   2   2   2   2
#     4  12  23  41  66 106 140 180 229 275 348 416
#     4  12  24  40  69 101 143 182 225 284 352 414
#     4  11  24  46  70  99 140 179 229 285 346 413
#     4  11  24  42  71 102 137 180 230 285 346 412
#     4  12  26  43  69 106 144 182 228 290 348 410
#     4  11  29  49  69 102 140 183 234 289 349 410
#     4  11  27  48  74 100 134 187 239 283 345 418
#
# _framework density 21.738515
#
# number of rings (size 3 to 8) (size 9 to 14) (size 15 to 20)
#    0.000    0.571    4.286    3.000    6.000    2.857 
#    2.571    0.000    0.000    0.000    0.000    0.000 
#    0.000    0.000    0.000    0.000    0.000    0.000 
#
# Total GULP energy -173536.902587 kJ/mol
# GULP energy per Si atom -12395.493042 kJ/mol
# Density = 2.168904 g / cm^3
# Si number density = 21.738515 Si / 1000 Ang^3
#
#
#
# Elastic Constant Matrix: (Units=GPa)
#
#
# Indices 1 2 3 4 5 6 
#
# 1 175.0119 49.4221 40.5239 11.5247 -6.3664 -6.8416
# 2 49.4221 95.6227 25.4177 13.5673 -2.9509 -0.8740
# 3 40.5239 25.4177 94.4923 14.5739 -7.4004 1.1237
# 4 11.5247 13.5673 14.5739 26.4368 4.5502 -6.4365
# 5 -6.3664 -2.9509 -7.4004 4.5502 40.4191 0.6200
# 6 -6.8416 -0.8740 1.1237 -6.4365 0.6200 43.5234
#
#
#
# Elastic Compliance Matrix: (Units=1/GPa)
#
#
# Indices 1 2 3 4 5 6 
#
# 1 0.007160 -0.003070 -0.002194 -0.000158 0.000503 0.001090
# 2 -0.003070 0.013136 -0.001370 -0.005015 0.000804 -0.000936
# 3 -0.002194 -0.001370 0.013120 -0.006455 0.002709 -0.001704
# 4 -0.000158 -0.005015 -0.006455 0.046950 -0.006967 0.007084
# 5 0.000503 0.000804 0.002709 -0.006967 0.026180 -0.001378
# 6 0.001090 -0.000936 -0.001704 0.007084 -0.001378 0.024240
#
#
# Mechanical properties :
#
#
# Convention : Reuss Voigt Hill
#
# Bulk Modulus (GPa) = 49.62871 66.20603 57.91737
# Shear Modulus (GPa) = 33.16305 38.72673 35.94489
#
# Velocity S-wave (km/s) = 3.91006 4.22534 4.07075
# Velocity P-wave (km/s) = 6.57755 7.37064 6.98536
#
# Compressibility (1/GPa) = 0.02014963
#
# Stress axis : x y z
#
# Youngs Moduli (GPa) = 139.66331 76.12650 76.21768
#
# Poissons Ratio (x) = 0.23367 0.16724
# Poissons Ratio (y) = 0.42870 0.10439
# Poissons Ratio (z) = 0.30646 0.10426
#
# Static dielectric constant tensor:
#      x y z
#    x 4.306260 -0.196400 -0.025540 
#    y -0.196400 3.957200 0.026010 
#    z -0.025540 0.026010 3.911960 
# 
# 
# High freq. dielectric constant tensor:
#      x y z
#    x 1.876940 -0.010060 0.003130 
#    y -0.010060 1.861570 0.002710 
#    z 0.003130 0.002710 1.843370 
# 
# From -- ./inp_files/27205.got.cif
#   From: 2010.06.25/outbox.cif.g09.slc.cpg/sg2_14_cif.got.tgz:27205.got - 2010.06.27 13:26:56.
