data_PCOD8033210
_publ_section_title
;
Structure prediction by ZEFSAII (Michael W. Deem and Ramdas Pophale) SiO2 
 PCOD8033210
Probable space group: P -1
;
_chemical_formula_sum "Si O2"
_cell_formula_units_Z 16
_cell_length_a 9.307572
_cell_length_b 8.819310
_cell_length_c 12.037877
_cell_angle_alpha 102.367105
_cell_angle_beta 130.152706
_cell_angle_gamma 77.567669
_cell_volume 733.789483
_symmetry_space_group_name_H-M "P -1"
_symmetry_group_IT_number 2
_symmetry_cell_setting 'triclinic'
loop_
_space_group_symop_operation_xyz
x,y,z
-x,-y,-z
loop_
_atom_site_type_symbol
_atom_site_label
_atom_site_fract_x
_atom_site_fract_y
_atom_site_fract_z
Si Si1 0.488494 0.397261 0.680720
Si Si2 0.114742 0.473849 0.377113
Si Si3 0.658875 0.067510 0.659206
Si Si4 0.798687 0.732699 0.331208
Si Si5 0.282638 0.048065 0.878935
Si Si6 0.833950 0.559824 0.846689
Si Si7 0.959773 0.862742 0.644269
Si Si8 0.818266 0.913020 0.915577
O O1 0.324850 0.471996 0.530159
O O2 0.618602 0.253916 0.665773
O O3 0.390582 0.340818 0.734938
O O4 0.632994 0.526313 0.795743
O O5 0.128947 0.527471 0.265749
O O6 0.042604 0.303510 0.324268
O O7 0.971185 0.597362 0.389718
O O8 0.500000 0.000000 0.500000
O O9 0.855355 0.003859 0.688089
O O10 0.652649 0.009592 0.775934
O O11 0.751453 0.809297 0.201237
O O12 0.861702 0.857233 0.472988
O O13 0.210373 0.103472 0.971478
O O14 0.176349 0.904417 0.754583
O O15 0.500000 0.000000 0.000000
O O16 0.839827 0.740280 0.850429
O O17 0.000000 0.500000 0.000000
O O18 0.000000 0.000000 0.000000
#
# Coordination Sequence:
#
# PCOD8033210 Si02
#       8
#     2   2   2   2   2   2   2   2
#     4  11  24  43  68 100 133 180 227 282 338 402
#     4  11  23  45  69  99 136 173 230 282 343 399
#     4  12  21  41  74 100 132 174 236 281 336 394
#     4  11  25  46  69 100 138 180 223 282 344 408
#     4  12  27  45  67 102 138 181 229 275 343 414
#     4  12  25  42  65 102 135 180 225 280 338 402
#     4  11  23  45  70 101 133 181 226 288 335 398
#     4  12  24  46  68  97 137 180 225 280 336 400
#
# _framework density 21.804618000000001
#
# number of rings (size 3 to 8) (size 9 to 14) (size 15 to 20)
#    0.000    0.500    5.000    4.500    1.750    3.000 
#    0.000    1.875    0.000    0.000    0.000    0.000 
#    0.000    0.000    0.000    0.000    0.000    0.000 
#
# Total GULP energy -198380.350029 kJ/mol
# GULP energy per Si atom -12398.771877 kJ/mol
# Density = 2.175499 g / cm^3
# Si number density = 21.804618 Si / 1000 Ang^3
#
#
#
# Elastic Constant Matrix: (Units=GPa)
#
#
# Indices 1 2 3 4 5 6 
#
# 1 128.3841 53.4394 67.5624 -0.1792 3.0179 8.0548
# 2 53.4394 106.4399 51.7247 -7.6912 17.4705 -5.0681
# 3 67.5624 51.7247 150.4614 -21.6198 3.5607 24.5242
# 4 -0.1792 -7.6912 -21.6198 38.8018 8.7011 4.8148
# 5 3.0179 17.4705 3.5607 8.7011 53.5478 4.5701
# 6 8.0548 -5.0681 24.5242 4.8148 4.5701 41.5726
#
#
#
# Elastic Compliance Matrix: (Units=1/GPa)
#
#
# Indices 1 2 3 4 5 6 
#
# 1 0.011869 -0.004355 -0.004392 -0.003621 0.001632 0.000000
# 2 -0.004355 0.014432 -0.003522 0.001344 -0.004879 0.005062
# 3 -0.004392 -0.003522 0.012038 0.006892 0.000116 -0.007491
# 4 -0.003621 0.001344 0.006892 0.031839 -0.005328 -0.006302
# 5 0.001632 -0.004879 0.000116 -0.005328 0.021263 -0.002700
# 6 0.000000 0.005062 -0.007491 -0.006302 -0.002700 0.030117
#
#
# Mechanical properties :
#
#
# Convention : Reuss Voigt Hill
#
# Bulk Modulus (GPa) = 72.45562 81.19316 76.82439
# Shear Modulus (GPa) = 33.17924 40.95503 37.06714
#
# Velocity S-wave (km/s) = 3.90508 4.33861 4.12754
# Velocity P-wave (km/s) = 7.32356 7.90035 7.61741
#
# Compressibility (1/GPa) = 0.01380155
#
# Stress axis : x y z
#
# Youngs Moduli (GPa) = 84.24958 69.29062 83.07167
#
# Poissons Ratio (x) = 0.30173 0.36484
# Poissons Ratio (y) = 0.36687 0.29261
# Poissons Ratio (z) = 0.37001 0.24407
#
# Static dielectric constant tensor:
#      x y z
#    x 4.285950 -0.274990 -0.004100 
#    y -0.274990 4.965790 -0.105730 
#    z -0.004100 -0.105730 4.098260 
# 
# 
# High freq. dielectric constant tensor:
#      x y z
#    x 1.860560 0.005890 -0.001950 
#    y 0.005890 1.853920 -0.007310 
#    z -0.001950 -0.007310 1.871800 
# 
# From -- ./inp_files/382459.got.cif
#   From: 2010.06.25/outbox.cif.g09.slc.cpg/sg2_192_cif.got.tgz:382459.got - 2010.06.27 13:26:56.
