data_PCOD8033199
_publ_section_title
;
Structure prediction by ZEFSAII (Michael W. Deem and Ramdas Pophale) SiO2 
 PCOD8033199
Probable space group: P -1
;
_chemical_formula_sum "Si O2"
_cell_formula_units_Z 16
_cell_length_a 9.380109
_cell_length_b 17.263581
_cell_length_c 18.047795
_cell_angle_alpha 149.342099
_cell_angle_beta 30.207176
_cell_angle_gamma 139.825854
_cell_volume 747.346394
_symmetry_space_group_name_H-M "P -1"
_symmetry_group_IT_number 2
_symmetry_cell_setting 'triclinic'
loop_
_space_group_symop_operation_xyz
x,y,z
-x,-y,-z
loop_
_atom_site_type_symbol
_atom_site_label
_atom_site_fract_x
_atom_site_fract_y
_atom_site_fract_z
Si Si1 0.148835 0.326319 0.053838
Si Si2 0.330794 0.669411 0.475027
Si Si3 0.808242 0.077873 0.909504
Si Si4 0.236510 0.343132 0.195616
Si Si5 0.701873 0.121614 0.464694
Si Si6 0.745083 0.128470 0.808307
Si Si7 0.804890 0.801325 0.456745
Si Si8 0.230808 0.669846 0.265160
O O1 0.084421 0.328430 0.171766
O O2 0.160430 0.489966 0.143622
O O3 0.465253 0.269300 0.856679
O O4 0.898660 0.224297 0.040709
O O5 0.383660 0.513774 0.280074
O O6 0.426053 0.819892 0.506369
O O7 0.532989 0.681759 0.466481
O O8 0.003276 0.680568 0.653324
O O9 0.842029 0.124247 0.846705
O O10 0.006678 0.949888 0.740323
O O11 0.500000 0.000000 0.000000
O O12 0.466049 0.220278 0.001759
O O13 0.767153 0.278572 0.608735
O O14 0.500000 0.000000 0.500000
O O15 0.006784 0.206295 0.708380
O O16 0.682082 0.961524 0.663749
O O17 0.983026 0.752125 0.405344
#
# Coordination Sequence:
#
# PCOD8033199 Si02
#       8
#     2   2   2   2   2   2   2   2
#     4  11  25  44  72  99 137 183 226 283 341 415
#     4  11  27  44  69 100 136 185 223 284 345 409
#     4  12  27  43  67 103 137 179 224 279 347 407
#     4  11  25  48  66  99 142 180 227 271 357 419
#     4  12  23  45  70  96 137 180 234 279 333 406
#     4  11  25  44  66 101 137 174 227 281 338 404
#     4  11  25  42  70 102 133 174 230 285 333 395
#     4  11  23  45  69 103 133 179 236 280 340 400
#
# _framework density 21.409081
#
# number of rings (size 3 to 8) (size 9 to 14) (size 15 to 20)
#    0.000    0.750    5.000    1.500    7.000    1.000 
#    0.000    1.250    0.000    0.000    0.000    0.000 
#    0.000    0.000    0.000    0.000    0.000    0.000 
#
# Total GULP energy -198398.826256 kJ/mol
# GULP energy per Si atom -12399.926641 kJ/mol
# Density = 2.136035 g / cm^3
# Si number density = 21.409081 Si / 1000 Ang^3
#
#
#
# Elastic Constant Matrix: (Units=GPa)
#
#
# Indices 1 2 3 4 5 6 
#
# 1 100.9092 32.3018 30.0943 6.4110 4.1046 11.0817
# 2 32.3018 91.5451 33.0772 10.1560 -6.3956 19.8280
# 3 30.0943 33.0772 117.3156 11.8399 -9.6521 10.8426
# 4 6.4110 10.1560 11.8399 18.0343 5.0630 3.9616
# 5 4.1046 -6.3956 -9.6521 5.0630 40.5398 3.4194
# 6 11.0817 19.8280 10.8426 3.9616 3.4194 42.8888
#
#
#
# Elastic Compliance Matrix: (Units=1/GPa)
#
#
# Indices 1 2 3 4 5 6 
#
# 1 0.011813 -0.003354 -0.002182 -0.000101 -0.002167 -0.000768
# 2 -0.003354 0.014817 -0.001990 -0.005638 0.003348 -0.005227
# 3 -0.002182 -0.001990 0.010574 -0.005749 0.003220 -0.000915
# 4 -0.000101 -0.005638 -0.005749 0.065591 -0.010343 -0.001148
# 5 -0.002167 0.003348 0.003220 -0.010343 0.027731 -0.003058
# 6 -0.000768 -0.005227 -0.000915 -0.001148 -0.003058 0.026512
#
#
# Mechanical properties :
#
#
# Convention : Reuss Voigt Hill
#
# Bulk Modulus (GPa) = 45.13874 55.63516 50.38695
# Shear Modulus (GPa) = 27.85912 34.57903 31.21907
#
# Velocity S-wave (km/s) = 3.61123 4.02326 3.82280
# Velocity P-wave (km/s) = 6.20626 6.90111 6.56289
#
# Compressibility (1/GPa) = 0.02215392
#
# Stress axis : x y z
#
# Youngs Moduli (GPa) = 84.65191 67.48826 94.56730
#
# Poissons Ratio (x) = 0.22634 0.20633
# Poissons Ratio (y) = 0.28390 0.18818
# Poissons Ratio (z) = 0.18470 0.13430
#
# Static dielectric constant tensor:
#      x y z
#    x 3.375640 -0.226330 0.366680 
#    y -0.226330 3.595880 0.231710 
#    z 0.366680 0.231710 3.808310 
# 
# 
# High freq. dielectric constant tensor:
#      x y z
#    x 1.850720 0.001440 0.003570 
#    y 0.001440 1.832380 0.006410 
#    z 0.003570 0.006410 1.850900 
# 
# From -- ./inp_files/190711.got.cif
#   From: 2010.06.25/outbox.cif.g09.slc.cpg/sg2_96_cif.got.tgz:190711.got - 2010.06.27 13:26:56.
