data_PCOD8033695
_publ_section_title
;
Structure prediction by ZEFSAII (Michael W. Deem and Ramdas Pophale) SiO2 
 PCOD8033695
Probable space group: P -1
;
_chemical_formula_sum "Si O2"
_cell_formula_units_Z 14
_cell_length_a 6.513627
_cell_length_b 22.917818
_cell_length_c 6.025800
_cell_angle_alpha 74.879342
_cell_angle_beta 132.818498
_cell_angle_gamma 107.884065
_cell_volume 626.172139
_symmetry_space_group_name_H-M "P -1"
_symmetry_group_IT_number 2
_symmetry_cell_setting 'triclinic'
loop_
_space_group_symop_operation_xyz
x,y,z
-x,-y,-z
loop_
_atom_site_type_symbol
_atom_site_label
_atom_site_fract_x
_atom_site_fract_y
_atom_site_fract_z
Si Si1 0.568624 0.718339 0.379731
Si Si2 0.317177 0.008518 0.651353
Si Si3 0.974422 0.467413 0.263447
Si Si4 0.438520 0.896024 0.583041
Si Si5 0.945250 0.708794 0.055691
Si Si6 0.606112 0.611758 0.202761
Si Si7 0.839361 0.816753 0.158600
O O1 0.286895 0.723188 0.306576
O O2 0.482136 0.663278 0.197259
O O3 0.686274 0.784773 0.295341
O O4 0.826719 0.700959 0.728390
O O5 0.336767 0.955184 0.546362
O O6 0.418257 0.078307 0.568778
O O7 0.000000 0.000000 0.500000
O O8 0.500000 0.000000 0.000000
O O9 0.000000 0.500000 0.500000
O O10 0.230890 0.429413 0.479862
O O11 0.659018 0.427401 0.082668
O O12 0.000000 0.500000 0.000000
O O13 0.172014 0.841256 0.419216
O O14 0.682178 0.872362 0.925621
O O15 0.838660 0.644985 0.166106
O O16 0.815865 0.765346 0.002886
#
# Coordination Sequence:
#
# PCOD8033695 Si02
#       7
#     2   2   2   2   2   2   2
#     4  11  24  42  69  96 131 175 220 270 341 405
#     4  11  24  41  62  90 120 175 216 259 338 394
#     4  12  28  47  74 107 144 186 240 291 352 415
#     4  11  24  41  62  89 134 160 216 280 318 402
#     4  11  24  42  69  96 131 175 220 270 341 405
#     4  11  26  46  70  99 140 179 226 284 340 410
#     4  11  24  41  62  99 126 166 216 272 334 394
#
# _framework density 22.358070999999999
#
# number of rings (size 3 to 8) (size 9 to 14) (size 15 to 20)
#    0.000    0.857    0.000    6.000    6.000   13.714 
#    0.000    0.000    0.000    0.000    0.000    0.000 
#    0.000    0.000    0.000    0.000    0.000    0.000 
#
# Total GULP energy -173516.972139 kJ/mol
# GULP energy per Si atom -12394.069438 kJ/mol
# Density = 2.230718 g / cm^3
# Si number density = 22.358071 Si / 1000 Ang^3
#
#
#
# Elastic Constant Matrix: (Units=GPa)
#
#
# Indices 1 2 3 4 5 6 
#
# 1 110.1996 42.1677 33.1481 -2.9586 8.0046 25.8098
# 2 42.1677 105.1379 35.7308 -0.9990 -2.5180 20.4737
# 3 33.1481 35.7308 128.1791 -5.3021 7.1393 12.5920
# 4 -2.9586 -0.9990 -5.3021 44.3671 4.1275 8.1473
# 5 8.0046 -2.5180 7.1393 4.1275 47.9131 0.0500
# 6 25.8098 20.4737 12.5920 8.1473 0.0500 34.3110
#
#
#
# Elastic Compliance Matrix: (Units=1/GPa)
#
#
# Indices 1 2 3 4 5 6 
#
# 1 0.012743 -0.003154 -0.001441 0.002231 -0.002264 -0.007701
# 2 -0.003154 0.012435 -0.002291 0.000450 0.001488 -0.004316
# 3 -0.001441 -0.002291 0.009055 0.001274 -0.001337 -0.001173
# 4 0.002231 0.000450 0.001274 0.024613 -0.002651 -0.008255
# 5 -0.002264 0.001488 -0.001337 -0.002651 0.021753 0.001904
# 6 -0.007701 -0.004316 -0.001173 -0.008255 0.001904 0.039901
#
#
# Mechanical properties :
#
#
# Convention : Reuss Voigt Hill
#
# Bulk Modulus (GPa) = 48.87467 62.84555 55.86011
# Shear Modulus (GPa) = 35.43728 40.81623 38.12676
#
# Velocity S-wave (km/s) = 3.98551 4.27730 4.13398
# Velocity P-wave (km/s) = 6.56403 7.25007 6.91556
#
# Compressibility (1/GPa) = 0.02046050
#
# Stress axis : x y z
#
# Youngs Moduli (GPa) = 78.47439 80.41590 110.43238
#
# Poissons Ratio (x) = 0.25367 0.15915
# Poissons Ratio (y) = 0.24754 0.25300
# Poissons Ratio (z) = 0.11310 0.18423
#
# Static dielectric constant tensor:
#      x y z
#    x 4.213430 0.188670 -0.207930 
#    y 0.188670 4.126560 -0.071750 
#    z -0.207930 -0.071750 4.099640 
# 
# 
# High freq. dielectric constant tensor:
#      x y z
#    x 1.890380 0.009420 0.005230 
#    y 0.009420 1.891210 -0.003070 
#    z 0.005230 -0.003070 1.893470 
# 
# From -- ./inp_files/9803.got.cif
#   From: 2010.06.25/outbox.cif.g09.slc.cpg/sg2_5_cif.got.tgz:9803.got - 2010.06.27 13:26:56.
