data_PCOD8033241
_publ_section_title
;
Structure prediction by ZEFSAII (Michael W. Deem and Ramdas Pophale) SiO2 
 PCOD8033241
Probable space group: P -1
;
_chemical_formula_sum "Si O2"
_cell_formula_units_Z 16
_cell_length_a 9.164699
_cell_length_b 11.512109
_cell_length_c 18.054923
_cell_angle_alpha 51.503660
_cell_angle_beta 28.829166
_cell_angle_gamma 53.594106
_cell_volume 713.005871
_symmetry_space_group_name_H-M "P -1"
_symmetry_group_IT_number 2
_symmetry_cell_setting 'triclinic'
loop_
_space_group_symop_operation_xyz
x,y,z
-x,-y,-z
loop_
_atom_site_type_symbol
_atom_site_label
_atom_site_fract_x
_atom_site_fract_y
_atom_site_fract_z
Si Si1 0.459072 0.705770 0.200459
Si Si2 0.198919 0.457614 0.189560
Si Si3 0.852757 0.826290 0.858288
Si Si4 0.334857 0.133793 0.333039
Si Si5 0.284860 0.560903 0.718110
Si Si6 0.916352 0.657577 0.365062
Si Si7 0.725174 0.990644 0.334223
Si Si8 0.266395 0.958659 0.296952
O O1 0.703741 0.574086 0.175183
O O2 0.458348 0.830246 0.215194
O O3 0.127714 0.657370 0.345469
O O4 0.582034 0.761296 0.046230
O O5 0.268055 0.297717 0.262779
O O6 0.925121 0.459683 0.251546
O O7 0.111166 0.584980 0.238825
O O8 0.500000 0.500000 0.000000
O O9 0.153807 0.707103 0.763973
O O10 0.943763 0.972710 0.801671
O O11 0.750387 0.881442 0.800484
O O12 0.617873 0.116515 0.270283
O O13 0.056795 0.096303 0.522090
O O14 0.417194 0.999042 0.290908
O O15 0.635851 0.562995 0.538469
O O16 0.770386 0.826221 0.343739
O O17 0.500000 0.000000 0.500000
#
# Coordination Sequence:
#
# PCOD8033241 Si02
#       8
#     2   2   2   2   2   2   2   2
#     4  12  27  43  72 107 144 182 234 295 353 409
#     4  12  29  48  69 104 149 185 233 292 355 416
#     4  12  24  46  71 102 145 181 231 297 351 409
#     4  11  25  44  74  99 141 187 232 288 349 420
#     4  12  26  47  71 100 143 190 237 281 349 428
#     4  12  26  45  74 102 142 186 238 292 346 422
#     4  12  24  44  73 107 137 179 238 292 347 417
#     4  11  23  45  71 101 138 186 234 286 353 413
#
# _framework density 22.44021
#
# number of rings (size 3 to 8) (size 9 to 14) (size 15 to 20)
#    0.000    0.250    5.000    3.000    7.000    0.000 
#    0.000    1.250    0.000    0.000    0.000    0.000 
#    0.000    0.000    0.000    0.000    0.000    0.000 
#
# Total GULP energy -198393.241509 kJ/mol
# GULP energy per Si atom -12399.577594 kJ/mol
# Density = 2.238914 g / cm^3
# Si number density = 22.440210 Si / 1000 Ang^3
#
#
#
# Elastic Constant Matrix: (Units=GPa)
#
#
# Indices 1 2 3 4 5 6 
#
# 1 115.5081 43.7858 28.2659 -3.3107 0.4756 -8.8711
# 2 43.7858 122.9505 30.2592 1.0639 16.9280 6.4191
# 3 28.2659 30.2592 91.3238 0.2119 14.0812 7.8852
# 4 -3.3107 1.0639 0.2119 34.1875 -0.1634 12.7931
# 5 0.4756 16.9280 14.0812 -0.1634 32.7958 -0.5321
# 6 -8.8711 6.4191 7.8852 12.7931 -0.5321 43.3490
#
#
#
# Elastic Compliance Matrix: (Units=1/GPa)
#
#
# Indices 1 2 3 4 5 6 
#
# 1 0.011077 -0.003832 -0.002938 -0.000056 0.003134 0.003424
# 2 -0.003832 0.010625 -0.001395 0.000105 -0.004865 -0.002194
# 3 -0.002938 -0.001395 0.013364 0.000823 -0.005022 -0.003130
# 4 -0.000056 0.000105 0.000823 0.032940 -0.000403 -0.009903
# 5 0.003134 -0.004865 -0.005022 -0.000403 0.035157 0.002826
# 6 0.003424 -0.002194 -0.003130 -0.009903 0.002826 0.027621
#
#
# Mechanical properties :
#
#
# Convention : Reuss Voigt Hill
#
# Bulk Modulus (GPa) = 53.36940 59.37826 56.37383
# Shear Modulus (GPa) = 32.60322 37.23122 34.91722
#
# Velocity S-wave (km/s) = 3.81582 4.07766 3.94891
# Velocity P-wave (km/s) = 6.57636 6.97767 6.77998
#
# Compressibility (1/GPa) = 0.01873733
#
# Stress axis : x y z
#
# Youngs Moduli (GPa) = 90.27610 94.12069 74.82646
#
# Poissons Ratio (x) = 0.36063 0.21981
# Poissons Ratio (y) = 0.34590 0.10440
# Poissons Ratio (z) = 0.26520 0.13131
#
# Static dielectric constant tensor:
#      x y z
#    x 4.097070 0.022930 0.073000 
#    y 0.022930 4.166460 -0.104790 
#    z 0.073000 -0.104790 3.987250 
# 
# 
# High freq. dielectric constant tensor:
#      x y z
#    x 1.893290 0.003680 0.007100 
#    y 0.003680 1.897590 -0.003490 
#    z 0.007100 -0.003490 1.878630 
# 
# From -- ./inp_files/209208.got.cif
#   From: 2010.06.25/outbox.cif.g09.slc.cpg/sg2_105_cif.got.tgz:209208.got - 2010.06.27 13:26:56.
