data_PCOD8033274
_publ_section_title
;
Structure prediction by ZEFSAII (Michael W. Deem and Ramdas Pophale) SiO2 
 PCOD8033274
Probable space group: P -1
;
_chemical_formula_sum "Si O2"
_cell_formula_units_Z 16
_cell_length_a 6.592196
_cell_length_b 23.488448
_cell_length_c 8.289309
_cell_angle_alpha 135.700878
_cell_angle_beta 87.578878
_cell_angle_gamma 116.877046
_cell_volume 713.418469
_symmetry_space_group_name_H-M "P -1"
_symmetry_group_IT_number 2
_symmetry_cell_setting 'triclinic'
loop_
_space_group_symop_operation_xyz
x,y,z
-x,-y,-z
loop_
_atom_site_type_symbol
_atom_site_label
_atom_site_fract_x
_atom_site_fract_y
_atom_site_fract_z
Si Si1 0.297568 0.455022 0.053500
Si Si2 0.249696 0.715433 0.319835
Si Si3 0.013759 0.080618 0.040073
Si Si4 0.906537 0.150113 0.481624
Si Si5 0.568063 0.214368 0.194271
Si Si6 0.573083 0.037623 0.756629
Si Si7 0.738330 0.412833 0.426119
Si Si8 0.604970 0.685788 0.052420
O O1 0.318938 0.541495 0.332320
O O2 0.500000 0.500000 0.000000
O O3 0.337474 0.387535 0.026260
O O4 0.027052 0.386798 0.835031
O O5 0.225425 0.793785 0.381300
O O6 0.405647 0.769858 0.584310
O O7 0.379213 0.678745 0.132391
O O8 0.011412 0.160551 0.317571
O O9 0.260951 0.144609 0.044428
O O10 0.775693 0.025560 0.810379
O O11 0.000000 0.000000 0.000000
O O12 0.135142 0.198242 0.703456
O O13 0.694306 0.030348 0.276822
O O14 0.740679 0.321981 0.312285
O O15 0.675359 0.154597 0.004249
O O16 0.500000 0.000000 0.500000
O O17 0.000000 0.500000 0.500000
O O18 0.486264 0.353910 0.205119
#
# Coordination Sequence:
#
# PCOD8033274 Si02
#       8
#     2   2   2   2   2   2   2   2
#     4  11  26  46  73 104 140 193 254 307 371 441
#     4  11  23  45  72 106 139 186 249 302 362 444
#     4  12  24  47  76 105 142 194 249 301 368 446
#     4  11  24  44  73 104 142 191 238 297 370 447
#     4  12  27  45  74 106 145 192 251 301 362 453
#     4  12  29  45  70 110 154 194 240 308 376 445
#     4  12  28  48  72 107 152 198 240 312 383 431
#     4  11  25  45  73 104 142 190 245 306 374 441
#
# _framework density 22.427229000000001
#
# number of rings (size 3 to 8) (size 9 to 14) (size 15 to 20)
#    0.000    0.500    5.000    2.250    7.000    1.500 
#    0.000    0.000    0.000    0.000    0.000    0.000 
#    0.000    0.000    0.000    0.000    0.000    0.000 
#
# Total GULP energy -198368.883422 kJ/mol
# GULP energy per Si atom -12398.055214 kJ/mol
# Density = 2.237618 g / cm^3
# Si number density = 22.427229 Si / 1000 Ang^3
#
#
#
# Elastic Constant Matrix: (Units=GPa)
#
#
# Indices 1 2 3 4 5 6 
#
# 1 103.6837 43.3337 40.5425 11.8199 14.3439 -5.6801
# 2 43.3337 98.4256 39.0043 12.0016 -4.7499 5.0485
# 3 40.5425 39.0043 126.7261 0.0498 13.2208 -8.2267
# 4 11.8199 12.0016 0.0498 36.9058 -9.3120 3.2328
# 5 14.3439 -4.7499 13.2208 -9.3120 39.8978 4.5360
# 6 -5.6801 5.0485 -8.2267 3.2328 4.5360 30.8274
#
#
#
# Elastic Compliance Matrix: (Units=1/GPa)
#
#
# Indices 1 2 3 4 5 6 
#
# 1 0.014508 -0.005604 -0.001889 -0.004980 -0.006946 0.004631
# 2 -0.005604 0.014721 -0.003614 -0.001219 0.005255 -0.005053
# 3 -0.001889 -0.003614 0.010179 0.000621 -0.003364 0.003390
# 4 -0.004980 -0.001219 0.000621 0.031947 0.009498 -0.005300
# 5 -0.006946 0.005255 -0.003364 0.009498 0.032521 -0.008819
# 6 0.004631 -0.005053 0.003390 -0.005300 -0.008819 0.036878
#
#
# Mechanical properties :
#
#
# Convention : Reuss Voigt Hill
#
# Bulk Modulus (GPa) = 58.16386 63.84403 61.00394
# Shear Modulus (GPa) = 29.63866 35.25654 32.44760
#
# Velocity S-wave (km/s) = 3.63925 3.96920 3.80780
# Velocity P-wave (km/s) = 6.60679 7.03811 6.82586
#
# Compressibility (1/GPa) = 0.01719281
#
# Stress axis : x y z
#
# Youngs Moduli (GPa) = 68.92755 67.93133 98.24627
#
# Poissons Ratio (x) = 0.38070 0.18562
# Poissons Ratio (y) = 0.38629 0.35503
# Poissons Ratio (z) = 0.13023 0.24548
#
# Static dielectric constant tensor:
#      x y z
#    x 4.262650 -0.009780 0.175850 
#    y -0.009780 3.871020 0.099770 
#    z 0.175850 0.099770 4.338850 
# 
# 
# High freq. dielectric constant tensor:
#      x y z
#    x 1.895980 0.002470 0.002760 
#    y 0.002470 1.866120 0.007530 
#    z 0.002760 0.007530 1.904430 
# 
# From -- ./inp_files/106890.got.cif
#   From: 2010.06.25/outbox.cif.g09.slc.cpg/sg2_54_cif.got.tgz:106890.got - 2010.06.27 13:26:56.
