data_PCOD8033800
_publ_section_title
;
Structure prediction by ZEFSAII (Michael W. Deem and Ramdas Pophale) SiO2 
 PCOD8033800
Probable space group: P -1
;
_chemical_formula_sum "Si O2"
_cell_formula_units_Z 14
_cell_length_a 11.092670
_cell_length_b 11.101724
_cell_length_c 11.264784
_cell_angle_alpha 90.373905
_cell_angle_beta 120.111742
_cell_angle_gamma 137.945940
_cell_volume 607.979867
_symmetry_space_group_name_H-M "P -1"
_symmetry_group_IT_number 2
_symmetry_cell_setting 'triclinic'
loop_
_space_group_symop_operation_xyz
x,y,z
-x,-y,-z
loop_
_atom_site_type_symbol
_atom_site_label
_atom_site_fract_x
_atom_site_fract_y
_atom_site_fract_z
Si Si1 0.355507 0.349829 0.767750
Si Si2 0.556108 0.817763 0.609128
Si Si3 0.820640 0.820122 0.585124
Si Si4 0.607231 0.347436 0.207775
Si Si5 0.011595 0.511926 0.257943
Si Si6 0.913924 0.183279 0.135330
Si Si7 0.077201 0.348105 0.952044
O O1 0.313107 0.315293 0.605819
O O2 0.397027 0.517184 0.833355
O O3 0.625537 0.477721 0.939161
O O4 0.099114 0.102350 0.707395
O O5 0.602079 0.734625 0.551136
O O6 0.423519 0.681004 0.667043
O O7 0.340542 0.744476 0.436286
O O8 0.845332 0.098419 0.769794
O O9 0.876080 0.740469 0.685391
O O10 0.894114 0.500739 0.310945
O O11 0.368613 0.098116 0.020632
O O12 0.865816 0.272329 0.182009
O O13 0.949685 0.534287 0.103848
O O14 0.051474 0.319363 0.079569
#
# Coordination Sequence:
#
# PCOD8033800 Si02
#       7
#     2   2   2   2   2   2   2
#     4  11  24  43  68  95 124 162 210 263 316 371
#     4  11  24  42  66  95 127 166 210 258 313 371
#     4  11  24  43  68  95 124 162 210 263 316 371
#     4  11  24  42  66  95 127 166 210 258 313 371
#     4  12  24  42  64  92 132 170 208 256 308 374
#     4  11  24  42  66  95 127 166 210 258 313 371
#     4  11  24  42  66  95 127 166 210 258 313 371
#
# _framework density 23.027076999999998
#
# number of rings (size 3 to 8) (size 9 to 14) (size 15 to 20)
#    0.000    0.857    0.000    6.857    0.000    5.714 
#    0.000    5.714    0.000    0.000    0.000    0.000 
#    0.000    0.000    0.000    0.000    0.000    0.000 
#
# Total GULP energy -173685.551901 kJ/mol
# GULP energy per Si atom -12406.110850 kJ/mol
# Density = 2.297467 g / cm^3
# Si number density = 23.027077 Si / 1000 Ang^3
#
#
#
# Elastic Constant Matrix: (Units=GPa)
#
#
# Indices 1 2 3 4 5 6 
#
# 1 82.7601 37.0718 28.4950 -32.5074 17.0077 -11.1728
# 2 37.0718 91.1575 42.1745 2.0883 28.5036 22.7956
# 3 28.4950 42.1745 123.3013 -13.8289 18.6113 -6.9495
# 4 -32.5074 2.0883 -13.8289 15.7538 -22.6448 -24.3662
# 5 17.0077 28.5036 18.6113 -22.6448 29.9048 -27.3166
# 6 -11.1728 22.7956 -6.9495 -24.3662 -27.3166 7.0813
#
#
#
# Elastic Compliance Matrix: (Units=1/GPa)
#
#
# Indices 1 2 3 4 5 6 
#
# 1 0.015597 -0.000315 -0.001803 0.003577 -0.011210 -0.007082
# 2 -0.000315 0.009867 -0.002582 0.008083 0.003121 0.005057
# 3 -0.001803 -0.002582 0.009851 -0.000579 -0.003535 -0.000495
# 4 0.003577 0.008083 -0.000579 0.016926 -0.014862 -0.020035
# 5 -0.011210 0.003121 -0.003535 -0.014862 0.018793 -0.009846
# 6 -0.007082 0.005057 -0.000495 -0.020035 -0.009846 0.006360
#
#
# Mechanical properties :
#
#
# Convention : Reuss Voigt Hill
#
# Bulk Modulus (GPa) = 38.58592 56.96684 47.77638
# Shear Modulus (GPa) = 52.39385 23.17982 37.78683
#
# Velocity S-wave (km/s) = 4.77520 3.17619 4.05529
# Velocity P-wave (km/s) = 6.86997 6.18415 6.53606
#
# Compressibility (1/GPa) = 0.02591619
#
# Stress axis : x y z
#
# Youngs Moduli (GPa) = 64.11408 101.34738 101.51538
#
# Poissons Ratio (x) = 0.03190 0.18302
# Poissons Ratio (y) = 0.02018 0.26208
# Poissons Ratio (z) = 0.11559 0.26165
#
# Static dielectric constant tensor:
#      x y z
#    x 4.158970 -0.036610 0.026900 
#    y -0.036610 4.157830 -0.039890 
#    z 0.026900 -0.039890 4.150360 
# 
# 
# High freq. dielectric constant tensor:
#      x y z
#    x 1.917880 -0.000020 -0.000320 
#    y -0.000020 1.922130 -0.000960 
#    z -0.000320 -0.000960 1.922020 
# 
# From -- ./inp_files/399624.got.cif
#   From: 2010.06.25/outbox.cif.g09.slc.cpg/sg2_200_cif.got.tgz:399624.got - 2010.06.27 13:26:56.
