data_PCOD8033940
_publ_section_title
;
Structure prediction by ZEFSAII (Michael W. Deem and Ramdas Pophale) SiO2 
 PCOD8033940
Probable space group: P -1
;
_chemical_formula_sum "Si O2"
_cell_formula_units_Z 14
_cell_length_a 5.916793
_cell_length_b 23.844127
_cell_length_c 5.285620
_cell_angle_alpha 119.232143
_cell_angle_beta 96.527076
_cell_angle_gamma 111.280960
_cell_volume 566.226748
_symmetry_space_group_name_H-M "P -1"
_symmetry_group_IT_number 2
_symmetry_cell_setting 'triclinic'
loop_
_space_group_symop_operation_xyz
x,y,z
-x,-y,-z
loop_
_atom_site_type_symbol
_atom_site_label
_atom_site_fract_x
_atom_site_fract_y
_atom_site_fract_z
Si Si1 0.080922 0.591709 0.461505
Si Si2 0.613225 0.459909 0.255922
Si Si3 0.994390 0.281705 0.117782
Si Si4 0.409481 0.915247 0.805833
Si Si5 0.483333 0.145867 0.830956
Si Si6 0.857762 0.806648 0.391923
Si Si7 0.458073 0.325626 0.638156
O O1 0.240952 0.564716 0.585154
O O2 0.028785 0.645283 0.757271
O O3 0.240345 0.634266 0.325122
O O4 0.805773 0.519361 0.201803
O O5 0.500000 0.500000 0.500000
O O6 0.409876 0.384878 0.924756
O O7 0.262094 0.301564 0.331133
O O8 0.739048 0.221870 0.098585
O O9 0.016681 0.245120 0.781346
O O10 0.480783 0.893828 0.498143
O O11 0.095290 0.872867 0.718074
O O12 0.565972 0.902162 0.027015
O O13 0.500000 0.000000 0.000000
O O14 0.240684 0.160827 0.777386
O O15 0.602752 0.750851 0.398271
#
# Coordination Sequence:
#
# PCOD8033940 Si02
#       7
#     2   2   2   2   2   2   2
#     4  11  25  41  66  96 135 183 246 297 380 428
#     4  11  25  45  62  95 138 185 240 305 369 443
#     4  11  24  43  66 102 140 183 248 301 367 441
#     4  11  26  48  75 114 155 196 249 304 367 447
#     4  11  25  45  76 109 152 198 248 305 373 437
#     4  11  26  45  73 106 148 192 247 303 371 438
#     4  12  23  41  68  96 136 186 242 304 368 438
#
# _framework density 24.725075
#
# number of rings (size 3 to 8) (size 9 to 14) (size 15 to 20)
#    0.000    0.857    1.429    5.143    4.000    6.857 
#    0.000    0.000    0.000    0.000    0.000    0.000 
#    0.000    0.000    0.000    0.000    0.000    0.000 
#
# Total GULP energy -173509.911064 kJ/mol
# GULP energy per Si atom -12393.565076 kJ/mol
# Density = 2.466880 g / cm^3
# Si number density = 24.725075 Si / 1000 Ang^3
#
#
#
# Elastic Constant Matrix: (Units=GPa)
#
#
# Indices 1 2 3 4 5 6 
#
# 1 83.5654 49.8760 22.7883 8.1422 7.3702 -17.0640
# 2 49.8760 164.1069 53.2448 18.8293 8.9198 -7.8104
# 3 22.7883 53.2448 109.2795 19.7132 4.1403 0.3091
# 4 8.1422 18.8293 19.7132 46.6233 1.1920 -0.2466
# 5 7.3702 8.9198 4.1403 1.1920 24.3384 6.3277
# 6 -17.0640 -7.8104 0.3091 -0.2466 6.3277 33.3859
#
#
#
# Elastic Compliance Matrix: (Units=1/GPa)
#
#
# Indices 1 2 3 4 5 6 
#
# 1 0.017076 -0.003948 -0.001330 -0.000631 -0.005783 0.008908
# 2 -0.003948 0.008528 -0.003019 -0.001440 -0.001414 0.000263
# 3 -0.001330 -0.003019 0.011518 -0.003430 0.000118 -0.001540
# 4 -0.000631 -0.001440 -0.003430 0.023581 0.000279 -0.000506
# 5 -0.005783 -0.001414 0.000118 0.000279 0.046467 -0.012093
# 6 0.008908 0.000263 -0.001540 -0.000506 -0.012093 0.036870
#
#
# Mechanical properties :
#
#
# Convention : Reuss Voigt Hill
#
# Bulk Modulus (GPa) = 48.71350 67.64112 58.17731
# Shear Modulus (GPa) = 29.85534 36.27234 33.06384
#
# Velocity S-wave (km/s) = 3.47867 3.83433 3.66082
# Velocity P-wave (km/s) = 5.98997 6.85708 6.43814
#
# Compressibility (1/GPa) = 0.02052819
#
# Stress axis : x y z
#
# Youngs Moduli (GPa) = 58.56177 117.26699 86.82315
#
# Poissons Ratio (x) = 0.46294 0.11545
# Poissons Ratio (y) = 0.23119 0.26212
# Poissons Ratio (z) = 0.07787 0.35403
#
# Static dielectric constant tensor:
#      x y z
#    x 4.364950 0.365200 0.291890 
#    y 0.365200 4.577980 0.153860 
#    z 0.291890 0.153860 4.211610 
# 
# 
# High freq. dielectric constant tensor:
#      x y z
#    x 1.981370 -0.003360 -0.000320 
#    y -0.003360 1.985680 0.016580 
#    z -0.000320 0.016580 1.983800 
# 
# From -- ./inp_files/7634.got.cif
#   From: 2010.06.25/outbox.cif.g09.slc.cpg/sg2_4_cif.got.tgz:7634.got - 2010.06.27 13:26:56.
