data_PCOD8033587
_publ_section_title
;
Structure prediction by ZEFSAII (Michael W. Deem and Ramdas Pophale) SiO2 
 PCOD8033587
Probable space group: P -1
;
_chemical_formula_sum "Si O2"
_cell_formula_units_Z 12
_cell_length_a 9.467788
_cell_length_b 5.118560
_cell_length_c 13.594426
_cell_angle_alpha 73.477567
_cell_angle_beta 53.521603
_cell_angle_gamma 73.906035
_cell_volume 502.837872
_symmetry_space_group_name_H-M "P -1"
_symmetry_group_IT_number 2
_symmetry_cell_setting 'triclinic'
loop_
_space_group_symop_operation_xyz
x,y,z
-x,-y,-z
loop_
_atom_site_type_symbol
_atom_site_label
_atom_site_fract_x
_atom_site_fract_y
_atom_site_fract_z
Si Si1 0.842281 0.228032 0.082095
Si Si2 0.944408 0.224037 0.724201
Si Si3 0.076335 0.352059 0.138874
Si Si4 0.520313 0.994222 0.324231
Si Si5 0.180730 0.807274 0.425278
Si Si6 0.687487 0.696614 0.456554
O O1 0.666191 0.089073 0.181862
O O2 0.895089 0.350122 0.151801
O O3 0.796063 0.488395 0.999446
O O4 0.000000 0.000000 0.000000
O O5 0.948470 0.477442 0.768939
O O6 0.841830 0.338999 0.655134
O O7 0.153179 0.111293 0.627900
O O8 0.851427 0.968659 0.832776
O O9 0.461636 0.218359 0.408875
O O10 0.352870 0.962198 0.328592
O O11 0.598087 0.714391 0.382690
O O12 0.213444 0.604358 0.525883
O O13 0.000000 0.000000 0.500000
#
# Coordination Sequence:
#
# PCOD8033587 Si02
#       6
#     2   2   2   2   2   2
#     4  11  23  47  76 106 143 195 257 314 364 434
#     4  12  24  44  76 107 148 195 241 303 379 449
#     4  11  24  43  75 103 137 194 251 301 369 429
#     4  11  25  45  73 114 143 194 253 309 369 444
#     4  12  26  44  73 108 161 198 238 297 390 453
#     4  11  24  44  70 111 147 193 250 307 368 448
#
# _framework density 23.864552
#
# number of rings (size 3 to 8) (size 9 to 14) (size 15 to 20)
#    0.000    0.667    5.000    2.000    2.333    4.000 
#    0.000    1.667    0.000    0.000    0.000    0.000 
#    0.000    0.000    0.000    0.000    0.000    0.000 
#
# Total GULP energy -148710.365700 kJ/mol
# GULP energy per Si atom -12392.530475 kJ/mol
# Density = 2.381024 g / cm^3
# Si number density = 23.864552 Si / 1000 Ang^3
#
#
#
# Elastic Constant Matrix: (Units=GPa)
#
#
# Indices 1 2 3 4 5 6 
#
# 1 170.8285 38.0857 58.5465 10.2573 -2.5001 9.4031
# 2 38.0857 107.2930 34.3099 -8.9504 0.3023 4.1529
# 3 58.5465 34.3099 120.9712 -5.8151 -17.8489 7.4953
# 4 10.2573 -8.9504 -5.8151 24.3988 -4.4330 10.6695
# 5 -2.5001 0.3023 -17.8489 -4.4330 35.8670 2.5013
# 6 9.4031 4.1529 7.4953 10.6695 2.5013 40.2561
#
#
#
# Elastic Compliance Matrix: (Units=1/GPa)
#
#
# Indices 1 2 3 4 5 6 
#
# 1 0.007916 -0.002069 -0.003877 -0.005716 -0.002118 0.000733
# 2 -0.002069 0.011149 -0.001871 0.005166 -0.000415 -0.001662
# 3 -0.003877 -0.001871 0.012208 0.006561 0.006865 -0.003340
# 4 -0.005716 0.005166 0.006561 0.055753 0.010820 -0.015868
# 5 -0.002118 -0.000415 0.006865 0.010820 0.032884 -0.005652
# 6 0.000733 -0.001662 -0.003340 -0.015868 -0.005652 0.030020
#
#
# Mechanical properties :
#
#
# Convention : Reuss Voigt Hill
#
# Bulk Modulus (GPa) = 63.93788 73.44186 68.68987
# Shear Modulus (GPa) = 29.27791 37.98107 33.62949
#
# Velocity S-wave (km/s) = 3.50642 3.99372 3.75798
# Velocity P-wave (km/s) = 6.57598 7.21857 6.90475
#
# Compressibility (1/GPa) = 0.01564018
#
# Stress axis : x y z
#
# Youngs Moduli (GPa) = 126.33137 89.69075 81.91089
#
# Poissons Ratio (x) = 0.18560 0.31754
# Poissons Ratio (y) = 0.26143 0.15322
# Poissons Ratio (z) = 0.48974 0.16778
#
# Static dielectric constant tensor:
#      x y z
#    x 4.659920 -0.019000 0.129610 
#    y -0.019000 4.156760 -0.320070 
#    z 0.129610 -0.320070 4.452550 
# 
# 
# High freq. dielectric constant tensor:
#      x y z
#    x 1.945210 0.013260 0.012820 
#    y 0.013260 1.934810 -0.024440 
#    z 0.012820 -0.024440 1.942930 
# 
# From -- ./inp_files/130974.got.cif
#   From: 2010.06.25/outbox.cif.g09.slc.cpg/sg2_66_cif.got.tgz:130974.got - 2010.06.27 13:26:56.
