data_PCOD8033623
_publ_section_title
;
Structure prediction by ZEFSAII (Michael W. Deem and Ramdas Pophale) SiO2 
 PCOD8033623
Probable space group: P -1
;
_chemical_formula_sum "Si O2"
_cell_formula_units_Z 16
_cell_length_a 11.896668
_cell_length_b 10.605889
_cell_length_c 10.226246
_cell_angle_alpha 146.705151
_cell_angle_beta 69.776254
_cell_angle_gamma 114.449069
_cell_volume 644.789833
_symmetry_space_group_name_H-M "P -1"
_symmetry_group_IT_number 2
_symmetry_cell_setting 'triclinic'
loop_
_space_group_symop_operation_xyz
x,y,z
-x,-y,-z
loop_
_atom_site_type_symbol
_atom_site_label
_atom_site_fract_x
_atom_site_fract_y
_atom_site_fract_z
Si Si1 0.251775 0.593335 0.283264
Si Si2 0.680777 0.595474 0.162028
Si Si3 0.627139 0.788885 0.715935
Si Si4 0.874712 0.069259 0.538796
Si Si5 0.938558 0.724783 0.749775
Si Si6 0.778369 0.250191 0.987345
Si Si7 0.450973 0.627556 0.429308
Si Si8 0.867661 0.697176 0.468190
O O1 0.184142 0.783466 0.415393
O O2 0.152191 0.362246 0.170185
O O3 0.338120 0.706861 0.471183
O O4 0.332362 0.490237 0.057055
O O5 0.557893 0.674225 0.317523
O O6 0.808918 0.793860 0.305178
O O7 0.687029 0.367928 0.045928
O O8 0.502334 0.774081 0.667278
O O9 0.596740 0.645239 0.738875
O O10 0.723721 0.701973 0.501653
O O11 0.692453 0.061750 0.956430
O O12 0.855407 0.133906 0.753188
O O13 0.023222 0.121334 0.498458
O O14 0.873028 0.757407 0.669803
O O15 0.000000 0.500000 0.500000
O O16 0.000000 0.000000 0.000000
O O17 0.876508 0.431875 0.196721
#
# Coordination Sequence:
#
# PCOD8033623 Si02
#       8
#     2   2   2   2   2   2   2   2
#     4  11  25  44  73 105 139 196 242 303 373 438
#     4  11  24  47  69 103 143 190 242 305 366 444
#     4  11  25  45  70 101 141 186 241 308 364 439
#     4  11  24  45  70 104 145 180 241 303 370 447
#     4  12  27  49  74 113 156 194 251 310 377 454
#     4  11  24  44  69 109 135 188 241 295 385 431
#     4  11  23  49  67  99 144 188 251 297 363 448
#     4  12  24  44  74 104 144 186 238 306 374 442
#
# _framework density 24.814288000000001
#
# number of rings (size 3 to 8) (size 9 to 14) (size 15 to 20)
#    0.000    0.750    5.000    1.500    1.750    5.000 
#    2.250    0.000    0.000    0.000    0.000    0.000 
#    0.000    0.000    0.000    0.000    0.000    0.000 
#
# Total GULP energy -198209.826446 kJ/mol
# GULP energy per Si atom -12388.114153 kJ/mol
# Density = 2.475781 g / cm^3
# Si number density = 24.814288 Si / 1000 Ang^3
#
#
#
# Elastic Constant Matrix: (Units=GPa)
#
#
# Indices 1 2 3 4 5 6 
#
# 1 95.3935 17.4720 36.2465 6.8855 18.0333 12.1452
# 2 17.4720 135.9928 33.2337 22.5168 14.5633 9.9620
# 3 36.2465 33.2337 108.6700 19.7391 10.8710 -8.8290
# 4 6.8855 22.5168 19.7391 46.7816 0.2048 8.8361
# 5 18.0333 14.5633 10.8710 0.2048 29.2522 -6.1439
# 6 12.1452 9.9620 -8.8290 8.8361 -6.1439 26.9810
#
#
#
# Elastic Compliance Matrix: (Units=1/GPa)
#
#
# Indices 1 2 3 4 5 6 
#
# 1 0.016143 0.001185 -0.006074 0.002098 -0.011006 -0.012886
# 2 0.001185 0.009222 -0.002647 -0.002486 -0.005419 -0.005224
# 3 -0.006074 -0.002647 0.013689 -0.005608 0.002227 0.010535
# 4 0.002098 -0.002486 -0.005608 0.026649 -0.000402 -0.010680
# 5 -0.011006 -0.005419 0.002227 -0.000402 0.046719 0.018454
# 6 -0.012886 -0.005224 0.010535 -0.010680 0.018454 0.055940
#
#
# Mechanical properties :
#
#
# Convention : Reuss Voigt Hill
#
# Bulk Modulus (GPa) = 41.69366 57.10674 49.40020
# Shear Modulus (GPa) = 26.11941 37.47656 31.79799
#
# Velocity S-wave (km/s) = 3.24789 3.89045 3.58360
# Velocity P-wave (km/s) = 5.55912 6.57605 6.08885
#
# Compressibility (1/GPa) = 0.02398446
#
# Stress axis : x y z
#
# Youngs Moduli (GPa) = 61.94463 108.43136 73.04961
#
# Poissons Ratio (x) = -0.12854 0.44372
# Poissons Ratio (y) = -0.07343 0.19334
# Poissons Ratio (z) = 0.37626 0.28698
#
# Static dielectric constant tensor:
#      x y z
#    x 4.542050 -0.046110 0.043870 
#    y -0.046110 4.808350 0.111890 
#    z 0.043870 0.111890 4.531930 
# 
# 
# High freq. dielectric constant tensor:
#      x y z
#    x 1.988310 -0.003360 0.005790 
#    y -0.003360 2.014360 0.005760 
#    z 0.005790 0.005760 1.977110 
# 
# From -- ./inp_files/429223.got.cif
#   From: 2010.06.25/outbox.cif.g09.slc.cpg/sg2_215_cif.got.tgz:429223.got - 2010.06.27 13:26:56.
