data_PCOD8033109
_publ_section_title
;
Structure prediction by ZEFSAII (Michael W. Deem and Ramdas Pophale) SiO2 
 PCOD8033109
Probable space group: P -1
;
_chemical_formula_sum "Si O2"
_cell_formula_units_Z 14
_cell_length_a 11.406084
_cell_length_b 8.420583
_cell_length_c 8.156192
_cell_angle_alpha 60.697019
_cell_angle_beta 71.739360
_cell_angle_gamma 104.396104
_cell_volume 567.176068
_symmetry_space_group_name_H-M "P -1"
_symmetry_group_IT_number 2
_symmetry_cell_setting 'triclinic'
loop_
_space_group_symop_operation_xyz
x,y,z
-x,-y,-z
loop_
_atom_site_type_symbol
_atom_site_label
_atom_site_fract_x
_atom_site_fract_y
_atom_site_fract_z
Si Si1 0.379660 0.732246 0.228651
Si Si2 0.110868 0.071132 0.182008
Si Si3 0.536930 0.203889 0.487362
Si Si4 0.978254 0.315911 0.987170
Si Si5 0.916548 0.620010 0.442889
Si Si6 0.593279 0.601138 0.064177
Si Si7 0.285765 0.978288 0.908762
O O1 0.367652 0.778969 0.403364
O O2 0.243576 0.510278 0.356177
O O3 0.521309 0.711864 0.146289
O O4 0.376894 0.914773 0.026764
O O5 0.249435 0.222637 0.153384
O O6 0.004332 0.833285 0.403448
O O7 0.004246 0.160735 0.167786
O O8 0.183918 0.058019 0.987925
O O9 0.606315 0.419741 0.248469
O O10 0.500000 0.000000 0.500000
O O11 0.387078 0.160488 0.649383
O O12 0.082772 0.358701 0.765428
O O13 0.816245 0.225047 0.048531
O O14 0.000000 0.500000 0.000000
O O15 0.000000 0.500000 0.500000
O O16 0.500000 0.500000 0.000000
#
# Coordination Sequence:
#
# PCOD8033109 Si02
#       7
#     2   2   2   2   2   2   2
#     4  12  25  47  77 107 150 189 251 301 369 440
#     4  11  25  48  73 100 148 190 245 292 373 429
#     4  12  28  44  75 108 146 194 250 300 371 435
#     4  11  26  44  71 102 151 188 250 303 365 436
#     4  11  23  44  74 104 138 192 242 293 371 431
#     4  12  29  48  74 109 150 193 245 305 368 443
#     4  11  24  46  74 105 145 199 238 305 370 433
#
# _framework density 24.683695
#
# number of rings (size 3 to 8) (size 9 to 14) (size 15 to 20)
#    0.000    0.571    4.286    4.286   12.000    0.000 
#    0.000    1.429    0.000    0.000    0.000    0.000 
#    0.000    0.000    0.000    0.000    0.000    0.000 
#
# Total GULP energy -173466.226769 kJ/mol
# GULP energy per Si atom -12390.444769 kJ/mol
# Density = 2.462751 g / cm^3
# Si number density = 24.683695 Si / 1000 Ang^3
#
#
#
# Elastic Constant Matrix: (Units=GPa)
#
#
# Indices 1 2 3 4 5 6 
#
# 1 115.1932 37.3474 14.6322 -8.9870 19.1730 0.8516
# 2 37.3474 138.8916 17.4847 -18.8910 29.9759 9.6074
# 3 14.6322 17.4847 70.9432 -20.8062 5.8213 2.9685
# 4 -8.9870 -18.8910 -20.8062 35.4906 1.2782 10.2738
# 5 19.1730 29.9759 5.8213 1.2782 39.6676 -4.6642
# 6 0.8516 9.6074 2.9685 10.2738 -4.6642 43.9612
#
#
#
# Elastic Compliance Matrix: (Units=1/GPa)
#
#
# Indices 1 2 3 4 5 6 
#
# 1 0.010028 -0.001564 -0.000944 0.001432 -0.003633 -0.000509
# 2 -0.001564 0.010660 0.000768 0.007464 -0.008238 -0.004970
# 3 -0.000944 0.000768 0.018221 0.012336 -0.003744 -0.004660
# 4 0.001432 0.007464 0.012336 0.044204 -0.011215 -0.014012
# 5 -0.003633 -0.008238 -0.003744 -0.011215 0.035097 0.008468
# 6 -0.000509 -0.004970 -0.004660 -0.014012 0.008468 0.028331
#
#
# Mechanical properties :
#
#
# Convention : Reuss Voigt Hill
#
# Bulk Modulus (GPa) = 28.22369 51.55073 39.88721
# Shear Modulus (GPa) = 30.89655 40.86146 35.87900
#
# Velocity S-wave (km/s) = 3.54177 4.07308 3.81668
# Velocity P-wave (km/s) = 5.30891 6.56124 5.96801
#
# Compressibility (1/GPa) = 0.03543123
#
# Stress axis : x y z
#
# Youngs Moduli (GPa) = 99.72042 93.80451 54.88140
#
# Poissons Ratio (x) = 0.14668 0.05178
# Poissons Ratio (y) = 0.15593 -0.04215
# Poissons Ratio (z) = 0.09409 -0.07205
#
# Static dielectric constant tensor:
#      x y z
#    x 4.566190 0.330970 -0.388390 
#    y 0.330970 4.708040 -0.318010 
#    z -0.388390 -0.318010 4.112670 
# 
# 
# High freq. dielectric constant tensor:
#      x y z
#    x 1.988690 0.019890 -0.009280 
#    y 0.019890 2.001710 -0.025500 
#    z -0.009280 -0.025500 1.966460 
# 
# From -- ./inp_files/237133.got.cif
#   From: 2010.06.25/outbox.cif.g09.slc.cpg/sg2_119_cif.got.tgz:237133.got - 2010.06.27 13:26:56.
