data_PCOD8033316
_publ_section_title
;
Structure prediction by ZEFSAII (Michael W. Deem and Ramdas Pophale) SiO2 
 PCOD8033316
Probable space group: P -1
;
_chemical_formula_sum "Si O2"
_cell_formula_units_Z 16
_cell_length_a 19.233689
_cell_length_b 9.104365
_cell_length_c 18.959844
_cell_angle_alpha 152.447373
_cell_angle_beta 27.244741
_cell_angle_gamma 145.204972
_cell_volume 694.476225
_symmetry_space_group_name_H-M "P -1"
_symmetry_group_IT_number 2
_symmetry_cell_setting 'triclinic'
loop_
_space_group_symop_operation_xyz
x,y,z
-x,-y,-z
loop_
_atom_site_type_symbol
_atom_site_label
_atom_site_fract_x
_atom_site_fract_y
_atom_site_fract_z
Si Si1 0.316887 0.710524 0.449306
Si Si2 0.130932 0.616026 0.078164
Si Si3 0.343965 0.242589 0.452835
Si Si4 0.657919 0.468891 0.879915
Si Si5 0.819881 0.296110 0.285438
Si Si6 0.130432 0.306021 0.324766
Si Si7 0.648326 0.601155 0.108416
Si Si8 0.675638 0.591729 0.305695
O O1 0.185310 0.698745 0.622614
O O2 0.245335 0.518152 0.364680
O O3 0.469789 0.576835 0.281358
O O4 0.377528 0.079504 0.532209
O O5 0.993737 0.366109 0.129535
O O6 0.074550 0.960701 0.264656
O O7 0.275891 0.640133 0.011573
O O8 0.181561 0.488898 0.903202
O O9 0.275875 0.426303 0.530041
O O10 0.529667 0.310353 0.313080
O O11 0.271913 0.361971 0.640741
O O12 0.289177 0.867106 0.331585
O O13 0.778813 0.747745 0.852406
O O14 0.500000 0.500000 0.000000
O O15 0.657719 0.497063 0.975336
O O16 0.740183 0.957032 0.183814
O O17 0.000000 0.500000 0.500000
#
# Coordination Sequence:
#
# PCOD8033316 Si02
#       8
#     2   2   2   2   2   2   2   2
#     4  12  25  49  76 102 149 193 238 301 358 425
#     4  12  29  46  72 110 146 193 240 297 361 434
#     4  11  24  44  74 105 144 190 237 300 359 429
#     4  12  25  47  73 109 143 189 246 298 358 426
#     4  12  27  47  70 107 147 191 238 296 370 421
#     4  12  29  50  72 106 151 195 235 296 370 431
#     4  12  26  48  75 109 144 187 246 305 355 427
#     4  11  23  45  74 107 141 188 249 291 356 428
#
# _framework density 23.038944999999998
#
# number of rings (size 3 to 8) (size 9 to 14) (size 15 to 20)
#    0.000    0.250    5.000    3.000    7.000    1.500 
#    0.000    0.000    0.000    0.000    0.000    0.000 
#    0.000    0.000    0.000    0.000    0.000    0.000 
#
# Total GULP energy -198436.324830 kJ/mol
# GULP energy per Si atom -12402.270302 kJ/mol
# Density = 2.298651 g / cm^3
# Si number density = 23.038945 Si / 1000 Ang^3
#
#
#
# Elastic Constant Matrix: (Units=GPa)
#
#
# Indices 1 2 3 4 5 6 
#
# 1 92.8031 31.0443 37.8903 4.3241 2.5976 -2.9176
# 2 31.0443 98.7719 36.9997 -13.5039 6.7380 -8.9711
# 3 37.8903 36.9997 89.2602 -15.2296 4.9682 6.6229
# 4 4.3241 -13.5039 -15.2296 48.1253 -13.5143 0.6060
# 5 2.5976 6.7380 4.9682 -13.5143 52.6058 -3.5667
# 6 -2.9176 -8.9711 6.6229 0.6060 -3.5667 30.2456
#
#
#
# Elastic Compliance Matrix: (Units=1/GPa)
#
#
# Indices 1 2 3 4 5 6 
#
# 1 0.014287 -0.002679 -0.005746 -0.004086 -0.000745 0.001836
# 2 -0.002679 0.013347 -0.004294 0.002508 -0.000218 0.004565
# 3 -0.005746 -0.004294 0.016626 0.004667 0.000086 -0.005552
# 4 -0.004086 0.002508 0.004667 0.024968 0.005821 -0.000486
# 5 -0.000745 -0.000218 0.000086 0.005821 0.020708 0.002170
# 6 0.001836 0.004565 -0.005552 -0.000486 0.002170 0.036075
#
#
# Mechanical properties :
#
#
# Convention : Reuss Voigt Hill
#
# Bulk Modulus (GPa) = 53.13056 54.74486 53.93771
# Shear Modulus (GPa) = 31.70124 37.85540 34.77832
#
# Velocity S-wave (km/s) = 3.71345 4.05792 3.88950
# Velocity P-wave (km/s) = 6.44186 6.76529 6.60555
#
# Compressibility (1/GPa) = 0.01882156
#
# Stress axis : x y z
#
# Youngs Moduli (GPa) = 69.99552 74.92155 60.14790
#
# Poissons Ratio (x) = 0.20071 0.34561
# Poissons Ratio (y) = 0.18752 0.25828
# Poissons Ratio (z) = 0.40219 0.32172
#
# Static dielectric constant tensor:
#      x y z
#    x 4.195160 -0.161580 0.001000 
#    y -0.161580 4.229280 -0.026060 
#    z 0.001000 -0.026060 3.941930 
# 
# 
# High freq. dielectric constant tensor:
#      x y z
#    x 1.915480 -0.016330 0.000050 
#    y -0.016330 1.916020 -0.004240 
#    z 0.000050 -0.004240 1.915200 
# 
# From -- ./inp_files/298266.got.cif
#   From: 2010.06.25/outbox.cif.g09.slc.cpg/sg2_150_cif.got.tgz:298266.got - 2010.06.27 13:26:56.
