data_PCOD8033496
_publ_section_title
;
Structure prediction by ZEFSAII (Michael W. Deem and Ramdas Pophale) SiO2 
 PCOD8033496
Probable space group: P -1
;
_chemical_formula_sum "Si O2"
_cell_formula_units_Z 16
_cell_length_a 15.070570
_cell_length_b 20.824760
_cell_length_c 8.357338
_cell_angle_alpha 62.854023
_cell_angle_beta 106.415405
_cell_angle_gamma 160.485176
_cell_volume 676.978634
_symmetry_space_group_name_H-M "P -1"
_symmetry_group_IT_number 2
_symmetry_cell_setting 'triclinic'
loop_
_space_group_symop_operation_xyz
x,y,z
-x,-y,-z
loop_
_atom_site_type_symbol
_atom_site_label
_atom_site_fract_x
_atom_site_fract_y
_atom_site_fract_z
Si Si1 0.769632 0.250760 0.406818
Si Si2 0.979938 0.178909 0.309490
Si Si3 0.802632 0.221229 0.797116
Si Si4 0.380032 0.701338 0.740400
Si Si5 0.745300 0.757457 0.705717
Si Si6 0.951084 0.743418 0.108362
Si Si7 0.934445 0.018079 0.058676
Si Si8 0.708159 0.448725 0.821695
O O1 0.774807 0.256209 0.596489
O O2 0.709023 0.284492 0.267049
O O3 0.088139 0.460039 0.261813
O O4 0.500000 0.000000 0.500000
O O5 0.233100 0.303333 0.305508
O O6 0.097435 0.335173 0.289195
O O7 0.672030 0.919169 0.526373
O O8 0.912635 0.146872 0.126415
O O9 0.089382 0.452332 0.788378
O O10 0.866107 0.187610 0.797987
O O11 0.500000 0.000000 0.000000
O O12 0.443405 0.697024 0.929307
O O13 0.411284 0.542844 0.759295
O O14 0.822225 0.803131 0.878262
O O15 0.000000 0.000000 0.500000
O O16 0.016629 0.862993 0.116007
O O17 0.571152 0.740433 0.227456
O O18 0.000000 0.000000 0.000000
#
# Coordination Sequence:
#
# PCOD8033496 Si02
#       8
#     2   2   2   2   2   2   2   2
#     4  12  27  47  70 109 150 183 241 309 362 422
#     4  11  23  46  75 104 144 193 239 297 350 441
#     4  12  27  46  78 108 143 196 251 290 357 442
#     4  12  26  48  76 102 147 199 242 288 372 434
#     4  11  25  46  76 104 145 194 243 289 363 440
#     4  11  24  46  75 104 147 192 243 295 360 436
#     4  11  26  44  72 105 146 184 238 302 364 417
#     4  12  26  46  73 108 149 186 239 304 366 422
#
# _framework density 23.634422000000001
#
# number of rings (size 3 to 8) (size 9 to 14) (size 15 to 20)
#    0.000    0.500    2.500    6.000   10.500    0.000 
#    0.000    1.250    0.000    0.000    0.000    0.000 
#    0.000    0.000    0.000    0.000    0.000    0.000 
#
# Total GULP energy -198389.617715 kJ/mol
# GULP energy per Si atom -12399.351107 kJ/mol
# Density = 2.358063 g / cm^3
# Si number density = 23.634422 Si / 1000 Ang^3
#
#
#
# Elastic Constant Matrix: (Units=GPa)
#
#
# Indices 1 2 3 4 5 6 
#
# 1 149.9646 28.6099 13.8242 -17.0775 4.0023 -0.4263
# 2 28.6099 96.0765 17.6799 -24.5674 -11.4148 6.1406
# 3 13.8242 17.6799 105.1162 -25.2164 -8.4514 4.2267
# 4 -17.0775 -24.5674 -25.2164 33.2100 4.8242 -1.9912
# 5 4.0023 -11.4148 -8.4514 4.8242 42.2404 -9.7384
# 6 -0.4263 6.1406 4.2267 -1.9912 -9.7384 40.8719
#
#
#
# Elastic Compliance Matrix: (Units=1/GPa)
#
#
# Indices 1 2 3 4 5 6 
#
# 1 0.007340 -0.001661 -0.000177 0.002630 -0.001451 0.000127
# 2 -0.001661 0.013507 0.000348 0.008960 0.002618 -0.001022
# 3 -0.000177 0.000348 0.011728 0.008847 0.001327 -0.000520
# 4 0.002630 0.008960 0.008847 0.044974 -0.001274 -0.000346
# 5 -0.001451 0.002618 0.001327 -0.001274 0.026231 0.005642
# 6 0.000127 -0.001022 -0.000520 -0.000346 0.005642 0.026003
#
#
# Mechanical properties :
#
#
# Convention : Reuss Voigt Hill
#
# Bulk Modulus (GPa) = 33.79085 52.37613 43.08349
# Shear Modulus (GPa) = 35.05637 42.66734 38.86186
#
# Velocity S-wave (km/s) = 3.85551 4.25350 4.05938
# Velocity P-wave (km/s) = 5.84365 6.80676 6.34351
#
# Compressibility (1/GPa) = 0.02959381
#
# Stress axis : x y z
#
# Youngs Moduli (GPa) = 136.23969 74.03840 85.26553
#
# Poissons Ratio (x) = 0.12300 0.01508
# Poissons Ratio (y) = 0.22633 -0.02965
# Poissons Ratio (z) = 0.02409 -0.02574
#
# Static dielectric constant tensor:
#      x y z
#    x 4.831740 0.035830 -0.068330 
#    y 0.035830 4.273350 -0.218650 
#    z -0.068330 -0.218650 3.823610 
# 
# 
# High freq. dielectric constant tensor:
#      x y z
#    x 1.960550 0.005650 0.009070 
#    y 0.005650 1.940080 -0.019070 
#    z 0.009070 -0.019070 1.927180 
# 
# From -- ./inp_files/319308.got.cif
#   From: 2010.06.25/outbox.cif.g09.slc.cpg/sg2_160_cif.got.tgz:319308.got - 2010.06.27 13:26:56.
