data_PCOD8033061
_publ_section_title
;
Structure prediction by ZEFSAII (Michael W. Deem and Ramdas Pophale) SiO2 
 PCOD8033061
Probable space group: P -1
;
_chemical_formula_sum "Si O2"
_cell_formula_units_Z 16
_cell_length_a 19.632977
_cell_length_b 12.539721
_cell_length_c 9.343443
_cell_angle_alpha 45.727650
_cell_angle_beta 57.381233
_cell_angle_gamma 26.774169
_cell_volume 716.249109
_symmetry_space_group_name_H-M "P -1"
_symmetry_group_IT_number 2
_symmetry_cell_setting 'triclinic'
loop_
_space_group_symop_operation_xyz
x,y,z
-x,-y,-z
loop_
_atom_site_type_symbol
_atom_site_label
_atom_site_fract_x
_atom_site_fract_y
_atom_site_fract_z
Si Si1 0.592462 0.161639 0.080755
Si Si2 0.028804 0.718881 0.722789
Si Si3 0.001142 0.167581 0.887181
Si Si4 0.254353 0.634067 0.532847
Si Si5 0.858633 0.592004 0.849045
Si Si6 0.330880 0.630681 0.154289
Si Si7 0.918226 0.523536 0.399912
Si Si8 0.459559 0.890823 0.127844
O O1 0.443039 0.369953 0.157720
O O2 0.743552 0.866925 0.274772
O O3 0.597693 0.331788 0.891183
O O4 0.574008 0.103410 0.004316
O O5 0.162480 0.630300 0.684001
O O6 0.060892 0.601224 0.647153
O O7 0.041302 0.570510 0.966175
O O8 0.853544 0.053952 0.611491
O O9 0.873018 0.404228 0.935963
O O10 0.949376 0.356210 0.643035
O O11 0.000000 0.000000 0.000000
O O12 0.173326 0.931031 0.972307
O O13 0.303093 0.555441 0.383817
O O14 0.398985 0.428200 0.669372
O O15 0.945168 0.566620 0.663205
O O16 0.685004 0.916301 0.782750
O O17 0.500000 0.000000 0.000000
#
# Coordination Sequence:
#
# PCOD8033061 Si02
#       8
#     2   2   2   2   2   2   2   2
#     4  11  26  47  69 102 148 186 237 297 353 426
#     4  11  23  44  73 100 139 183 235 294 350 419
#     4  12  28  46  72 106 143 190 238 289 352 427
#     4  11  24  44  69 102 145 184 234 289 359 422
#     4  12  25  46  73 100 141 182 238 297 349 418
#     4  11  26  46  70 101 148 190 235 289 361 427
#     4  12  25  45  74 105 137 189 238 289 354 422
#     4  12  27  45  69 106 138 183 238 300 354 418
#
# _framework density 22.338598000000001
#
# number of rings (size 3 to 8) (size 9 to 14) (size 15 to 20)
#    0.000    0.500    5.000    1.500    8.750    1.500 
#    0.000    1.875    0.000    0.000    0.000    0.000 
#    0.000    0.000    0.000    0.000    0.000    0.000 
#
# Total GULP energy -198344.701125 kJ/mol
# GULP energy per Si atom -12396.543820 kJ/mol
# Density = 2.228775 g / cm^3
# Si number density = 22.338598 Si / 1000 Ang^3
#
#
#
# Elastic Constant Matrix: (Units=GPa)
#
#
# Indices 1 2 3 4 5 6 
#
# 1 105.2084 40.4820 21.4613 1.7600 10.8120 15.4478
# 2 40.4820 167.7535 40.8577 3.5850 17.3846 -7.7403
# 3 21.4613 40.8577 130.5908 -8.9434 9.7664 -7.8095
# 4 1.7600 3.5850 -8.9434 38.8066 0.1291 11.7276
# 5 10.8120 17.3846 9.7664 0.1291 36.3777 -9.7474
# 6 15.4478 -7.7403 -7.8095 11.7276 -9.7474 47.4014
#
#
#
# Elastic Compliance Matrix: (Units=1/GPa)
#
#
# Indices 1 2 3 4 5 6 
#
# 1 0.011836 -0.002488 -0.001158 0.001081 -0.003479 -0.005437
# 2 -0.002488 0.007281 -0.001732 -0.001468 -0.001813 0.001705
# 3 -0.001158 -0.001732 0.008643 0.001952 -0.000929 0.000844
# 4 0.001081 -0.001468 0.001952 0.028686 -0.002349 -0.007851
# 5 -0.003479 -0.001813 -0.000929 -0.002349 0.031735 0.007792
# 6 -0.005437 0.001705 0.000844 -0.007851 0.007792 0.026830
#
#
# Mechanical properties :
#
#
# Convention : Reuss Voigt Hill
#
# Bulk Modulus (GPa) = 58.80502 67.68385 63.24443
# Shear Modulus (GPa) = 38.04123 44.56726 41.30424
#
# Velocity S-wave (km/s) = 4.13114 4.47148 4.30467
# Velocity P-wave (km/s) = 7.00976 7.55140 7.28561
#
# Compressibility (1/GPa) = 0.01700535
#
# Stress axis : x y z
#
# Youngs Moduli (GPa) = 84.48719 137.33793 115.69472
#
# Poissons Ratio (x) = 0.34166 0.13395
# Poissons Ratio (y) = 0.21018 0.20041
# Poissons Ratio (z) = 0.09782 0.23790
#
# Static dielectric constant tensor:
#      x y z
#    x 4.325670 0.025010 -0.205650 
#    y 0.025010 4.496760 0.039280 
#    z -0.205650 0.039280 4.359240 
# 
# 
# High freq. dielectric constant tensor:
#      x y z
#    x 1.879340 0.011240 0.007350 
#    y 0.011240 1.898720 -0.001890 
#    z 0.007350 -0.001890 1.884880 
# 
# From -- ./inp_files/332869.got.cif
#   From: 2010.06.25/outbox.cif.g09.slc.cpg/sg2_167_cif.got.tgz:332869.got - 2010.06.27 13:26:56.
