data_PCOD8033900
_publ_section_title
;
Structure prediction by ZEFSAII (Michael W. Deem and Ramdas Pophale) SiO2 
 PCOD8033900
Probable space group: P -1
;
_chemical_formula_sum "Si O2"
_cell_formula_units_Z 10
_cell_length_a 8.703644
_cell_length_b 8.907111
_cell_length_c 9.899078
_cell_angle_alpha 61.002985
_cell_angle_beta 107.991058
_cell_angle_gamma 66.338413
_cell_volume 478.240239
_symmetry_space_group_name_H-M "P -1"
_symmetry_group_IT_number 2
_symmetry_cell_setting 'triclinic'
loop_
_space_group_symop_operation_xyz
x,y,z
-x,-y,-z
loop_
_atom_site_type_symbol
_atom_site_label
_atom_site_fract_x
_atom_site_fract_y
_atom_site_fract_z
Si Si1 0.144721 0.368965 0.895607
Si Si2 0.136713 0.896009 0.446544
Si Si3 0.548448 0.549838 0.135031
Si Si4 0.883795 0.973136 0.095220
Si Si5 0.261146 0.182289 0.298700
O O1 0.262773 0.442201 0.822249
O O2 0.165535 0.185113 0.892628
O O3 0.891155 0.590645 0.748865
O O4 0.268366 0.256726 0.119536
O O5 0.370896 0.654715 0.651302
O O6 0.022966 0.859647 0.318748
O O7 0.155878 0.069403 0.310650
O O8 0.000000 0.000000 0.500000
O O9 0.500000 0.500000 0.000000
O O10 0.337582 0.777084 0.042471
O O11 0.000000 0.000000 0.000000
O O12 0.500000 0.000000 0.500000
#
# Coordination Sequence:
#
# PCOD8033900 Si02
#       5
#     2   2   2   2   2
#     4  11  25  45  66 105 140 181 227 286 343 405
#     4  12  24  46  71 102 132 185 234 276 346 414
#     4  12  25  45  75  98 141 184 229 282 345 412
#     4  12  27  46  70 104 145 175 231 295 339 402
#     4  11  24  42  72  99 140 180 231 279 346 409
#
# _framework density 20.909993
#
# number of rings (size 3 to 8) (size 9 to 14) (size 15 to 20)
#    0.000    0.400    6.000    1.800    5.600    3.200 
#    0.000    0.000    0.000    0.000    0.000    0.000 
#    0.000    0.000    0.000    0.000    0.000    0.000 
#
# Total GULP energy -124061.399021 kJ/mol
# GULP energy per Si atom -12406.139902 kJ/mol
# Density = 2.086240 g / cm^3
# Si number density = 20.909993 Si / 1000 Ang^3
#
#
#
# Elastic Constant Matrix: (Units=GPa)
#
#
# Indices 1 2 3 4 5 6 
#
# 1 67.9852 36.8801 11.9313 3.2934 4.0175 -2.2243
# 2 36.8801 160.6727 50.3725 -10.7103 20.6512 -4.0629
# 3 11.9313 50.3725 129.7970 -13.5501 22.4615 -16.6808
# 4 3.2934 -10.7103 -13.5501 38.7040 -2.8514 -0.0482
# 5 4.0175 20.6512 22.4615 -2.8514 43.0071 -7.0480
# 6 -2.2243 -4.0629 -16.6808 -0.0482 -7.0480 35.9677
#
#
#
# Elastic Compliance Matrix: (Units=1/GPa)
#
#
# Indices 1 2 3 4 5 6 
#
# 1 0.017075 -0.004048 -0.000274 -0.002638 0.000407 0.000548
# 2 -0.004048 0.008292 -0.002374 0.001630 -0.002400 -0.000883
# 3 -0.000274 -0.002374 0.009964 0.002619 -0.003258 0.003701
# 4 -0.002638 0.001630 0.002619 0.027441 0.000128 0.001298
# 5 0.000407 -0.002400 -0.003258 0.000128 0.026644 0.003464
# 6 0.000548 -0.000883 0.003701 0.001298 0.003464 0.030134
#
#
# Mechanical properties :
#
#
# Convention : Reuss Voigt Hill
#
# Bulk Modulus (GPa) = 45.58057 61.86917 53.72487
# Shear Modulus (GPa) = 35.64982 40.82051 38.23517
#
# Velocity S-wave (km/s) = 4.13354 4.42317 4.28080
# Velocity P-wave (km/s) = 6.68037 7.46582 7.08399
#
# Compressibility (1/GPa) = 0.02193917
#
# Stress axis : x y z
#
# Youngs Moduli (GPa) = 58.56654 120.59882 100.36474
#
# Poissons Ratio (x) = 0.48813 0.02751
# Poissons Ratio (y) = 0.23705 0.23825
# Poissons Ratio (z) = 0.01605 0.28628
#
# Static dielectric constant tensor:
#      x y z
#    x 3.918490 0.089220 -0.112680 
#    y 0.089220 3.973550 -0.159910 
#    z -0.112680 -0.159910 4.037840 
# 
# 
# High freq. dielectric constant tensor:
#      x y z
#    x 1.825230 0.002940 -0.001920 
#    y 0.002940 1.827670 -0.010930 
#    z -0.001920 -0.010930 1.832840 
# 
# From -- ./inp_files/16005.got.cif
#   From: 2010.06.25/outbox.cif.g09.slc.cpg/sg2_9_cif.got.tgz:16005.got - 2010.06.27 13:26:56.
