data_PCOD8033939
_publ_section_title
;
Structure prediction by ZEFSAII (Michael W. Deem and Ramdas Pophale) SiO2 
 PCOD8033939
Probable space group: P -1
;
_chemical_formula_sum "Si O2"
_cell_formula_units_Z 16
_cell_length_a 27.670249
_cell_length_b 12.625913
_cell_length_c 9.573538
_cell_angle_alpha 149.735084
_cell_angle_beta 38.554546
_cell_angle_gamma 153.586254
_cell_volume 749.343356
_symmetry_space_group_name_H-M "P -1"
_symmetry_group_IT_number 2
_symmetry_cell_setting 'triclinic'
loop_
_space_group_symop_operation_xyz
x,y,z
-x,-y,-z
loop_
_atom_site_type_symbol
_atom_site_label
_atom_site_fract_x
_atom_site_fract_y
_atom_site_fract_z
Si Si1 0.004529 0.226054 0.822496
Si Si2 0.188501 0.871907 0.497234
Si Si3 0.172904 0.833454 0.995054
Si Si4 0.503805 0.886691 0.720387
Si Si5 0.987815 0.774301 0.863024
Si Si6 0.670131 0.789534 0.703738
Si Si7 0.677025 0.874076 0.250131
Si Si8 0.493812 0.800671 0.174937
O O1 0.116420 0.546182 0.886846
O O2 0.998551 0.175304 0.943604
O O3 0.000000 0.000000 0.500000
O O4 0.906108 0.178516 0.934678
O O5 0.134262 0.538277 0.251381
O O6 0.084393 0.815375 0.630142
O O7 0.279228 0.049378 0.374939
O O8 0.242719 0.048984 0.720872
O O9 0.257483 0.896274 0.764327
O O10 0.237286 0.093792 0.260282
O O11 0.395469 0.550088 0.551805
O O12 0.602703 0.912676 0.527135
O O13 0.520213 0.110942 0.837131
O O14 0.500000 0.000000 0.000000
O O15 0.000000 0.000000 0.000000
O O16 0.599675 0.851429 0.993309
O O17 0.610587 0.549136 0.967502
O O18 0.500000 0.000000 0.500000
#
# Coordination Sequence:
#
# PCOD8033939 Si02
#       8
#     2   2   2   2   2   2   2   2
#     4  11  26  44  67 101 135 173 227 280 332 400
#     4  11  24  45  66  94 138 175 224 273 342 398
#     4  11  24  45  68  94 138 179 220 275 338 396
#     4  11  24  43  68  98 136 174 223 282 334 396
#     4  11  26  44  69  99 135 175 223 280 335 401
#     4  11  24  43  68  99 134 180 221 278 336 401
#     4  11  24  43  68  99 134 180 221 278 336 401
#     4  11  24  43  66 100 138 170 226 277 335 401
#
# _framework density 21.352027
#
# number of rings (size 3 to 8) (size 9 to 14) (size 15 to 20)
#    0.000    1.000    2.500    3.000    3.500   10.000 
#    0.000    0.000    0.000    0.000    0.000    0.000 
#    0.000    0.000    0.000    0.000    0.000    0.000 
#
# Total GULP energy -198350.746790 kJ/mol
# GULP energy per Si atom -12396.921674 kJ/mol
# Density = 2.130343 g / cm^3
# Si number density = 21.352027 Si / 1000 Ang^3
#
#
#
# Elastic Constant Matrix: (Units=GPa)
#
#
# Indices 1 2 3 4 5 6 
#
# 1 101.4446 46.8044 28.7388 8.4203 18.4972 -18.1554
# 2 46.8044 126.4118 47.0677 -3.7420 1.3863 -7.4997
# 3 28.7388 47.0677 128.9187 0.3557 14.0715 -4.0855
# 4 8.4203 -3.7420 0.3557 25.3584 -9.9730 8.9363
# 5 18.4972 1.3863 14.0715 -9.9730 36.3655 4.7142
# 6 -18.1554 -7.4997 -4.0855 8.9363 4.7142 40.0084
#
#
#
# Elastic Compliance Matrix: (Units=1/GPa)
#
#
# Indices 1 2 3 4 5 6 
#
# 1 0.020663 -0.007391 0.000563 -0.020154 -0.017874 0.014656
# 2 -0.007391 0.011951 -0.003724 0.008861 0.007744 -0.004386
# 3 0.000563 -0.003724 0.009618 -0.003556 -0.005092 0.001934
# 4 -0.020154 0.008861 -0.003556 0.070718 0.034272 -0.027681
# 5 -0.017874 0.007744 -0.005092 0.034272 0.050356 -0.020768
# 6 0.014656 -0.004386 0.001934 -0.027681 -0.020768 0.039651
#
#
# Mechanical properties :
#
#
# Convention : Reuss Voigt Hill
#
# Bulk Modulus (GPa) = 47.33198 66.88856 57.11027
# Shear Modulus (GPa) = 21.63528 35.95739 28.79634
#
# Velocity S-wave (km/s) = 3.18664 4.10814 3.67638
# Velocity P-wave (km/s) = 5.97956 7.34146 6.69523
#
# Compressibility (1/GPa) = 0.02112736
#
# Stress axis : x y z
#
# Youngs Moduli (GPa) = 48.39532 83.67344 103.97311
#
# Poissons Ratio (x) = 0.61846 -0.05856
# Poissons Ratio (y) = 0.35771 0.38723
# Poissons Ratio (z) = -0.02726 0.31163
#
# Static dielectric constant tensor:
#      x y z
#    x 3.599680 0.032090 0.266240 
#    y 0.032090 4.352010 0.153310 
#    z 0.266240 0.153310 3.797890 
# 
# 
# High freq. dielectric constant tensor:
#      x y z
#    x 1.847690 -0.001630 0.013850 
#    y -0.001630 1.859920 -0.001070 
#    z 0.013850 -0.001070 1.837270 
# 
# From -- ./inp_files/116994.got.cif
#   From: 2010.06.25/outbox.cif.g09.slc.cpg/sg2_59_cif.got.tgz:116994.got - 2010.06.27 13:26:56.
