data_PCOD8033722
_publ_section_title
;
Structure prediction by ZEFSAII (Michael W. Deem and Ramdas Pophale) SiO2 
 PCOD8033722
Probable space group: P -1
;
_chemical_formula_sum "Si O2"
_cell_formula_units_Z 16
_cell_length_a 12.867461
_cell_length_b 10.999917
_cell_length_c 20.307527
_cell_angle_alpha 150.577230
_cell_angle_beta 139.999622
_cell_angle_gamma 60.182112
_cell_volume 764.895830
_symmetry_space_group_name_H-M "P -1"
_symmetry_group_IT_number 2
_symmetry_cell_setting 'triclinic'
loop_
_space_group_symop_operation_xyz
x,y,z
-x,-y,-z
loop_
_atom_site_type_symbol
_atom_site_label
_atom_site_fract_x
_atom_site_fract_y
_atom_site_fract_z
Si Si1 0.531006 0.590711 0.631462
Si Si2 0.213374 0.593657 0.634085
Si Si3 0.511105 0.243673 0.034868
Si Si4 0.865727 0.698950 0.666433
Si Si5 0.316887 0.690108 0.336620
Si Si6 0.207572 0.755299 0.926703
Si Si7 0.383179 0.659145 0.208587
Si Si8 0.098491 0.707283 0.999617
O O1 0.500000 0.500000 0.500000
O O2 0.339071 0.587413 0.549579
O O3 0.543338 0.360068 0.574432
O O4 0.718295 0.904051 0.882604
O O5 0.327430 0.610593 0.761766
O O6 0.161070 0.310758 0.430233
O O7 0.000000 0.500000 0.500000
O O8 0.345580 0.905689 0.807694
O O9 0.408170 0.424795 0.070213
O O10 0.630759 0.295175 0.049163
O O11 0.897970 0.991727 0.853598
O O12 0.017525 0.614900 0.723308
O O13 0.295656 0.544836 0.185599
O O14 0.411096 0.038211 0.540610
O O15 0.114255 0.558454 0.212054
O O16 0.157272 0.654227 0.930522
O O17 0.240778 0.713469 0.124612
#
# Coordination Sequence:
#
# PCOD8033722 Si02
#       8
#     2   2   2   2   2   2   2   2
#     4  12  21  39  66  98 132 166 209 274 337 382
#     4  11  24  41  66  99 131 170 219 271 332 383
#     4  11  26  43  65  96 136 177 217 265 324 404
#     4  12  22  38  68  99 129 162 216 277 330 379
#     4  11  24  43  66  95 130 170 226 273 323 384
#     4  12  24  42  66 101 135 168 219 273 332 397
#     4  11  26  45  63  92 133 180 221 264 323 392
#     4  12  25  42  68 100 130 173 218 273 331 388
#
# _framework density 20.917881000000001
#
# number of rings (size 3 to 8) (size 9 to 14) (size 15 to 20)
#    0.000    0.500    6.250    2.250    5.250    1.500 
#    0.000    0.625    0.000    0.000    0.000    0.000 
#    0.000    0.000    0.000    0.000    0.000    0.000 
#
# Total GULP energy -198230.481645 kJ/mol
# GULP energy per Si atom -12389.405103 kJ/mol
# Density = 2.087027 g / cm^3
# Si number density = 20.917881 Si / 1000 Ang^3
#
#
#
# Elastic Constant Matrix: (Units=GPa)
#
#
# Indices 1 2 3 4 5 6 
#
# 1 161.7511 32.4109 40.6769 -3.5906 3.4487 7.9719
# 2 32.4109 69.7319 18.9247 -8.7380 0.5399 3.2682
# 3 40.6769 18.9247 84.1165 -14.7838 11.2572 3.5917
# 4 -3.5906 -8.7380 -14.7838 30.2805 -2.6548 -2.4884
# 5 3.4487 0.5399 11.2572 -2.6548 46.6092 -4.3894
# 6 7.9719 3.2682 3.5917 -2.4884 -4.3894 34.9005
#
#
#
# Elastic Compliance Matrix: (Units=1/GPa)
#
#
# Indices 1 2 3 4 5 6 
#
# 1 0.007589 -0.002780 -0.003280 -0.001601 0.000055 -0.001243
# 2 -0.002780 0.016591 -0.001824 0.003590 0.000621 -0.000397
# 3 -0.003280 -0.001824 0.015441 0.006295 -0.003165 -0.000618
# 4 -0.001601 0.003590 0.006295 0.037197 0.000877 0.002144
# 5 0.000055 0.000621 -0.003165 0.000877 0.022555 0.003154
# 6 -0.001243 -0.000397 -0.000618 0.002144 0.003154 0.029587
#
#
# Mechanical properties :
#
#
# Convention : Reuss Voigt Hill
#
# Bulk Modulus (GPa) = 41.92176 55.51385 48.71781
# Shear Modulus (GPa) = 32.74842 37.26384 35.00613
#
# Velocity S-wave (km/s) = 3.96102 4.22528 4.09528
# Velocity P-wave (km/s) = 6.40345 7.09934 6.76035
#
# Compressibility (1/GPa) = 0.02385396
#
# Stress axis : x y z
#
# Youngs Moduli (GPa) = 131.77426 60.27277 64.76213
#
# Poissons Ratio (x) = 0.16755 0.21242
# Poissons Ratio (y) = 0.36631 0.11811
# Poissons Ratio (z) = 0.43222 0.10992
#
# Static dielectric constant tensor:
#      x y z
#    x 4.064340 0.054090 0.098720 
#    y 0.054090 3.558310 -0.282080 
#    z 0.098720 -0.282080 3.917350 
# 
# 
# High freq. dielectric constant tensor:
#      x y z
#    x 1.841030 0.001820 0.006570 
#    y 0.001820 1.788010 -0.020180 
#    z 0.006570 -0.020180 1.833270 
# 
# From -- ./inp_files/438328.got.cif
#   From: 2010.06.25/outbox.cif.g09.slc.cpg/sg2_220_cif.got.tgz:438328.got - 2010.06.27 13:26:56.
