data_PCOD8033169
_publ_section_title
;
Structure prediction by ZEFSAII (Michael W. Deem and Ramdas Pophale) SiO2 
 PCOD8033169
Probable space group: P -1
;
_chemical_formula_sum "Si O2"
_cell_formula_units_Z 14
_cell_length_a 23.844126
_cell_length_b 5.994511
_cell_length_c 18.130942
_cell_angle_alpha 66.063995
_cell_angle_beta 160.218142
_cell_angle_gamma 124.112967
_cell_volume 653.700007
_symmetry_space_group_name_H-M "P -1"
_symmetry_group_IT_number 2
_symmetry_cell_setting 'triclinic'
loop_
_space_group_symop_operation_xyz
x,y,z
-x,-y,-z
loop_
_atom_site_type_symbol
_atom_site_label
_atom_site_fract_x
_atom_site_fract_y
_atom_site_fract_z
Si Si1 0.733536 0.040430 0.495927
Si Si2 0.935798 0.309750 0.160652
Si Si3 0.940373 0.104363 0.599224
Si Si4 0.941949 0.822787 0.877791
Si Si5 0.718665 0.245060 0.050000
Si Si6 0.733546 0.207780 0.778073
Si Si7 0.394262 0.144422 0.896807
O O1 0.790986 0.107551 0.471831
O O2 0.850944 0.369346 0.633060
O O3 0.800247 0.854154 0.644401
O O4 0.492157 0.839041 0.232855
O O5 0.847656 0.252129 0.141124
O O6 0.775645 0.286110 0.906779
O O7 0.984510 0.070092 0.241430
O O8 0.809277 0.947010 0.385061
O O9 0.143487 0.427555 0.786076
O O10 0.817614 0.477802 0.789841
O O11 0.152635 0.947314 0.079636
O O12 0.000000 0.000000 0.000000
O O13 0.672048 0.002786 0.085473
O O14 0.500000 0.000000 0.500000
O O15 0.500000 0.500000 0.000000
O O16 0.500000 0.000000 0.000000
#
# Coordination Sequence:
#
# PCOD8033169 Si02
#       7
#     2   2   2   2   2   2   2
#     4  11  23  45  67  99 139 179 231 285 357 420
#     4  11  25  43  66 102 138 180 231 294 347 430
#     4  11  25  46  72 101 145 175 238 289 349 433
#     4  11  24  43  66  93 134 182 225 287 348 417
#     4  11  27  43  74 104 133 188 230 290 364 421
#     4  11  26  42  63  99 135 178 235 288 351 415
#     4  12  27  50  78 107 147 193 239 296 368 432
#
# _framework density 21.416550999999998
#
# number of rings (size 3 to 8) (size 9 to 14) (size 15 to 20)
#    0.000    0.857    4.286    1.286    8.000    2.286 
#    0.000    0.000    0.000    0.000    0.000    0.000 
#    0.000    0.000    0.000    0.000    0.000    0.000 
#
# Total GULP energy -173449.203535 kJ/mol
# GULP energy per Si atom -12389.228824 kJ/mol
# Density = 2.136781 g / cm^3
# Si number density = 21.416551 Si / 1000 Ang^3
#
#
#
# Elastic Constant Matrix: (Units=GPa)
#
#
# Indices 1 2 3 4 5 6 
#
# 1 87.5723 32.2091 32.3142 7.5900 -10.1702 9.2508
# 2 32.2091 123.8364 52.1150 8.1477 -5.1672 3.3058
# 3 32.3142 52.1150 161.4550 20.4650 -15.6217 4.2675
# 4 7.5900 8.1477 20.4650 36.0229 3.7528 -8.6145
# 5 -10.1702 -5.1672 -15.6217 3.7528 38.4725 -3.3940
# 6 9.2508 3.3058 4.2675 -8.6145 -3.3940 33.8947
#
#
#
# Elastic Compliance Matrix: (Units=1/GPa)
#
#
# Indices 1 2 3 4 5 6 
#
# 1 0.013809 -0.002698 -0.001167 -0.002833 0.002755 -0.003803
# 2 -0.002698 0.009893 -0.002689 -0.000083 -0.000464 0.000042
# 3 -0.001167 -0.002689 0.008174 -0.004402 0.002967 -0.001270
# 4 -0.002833 -0.000083 -0.004402 0.033642 -0.005001 0.009385
# 5 0.002755 -0.000464 0.002967 -0.005001 0.028394 0.000492
# 6 -0.003803 0.000042 -0.001270 0.009385 0.000492 0.033131
#
#
# Mechanical properties :
#
#
# Convention : Reuss Voigt Hill
#
# Bulk Modulus (GPa) = 53.27875 67.34895 60.31385
# Shear Modulus (GPa) = 34.15112 38.75972 36.45542
#
# Velocity S-wave (km/s) = 3.99759 4.25879 4.13026
# Velocity P-wave (km/s) = 6.79993 7.46314 7.13924
#
# Compressibility (1/GPa) = 0.01876921
#
# Stress axis : x y z
#
# Youngs Moduli (GPa) = 72.41562 101.07709 122.34183
#
# Poissons Ratio (x) = 0.27268 0.14275
# Poissons Ratio (y) = 0.19536 0.32898
# Poissons Ratio (z) = 0.08450 0.27180
#
# Static dielectric constant tensor:
#      x y z
#    x 3.737100 -0.372870 -0.030750 
#    y -0.372870 3.946140 -0.046620 
#    z -0.030750 -0.046620 4.006010 
# 
# 
# High freq. dielectric constant tensor:
#      x y z
#    x 1.846230 0.009050 -0.013040 
#    y 0.009050 1.849270 -0.003280 
#    z -0.013040 -0.003280 1.849760 
# 
# From -- ./inp_files/6286.got.cif
#   From: 2010.06.25/outbox.cif.g09.slc.cpg/sg2_4_cif.got.tgz:6286.got - 2010.06.27 13:26:56.
