data_PCOD8033503
_publ_section_title
;
Structure prediction by ZEFSAII (Michael W. Deem and Ramdas Pophale) SiO2 
 PCOD8033503
Probable space group: P -1
;
_chemical_formula_sum "Si O2"
_cell_formula_units_Z 14
_cell_length_a 9.164145
_cell_length_b 24.460650
_cell_length_c 9.054021
_cell_angle_alpha 139.438017
_cell_angle_beta 48.261420
_cell_angle_gamma 150.922939
_cell_volume 641.374670
_symmetry_space_group_name_H-M "P -1"
_symmetry_group_IT_number 2
_symmetry_cell_setting 'triclinic'
loop_
_space_group_symop_operation_xyz
x,y,z
-x,-y,-z
loop_
_atom_site_type_symbol
_atom_site_label
_atom_site_fract_x
_atom_site_fract_y
_atom_site_fract_z
Si Si1 0.878141 0.541943 0.589801
Si Si2 0.844526 0.775729 0.872203
Si Si3 0.712498 0.170775 0.107606
Si Si4 0.794384 0.670693 0.399695
Si Si5 0.944417 0.984687 0.678506
Si Si6 0.203706 0.499207 0.784996
Si Si7 0.782691 0.102615 0.623106
O O1 0.540796 0.445588 0.676243
O O2 0.884193 0.533850 0.393606
O O3 0.000000 0.500000 0.500000
O O4 0.079112 0.686149 0.797255
O O5 0.839082 0.762624 0.672480
O O6 0.553597 0.635549 0.851847
O O7 0.140936 0.831682 0.859825
O O8 0.838345 0.873426 0.106990
O O9 0.398759 0.106556 0.239660
O O10 0.672948 0.091897 0.838527
O O11 0.877614 0.614902 0.319518
O O12 0.010754 0.755158 0.288469
O O13 0.027723 0.921430 0.557897
O O14 0.000000 0.000000 0.500000
O O15 0.000000 0.500000 0.000000
O O16 0.500000 0.000000 0.500000
#
# Coordination Sequence:
#
# PCOD8033503 Si02
#       7
#     2   2   2   2   2   2   2
#     4  11  24  43  72 104 140 181 233 292 351 415
#     4  11  23  46  75  98 139 190 234 290 352 419
#     4  12  25  48  72 104 144 185 237 293 352 420
#     4  11  24  48  68 102 143 182 232 288 355 421
#     4  12  28  45  74 105 136 187 243 286 351 422
#     4  11  25  42  71 106 138 186 235 288 352 423
#     4  12  30  46  71 107 142 189 235 291 356 416
#
# _framework density 21.828115
#
# number of rings (size 3 to 8) (size 9 to 14) (size 15 to 20)
#    0.000    0.571    4.286    3.000    8.000    5.143 
#    0.000    0.000    0.000    0.000    0.000    0.000 
#    0.000    0.000    0.000    0.000    0.000    0.000 
#
# Total GULP energy -173682.929023 kJ/mol
# GULP energy per Si atom -12405.923502 kJ/mol
# Density = 2.177843 g / cm^3
# Si number density = 21.828115 Si / 1000 Ang^3
#
#
#
# Elastic Constant Matrix: (Units=GPa)
#
#
# Indices 1 2 3 4 5 6 
#
# 1 133.6613 48.6798 32.8833 -1.1388 -18.2338 1.9944
# 2 48.6798 120.7881 48.7191 -7.4719 -3.7402 1.3059
# 3 32.8833 48.7191 114.6443 3.5847 -6.9083 15.2879
# 4 -1.1388 -7.4719 3.5847 40.7996 3.7131 -9.1874
# 5 -18.2338 -3.7402 -6.9083 3.7131 27.2969 2.7198
# 6 1.9944 1.3059 15.2879 -9.1874 2.7198 34.5507
#
#
#
# Elastic Compliance Matrix: (Units=1/GPa)
#
#
# Indices 1 2 3 4 5 6 
#
# 1 0.009782 -0.003478 -0.000820 -0.001030 0.006072 -0.000822
# 2 -0.003478 0.011625 -0.004589 0.003324 -0.002632 0.002883
# 3 -0.000820 -0.004589 0.012042 -0.003613 0.002991 -0.006304
# 4 -0.001030 0.003324 -0.003613 0.028076 -0.005909 0.009463
# 5 0.006072 -0.002632 0.002991 -0.005909 0.042537 -0.006494
# 6 -0.000822 0.002883 -0.006304 0.009463 -0.006494 0.034698
#
#
# Mechanical properties :
#
#
# Convention : Reuss Voigt Hill
#
# Bulk Modulus (GPa) = 63.80202 69.96203 66.88202
# Shear Modulus (GPa) = 30.90997 36.45021 33.68009
#
# Velocity S-wave (km/s) = 3.76714 4.09084 3.93233
# Velocity P-wave (km/s) = 6.94367 7.37796 7.16411
#
# Compressibility (1/GPa) = 0.01567348
#
# Stress axis : x y z
#
# Youngs Moduli (GPa) = 102.22876 86.02255 83.04379
#
# Poissons Ratio (x) = 0.29922 0.06808
# Poissons Ratio (y) = 0.35559 0.38112
# Poissons Ratio (z) = 0.08381 0.39479
#
# Static dielectric constant tensor:
#      x y z
#    x 4.058240 0.039690 -0.077250 
#    y 0.039690 4.146350 0.168960 
#    z -0.077250 0.168960 4.176940 
# 
# 
# High freq. dielectric constant tensor:
#      x y z
#    x 1.863730 -0.000020 -0.003270 
#    y -0.000020 1.870310 0.007710 
#    z -0.003270 0.007710 1.866770 
# 
# From -- ./inp_files/184668.got.cif
#   From: 2010.06.25/outbox.cif.g09.slc.cpg/sg2_93_cif.got.tgz:184668.got - 2010.06.27 13:26:56.
