data_PCOD8033103
_publ_section_title
;
Structure prediction by ZEFSAII (Michael W. Deem and Ramdas Pophale) SiO2 
 PCOD8033103
Probable space group: P -1
;
_chemical_formula_sum "Si O2"
_cell_formula_units_Z 14
_cell_length_a 15.291881
_cell_length_b 20.242767
_cell_length_c 10.730108
_cell_angle_alpha 150.432206
_cell_angle_beta 140.096344
_cell_angle_gamma 21.782218
_cell_volume 593.103247
_symmetry_space_group_name_H-M "P -1"
_symmetry_group_IT_number 2
_symmetry_cell_setting 'triclinic'
loop_
_space_group_symop_operation_xyz
x,y,z
-x,-y,-z
loop_
_atom_site_type_symbol
_atom_site_label
_atom_site_fract_x
_atom_site_fract_y
_atom_site_fract_z
Si Si1 0.108281 0.204627 0.310955
Si Si2 0.665387 0.065839 0.348374
Si Si3 0.142900 0.721402 0.454677
Si Si4 0.628851 0.445052 0.173692
Si Si5 0.869147 0.515463 0.783277
Si Si6 0.375876 0.068451 0.138496
Si Si7 0.386775 0.730929 0.901845
O O1 0.014488 0.396935 0.617146
O O2 0.890668 0.287180 0.163199
O O3 0.218798 0.192771 0.294804
O O4 0.311632 0.947907 0.179773
O O5 0.881683 0.944090 0.471219
O O6 0.532592 0.302743 0.531468
O O7 0.770694 0.876002 0.048671
O O8 0.464651 0.148628 0.347177
O O9 0.232323 0.791681 0.718834
O O10 0.328907 0.510708 0.211602
O O11 0.134276 0.635319 0.425531
O O12 0.664284 0.296199 0.065916
O O13 0.500000 0.500000 0.000000
O O14 0.601387 0.785610 0.921708
O O15 0.000000 0.500000 0.000000
#
# Coordination Sequence:
#
# PCOD8033103 Si02
#       7
#     2   2   2   2   2   2   2
#     4  12  26  47  76 102 142 185 243 293 346 422
#     4  11  25  47  70 101 151 183 231 296 357 422
#     4  11  23  44  74 101 143 185 236 289 352 418
#     4  12  27  44  68 106 145 185 232 288 357 426
#     4  12  24  48  72 103 141 187 240 296 347 416
#     4  11  25  48  72 104 141 189 234 294 358 413
#     4  11  25  45  73 104 139 188 237 292 346 416
#
# _framework density 23.604659000000002
#
# number of rings (size 3 to 8) (size 9 to 14) (size 15 to 20)
#    0.000    0.571    5.714    1.286    6.000    1.714 
#    2.571    0.000    0.000    0.000    0.000    0.000 
#    0.000    0.000    0.000    0.000    0.000    0.000 
#
# Total GULP energy -173633.749415 kJ/mol
# GULP energy per Si atom -12402.410672 kJ/mol
# Density = 2.355093 g / cm^3
# Si number density = 23.604659 Si / 1000 Ang^3
#
#
#
# Elastic Constant Matrix: (Units=GPa)
#
#
# Indices 1 2 3 4 5 6 
#
# 1 132.0272 29.0382 14.4054 -4.7620 -26.6365 -11.8724
# 2 29.0382 75.0649 12.8205 -6.4244 -10.7622 5.7087
# 3 14.4054 12.8205 44.8563 -2.8456 -20.0279 -9.5530
# 4 -4.7620 -6.4244 -2.8456 34.5002 5.7071 0.2381
# 5 -26.6365 -10.7622 -20.0279 5.7071 45.3241 8.8879
# 6 -11.8724 5.7087 -9.5530 0.2381 8.8879 29.3016
#
#
#
# Elastic Compliance Matrix: (Units=1/GPa)
#
#
# Indices 1 2 3 4 5 6 
#
# 1 0.009432 -0.003384 0.000592 -0.000021 0.004345 0.003356
# 2 -0.003384 0.016147 -0.004321 0.002079 0.000893 -0.006213
# 3 0.000592 -0.004321 0.029862 -0.000143 0.011072 0.007460
# 4 -0.000021 0.002079 -0.000143 0.029920 -0.003415 0.000332
# 5 0.004345 0.000893 0.011072 -0.003415 0.030969 -0.004169
# 6 0.003356 -0.006213 0.007460 0.000332 -0.004169 0.040392
#
#
# Mechanical properties :
#
#
# Convention : Reuss Voigt Hill
#
# Bulk Modulus (GPa) = 24.26339 40.49738 32.38038
# Shear Modulus (GPa) = 27.07292 34.87079 30.97186
#
# Velocity S-wave (km/s) = 3.39031 3.84772 3.62623
# Velocity P-wave (km/s) = 5.06231 6.07731 5.59288
#
# Compressibility (1/GPa) = 0.04121436
#
# Stress axis : x y z
#
# Youngs Moduli (GPa) = 106.02757 61.93040 33.48764
#
# Poissons Ratio (x) = 0.20955 -0.01981
# Poissons Ratio (y) = 0.35875 0.14471
# Poissons Ratio (z) = -0.06274 0.26761
#
# Static dielectric constant tensor:
#      x y z
#    x 4.059630 -0.033400 0.103090 
#    y -0.033400 4.359080 -0.067950 
#    z 0.103090 -0.067950 4.508110 
# 
# 
# High freq. dielectric constant tensor:
#      x y z
#    x 1.929150 0.006050 0.002960 
#    y 0.006050 1.940240 0.003250 
#    z 0.002960 0.003250 1.940470 
# 
# From -- ./inp_files/457767.got.cif
#   From: 2010.06.25/outbox.cif.g09.slc.cpg/sg2_229_cif.got.tgz:457767.got - 2010.06.27 13:26:56.
