data_PCOD8033685
_publ_section_title
;
Structure prediction by ZEFSAII (Michael W. Deem and Ramdas Pophale) SiO2 
 PCOD8033685
Probable space group: P -1
;
_chemical_formula_sum "Si O2"
_cell_formula_units_Z 16
_cell_length_a 6.507670
_cell_length_b 15.341084
_cell_length_c 13.285887
_cell_angle_alpha 39.081803
_cell_angle_beta 61.585328
_cell_angle_gamma 54.569792
_cell_volume 680.488488
_symmetry_space_group_name_H-M "P -1"
_symmetry_group_IT_number 2
_symmetry_cell_setting 'triclinic'
loop_
_space_group_symop_operation_xyz
x,y,z
-x,-y,-z
loop_
_atom_site_type_symbol
_atom_site_label
_atom_site_fract_x
_atom_site_fract_y
_atom_site_fract_z
Si Si1 0.224511 0.347295 0.853527
Si Si2 0.213572 0.842012 0.623315
Si Si3 0.586412 0.828959 0.381700
Si Si4 0.871301 0.020470 0.118451
Si Si5 0.253913 0.723426 0.936038
Si Si6 0.748955 0.487537 0.111519
Si Si7 0.640359 0.225285 0.718678
Si Si8 0.078981 0.572180 0.510976
O O1 0.329343 0.428713 0.839346
O O2 0.457083 0.212579 0.864670
O O3 0.089289 0.463556 0.695369
O O4 0.008160 0.300603 0.995981
O O5 0.440826 0.852562 0.498095
O O6 0.270557 0.825007 0.745497
O O7 0.181188 0.689627 0.732945
O O8 0.000000 0.000000 0.500000
O O9 0.620901 0.981095 0.204776
O O10 0.492694 0.756272 0.375733
O O11 0.860516 0.727280 0.445742
O O12 0.102274 0.917527 0.226975
O O13 0.768062 0.187795 0.034359
O O14 0.000000 0.000000 0.000000
O O15 0.504467 0.569601 0.022136
O O16 0.000000 0.500000 0.000000
O O17 0.677965 0.380441 0.597317
O O18 0.000000 0.500000 0.500000
#
# Coordination Sequence:
#
# PCOD8033685 Si02
#       8
#     2   2   2   2   2   2   2   2
#     4  12  25  43  77 104 152 193 248 310 375 451
#     4  12  28  50  77 109 152 198 257 314 377 451
#     4  11  25  45  69 101 150 189 247 310 374 442
#     4  11  26  45  71 104 145 192 250 303 376 449
#     4  12  28  49  75 111 150 203 255 311 378 448
#     4  12  28  49  76 109 149 201 262 309 379 450
#     4  11  24  43  69 108 143 191 242 307 377 448
#     4  11  24  40  69 109 143 191 243 306 377 446
#
# _framework density 23.512523000000002
#
# number of rings (size 3 to 8) (size 9 to 14) (size 15 to 20)
#    0.000    0.500    2.500    4.500    8.750    5.500 
#    0.000    0.000    0.000    0.000    0.000    0.000 
#    0.000    0.000    0.000    0.000    0.000    0.000 
#
# Total GULP energy -198224.421676 kJ/mol
# GULP energy per Si atom -12389.026355 kJ/mol
# Density = 2.345901 g / cm^3
# Si number density = 23.512523 Si / 1000 Ang^3
#
#
#
# Elastic Constant Matrix: (Units=GPa)
#
#
# Indices 1 2 3 4 5 6 
#
# 1 96.6032 43.9942 44.8264 -2.8367 -4.8873 -0.0534
# 2 43.9942 110.2024 43.9288 4.9295 -1.5346 8.6027
# 3 44.8264 43.9288 129.6656 10.1119 -6.1707 -2.1124
# 4 -2.8367 4.9295 10.1119 53.3524 -2.0539 4.2804
# 5 -4.8873 -1.5346 -6.1707 -2.0539 44.8937 3.9136
# 6 -0.0534 8.6027 -2.1124 4.2804 3.9136 45.7476
#
#
#
# Elastic Compliance Matrix: (Units=1/GPa)
#
#
# Indices 1 2 3 4 5 6 
#
# 1 0.014032 -0.004316 -0.003478 0.001807 0.000948 0.000417
# 2 -0.004316 0.012032 -0.002581 -0.000677 -0.000243 -0.002303
# 3 -0.003478 -0.002581 0.009989 -0.001896 0.000727 0.001058
# 4 0.001807 -0.000677 -0.001896 0.019448 0.000965 -0.001860
# 5 0.000948 -0.000243 0.000727 0.000965 0.022684 -0.001950
# 6 0.000417 -0.002303 0.001058 -0.001860 -0.001950 0.022682
#
#
# Mechanical properties :
#
#
# Convention : Reuss Voigt Hill
#
# Bulk Modulus (GPa) = 65.34061 66.88557 66.11309
# Shear Modulus (GPa) = 39.45792 42.38021 40.91907
#
# Velocity S-wave (km/s) = 4.10099 4.25014 4.17623
# Velocity P-wave (km/s) = 7.09043 7.25213 7.17174
#
# Compressibility (1/GPa) = 0.01530442
#
# Stress axis : x y z
#
# Youngs Moduli (GPa) = 71.26505 83.10851 100.11447
#
# Poissons Ratio (x) = 0.35866 0.34819
# Poissons Ratio (y) = 0.30755 0.25838
# Poissons Ratio (z) = 0.24786 0.21449
#
# Static dielectric constant tensor:
#      x y z
#    x 4.375960 -0.218930 0.138310 
#    y -0.218930 4.248950 -0.209550 
#    z 0.138310 -0.209550 4.416400 
# 
# 
# High freq. dielectric constant tensor:
#      x y z
#    x 1.939690 -0.006390 0.001920 
#    y -0.006390 1.946040 0.001590 
#    z 0.001920 0.001590 1.932720 
# 
# From -- ./inp_files/484189.got.cif
#   From: 2010.06.25/outbox.cif.g09.slc.cpg/sg2_243_cif.got.tgz:484189.got - 2010.06.27 13:26:56.
