data_PCOD8033320
_publ_section_title
;
Structure prediction by ZEFSAII (Michael W. Deem and Ramdas Pophale) SiO2 
 PCOD8033320
Probable space group: P -1
;
_chemical_formula_sum "Si O2"
_cell_formula_units_Z 16
_cell_length_a 9.089286
_cell_length_b 9.303457
_cell_length_c 11.530787
_cell_angle_alpha 89.029862
_cell_angle_beta 47.690689
_cell_angle_gamma 79.444236
_cell_volume 701.247845
_symmetry_space_group_name_H-M "P -1"
_symmetry_group_IT_number 2
_symmetry_cell_setting 'triclinic'
loop_
_space_group_symop_operation_xyz
x,y,z
-x,-y,-z
loop_
_atom_site_type_symbol
_atom_site_label
_atom_site_fract_x
_atom_site_fract_y
_atom_site_fract_z
Si Si1 0.454183 0.573984 0.294413
Si Si2 0.308923 0.957857 0.879603
Si Si3 0.074637 0.129262 0.804001
Si Si4 0.123638 0.453084 0.819008
Si Si5 0.043558 0.650527 0.641530
Si Si6 0.605194 0.689288 0.805293
Si Si7 0.956693 0.986068 0.657731
Si Si8 0.482582 0.831023 0.112732
O O1 0.639587 0.548348 0.287120
O O2 0.250366 0.566020 0.471306
O O3 0.493831 0.444902 0.178791
O O4 0.425457 0.732002 0.246969
O O5 0.518657 0.830853 0.766507
O O6 0.258140 0.018207 0.775785
O O7 0.334282 0.095268 0.944740
O O8 0.136777 0.882735 0.023982
O O9 0.099135 0.294937 0.792083
O O10 0.076222 0.085719 0.668350
O O11 0.026012 0.574758 0.774785
O O12 0.000000 0.500000 0.000000
O O13 0.850409 0.641224 0.663546
O O14 0.040368 0.821201 0.662127
O O15 0.546641 0.729976 0.968575
O O16 0.714415 0.037400 0.811334
O O17 0.000000 0.000000 0.500000
#
# Coordination Sequence:
#
# PCOD8033320 Si02
#       8
#     2   2   2   2   2   2   2   2
#     4  12  27  48  70 106 155 196 245 304 374 447
#     4  11  23  45  74 110 141 186 249 316 364 431
#     4  11  26  45  75 108 147 190 249 306 373 436
#     4  12  28  49  74 109 152 197 248 306 371 446
#     4  12  28  47  74 106 152 198 244 310 375 442
#     4  12  25  42  75 108 145 198 251 307 367 436
#     4  12  26  47  77 109 152 193 247 310 375 442
#     4  12  23  47  74 110 146 193 253 312 367 438
#
# _framework density 22.816466999999999
#
# number of rings (size 3 to 8) (size 9 to 14) (size 15 to 20)
#    0.000    0.250    5.000    3.750    7.000    1.000 
#    0.000    1.250    0.000    0.000    0.000    0.000 
#    0.000    0.000    0.000    0.000    0.000    0.000 
#
# Total GULP energy -198498.943436 kJ/mol
# GULP energy per Si atom -12406.183965 kJ/mol
# Density = 2.276454 g / cm^3
# Si number density = 22.816467 Si / 1000 Ang^3
#
#
#
# Elastic Constant Matrix: (Units=GPa)
#
#
# Indices 1 2 3 4 5 6 
#
# 1 176.6559 81.6638 53.9361 5.7561 6.7189 2.8197
# 2 81.6638 150.3373 40.1893 -6.4193 7.5389 0.8752
# 3 53.9361 40.1893 90.4965 -0.6719 1.8261 -3.1073
# 4 5.7561 -6.4193 -0.6719 29.8990 -1.4896 4.9335
# 5 6.7189 7.5389 1.8261 -1.4896 30.4824 0.0152
# 6 2.8197 0.8752 -3.1073 4.9335 0.0152 56.2529
#
#
#
# Elastic Compliance Matrix: (Units=1/GPa)
#
#
# Indices 1 2 3 4 5 6 
#
# 1 0.008595 -0.003811 -0.003443 -0.002538 -0.000869 -0.000339
# 2 -0.003811 0.009401 -0.001868 0.002697 -0.001241 -0.000295
# 3 -0.003443 -0.001868 0.013959 0.000442 0.000406 0.000934
# 4 -0.002538 0.002697 0.000442 0.035092 0.001582 -0.002968
# 5 -0.000869 -0.001241 0.000406 0.001582 0.033357 -0.000062
# 6 -0.000339 -0.000295 0.000934 -0.002968 -0.000062 0.018110
#
#
# Mechanical properties :
#
#
# Convention : Reuss Voigt Hill
#
# Bulk Modulus (GPa) = 72.94213 85.45202 79.19707
# Shear Modulus (GPa) = 35.37840 39.44022 37.40931
#
# Velocity S-wave (km/s) = 3.94199 4.16214 4.05356
# Velocity P-wave (km/s) = 7.26344 7.78659 7.52956
#
# Compressibility (1/GPa) = 0.01370950
#
# Stress axis : x y z
#
# Youngs Moduli (GPa) = 116.34809 106.37727 71.63814
#
# Poissons Ratio (x) = 0.40542 0.24665
# Poissons Ratio (y) = 0.44342 0.13384
# Poissons Ratio (z) = 0.40058 0.19875
#
# Static dielectric constant tensor:
#      x y z
#    x 4.549370 -0.069140 -0.095180 
#    y -0.069140 4.228460 0.044560 
#    z -0.095180 0.044560 3.856300 
# 
# 
# High freq. dielectric constant tensor:
#      x y z
#    x 1.920720 -0.002090 -0.002210 
#    y -0.002090 1.915510 0.001380 
#    z -0.002210 0.001380 1.881280 
# 
# From -- ./inp_files/184138.got.cif
#   From: 2010.06.25/outbox.cif.g09.slc.cpg/sg2_93_cif.got.tgz:184138.got - 2010.06.27 13:26:56.
