data_PCOD8033340
_publ_section_title
;
Structure prediction by ZEFSAII (Michael W. Deem and Ramdas Pophale) SiO2 
 PCOD8033340
Probable space group: P -1
;
_chemical_formula_sum "Si O2"
_cell_formula_units_Z 16
_cell_length_a 20.522521
_cell_length_b 6.874826
_cell_length_c 21.599747
_cell_angle_alpha 57.908809
_cell_angle_beta 157.681313
_cell_angle_gamma 136.467396
_cell_volume 674.471766
_symmetry_space_group_name_H-M "P -1"
_symmetry_group_IT_number 2
_symmetry_cell_setting 'triclinic'
loop_
_space_group_symop_operation_xyz
x,y,z
-x,-y,-z
loop_
_atom_site_type_symbol
_atom_site_label
_atom_site_fract_x
_atom_site_fract_y
_atom_site_fract_z
Si Si1 0.108167 0.882020 0.292292
Si Si2 0.537982 0.012135 0.604365
Si Si3 0.751400 0.312932 0.988117
Si Si4 0.990483 0.255326 0.104477
Si Si5 0.813406 0.632089 0.419021
Si Si6 0.418927 0.658100 0.868548
Si Si7 0.794005 0.354461 0.205579
Si Si8 0.435637 0.386891 0.233342
O O1 0.887800 0.629079 0.191629
O O2 0.369205 0.001440 0.504921
O O3 0.155062 0.200840 0.284145
O O4 0.002669 0.683943 0.167645
O O5 0.816558 0.359040 0.811389
O O6 0.500000 0.000000 0.500000
O O7 0.478899 0.686055 0.621251
O O8 0.574784 0.352414 0.802410
O O9 0.644810 0.065000 0.995961
O O10 0.800410 0.180305 0.999335
O O11 0.829539 0.984952 0.954461
O O12 0.663621 0.414717 0.263000
O O13 0.621508 0.550755 0.311985
O O14 0.988993 0.622583 0.610070
O O15 0.000000 0.000000 0.500000
O O16 0.190722 0.524444 0.732495
O O17 0.500000 0.500000 0.000000
O O18 0.500000 0.000000 0.000000
#
# Coordination Sequence:
#
# PCOD8033340 Si02
#       8
#     2   2   2   2   2   2   2   2
#     4  11  24  46  73 107 145 188 241 307 363 437
#     4  12  25  49  73 109 143 188 245 307 370 431
#     4  11  23  45  75 106 143 192 245 294 370 435
#     4  11  24  47  74 101 143 191 243 296 369 431
#     4  12  26  45  68 107 150 190 247 297 364 446
#     4  12  25  43  72 107 148 196 246 298 367 438
#     4  12  24  43  72 100 145 192 239 300 369 435
#     4  11  26  48  74 104 148 190 239 307 361 442
#
# _framework density 23.722268
#
# number of rings (size 3 to 8) (size 9 to 14) (size 15 to 20)
#    0.000    0.500    5.000    3.375    3.500    0.500 
#    9.000    0.000    0.000    0.000    0.000    0.000 
#    0.000    0.000    0.000    0.000    0.000    0.000 
#
# Total GULP energy -198209.174687 kJ/mol
# GULP energy per Si atom -12388.073418 kJ/mol
# Density = 2.366827 g / cm^3
# Si number density = 23.722268 Si / 1000 Ang^3
#
#
#
# Elastic Constant Matrix: (Units=GPa)
#
#
# Indices 1 2 3 4 5 6 
#
# 1 93.5249 29.2775 22.5142 -9.7722 18.6709 6.1601
# 2 29.2775 135.4722 27.5879 -29.7528 13.6669 12.6945
# 3 22.5142 27.5879 90.2026 -15.0055 15.3664 3.3085
# 4 -9.7722 -29.7528 -15.0055 51.7404 -1.7486 4.6047
# 5 18.6709 13.6669 15.3664 -1.7486 38.9813 -0.4588
# 6 6.1601 12.6945 3.3085 4.6047 -0.4588 39.7021
#
#
#
# Elastic Compliance Matrix: (Units=1/GPa)
#
#
# Indices 1 2 3 4 5 6 
#
# 1 0.012760 -0.001567 -0.001652 0.000999 -0.004884 -0.001513
# 2 -0.001567 0.009601 -0.001246 0.005095 -0.001935 -0.003336
# 3 -0.001652 -0.001246 0.012999 0.002684 -0.003785 -0.000784
# 4 0.000999 0.005095 0.002684 0.023570 -0.002322 -0.004768
# 5 -0.004884 -0.001935 -0.003785 -0.002322 0.030086 0.002309
# 6 -0.001513 -0.003336 -0.000784 -0.004768 0.002309 0.027134
#
#
# Mechanical properties :
#
#
# Convention : Reuss Voigt Hill
#
# Bulk Modulus (GPa) = 37.83449 53.10655 45.47052
# Shear Modulus (GPa) = 37.34423 42.07277 39.70850
#
# Velocity S-wave (km/s) = 3.97196 4.21593 4.09576
# Velocity P-wave (km/s) = 6.08431 6.79221 6.44798
#
# Compressibility (1/GPa) = 0.02643091
#
# Stress axis : x y z
#
# Youngs Moduli (GPa) = 78.37203 104.15835 76.92673
#
# Poissons Ratio (x) = 0.16324 0.12706
# Poissons Ratio (y) = 0.12282 0.09582
# Poissons Ratio (z) = 0.12945 0.12974
#
# Static dielectric constant tensor:
#      x y z
#    x 4.172140 0.035960 0.243170 
#    y 0.035960 4.487010 -0.120040 
#    z 0.243170 -0.120040 4.237210 
# 
# 
# High freq. dielectric constant tensor:
#      x y z
#    x 1.940460 0.009010 0.015130 
#    y 0.009010 1.952520 -0.004860 
#    z 0.015130 -0.004860 1.938830 
# 
# From -- ./inp_files/613423.got.cif
#   From: 2010.06.25/outbox.cif.g09.slc.cpg/sg2_307_cif.got.tgz:613423.got - 2010.06.27 13:26:56.
