data_PCOD8033456
_publ_section_title
;
Structure prediction by ZEFSAII (Michael W. Deem and Ramdas Pophale) SiO2 
 PCOD8033456
Probable space group: P -1
;
_chemical_formula_sum "Si O2"
_cell_formula_units_Z 16
_cell_length_a 9.772846
_cell_length_b 11.244294
_cell_length_c 9.597544
_cell_angle_alpha 101.586004
_cell_angle_beta 44.101964
_cell_angle_gamma 99.705367
_cell_volume 718.564438
_symmetry_space_group_name_H-M "P -1"
_symmetry_group_IT_number 2
_symmetry_cell_setting 'triclinic'
loop_
_space_group_symop_operation_xyz
x,y,z
-x,-y,-z
loop_
_atom_site_type_symbol
_atom_site_label
_atom_site_fract_x
_atom_site_fract_y
_atom_site_fract_z
Si Si1 0.498040 0.299733 0.140942
Si Si2 0.928867 0.067484 0.435822
Si Si3 0.310901 0.729474 0.269978
Si Si4 0.805767 0.512577 0.049704
Si Si5 0.611662 0.750166 0.286582
Si Si6 0.187652 0.466554 0.266295
Si Si7 0.171227 0.050063 0.981964
Si Si8 0.445292 0.102995 0.360366
O O1 0.311375 0.367837 0.232289
O O2 0.408850 0.202080 0.291703
O O3 0.582369 0.215873 0.933838
O O4 0.668329 0.388440 0.109832
O O5 0.896814 0.207671 0.538439
O O6 0.720607 0.003875 0.530697
O O7 0.000000 0.000000 0.500000
O O8 0.094800 0.064502 0.197572
O O9 0.412342 0.743035 0.346168
O O10 0.318423 0.589130 0.190576
O O11 0.865790 0.564258 0.863356
O O12 0.683166 0.616190 0.240456
O O13 0.000000 0.500000 0.000000
O O14 0.773558 0.818096 0.087842
O O15 0.558101 0.825096 0.477548
O O16 0.000000 0.500000 0.500000
O O17 0.348389 0.958419 0.829116
O O18 0.000000 0.000000 0.000000
#
# Coordination Sequence:
#
# PCOD8033456 Si02
#       8
#     2   2   2   2   2   2   2   2
#     4  11  25  48  69 101 145 183 227 295 349 411
#     4  12  28  44  70 106 137 183 240 285 348 419
#     4  11  23  46  72  96 138 188 232 280 354 419
#     4  11  26  45  71 106 138 180 236 287 347 421
#     4  12  24  46  73  98 142 186 232 287 354 414
#     4  11  25  45  70 102 140 184 234 285 349 419
#     4  12  26  48  71 101 142 184 231 293 354 409
#     4  12  28  45  70 105 144 181 235 296 344 414
#
# _framework density 22.266618999999999
#
# number of rings (size 3 to 8) (size 9 to 14) (size 15 to 20)
#    0.000    0.500    5.000    2.625    8.750    3.500 
#    0.000    0.000    0.000    0.000    0.000    0.000 
#    0.000    0.000    0.000    0.000    0.000    0.000 
#
# Total GULP energy -198326.912371 kJ/mol
# GULP energy per Si atom -12395.432023 kJ/mol
# Density = 2.221594 g / cm^3
# Si number density = 22.266619 Si / 1000 Ang^3
#
#
#
# Elastic Constant Matrix: (Units=GPa)
#
#
# Indices 1 2 3 4 5 6 
#
# 1 104.2783 11.0607 35.8955 9.2644 9.5988 -19.1217
# 2 11.0607 78.4581 35.4877 13.6156 7.1922 -21.5891
# 3 35.8955 35.4877 165.7907 17.2475 8.6483 -13.4084
# 4 9.2644 13.6156 17.2475 43.0967 -0.2970 4.7503
# 5 9.5988 7.1922 8.6483 -0.2970 35.7637 -0.8400
# 6 -19.1217 -21.5891 -13.4084 4.7503 -0.8400 23.7662
#
#
#
# Elastic Compliance Matrix: (Units=1/GPa)
#
#
# Indices 1 2 3 4 5 6 
#
# 1 0.013154 0.004050 -0.001877 -0.004931 -0.003602 0.014062
# 2 0.004050 0.021725 -0.002437 -0.009361 -0.004396 0.023334
# 3 -0.001877 -0.002437 0.007244 -0.001808 -0.000756 0.000698
# 4 -0.004931 -0.009361 -0.001808 0.030105 0.003438 -0.019387
# 5 -0.003602 -0.004396 -0.000756 0.003438 0.029860 -0.006950
# 6 0.014062 0.023334 0.000698 -0.019387 -0.006950 0.078610
#
#
# Mechanical properties :
#
#
# Convention : Reuss Voigt Hill
#
# Bulk Modulus (GPa) = 24.04103 57.04609 40.54356
# Shear Modulus (GPa) = 25.62898 38.26422 31.94660
#
# Velocity S-wave (km/s) = 3.39633 4.14992 3.79189
# Velocity P-wave (km/s) = 5.11863 6.97407 6.11711
#
# Compressibility (1/GPa) = 0.04159556
#
# Stress axis : x y z
#
# Youngs Moduli (GPa) = 76.02035 46.02920 138.05320
#
# Poissons Ratio (x) = -0.18640 0.25910
# Poissons Ratio (y) = -0.30786 0.33640
# Poissons Ratio (z) = 0.14267 0.11216
#
# Static dielectric constant tensor:
#      x y z
#    x 4.237290 0.382200 0.162110 
#    y 0.382200 5.082300 0.006740 
#    z 0.162110 0.006740 4.084590 
# 
# 
# High freq. dielectric constant tensor:
#      x y z
#    x 1.884190 -0.002750 0.007090 
#    y -0.002750 1.884810 0.010050 
#    z 0.007090 0.010050 1.892180 
# 
# From -- ./inp_files/188159.got.cif
#   From: 2010.06.25/outbox.cif.g09.slc.cpg/sg2_95_cif.got.tgz:188159.got - 2010.06.27 13:26:56.
