data_PCOD8033556
_publ_section_title
;
Structure prediction by ZEFSAII (Michael W. Deem and Ramdas Pophale) SiO2 
 PCOD8033556
Probable space group: P -1
;
_chemical_formula_sum "Si O2"
_cell_formula_units_Z 16
_cell_length_a 9.479603
_cell_length_b 17.062992
_cell_length_c 11.056313
_cell_angle_alpha 54.733160
_cell_angle_beta 113.561430
_cell_angle_gamma 150.578975
_cell_volume 693.112566
_symmetry_space_group_name_H-M "P -1"
_symmetry_group_IT_number 2
_symmetry_cell_setting 'triclinic'
loop_
_space_group_symop_operation_xyz
x,y,z
-x,-y,-z
loop_
_atom_site_type_symbol
_atom_site_label
_atom_site_fract_x
_atom_site_fract_y
_atom_site_fract_z
Si Si1 0.660182 0.848950 0.528584
Si Si2 0.180885 0.683991 0.952836
Si Si3 0.536994 0.005125 0.366675
Si Si4 0.883986 0.707280 0.379756
Si Si5 0.447369 0.314155 0.599693
Si Si6 0.721459 0.665975 0.097533
Si Si7 0.351802 0.562028 0.868517
Si Si8 0.238365 0.064856 0.950025
O O1 0.500700 0.705993 0.494221
O O2 0.512352 0.738555 0.703602
O O3 0.620978 0.941582 0.417129
O O4 0.000000 0.000000 0.500000
O O5 0.198941 0.785386 0.778503
O O6 0.519637 0.839705 0.956538
O O7 0.000000 0.500000 0.000000
O O8 0.000391 0.612866 0.076404
O O9 0.500000 0.000000 0.500000
O O10 0.224322 0.868763 0.319829
O O11 0.742174 0.532819 0.534818
O O12 0.839172 0.766355 0.414484
O O13 0.699115 0.647077 0.252411
O O14 0.413834 0.212019 0.774696
O O15 0.617539 0.510370 0.146079
O O16 0.501718 0.626693 0.994970
O O17 0.060220 0.880202 0.993075
O O18 0.000000 0.000000 0.000000
#
# Coordination Sequence:
#
# PCOD8033556 Si02
#       8
#     2   2   2   2   2   2   2   2
#     4  12  27  48  74 108 152 195 245 303 378 442
#     4  12  28  46  73 109 144 193 250 312 372 442
#     4  12  28  48  76 107 151 194 248 310 378 448
#     4  11  24  48  73 109 144 197 248 302 366 457
#     4  11  25  42  76 106 144 194 242 300 373 441
#     4  11  23  47  72 100 149 191 245 300 367 440
#     4  11  27  45  74 108 147 193 246 307 364 447
#     4  12  24  45  73 104 145 192 244 306 368 445
#
# _framework density 23.084274000000001
#
# number of rings (size 3 to 8) (size 9 to 14) (size 15 to 20)
#    0.000    0.500    3.750    3.000    8.750    3.000 
#    0.000    0.000    0.000    0.000    0.000    0.000 
#    0.000    0.000    0.000    0.000    0.000    0.000 
#
# Total GULP energy -198353.209883 kJ/mol
# GULP energy per Si atom -12397.075618 kJ/mol
# Density = 2.303173 g / cm^3
# Si number density = 23.084274 Si / 1000 Ang^3
#
#
#
# Elastic Constant Matrix: (Units=GPa)
#
#
# Indices 1 2 3 4 5 6 
#
# 1 116.8508 36.5069 36.6516 -0.7830 6.8472 6.0618
# 2 36.5069 103.8339 42.6910 -7.8880 12.5472 5.9977
# 3 36.6516 42.6910 165.1514 -30.1350 2.7794 0.7004
# 4 -0.7830 -7.8880 -30.1350 47.1983 -5.7695 -0.3710
# 5 6.8472 12.5472 2.7794 -5.7695 38.2211 -8.5226
# 6 6.0618 5.9977 0.7004 -0.3710 -8.5226 37.3488
#
#
#
# Elastic Compliance Matrix: (Units=1/GPa)
#
#
# Indices 1 2 3 4 5 6 
#
# 1 0.010113 -0.002677 -0.001819 -0.001622 -0.001382 -0.001509
# 2 -0.002677 0.012199 -0.002502 -0.000096 -0.003885 -0.002365
# 3 -0.001819 -0.002502 0.007956 0.004823 0.001506 0.000939
# 4 -0.001622 -0.000096 0.004823 0.024724 0.004004 0.001347
# 5 -0.001382 -0.003885 0.001506 0.004004 0.029894 0.007681
# 6 -0.001509 -0.002365 0.000939 0.001347 0.007681 0.029148
#
#
# Mechanical properties :
#
#
# Convention : Reuss Voigt Hill
#
# Bulk Modulus (GPa) = 61.44731 68.61503 65.03117
# Shear Modulus (GPa) = 37.46639 42.55273 40.00956
#
# Velocity S-wave (km/s) = 4.03305 4.29810 4.16768
# Velocity P-wave (km/s) = 6.95441 7.37698 7.16881
#
# Compressibility (1/GPa) = 0.01627411
#
# Stress axis : x y z
#
# Youngs Moduli (GPa) = 98.88174 81.97224 125.69145
#
# Poissons Ratio (x) = 0.21944 0.22858
# Poissons Ratio (y) = 0.26471 0.31442
# Poissons Ratio (z) = 0.17983 0.20506
#
# Static dielectric constant tensor:
#      x y z
#    x 4.578250 0.074350 -0.001880 
#    y 0.074350 4.465340 -0.211650 
#    z -0.001880 -0.211650 4.451580 
# 
# 
# High freq. dielectric constant tensor:
#      x y z
#    x 1.906480 -0.008960 0.006420 
#    y -0.008960 1.910620 -0.017380 
#    z 0.006420 -0.017380 1.932170 
# 
# From -- ./inp_files/403035.got.cif
#   From: 2010.06.25/outbox.cif.g09.slc.cpg/sg2_202_cif.got.tgz:403035.got - 2010.06.27 13:26:56.
