data_PCOD8033395
_publ_section_title
;
Structure prediction by ZEFSAII (Michael W. Deem and Ramdas Pophale) SiO2 
 PCOD8033395
Probable space group: P -1
;
_chemical_formula_sum "Si O2"
_cell_formula_units_Z 16
_cell_length_a 17.163461
_cell_length_b 8.913095
_cell_length_c 6.684412
_cell_angle_alpha 58.046372
_cell_angle_beta 118.597185
_cell_angle_gamma 108.058164
_cell_volume 759.581254
_symmetry_space_group_name_H-M "P -1"
_symmetry_group_IT_number 2
_symmetry_cell_setting 'triclinic'
loop_
_space_group_symop_operation_xyz
x,y,z
-x,-y,-z
loop_
_atom_site_type_symbol
_atom_site_label
_atom_site_fract_x
_atom_site_fract_y
_atom_site_fract_z
Si Si1 0.184546 0.834870 0.710088
Si Si2 0.090669 0.611762 0.075922
Si Si3 0.408150 0.416118 0.362917
Si Si4 0.267847 0.454890 0.509576
Si Si5 0.904753 0.070486 0.860638
Si Si6 0.408058 0.027593 0.472249
Si Si7 0.333765 0.673660 0.791130
Si Si8 0.752122 0.913844 0.053228
O O1 0.141726 0.938386 0.405279
O O2 0.246073 0.687201 0.807222
O O3 0.244164 0.976704 0.813955
O O4 0.107034 0.739057 0.815788
O O5 0.169684 0.483031 0.288707
O O6 0.083770 0.728588 0.185118
O O7 0.000000 0.500000 0.000000
O O8 0.500000 0.500000 0.500000
O O9 0.330120 0.429626 0.416096
O O10 0.415856 0.210596 0.472594
O O11 0.390339 0.523807 0.062803
O O12 0.307246 0.624101 0.565262
O O13 0.263501 0.292054 0.771940
O O14 0.844340 0.944850 0.023298
O O15 0.000000 0.000000 0.000000
O O16 0.500000 0.000000 0.500000
O O17 0.388658 0.865429 0.717841
O O18 0.329131 0.022929 0.218336
#
# Coordination Sequence:
#
# PCOD8033395 Si02
#       8
#     2   2   2   2   2   2   2   2
#     4  11  23  46  69  94 139 183 224 285 344 405
#     4  11  26  42  67 102 134 180 229 281 346 407
#     4  12  29  46  72 107 137 184 232 283 348 409
#     4  12  25  46  70 102 139 177 232 287 341 411
#     4  11  26  44  67  99 136 180 230 280 345 411
#     4  12  27  47  72 105 141 182 231 284 346 413
#     4  12  24  48  74  96 144 182 230 288 340 409
#     4  11  26  44  70 102 136 180 231 282 346 410
#
# _framework density 21.064238
#
# number of rings (size 3 to 8) (size 9 to 14) (size 15 to 20)
#    0.000    0.500    5.000    2.250    7.000    4.000 
#    0.000    0.000    0.000    0.000    0.000    0.000 
#    0.000    0.000    0.000    0.000    0.000    0.000 
#
# Total GULP energy -198503.727715 kJ/mol
# GULP energy per Si atom -12406.482982 kJ/mol
# Density = 2.101629 g / cm^3
# Si number density = 21.064238 Si / 1000 Ang^3
#
#
#
# Elastic Constant Matrix: (Units=GPa)
#
#
# Indices 1 2 3 4 5 6 
#
# 1 151.2235 57.5837 43.8199 5.3010 14.1564 -5.2697
# 2 57.5837 144.9620 41.8484 3.6443 -3.5989 3.0738
# 3 43.8199 41.8484 92.8928 -0.1978 -3.5129 5.6080
# 4 5.3010 3.6443 -0.1978 43.8928 2.5314 -3.7044
# 5 14.1564 -3.5989 -3.5129 2.5314 33.8938 1.5569
# 6 -5.2697 3.0738 5.6080 -3.7044 1.5569 39.8685
#
#
#
# Elastic Compliance Matrix: (Units=1/GPa)
#
#
# Indices 1 2 3 4 5 6 
#
# 1 0.009168 -0.002819 -0.003350 -0.000455 -0.004535 0.002035
# 2 -0.002819 0.008827 -0.002525 -0.000585 0.001935 -0.000828
# 3 -0.003350 -0.002525 0.013719 0.000334 0.002631 -0.002250
# 4 -0.000455 -0.000585 0.000334 0.023166 -0.001667 0.002155
# 5 -0.004535 0.001935 0.002631 -0.001667 0.032117 -0.002528
# 6 0.002035 -0.000828 -0.002250 0.002155 -0.002528 0.026031
#
#
# Mechanical properties :
#
#
# Convention : Reuss Voigt Hill
#
# Bulk Modulus (GPa) = 69.80295 75.06469 72.43382
# Shear Modulus (GPa) = 36.98414 39.91944 38.45179
#
# Velocity S-wave (km/s) = 4.19475 4.35803 4.27717
# Velocity P-wave (km/s) = 7.52803 7.81260 7.67163
#
# Compressibility (1/GPa) = 0.01432604
#
# Stress axis : x y z
#
# Youngs Moduli (GPa) = 109.06911 113.28286 72.89105
#
# Poissons Ratio (x) = 0.31936 0.24421
# Poissons Ratio (y) = 0.30748 0.18405
# Poissons Ratio (z) = 0.36542 0.28604
#
# Static dielectric constant tensor:
#      x y z
#    x 3.917720 0.034960 -0.128210 
#    y 0.034960 3.870710 0.222120 
#    z -0.128210 0.222120 3.777860 
# 
# 
# High freq. dielectric constant tensor:
#      x y z
#    x 1.834680 -0.002170 -0.002330 
#    y -0.002170 1.836700 0.001140 
#    z -0.002330 0.001140 1.835650 
# 
# From -- ./inp_files/38229.got.cif
#   From: 2010.06.25/outbox.cif.g09.slc.cpg/sg2_20_cif.got.tgz:38229.got - 2010.06.27 13:26:56.
