data_PCOD8033442
_publ_section_title
;
Structure prediction by ZEFSAII (Michael W. Deem and Ramdas Pophale) SiO2 
 PCOD8033442
Probable space group: P -1
;
_chemical_formula_sum "Si O2"
_cell_formula_units_Z 16
_cell_length_a 15.188217
_cell_length_b 8.909203
_cell_length_c 15.567710
_cell_angle_alpha 151.945097
_cell_angle_beta 46.669980
_cell_angle_gamma 136.753892
_cell_volume 672.614661
_symmetry_space_group_name_H-M "P -1"
_symmetry_group_IT_number 2
_symmetry_cell_setting 'triclinic'
loop_
_space_group_symop_operation_xyz
x,y,z
-x,-y,-z
loop_
_atom_site_type_symbol
_atom_site_label
_atom_site_fract_x
_atom_site_fract_y
_atom_site_fract_z
Si Si1 0.347076 0.822080 0.491138
Si Si2 0.978387 0.139871 0.991469
Si Si3 0.439694 0.721940 0.095355
Si Si4 0.158695 0.099474 0.204943
Si Si5 0.948685 0.836474 0.361982
Si Si6 0.683641 0.863061 0.504961
Si Si7 0.264657 0.334977 0.883358
Si Si8 0.355146 0.769952 0.886942
O O1 0.281747 0.411786 0.320266
O O2 0.500000 0.000000 0.500000
O O3 0.306633 0.935189 0.486451
O O4 0.273568 0.958028 0.682075
O O5 0.122193 0.321806 0.948768
O O6 0.897559 0.853851 0.829360
O O7 0.913924 0.428110 0.187538
O O8 0.000000 0.000000 0.000000
O O9 0.412571 0.029958 0.315830
O O10 0.533772 0.865867 0.023277
O O11 0.500000 0.500000 0.000000
O O12 0.302859 0.465802 0.020845
O O13 0.045672 0.992616 0.296774
O O14 0.213839 0.798174 0.999767
O O15 0.825966 0.950135 0.490984
O O16 0.000000 0.000000 0.500000
O O17 0.629719 0.459032 0.318626
O O18 0.369064 0.592042 0.877238
#
# Coordination Sequence:
#
# PCOD8033442 Si02
#       8
#     2   2   2   2   2   2   2   2
#     4  11  26  48  72 109 151 198 260 313 381 461
#     4  12  28  48  78 112 154 198 260 324 388 463
#     4  12  26  45  74 108 150 196 251 319 379 450
#     4  12  25  49  81 107 157 208 249 320 394 448
#     4  12  27  49  76 117 156 201 263 318 385 474
#     4  11  25  46  74 107 154 196 260 316 380 456
#     4  11  25  46  69 103 147 195 254 305 380 461
#     4  11  23  46  72 102 143 204 248 309 382 456
#
# _framework density 23.787766000000001
#
# number of rings (size 3 to 8) (size 9 to 14) (size 15 to 20)
#    0.000    0.500    2.500    5.625    7.000    2.000 
#    2.250    0.000    0.000    0.000    0.000    0.000 
#    0.000    0.000    0.000    0.000    0.000    0.000 
#
# Total GULP energy -198211.297622 kJ/mol
# GULP energy per Si atom -12388.206101 kJ/mol
# Density = 2.373362 g / cm^3
# Si number density = 23.787766 Si / 1000 Ang^3
#
#
#
# Elastic Constant Matrix: (Units=GPa)
#
#
# Indices 1 2 3 4 5 6 
#
# 1 160.2260 35.4109 59.4909 2.3196 8.4201 3.3086
# 2 35.4109 85.2846 39.6850 2.5568 0.5777 -5.0353
# 3 59.4909 39.6850 118.2047 -12.2294 -4.5757 -11.4846
# 4 2.3196 2.5568 -12.2294 32.4223 5.6955 -0.2950
# 5 8.4201 0.5777 -4.5757 5.6955 51.8179 -4.6360
# 6 3.3086 -5.0353 -11.4846 -0.2950 -4.6360 26.4451
#
#
#
# Elastic Compliance Matrix: (Units=1/GPa)
#
#
# Indices 1 2 3 4 5 6 
#
# 1 0.008386 -0.001637 -0.004273 -0.001791 -0.001843 -0.003560
# 2 -0.001637 0.014506 -0.004202 -0.002623 0.000123 0.001134
# 3 -0.004273 -0.004202 0.013216 0.005351 0.001844 0.005857
# 4 -0.001791 -0.002623 0.005351 0.033695 -0.002737 0.001945
# 5 -0.001843 0.000123 0.001844 -0.002737 0.020473 0.004613
# 6 -0.003560 0.001134 0.005857 0.001945 0.004613 0.041849
#
#
# Mechanical properties :
#
#
# Convention : Reuss Voigt Hill
#
# Bulk Modulus (GPa) = 62.96896 70.32100 66.64498
# Shear Modulus (GPa) = 31.71697 37.41230 34.56463
#
# Velocity S-wave (km/s) = 3.65544 3.97010 3.81601
# Velocity P-wave (km/s) = 6.65920 7.11629 6.89154
#
# Compressibility (1/GPa) = 0.01588084
#
# Stress axis : x y z
#
# Youngs Moduli (GPa) = 119.24514 68.93932 75.66836
#
# Poissons Ratio (x) = 0.11288 0.32336
# Poissons Ratio (y) = 0.19526 0.31798
# Poissons Ratio (z) = 0.50959 0.28970
#
# Static dielectric constant tensor:
#      x y z
#    x 4.335160 0.064480 0.154770 
#    y 0.064480 4.046410 0.009230 
#    z 0.154770 0.009230 4.571010 
# 
# 
# High freq. dielectric constant tensor:
#      x y z
#    x 1.955960 0.002820 0.003030 
#    y 0.002820 1.927620 -0.005080 
#    z 0.003030 -0.005080 1.959680 
# 
# From -- ./inp_files/530294.got.cif
#   From: 2010.06.25/outbox.cif.g09.slc.cpg/sg2_266_cif.got.tgz:530294.got - 2010.06.27 13:26:56.
