data_PCOD8033121
_publ_section_title
;
Structure prediction by ZEFSAII (Michael W. Deem and Ramdas Pophale) SiO2 
 PCOD8033121
Probable space group: P -1
;
_chemical_formula_sum "Si O2"
_cell_formula_units_Z 12
_cell_length_a 13.013051
_cell_length_b 6.840756
_cell_length_c 13.416058
_cell_angle_alpha 139.959530
_cell_angle_beta 43.878874
_cell_angle_gamma 121.386575
_cell_volume 531.257679
_symmetry_space_group_name_H-M "P -1"
_symmetry_group_IT_number 2
_symmetry_cell_setting 'triclinic'
loop_
_space_group_symop_operation_xyz
x,y,z
-x,-y,-z
loop_
_atom_site_type_symbol
_atom_site_label
_atom_site_fract_x
_atom_site_fract_y
_atom_site_fract_z
Si Si1 0.628447 0.683501 0.722115
Si Si2 0.829987 0.771952 0.970685
Si Si3 0.416688 0.648398 0.024231
Si Si4 0.665182 0.392665 0.380342
Si Si5 0.093753 0.191454 0.293298
Si Si6 0.040846 0.420334 0.828581
O O1 0.494094 0.553062 0.827383
O O2 0.682194 0.440813 0.506247
O O3 0.748964 0.775872 0.753577
O O4 0.576463 0.992562 0.821605
O O5 0.889231 0.866468 0.858821
O O6 0.969648 0.697417 0.917526
O O7 0.749811 0.456305 0.901003
O O8 0.708771 0.035323 0.194583
O O9 0.500000 0.500000 0.000000
O O10 0.500000 0.500000 0.500000
O O11 0.781718 0.590810 0.317134
O O12 0.000000 0.500000 0.500000
O O13 0.014513 0.910429 0.288429
O O14 0.000000 0.500000 0.000000
#
# Coordination Sequence:
#
# PCOD8033121 Si02
#       6
#     2   2   2   2   2   2
#     4  11  26  45  71 109 147 184 247 302 365 434
#     4  12  26  49  75 110 150 197 249 304 371 446
#     4  11  23  44  75 103 144 192 238 304 366 431
#     4  12  29  48  75 113 153 195 249 304 375 444
#     4  12  27  46  78 109 141 194 254 304 370 441
#     4  12  28  50  77 105 154 199 245 308 371 442
#
# _framework density 22.587910000000001
#
# number of rings (size 3 to 8) (size 9 to 14) (size 15 to 20)
#    0.000    0.333    5.000    2.500    9.333    3.333 
#    0.000    0.000    0.000    0.000    0.000    0.000 
#    0.000    0.000    0.000    0.000    0.000    0.000 
#
# Total GULP energy -148842.110157 kJ/mol
# GULP energy per Si atom -12403.509180 kJ/mol
# Density = 2.253650 g / cm^3
# Si number density = 22.587910 Si / 1000 Ang^3
#
#
#
# Elastic Constant Matrix: (Units=GPa)
#
#
# Indices 1 2 3 4 5 6 
#
# 1 117.6744 31.8497 38.4376 -4.0385 -12.1544 -20.2129
# 2 31.8497 123.4492 40.8942 -0.7309 -9.7132 -8.4596
# 3 38.4376 40.8942 139.9292 0.7671 1.1542 -15.9730
# 4 -4.0385 -0.7309 0.7671 42.5987 -2.8026 -5.4426
# 5 -12.1544 -9.7132 1.1542 -2.8026 44.4665 -6.6976
# 6 -20.2129 -8.4596 -15.9730 -5.4426 -6.6976 42.4773
#
#
#
# Elastic Compliance Matrix: (Units=1/GPa)
#
#
# Indices 1 2 3 4 5 6 
#
# 1 0.010837 -0.001501 -0.002018 0.001897 0.003544 0.004901
# 2 -0.001501 0.009434 -0.002290 0.000260 0.001820 0.000624
# 3 -0.002018 -0.002290 0.008563 -0.000248 -0.001048 0.001607
# 4 0.001897 0.000260 -0.000248 0.024413 0.002788 0.004429
# 5 0.003544 0.001820 -0.001048 0.002788 0.024954 0.005947
# 6 0.004901 0.000624 0.001607 0.004429 0.005947 0.028107
#
#
# Mechanical properties :
#
#
# Convention : Reuss Voigt Hill
#
# Bulk Modulus (GPa) = 58.08857 67.04622 62.56739
# Shear Modulus (GPa) = 40.43171 43.89993 42.16582
#
# Velocity S-wave (km/s) = 4.23539 4.41331 4.32527
# Velocity P-wave (km/s) = 7.04915 7.46435 7.25972
#
# Compressibility (1/GPa) = 0.01721509
#
# Stress axis : x y z
#
# Youngs Moduli (GPa) = 92.28007 106.00084 116.77486
#
# Poissons Ratio (x) = 0.15914 0.23567
# Poissons Ratio (y) = 0.13854 0.26740
# Poissons Ratio (z) = 0.18624 0.24273
#
# Static dielectric constant tensor:
#      x y z
#    x 4.662750 0.289590 -0.105760 
#    y 0.289590 4.380470 -0.214620 
#    z -0.105760 -0.214620 4.168780 
# 
# 
# High freq. dielectric constant tensor:
#      x y z
#    x 1.900330 0.002080 -0.000990 
#    y 0.002080 1.907060 -0.002210 
#    z -0.000990 -0.002210 1.891690 
# 
# From -- ./inp_files/27435.got.cif
#   From: 2010.06.25/outbox.cif.g09.slc.cpg/sg2_14_cif.got.tgz:27435.got - 2010.06.27 13:26:56.
