data_PCOD8033821
_publ_section_title
;
Structure prediction by ZEFSAII (Michael W. Deem and Ramdas Pophale) SiO2 
 PCOD8033821
Probable space group: P -1
;
_chemical_formula_sum "Si O2"
_cell_formula_units_Z 16
_cell_length_a 12.298743
_cell_length_b 6.676609
_cell_length_c 14.895271
_cell_angle_alpha 80.928006
_cell_angle_beta 138.235320
_cell_angle_gamma 114.108539
_cell_volume 721.555811
_symmetry_space_group_name_H-M "P -1"
_symmetry_group_IT_number 2
_symmetry_cell_setting 'triclinic'
loop_
_space_group_symop_operation_xyz
x,y,z
-x,-y,-z
loop_
_atom_site_type_symbol
_atom_site_label
_atom_site_fract_x
_atom_site_fract_y
_atom_site_fract_z
Si Si1 0.629075 0.972564 0.155443
Si Si2 0.536966 0.356417 0.607264
Si Si3 0.878963 0.806227 0.008808
Si Si4 0.911375 0.453079 0.778041
Si Si5 0.752410 0.095714 0.550471
Si Si6 0.519417 0.553766 0.238797
Si Si7 0.785251 0.346777 0.373844
Si Si8 0.938108 0.042717 0.215822
O O1 0.512176 0.753468 0.160071
O O2 0.725025 0.202351 0.255728
O O3 0.783027 0.927411 0.202743
O O4 0.500000 0.000000 0.000000
O O5 0.500000 0.500000 0.500000
O O6 0.753542 0.446843 0.747898
O O7 0.439697 0.365559 0.639167
O O8 0.447308 0.098526 0.534487
O O9 0.964039 0.629854 0.082937
O O10 0.871794 0.914425 0.090982
O O11 0.670966 0.671898 0.860066
O O12 0.000000 0.000000 0.000000
O O13 0.816283 0.297004 0.645696
O O14 0.030214 0.701401 0.796114
O O15 0.730034 0.176321 0.433648
O O16 0.885318 0.975004 0.638244
O O17 0.680844 0.502701 0.304471
O O18 0.000000 0.500000 0.500000
#
# Coordination Sequence:
#
# PCOD8033821 Si02
#       8
#     2   2   2   2   2   2   2   2
#     4  12  27  47  73 100 143 192 242 297 355 420
#     4  12  24  43  72 102 143 183 229 293 359 421
#     4  11  27  45  70 104 143 187 236 291 356 431
#     4  11  24  43  70  99 138 185 231 288 355 426
#     4  11  24  42  68 105 135 180 233 288 356 423
#     4  12  28  47  70 107 144 183 243 295 353 428
#     4  12  27  45  73 105 144 188 240 299 358 420
#     4  11  24  45  71  98 137 183 236 286 354 420
#
# _framework density 22.174306000000001
#
# number of rings (size 3 to 8) (size 9 to 14) (size 15 to 20)
#    0.000    0.500    2.500    4.875    5.250    8.000 
#    0.000    0.000    0.000    0.000    0.000    0.000 
#    0.000    0.000    0.000    0.000    0.000    0.000 
#
# Total GULP energy -198482.317796 kJ/mol
# GULP energy per Si atom -12405.144862 kJ/mol
# Density = 2.212384 g / cm^3
# Si number density = 22.174306 Si / 1000 Ang^3
#
#
#
# Elastic Constant Matrix: (Units=GPa)
#
#
# Indices 1 2 3 4 5 6 
#
# 1 111.3787 31.3371 28.5353 -2.7874 0.6340 -1.8584
# 2 31.3371 131.8770 42.2763 -8.9283 0.5900 11.1847
# 3 28.5353 42.2763 110.2064 -2.0887 1.7751 -1.7245
# 4 -2.7874 -8.9283 -2.0887 41.0411 7.1095 0.6581
# 5 0.6340 0.5900 1.7751 7.1095 43.1975 2.4998
# 6 -1.8584 11.1847 -1.7245 0.6581 2.4998 42.2201
#
#
#
# Elastic Compliance Matrix: (Units=1/GPa)
#
#
# Indices 1 2 3 4 5 6 
#
# 1 0.009992 -0.001836 -0.001864 0.000193 -0.000126 0.000854
# 2 -0.001836 0.009375 -0.003127 0.001819 -0.000115 -0.002714
# 3 -0.001864 -0.003127 0.010778 -0.000207 -0.000409 0.001214
# 4 0.000193 0.001819 -0.000207 0.025498 -0.004179 -0.000632
# 5 -0.000126 -0.000115 -0.000409 -0.004179 0.023935 -0.001344
# 6 0.000854 -0.002714 0.001214 -0.000632 -0.001344 0.024581
#
#
# Mechanical properties :
#
#
# Convention : Reuss Voigt Hill
#
# Bulk Modulus (GPa) = 60.63759 61.97328 61.30544
# Shear Modulus (GPa) = 40.54790 42.04600 41.29695
#
# Velocity S-wave (km/s) = 4.28085 4.35921 4.32021
# Velocity P-wave (km/s) = 7.19996 7.30383 7.25208
#
# Compressibility (1/GPa) = 0.01649142
#
# Stress axis : x y z
#
# Youngs Moduli (GPa) = 100.07788 106.66221 92.78289
#
# Poissons Ratio (x) = 0.19580 0.17295
# Poissons Ratio (y) = 0.18371 0.29016
# Poissons Ratio (z) = 0.18655 0.33357
#
# Static dielectric constant tensor:
#      x y z
#    x 4.358160 0.027790 0.135730 
#    y 0.027790 4.138290 0.059620 
#    z 0.135730 0.059620 4.051950 
# 
# 
# High freq. dielectric constant tensor:
#      x y z
#    x 1.883740 0.002440 -0.000870 
#    y 0.002440 1.887600 0.003290 
#    z -0.000870 0.003290 1.883120 
# 
# From -- ./inp_files/85437.got.cif
#   From: 2010.06.25/outbox.cif.g09.slc.cpg/sg2_43_cif.got.tgz:85437.got - 2010.06.27 13:26:56.
