data_PCOD8033716
_publ_section_title
;
Structure prediction by ZEFSAII (Michael W. Deem and Ramdas Pophale) SiO2 
 PCOD8033716
Probable space group: P -1
;
_chemical_formula_sum "Si O2"
_cell_formula_units_Z 16
_cell_length_a 22.090267
_cell_length_b 13.940883
_cell_length_c 6.461261
_cell_angle_alpha 100.973261
_cell_angle_beta 77.764413
_cell_angle_gamma 157.593984
_cell_volume 741.133720
_symmetry_space_group_name_H-M "P -1"
_symmetry_group_IT_number 2
_symmetry_cell_setting 'triclinic'
loop_
_space_group_symop_operation_xyz
x,y,z
-x,-y,-z
loop_
_atom_site_type_symbol
_atom_site_label
_atom_site_fract_x
_atom_site_fract_y
_atom_site_fract_z
Si Si1 0.930372 0.006438 0.098951
Si Si2 0.555254 0.838189 0.285692
Si Si3 0.528963 0.121251 0.353862
Si Si4 0.862597 0.549495 0.126515
Si Si5 0.839643 0.206388 0.514018
Si Si6 0.702553 0.140291 0.911626
Si Si7 0.112049 0.937670 0.454315
Si Si8 0.362445 0.370645 0.125144
O O1 0.912106 0.003152 0.355120
O O2 0.054074 0.265652 0.032643
O O3 0.756780 0.767869 0.025618
O O4 0.000000 0.000000 0.000000
O O5 0.453610 0.751220 0.488724
O O6 0.451282 0.591950 0.240807
O O7 0.731818 0.073100 0.339114
O O8 0.576521 0.927210 0.092153
O O9 0.684801 0.329383 0.193553
O O10 0.500000 0.000000 0.500000
O O11 0.381428 0.910873 0.215554
O O12 0.953954 0.691958 0.334271
O O13 0.851245 0.419229 0.010501
O O14 0.760508 0.124647 0.754895
O O15 0.863641 0.125149 0.457517
O O16 0.000000 0.500000 0.500000
O O17 0.265432 0.177049 0.298015
O O18 0.500000 0.500000 0.000000
#
# Coordination Sequence:
#
# PCOD8033716 Si02
#       8
#     2   2   2   2   2   2   2   2
#     4  11  28  44  70 100 135 186 235 286 348 406
#     4  11  25  41  67  99 131 176 227 279 338 406
#     4  11  25  40  66 101 135 175 222 276 344 407
#     4  11  25  42  68  98 138 177 222 279 344 411
#     4  11  24  42  68  98 135 174 224 277 344 408
#     4  11  24  41  66 100 132 174 220 281 340 409
#     4  11  26  46  69  98 140 183 226 287 342 403
#     4  11  26  46  70 100 138 183 238 285 343 410
#
# _framework density 21.588546000000001
#
# number of rings (size 3 to 8) (size 9 to 14) (size 15 to 20)
#    0.000    1.000    1.250    3.375    8.750    8.000 
#    0.000    0.000    0.000    0.000    0.000    0.000 
#    0.000    0.000    0.000    0.000    0.000    0.000 
#
# Total GULP energy -198445.955418 kJ/mol
# GULP energy per Si atom -12402.872214 kJ/mol
# Density = 2.153941 g / cm^3
# Si number density = 21.588546 Si / 1000 Ang^3
#
#
#
# Elastic Constant Matrix: (Units=GPa)
#
#
# Indices 1 2 3 4 5 6 
#
# 1 112.5268 33.6219 40.4931 12.3229 -13.3187 -4.4221
# 2 33.6219 109.8241 29.6110 17.7369 -10.0681 -2.1335
# 3 40.4931 29.6110 116.1078 13.6172 -13.4122 4.3845
# 4 12.3229 17.7369 13.6172 33.4645 -2.8616 -6.0477
# 5 -13.3187 -10.0681 -13.4122 -2.8616 38.6881 1.2787
# 6 -4.4221 -2.1335 4.3845 -6.0477 1.2787 35.7995
#
#
#
# Elastic Compliance Matrix: (Units=1/GPa)
#
#
# Indices 1 2 3 4 5 6 
#
# 1 0.011034 -0.002155 -0.002955 -0.001306 0.002074 0.001302
# 2 -0.002155 0.010959 -0.001368 -0.004388 0.001319 -0.000234
# 3 -0.002955 -0.001368 0.010654 -0.002750 0.002193 -0.002294
# 4 -0.001306 -0.004388 -0.002750 0.034843 -0.000159 0.005806
# 5 0.002074 0.001319 0.002193 -0.000159 0.027685 -0.000950
# 6 0.001302 -0.000234 -0.002294 0.005806 -0.000950 0.029376
#
#
# Mechanical properties :
#
#
# Convention : Reuss Voigt Hill
#
# Bulk Modulus (GPa) = 50.78110 60.65677 55.71893
# Shear Modulus (GPa) = 34.70543 37.23925 35.97234
#
# Velocity S-wave (km/s) = 4.01382 4.15776 4.08643
# Velocity P-wave (km/s) = 6.71225 7.15591 6.93763
#
# Compressibility (1/GPa) = 0.01969236
#
# Stress axis : x y z
#
# Youngs Moduli (GPa) = 90.63262 91.24971 93.85783
#
# Poissons Ratio (x) = 0.19663 0.27734
# Poissons Ratio (y) = 0.19530 0.12835
# Poissons Ratio (z) = 0.26781 0.12478
#
# Static dielectric constant tensor:
#      x y z
#    x 3.865210 -0.161910 -0.085500 
#    y -0.161910 3.590730 0.095030 
#    z -0.085500 0.095030 4.097400 
# 
# 
# High freq. dielectric constant tensor:
#      x y z
#    x 1.852180 -0.001110 -0.009090 
#    y -0.001110 1.854790 0.005670 
#    z -0.009090 0.005670 1.864580 
# 
# From -- ./inp_files/71927.got.cif
#   From: 2010.06.25/outbox.cif.g09.slc.cpg/sg2_36_cif.got.tgz:71927.got - 2010.06.27 13:26:56.
