data_PCOD8033398
_publ_section_title
;
Structure prediction by ZEFSAII (Michael W. Deem and Ramdas Pophale) SiO2 
 PCOD8033398
Probable space group: P -1
;
_chemical_formula_sum "Si O2"
_cell_formula_units_Z 16
_cell_length_a 14.774100
_cell_length_b 9.651100
_cell_length_c 9.636085
_cell_angle_alpha 136.096384
_cell_angle_beta 69.297740
_cell_angle_gamma 83.872480
_cell_volume 740.072070
_symmetry_space_group_name_H-M "P -1"
_symmetry_group_IT_number 2
_symmetry_cell_setting 'triclinic'
loop_
_space_group_symop_operation_xyz
x,y,z
-x,-y,-z
loop_
_atom_site_type_symbol
_atom_site_label
_atom_site_fract_x
_atom_site_fract_y
_atom_site_fract_z
Si Si1 0.202562 0.551383 0.750759
Si Si2 0.208257 0.493887 0.031363
Si Si3 0.008726 0.262420 0.488354
Si Si4 0.987906 0.755522 0.838008
Si Si5 0.743719 0.012387 0.272972
Si Si6 0.638542 0.338320 0.818988
Si Si7 0.739282 0.959092 0.721034
Si Si8 0.629592 0.276121 0.262999
O O1 0.248492 0.291354 0.475947
O O2 0.293987 0.614066 0.709977
O O3 0.083174 0.747818 0.879837
O O4 0.179181 0.559797 0.933541
O O5 0.317282 0.503158 0.026711
O O6 0.093534 0.695743 0.324522
O O7 0.242961 0.223883 0.841323
O O8 0.997559 0.180852 0.281892
O O9 0.136670 0.068980 0.342932
O O10 0.998151 0.509089 0.657786
O O11 0.864269 0.961969 0.115052
O O12 0.694494 0.233922 0.564398
O O13 0.654555 0.110836 0.264095
O O14 0.680197 0.105493 0.720235
O O15 0.500000 0.500000 0.000000
O O16 0.651617 0.105761 0.999122
O O17 0.500000 0.500000 0.500000
#
# Coordination Sequence:
#
# PCOD8033398 Si02
#       8
#     2   2   2   2   2   2   2   2
#     4  11  25  43  71 100 134 174 218 272 335 397
#     4  11  25  44  69 101 134 173 219 272 336 395
#     4   9  20  39  68  99 134 169 213 272 333 401
#     4   9  20  40  66 101 134 166 217 269 335 401
#     4  11  25  44  70  99 133 177 215 279 335 382
#     4  12  27  44  66  98 133 177 231 271 321 397
#     4  11  23  46  69  96 139 172 215 278 335 382
#     4  12  27  46  67  97 134 176 230 273 320 396
#
# _framework density 21.619515
#
# number of rings (size 3 to 8) (size 9 to 14) (size 15 to 20)
#    0.000    1.250    3.750    0.750    5.250    5.500 
#    0.000    0.000    0.000    0.000    0.000    0.000 
#    0.000    0.000    0.000    0.000    0.000    0.000 
#
# Total GULP energy -198418.034551 kJ/mol
# GULP energy per Si atom -12401.127159 kJ/mol
# Density = 2.157031 g / cm^3
# Si number density = 21.619515 Si / 1000 Ang^3
#
#
#
# Elastic Constant Matrix: (Units=GPa)
#
#
# Indices 1 2 3 4 5 6 
#
# 1 176.0064 153.1755 93.9471 -11.7828 -177.0580 125.2741
# 2 153.1755 288.8808 88.9852 -14.9622 -306.2159 234.9889
# 3 93.9471 88.9852 173.1729 -19.1874 -84.7603 44.0334
# 4 -11.7828 -14.9622 -19.1874 39.1514 -6.7247 7.6662
# 5 -177.0580 -306.2159 -84.7603 -6.7247 437.1874 -315.2745
# 6 125.2741 234.9889 44.0334 7.6662 -315.2745 303.1212
#
#
#
# Elastic Compliance Matrix: (Units=1/GPa)
#
#
# Indices 1 2 3 4 5 6 
#
# 1 0.013028 -0.003154 -0.004223 0.001034 0.002273 0.000013
# 2 -0.003154 0.018087 -0.001710 0.007342 0.008187 -0.004140
# 3 -0.004223 -0.001710 0.008804 0.002039 0.000342 0.002096
# 4 0.001034 0.007342 0.002039 0.030909 0.004969 -0.002029
# 5 0.002273 0.008187 0.000342 0.004969 0.014820 0.007953
# 6 0.000013 -0.004140 0.002096 -0.002029 0.007953 0.014522
#
#
# Mechanical properties :
#
#
# Convention : Reuss Voigt Hill
#
# Bulk Modulus (GPa) = 45.98525 145.58618 95.78571
# Shear Modulus (GPa) = 39.81176 176.02215 107.91696
#
# Velocity S-wave (km/s) = 4.29589 9.03299 7.07282
# Velocity P-wave (km/s) = 6.77663 13.27703 10.54045
#
# Compressibility (1/GPa) = 0.02174611
#
# Stress axis : x y z
#
# Youngs Moduli (GPa) = 76.76034 55.28820 113.58028
#
# Poissons Ratio (x) = 0.17438 0.47963
# Poissons Ratio (y) = 0.24211 0.19417
# Poissons Ratio (z) = 0.32414 0.09452
#
# Static dielectric constant tensor:
#      x y z
#    x 3.921260 -0.227720 0.006140 
#    y -0.227720 4.052500 -0.051100 
#    z 0.006140 -0.051100 4.101190 
# 
# 
# High freq. dielectric constant tensor:
#      x y z
#    x 1.843690 -0.009040 0.008490 
#    y -0.009040 1.861930 0.002780 
#    z 0.008490 0.002780 1.867390 
# 
# From -- ./inp_files/299614.got.cif
#   From: 2010.06.25/outbox.cif.g09.slc.cpg/sg2_150_cif.got.tgz:299614.got - 2010.06.27 13:26:56.
