data_PCOD8033993
_publ_section_title
;
Structure prediction by ZEFSAII (Michael W. Deem and Ramdas Pophale) SiO2 
 PCOD8033993
Probable space group: P -1
;
_chemical_formula_sum "Si O2"
_cell_formula_units_Z 14
_cell_length_a 12.651477
_cell_length_b 5.107803
_cell_length_c 22.086507
_cell_angle_alpha 89.145684
_cell_angle_beta 26.160285
_cell_angle_gamma 97.409392
_cell_volume 595.483651
_symmetry_space_group_name_H-M "P -1"
_symmetry_group_IT_number 2
_symmetry_cell_setting 'triclinic'
loop_
_space_group_symop_operation_xyz
x,y,z
-x,-y,-z
loop_
_atom_site_type_symbol
_atom_site_label
_atom_site_fract_x
_atom_site_fract_y
_atom_site_fract_z
Si Si1 0.448494 0.651710 0.872735
Si Si2 0.889533 0.816501 0.735081
Si Si3 0.249324 0.309297 0.711402
Si Si4 0.981171 0.244948 0.968268
Si Si5 0.051260 0.299786 0.164157
Si Si6 0.196567 0.419298 0.547583
Si Si7 0.168503 0.312496 0.425654
O O1 0.646712 0.817951 0.820723
O O2 0.587385 0.577164 0.743605
O O3 0.283614 0.840669 0.933207
O O4 0.256256 0.376175 0.004027
O O5 0.806196 0.703700 0.845788
O O6 0.028537 0.623554 0.631061
O O7 0.062421 0.133222 0.651822
O O8 0.549222 0.435224 0.545424
O O9 0.211688 0.331702 0.802580
O O10 0.094670 0.476084 0.753946
O O11 0.158501 0.991381 0.739882
O O12 0.000000 0.500000 0.000000
O O13 0.000000 0.000000 0.000000
O O14 0.260310 0.344232 0.447440
O O15 0.000000 0.500000 0.500000
O O16 0.000000 0.000000 0.500000
#
# Coordination Sequence:
#
# PCOD8033993 Si02
#       7
#     2   2   2   2   2   2   2
#     4  11  25  47  74 103 145 179 236 294 354 418
#     4  12  26  45  71 103 143 185 239 286 354 411
#     4  11  25  45  68 102 141 185 242 284 350 411
#     4  11  24  43  69 101 137 183 230 285 347 417
#     4  11  26  46  71 102 137 193 237 292 342 411
#     4  12  25  44  70 104 142 186 231 292 349 424
#     4  12  24  44  69 103 143 179 225 285 359 425
#
# _framework density 23.510300999999998
#
# number of rings (size 3 to 8) (size 9 to 14) (size 15 to 20)
#    0.000    0.571    2.857    4.714    0.000   12.571 
#    0.000    5.000    0.000    0.000    0.000    0.000 
#    0.000    0.000    0.000    0.000    0.000    0.000 
#
# Total GULP energy -173654.300214 kJ/mol
# GULP energy per Si atom -12403.878587 kJ/mol
# Density = 2.345679 g / cm^3
# Si number density = 23.510301 Si / 1000 Ang^3
#
#
#
# Elastic Constant Matrix: (Units=GPa)
#
#
# Indices 1 2 3 4 5 6 
#
# 1 147.5109 36.5259 53.7598 -7.6277 0.8957 -20.6171
# 2 36.5259 147.2038 47.5275 -12.5141 -6.0081 -15.2528
# 3 53.7598 47.5275 113.6682 -13.4263 -14.1934 -11.7379
# 4 -7.6277 -12.5141 -13.4263 31.6531 3.0715 0.7710
# 5 0.8957 -6.0081 -14.1934 3.0715 34.4856 0.2950
# 6 -20.6171 -15.2528 -11.7379 0.7710 0.2950 42.5098
#
#
#
# Elastic Compliance Matrix: (Units=1/GPa)
#
#
# Indices 1 2 3 4 5 6 
#
# 1 0.008764 -0.000707 -0.003743 0.000361 -0.001949 0.002970
# 2 -0.000707 0.008182 -0.002655 0.001877 0.000168 0.001824
# 3 -0.003743 -0.002655 0.012666 0.002961 0.004578 0.000644
# 4 0.000361 0.001877 0.002961 0.033796 -0.001483 0.001064
# 5 -0.001949 0.000168 0.004578 -0.001483 0.031092 0.000190
# 6 0.002970 0.001824 0.000644 0.001064 0.000190 0.025776
#
#
# Mechanical properties :
#
#
# Convention : Reuss Voigt Hill
#
# Bulk Modulus (GPa) = 64.93449 76.00103 70.46776
# Shear Modulus (GPa) = 35.81124 39.76770 37.78947
#
# Velocity S-wave (km/s) = 3.90707 4.11725 4.01354
# Velocity P-wave (km/s) = 6.93060 7.41614 7.17748
#
# Compressibility (1/GPa) = 0.01540014
#
# Stress axis : x y z
#
# Youngs Moduli (GPa) = 114.10113 122.22597 78.95072
#
# Poissons Ratio (x) = 0.08643 0.29554
# Poissons Ratio (y) = 0.08068 0.20965
# Poissons Ratio (z) = 0.42712 0.32456
#
# Static dielectric constant tensor:
#      x y z
#    x 4.554540 -0.091080 0.198460 
#    y -0.091080 4.138520 0.022050 
#    z 0.198460 0.022050 4.525370 
# 
# 
# High freq. dielectric constant tensor:
#      x y z
#    x 1.952610 -0.003060 0.008890 
#    y -0.003060 1.929170 -0.001430 
#    z 0.008890 -0.001430 1.932340 
# 
# From -- ./inp_files/467967.got.cif
#   From: 2010.06.25/outbox.cif.g09.slc.cpg/sg2_234_cif.got.tgz:467967.got - 2010.06.27 13:26:56.
