data_PCOD8033154
_publ_section_title
;
Structure prediction by ZEFSAII (Michael W. Deem and Ramdas Pophale) SiO2 
 PCOD8033154
Probable space group: P -1
;
_chemical_formula_sum "Si O2"
_cell_formula_units_Z 12
_cell_length_a 15.960114
_cell_length_b 9.949482
_cell_length_c 19.613515
_cell_angle_alpha 138.730695
_cell_angle_beta 160.801879
_cell_angle_gamma 52.158825
_cell_volume 605.240210
_symmetry_space_group_name_H-M "P -1"
_symmetry_group_IT_number 2
_symmetry_cell_setting 'triclinic'
loop_
_space_group_symop_operation_xyz
x,y,z
-x,-y,-z
loop_
_atom_site_type_symbol
_atom_site_label
_atom_site_fract_x
_atom_site_fract_y
_atom_site_fract_z
Si Si1 0.677494 0.086404 0.236943
Si Si2 0.504422 0.329475 0.381945
Si Si3 0.847299 0.512572 0.089433
Si Si4 0.696762 0.706491 0.181612
Si Si5 0.455746 0.512388 0.666923
Si Si6 0.922074 0.111659 0.046344
O O1 0.669470 0.313979 0.342444
O O2 0.006188 0.153904 0.497661
O O3 0.564756 0.883920 0.130609
O O4 0.500000 0.000000 0.000000
O O5 0.500000 0.500000 0.500000
O O6 0.383978 0.395790 0.246649
O O7 0.818951 0.351605 0.619187
O O8 0.301557 0.072237 0.146079
O O9 0.752894 0.627419 0.120887
O O10 0.672950 0.500318 0.883101
O O11 0.771086 0.257533 0.955976
O O12 0.500000 0.500000 0.000000
O O13 0.196132 0.263619 0.360774
O O14 0.000000 0.000000 0.000000
#
# Coordination Sequence:
#
# PCOD8033154 Si02
#       6
#     2   2   2   2   2   2
#     4  11  23  45  67  94 135 171 217 273 322 391
#     4  11  23  46  68  91 133 178 215 272 329 379
#     4  11  24  44  66  98 133 171 223 266 332 388
#     4  11  25  44  67  96 132 175 220 271 325 387
#     4  11  24  43  66 101 133 170 222 267 326 394
#     4  11  23  45  65  92 135 171 216 274 323 382
#
# _framework density 19.826837999999999
#
# number of rings (size 3 to 8) (size 9 to 14) (size 15 to 20)
#    0.000    1.000    8.333    0.000    2.333    3.333 
#    3.000    0.000    0.000    0.000    0.000    0.000 
#    0.000    0.000    0.000    0.000    0.000    0.000 
#
# Total GULP energy -148765.234089 kJ/mol
# GULP energy per Si atom -12397.102841 kJ/mol
# Density = 1.978171 g / cm^3
# Si number density = 19.826838 Si / 1000 Ang^3
#
#
#
# Elastic Constant Matrix: (Units=GPa)
#
#
# Indices 1 2 3 4 5 6 
#
# 1 116.9269 35.4490 78.6804 2.3595 -0.9322 21.1980
# 2 35.4490 97.4884 70.3411 6.1026 1.1570 28.3696
# 3 78.6804 70.3411 141.5054 7.6520 -8.3410 34.0139
# 4 2.3595 6.1026 7.6520 44.3623 15.3639 -3.9391
# 5 -0.9322 1.1570 -8.3410 15.3639 42.9363 10.2015
# 6 21.1980 28.3696 34.0139 -3.9391 10.2015 49.4445
#
#
#
# Elastic Compliance Matrix: (Units=1/GPa)
#
#
# Indices 1 2 3 4 5 6 
#
# 1 0.013837 0.000983 -0.008236 0.001071 -0.001611 -0.000413
# 2 0.000983 0.017024 -0.007776 -0.001387 -0.000290 -0.004891
# 3 -0.008236 -0.007776 0.017463 -0.004173 0.006257 -0.005644
# 4 0.001071 -0.001387 -0.004173 0.028593 -0.012918 0.008150
# 5 -0.001611 -0.000290 0.006257 -0.012918 0.031720 -0.011021
# 6 -0.000413 -0.004891 -0.005644 0.008150 -0.011021 0.030014
#
#
# Mechanical properties :
#
#
# Convention : Reuss Voigt Hill
#
# Bulk Modulus (GPa) = 54.74391 80.54020 67.64206
# Shear Modulus (GPa) = 28.60497 38.77862 33.69180
#
# Velocity S-wave (km/s) = 3.80246 4.42731 4.12673
# Velocity P-wave (km/s) = 6.85195 8.17587 7.54301
#
# Compressibility (1/GPa) = 0.01826687
#
# Stress axis : x y z
#
# Youngs Moduli (GPa) = 72.27210 58.74041 57.26533
#
# Poissons Ratio (x) = -0.05777 0.47163
# Poissons Ratio (y) = -0.07108 0.44528
# Poissons Ratio (z) = 0.59523 0.45675
#
# Static dielectric constant tensor:
#      x y z
#    x 4.044860 -0.024430 -0.470270 
#    y -0.024430 3.837140 0.048740 
#    z -0.470270 0.048740 3.811860 
# 
# 
# High freq. dielectric constant tensor:
#      x y z
#    x 1.775710 0.003460 -0.014800 
#    y 0.003460 1.790200 0.013110 
#    z -0.014800 0.013110 1.773770 
# 
# From -- ./inp_files/305267.got.cif
#   From: 2010.06.25/outbox.cif.g09.slc.cpg/sg2_153_cif.got.tgz:305267.got - 2010.06.27 13:26:56.
