data_PCOD8033052
_publ_section_title
;
Structure prediction by ZEFSAII (Michael W. Deem and Ramdas Pophale) SiO2 
 PCOD8033052
Probable space group: P -1
;
_chemical_formula_sum "Si O2"
_cell_formula_units_Z 10
_cell_length_a 10.098494
_cell_length_b 6.041199
_cell_length_c 22.085746
_cell_angle_alpha 45.158462
_cell_angle_beta 26.814836
_cell_angle_gamma 43.167949
_cell_volume 409.362770
_symmetry_space_group_name_H-M "P -1"
_symmetry_group_IT_number 2
_symmetry_cell_setting 'triclinic'
loop_
_space_group_symop_operation_xyz
x,y,z
-x,-y,-z
loop_
_atom_site_type_symbol
_atom_site_label
_atom_site_fract_x
_atom_site_fract_y
_atom_site_fract_z
Si Si1 0.261571 0.925629 0.066673
Si Si2 0.657794 0.834532 0.811454
Si Si3 0.681627 0.932035 0.648721
Si Si4 0.357232 0.974779 0.660231
Si Si5 0.065499 0.243267 0.606342
O O1 0.244175 0.558473 0.154109
O O2 0.359471 0.979432 0.948263
O O3 0.917594 0.168740 0.177451
O O4 0.500000 0.000000 0.000000
O O5 0.549876 0.991964 0.758963
O O6 0.957618 0.927768 0.694834
O O7 0.442914 0.140331 0.655107
O O8 0.754476 0.549730 0.673899
O O9 0.000000 0.000000 0.500000
O O10 0.675079 0.712783 0.555517
O O11 0.220503 0.227410 0.612640
#
# Coordination Sequence:
#
# PCOD8033052 Si02
#       5
#     2   2   2   2   2
#     4  11  23  46  69  99 138 180 226 270 334 407
#     4  11  23  44  72  92 143 178 214 290 327 387
#     4  12  25  43  69 106 137 167 228 290 328 395
#     4  11  24  42  74  96 135 185 217 278 341 393
#     4  11  24  46  66 103 137 173 232 275 330 404
#
# _framework density 24.428211000000001
#
# number of rings (size 3 to 8) (size 9 to 14) (size 15 to 20)
#    0.000    0.800    6.000    0.600    0.000    5.600 
#    0.000    4.000    0.000    0.000    0.000    0.000 
#    0.000    0.000    0.000    0.000    0.000    0.000 
#
# Total GULP energy -123883.249717 kJ/mol
# GULP energy per Si atom -12388.324972 kJ/mol
# Density = 2.437261 g / cm^3
# Si number density = 24.428211 Si / 1000 Ang^3
#
#
#
# Elastic Constant Matrix: (Units=GPa)
#
#
# Indices 1 2 3 4 5 6 
#
# 1 223.7397 15.3091 87.1729 -5.9236 20.8504 7.7516
# 2 15.3091 48.8583 29.8525 -7.1963 -5.8346 18.6835
# 3 87.1729 29.8525 207.3310 30.3224 17.6036 21.9697
# 4 -5.9236 -7.1963 30.3224 42.7534 13.6944 0.5855
# 5 20.8504 -5.8346 17.6036 13.6944 64.3469 1.6977
# 6 7.7516 18.6835 21.9697 0.5855 1.6977 20.7739
#
#
#
# Elastic Compliance Matrix: (Units=1/GPa)
#
#
# Indices 1 2 3 4 5 6 
#
# 1 0.005831 -0.000224 -0.002876 0.003395 -0.001875 0.001124
# 2 -0.000224 0.034863 -0.003311 0.007520 0.003284 -0.028250
# 3 -0.002876 -0.003311 0.007897 -0.006488 -0.000040 -0.004115
# 4 0.003395 0.007520 -0.006488 0.031445 -0.005293 -0.001623
# 5 -0.001875 0.003284 -0.000040 -0.005293 0.017676 -0.003508
# 6 0.001124 -0.028250 -0.004115 -0.001623 -0.003508 0.077810
#
#
# Mechanical properties :
#
#
# Convention : Reuss Voigt Hill
#
# Bulk Modulus (GPa) = 27.95595 82.73309 55.34452
# Shear Modulus (GPa) = 24.96668 48.74782 36.85725
#
# Velocity S-wave (km/s) = 3.20041 4.47201 3.88854
# Velocity P-wave (km/s) = 5.01256 7.78502 6.54723
#
# Compressibility (1/GPa) = 0.03577057
#
# Stress axis : x y z
#
# Youngs Moduli (GPa) = 171.49778 28.68350 126.62432
#
# Poissons Ratio (x) = 0.00642 0.36416
# Poissons Ratio (y) = 0.03836 0.41924
# Poissons Ratio (z) = 0.49322 0.09497
#
# Static dielectric constant tensor:
#      x y z
#    x 4.741230 0.184520 0.326180 
#    y 0.184520 4.740420 0.264430 
#    z 0.326180 0.264430 4.905860 
# 
# 
# High freq. dielectric constant tensor:
#      x y z
#    x 1.994770 0.016240 0.015080 
#    y 0.016240 1.920050 0.011680 
#    z 0.015080 0.011680 1.989600 
# 
# From -- ./inp_files/18721.got.cif
#   From: 2010.06.25/outbox.cif.g09.slc.cpg/sg2_10_cif.got.tgz:18721.got - 2010.06.27 13:26:56.
