data_PCOD8033590
_publ_section_title
;
Structure prediction by ZEFSAII (Michael W. Deem and Ramdas Pophale) SiO2 
 PCOD8033590
Probable space group: P -1
;
_chemical_formula_sum "Si O2"
_cell_formula_units_Z 16
_cell_length_a 16.235957
_cell_length_b 14.841468
_cell_length_c 14.036086
_cell_angle_alpha 28.182807
_cell_angle_beta 38.857922
_cell_angle_gamma 27.605595
_cell_volume 740.150057
_symmetry_space_group_name_H-M "P -1"
_symmetry_group_IT_number 2
_symmetry_cell_setting 'triclinic'
loop_
_space_group_symop_operation_xyz
x,y,z
-x,-y,-z
loop_
_atom_site_type_symbol
_atom_site_label
_atom_site_fract_x
_atom_site_fract_y
_atom_site_fract_z
Si Si1 0.394472 0.912896 0.946098
Si Si2 0.290367 0.106872 0.340969
Si Si3 0.696153 0.790657 0.558807
Si Si4 0.182645 0.715453 0.997416
Si Si5 0.659728 0.377949 0.265806
Si Si6 0.195682 0.024974 0.841901
Si Si7 0.926105 0.589861 0.120492
Si Si8 0.912355 0.280855 0.283893
O O1 0.551945 0.910019 0.817100
O O2 0.364278 0.875565 0.899560
O O3 0.214560 0.186582 0.887912
O O4 0.457979 0.658206 0.181389
O O5 0.274227 0.112566 0.463553
O O6 0.108642 0.365013 0.219976
O O7 0.335534 0.850483 0.503111
O O8 0.730853 0.538646 0.784406
O O9 0.830312 0.741904 0.401891
O O10 0.500000 0.000000 0.500000
O O11 0.970464 0.891328 0.026883
O O12 0.238755 0.666850 0.882038
O O13 0.244623 0.840790 0.881172
O O14 0.746140 0.401499 0.254537
O O15 0.851165 0.466649 0.256993
O O16 0.945071 0.730987 0.890361
O O17 0.000000 0.000000 0.500000
#
# Coordination Sequence:
#
# PCOD8033590 Si02
#       8
#     2   2   2   2   2   2   2   2
#     4  12  26  45  69 103 139 180 226 280 336 405
#     4  12  24  45  69  99 139 183 222 279 338 403
#     4  12  22  39  62  93 133 176 226 275 326 391
#     4  11  24  42  65  95 138 181 226 279 333 402
#     4  12  24  44  69 100 139 177 228 282 344 402
#     4  11  24  40  65  99 133 183 230 274 333 395
#     4  11  26  48  74  98 140 178 225 278 347 407
#     4  11  23  47  77 102 132 179 221 285 346 402
#
# _framework density 21.617238
#
# number of rings (size 3 to 8) (size 9 to 14) (size 15 to 20)
#    0.000    0.500    6.250    1.875    1.750    2.500 
#    2.250    1.250    0.000    0.000    0.000    0.000 
#    0.000    0.000    0.000    0.000    0.000    0.000 
#
# Total GULP energy -198371.800367 kJ/mol
# GULP energy per Si atom -12398.237523 kJ/mol
# Density = 2.156804 g / cm^3
# Si number density = 21.617238 Si / 1000 Ang^3
#
#
#
# Elastic Constant Matrix: (Units=GPa)
#
#
# Indices 1 2 3 4 5 6 
#
# 1 146.6871 47.7111 44.2498 -13.9549 1.9173 -12.3917
# 2 47.7111 74.5896 40.0677 -21.4372 -10.4940 -8.5595
# 3 44.2498 40.0677 116.9873 -25.2934 -5.4595 -9.7366
# 4 -13.9549 -21.4372 -25.2934 32.1480 -1.9573 4.8358
# 5 1.9173 -10.4940 -5.4595 -1.9573 28.6656 -2.7224
# 6 -12.3917 -8.5595 -9.7366 4.8358 -2.7224 22.8383
#
#
#
# Elastic Compliance Matrix: (Units=1/GPa)
#
#
# Indices 1 2 3 4 5 6 
#
# 1 0.009258 -0.005539 -0.001930 -0.001692 -0.002927 0.002134
# 2 -0.005539 0.023333 -0.002792 0.011031 0.009451 0.003340
# 3 -0.001930 -0.002792 0.011884 0.006495 0.001988 0.001835
# 4 -0.001692 0.011031 0.006495 0.043679 0.008153 -0.002291
# 5 -0.002927 0.009451 0.001988 0.008153 0.040031 0.005847
# 6 0.002134 0.003340 0.001835 -0.002291 0.005847 0.048160
#
#
# Mechanical properties :
#
#
# Convention : Reuss Voigt Hill
#
# Bulk Modulus (GPa) = 41.74790 66.92459 54.33624
# Shear Modulus (GPa) = 24.40790 30.47941 27.44365
#
# Velocity S-wave (km/s) = 3.36385 3.75901 3.56691
# Velocity P-wave (km/s) = 5.86869 7.06161 6.49261
#
# Compressibility (1/GPa) = 0.02395330
#
# Stress axis : x y z
#
# Youngs Moduli (GPa) = 108.00921 42.85835 84.14604
#
# Poissons Ratio (x) = 0.23738 0.16238
# Poissons Ratio (y) = 0.59824 0.23497
# Poissons Ratio (z) = 0.20843 0.11968
#
# Static dielectric constant tensor:
#      x y z
#    x 4.163960 0.106800 -0.088600 
#    y 0.106800 3.284100 0.029990 
#    z -0.088600 0.029990 4.122520 
# 
# 
# High freq. dielectric constant tensor:
#      x y z
#    x 1.869030 -0.005230 -0.003500 
#    y -0.005230 1.828530 -0.010920 
#    z -0.003500 -0.010920 1.864020 
# 
# From -- ./inp_files/534098.got.cif
#   From: 2010.06.25/outbox.cif.g09.slc.cpg/sg2_268_cif.got.tgz:534098.got - 2010.06.27 13:26:56.
