data_PCOD8033402
_publ_section_title
;
Structure prediction by ZEFSAII (Michael W. Deem and Ramdas Pophale) SiO2 
 PCOD8033402
Probable space group: P -1
;
_chemical_formula_sum "Si O2"
_cell_formula_units_Z 14
_cell_length_a 12.804122
_cell_length_b 8.627751
_cell_length_c 9.743772
_cell_angle_alpha 122.865686
_cell_angle_beta 136.863721
_cell_angle_gamma 55.703315
_cell_volume 591.309668
_symmetry_space_group_name_H-M "P -1"
_symmetry_group_IT_number 2
_symmetry_cell_setting 'triclinic'
loop_
_space_group_symop_operation_xyz
x,y,z
-x,-y,-z
loop_
_atom_site_type_symbol
_atom_site_label
_atom_site_fract_x
_atom_site_fract_y
_atom_site_fract_z
Si Si1 0.823642 0.734711 0.713959
Si Si2 0.475287 0.377109 0.543991
Si Si3 0.733661 0.014081 0.523822
Si Si4 0.702102 0.980709 0.149987
Si Si5 0.422359 0.332175 0.042945
Si Si6 0.894059 0.429342 0.258429
Si Si7 0.078434 0.999985 0.854561
O O1 0.708579 0.617012 0.607182
O O2 0.005325 0.595046 0.800897
O O3 0.761489 0.816962 0.542074
O O4 0.828753 0.908740 0.902301
O O5 0.500000 0.500000 0.500000
O O6 0.581989 0.159804 0.520598
O O7 0.533466 0.478913 0.775990
O O8 0.709655 0.988772 0.326762
O O9 0.888055 0.091824 0.727980
O O10 0.580596 0.174807 0.059709
O O11 0.871954 0.954888 0.229817
O O12 0.640381 0.794898 0.963577
O O13 0.277367 0.410534 0.835340
O O14 0.869233 0.228032 0.182337
O O15 0.000000 0.500000 0.500000
#
# Coordination Sequence:
#
# PCOD8033402 Si02
#       7
#     2   2   2   2   2   2   2
#     4  11  25  45  71 101 139 183 228 282 346 410
#     4  12  24  42  69 105 139 176 235 282 340 406
#     4  11  23  46  69  99 139 181 230 281 342 414
#     4  11  25  44  70 100 140 181 230 278 353 405
#     4  11  24  45  66  96 143 177 224 284 346 403
#     4  11  25  46  71 104 136 175 237 286 340 407
#     4  11  24  45  72 100 137 186 227 280 347 407
#
# _framework density 23.676258000000001
#
# number of rings (size 3 to 8) (size 9 to 14) (size 15 to 20)
#    0.000    0.857    1.429    6.857    4.000    1.714 
#    2.571    2.857    0.000    0.000    0.000    0.000 
#    0.000    0.000    0.000    0.000    0.000    0.000 
#
# Total GULP energy -173497.145973 kJ/mol
# GULP energy per Si atom -12392.653284 kJ/mol
# Density = 2.362237 g / cm^3
# Si number density = 23.676258 Si / 1000 Ang^3
#
#
#
# Elastic Constant Matrix: (Units=GPa)
#
#
# Indices 1 2 3 4 5 6 
#
# 1 118.1750 2.0737 30.2330 15.1339 13.2568 23.5764
# 2 2.0737 62.9120 36.2411 6.7290 -1.9993 0.6156
# 3 30.2330 36.2411 123.1155 10.8350 10.6021 9.5377
# 4 15.1339 6.7290 10.8350 39.8831 0.2750 5.7667
# 5 13.2568 -1.9993 10.6021 0.2750 32.9854 6.3258
# 6 23.5764 0.6156 9.5377 5.7667 6.3258 23.1610
#
#
#
# Elastic Compliance Matrix: (Units=1/GPa)
#
#
# Indices 1 2 3 4 5 6 
#
# 1 0.011431 0.001064 -0.001972 -0.002571 -0.002022 -0.009660
# 2 0.001064 0.019717 -0.006157 -0.002185 0.002619 0.000757
# 3 -0.001972 -0.006157 0.010845 -0.000953 -0.002811 -0.001290
# 4 -0.002571 -0.002185 -0.000953 0.027273 0.001787 -0.004211
# 5 -0.002022 0.002619 -0.002811 0.001787 0.033408 -0.006423
# 6 -0.009660 0.000757 -0.001290 -0.004211 -0.006423 0.056323
#
#
# Mechanical properties :
#
#
# Convention : Reuss Voigt Hill
#
# Bulk Modulus (GPa) = 35.88921 49.03313 42.46117
# Shear Modulus (GPa) = 27.41014 34.91622 31.16318
#
# Velocity S-wave (km/s) = 3.40620 3.84439 3.63191
# Velocity P-wave (km/s) = 5.53722 6.36087 5.96328
#
# Compressibility (1/GPa) = 0.02786352
#
# Stress axis : x y z
#
# Youngs Moduli (GPa) = 87.48125 50.71879 92.20837
#
# Poissons Ratio (x) = -0.05398 0.18180
# Poissons Ratio (y) = -0.09310 0.56774
# Poissons Ratio (z) = 0.17248 0.31228
#
# Static dielectric constant tensor:
#      x y z
#    x 4.459970 -0.006560 0.364790 
#    y -0.006560 3.453740 -0.444790 
#    z 0.364790 -0.444790 3.999260 
# 
# 
# High freq. dielectric constant tensor:
#      x y z
#    x 1.939560 -0.006870 0.016030 
#    y -0.006870 1.935970 0.010800 
#    z 0.016030 0.010800 1.941800 
# 
# From -- ./inp_files/171618.got.cif
#   From: 2010.06.25/outbox.cif.g09.slc.cpg/sg2_86_cif.got.tgz:171618.got - 2010.06.27 13:26:56.
