data_PCOD8033454
_publ_section_title
;
Structure prediction by ZEFSAII (Michael W. Deem and Ramdas Pophale) SiO2 
 PCOD8033454
Probable space group: P -1
;
_chemical_formula_sum "Si O2"
_cell_formula_units_Z 14
_cell_length_a 6.097071
_cell_length_b 12.225236
_cell_length_c 15.348888
_cell_angle_alpha 38.482872
_cell_angle_beta 52.097005
_cell_angle_gamma 65.495986
_cell_volume 556.636690
_symmetry_space_group_name_H-M "P -1"
_symmetry_group_IT_number 2
_symmetry_cell_setting 'triclinic'
loop_
_space_group_symop_operation_xyz
x,y,z
-x,-y,-z
loop_
_atom_site_type_symbol
_atom_site_label
_atom_site_fract_x
_atom_site_fract_y
_atom_site_fract_z
Si Si1 0.154859 0.347670 0.343116
Si Si2 0.317579 0.658872 0.213233
Si Si3 0.983177 0.031999 0.323453
Si Si4 0.742286 0.356371 0.121638
Si Si5 0.121643 0.128581 0.730682
Si Si6 0.432445 0.545820 0.587510
Si Si7 0.412740 0.815837 0.907185
O O1 0.171346 0.454386 0.364455
O O2 0.440388 0.418555 0.176561
O O3 0.870788 0.408125 0.336624
O O4 0.139166 0.136380 0.484155
O O5 0.534620 0.634330 0.253400
O O6 0.099571 0.789230 0.208199
O O7 0.451280 0.728251 0.046072
O O8 0.764835 0.174652 0.282798
O O9 0.270768 0.121342 0.242298
O O10 0.042124 0.964323 0.254213
O O11 0.748544 0.321532 0.037791
O O12 0.000000 0.500000 0.000000
O O13 0.364246 0.278327 0.544910
O O14 0.250126 0.986212 0.848189
O O15 0.500000 0.500000 0.500000
#
# Coordination Sequence:
#
# PCOD8033454 Si02
#       7
#     2   2   2   2   2   2   2
#     4  12  25  45  79 111 147 208 251 310 380 441
#     4  12  26  43  76 114 155 207 247 303 383 445
#     4  11  24  47  75 109 156 191 257 317 373 451
#     4  11  28  53  77 108 153 196 262 318 376 449
#     4  11  23  46  72 112 156 198 251 310 372 455
#     4  12  24  45  75 114 156 200 257 304 369 458
#     4  11  27  49  75 112 154 200 250 321 379 445
#
# _framework density 25.151054999999999
#
# number of rings (size 3 to 8) (size 9 to 14) (size 15 to 20)
#    0.000    0.571    4.286    3.000    0.000    8.000 
#    0.000    0.714    0.000    0.000    0.000    0.000 
#    0.000    0.000    0.000    0.000    0.000    0.000 
#
# Total GULP energy -173492.286637 kJ/mol
# GULP energy per Si atom -12392.306188 kJ/mol
# Density = 2.509381 g / cm^3
# Si number density = 25.151055 Si / 1000 Ang^3
#
#
#
# Elastic Constant Matrix: (Units=GPa)
#
#
# Indices 1 2 3 4 5 6 
#
# 1 112.5903 39.5593 63.2164 -4.0958 14.6960 -9.6151
# 2 39.5593 111.1411 36.9647 -11.7745 5.1709 -19.6695
# 3 63.2164 36.9647 113.3070 -6.6334 17.3955 -7.9836
# 4 -4.0958 -11.7745 -6.6334 32.0303 -2.1520 -0.1009
# 5 14.6960 5.1709 17.3955 -2.1520 52.7723 -10.0577
# 6 -9.6151 -19.6695 -7.9836 -0.1009 -10.0577 53.3086
#
#
#
# Elastic Compliance Matrix: (Units=1/GPa)
#
#
# Indices 1 2 3 4 5 6 
#
# 1 0.013682 -0.002645 -0.006584 -0.000677 -0.001361 0.000248
# 2 -0.002645 0.011593 -0.002005 0.003595 0.001117 0.003718
# 3 -0.006584 -0.002005 0.013569 0.001064 -0.002468 -0.000359
# 4 -0.000677 0.003595 0.001064 0.032757 0.001134 0.001640
# 5 -0.001361 0.001117 -0.002468 0.001134 0.020788 0.003721
# 6 0.000248 0.003718 -0.000359 0.001640 0.003721 0.020826
#
#
# Mechanical properties :
#
#
# Convention : Reuss Voigt Hill
#
# Bulk Modulus (GPa) = 61.06653 68.50213 64.78433
# Shear Modulus (GPa) = 35.42547 40.77543 38.10045
#
# Velocity S-wave (km/s) = 3.75708 4.03081 3.89635
# Velocity P-wave (km/s) = 6.56913 6.99704 6.78646
#
# Compressibility (1/GPa) = 0.01637558
#
# Stress axis : x y z
#
# Youngs Moduli (GPa) = 73.08974 86.26101 73.69755
#
# Poissons Ratio (x) = 0.22813 0.48521
# Poissons Ratio (y) = 0.19330 0.14780
# Poissons Ratio (z) = 0.48121 0.17300
#
# Static dielectric constant tensor:
#      x y z
#    x 4.775640 -0.004650 -0.001910 
#    y -0.004650 4.594520 -0.525560 
#    z -0.001910 -0.525560 4.345590 
# 
# 
# High freq. dielectric constant tensor:
#      x y z
#    x 2.014640 -0.007320 0.008110 
#    y -0.007320 2.010190 -0.025170 
#    z 0.008110 -0.025170 1.994110 
# 
# From -- ./inp_files/360378.got.cif
#   From: 2010.06.25/outbox.cif.g09.slc.cpg/sg2_181_cif.got.tgz:360378.got - 2010.06.27 13:26:56.
