data_PCOD8033608
_publ_section_title
;
Structure prediction by ZEFSAII (Michael W. Deem and Ramdas Pophale) SiO2 
 PCOD8033608
Probable space group: P -1
;
_chemical_formula_sum "Si O2"
_cell_formula_units_Z 12
_cell_length_a 6.132114
_cell_length_b 15.214004
_cell_length_c 20.569953
_cell_angle_alpha 19.352384
_cell_angle_beta 66.461432
_cell_angle_gamma 76.368318
_cell_volume 516.297806
_symmetry_space_group_name_H-M "P -1"
_symmetry_group_IT_number 2
_symmetry_cell_setting 'triclinic'
loop_
_space_group_symop_operation_xyz
x,y,z
-x,-y,-z
loop_
_atom_site_type_symbol
_atom_site_label
_atom_site_fract_x
_atom_site_fract_y
_atom_site_fract_z
Si Si1 0.221543 0.968927 0.657633
Si Si2 0.873702 0.726318 0.655762
Si Si3 0.275157 0.593580 0.479035
Si Si4 0.304814 0.592236 0.629431
Si Si5 0.276154 0.964378 0.102780
Si Si6 0.624098 0.535788 0.030163
O O1 0.312242 0.740305 0.774428
O O2 0.280013 0.213772 0.425959
O O3 0.393132 0.144927 0.577045
O O4 0.902179 0.828656 0.807769
O O5 0.612255 0.449511 0.910294
O O6 0.099174 0.643405 0.663611
O O7 0.000000 0.000000 0.500000
O O8 0.500000 0.500000 0.500000
O O9 0.263523 0.635648 0.528441
O O10 0.334860 0.891587 0.220816
O O11 0.993699 0.318941 0.687546
O O12 0.255044 0.268894 0.885592
O O13 0.500000 0.000000 0.000000
O O14 0.500000 0.500000 0.000000
#
# Coordination Sequence:
#
# PCOD8033608 Si02
#       6
#     2   2   2   2   2   2
#     4  11  25  45  71 105 145 196 258 296 371 437
#     4  12  25  48  69 106 153 198 246 309 363 442
#     4  11  26  52  78 109 153 192 249 320 380 448
#     4  12  27  48  76 114 152 199 253 306 381 448
#     4  11  26  52  80 110 150 196 246 317 382 448
#     4  11  23  48  71  98 148 199 244 313 360 425
#
# _framework density 23.242398999999999
#
# number of rings (size 3 to 8) (size 9 to 14) (size 15 to 20)
#    0.000    0.667    5.000    1.000    2.333    0.000 
#   18.000    0.000    0.000    0.000    0.000    0.000 
#    0.000    0.000    0.000    0.000    0.000    0.000 
#
# Total GULP energy -148672.124962 kJ/mol
# GULP energy per Si atom -12389.343747 kJ/mol
# Density = 2.318950 g / cm^3
# Si number density = 23.242399 Si / 1000 Ang^3
#
#
#
# Elastic Constant Matrix: (Units=GPa)
#
#
# Indices 1 2 3 4 5 6 
#
# 1 149.6134 76.4357 67.9019 18.6976 -6.2292 3.6805
# 2 76.4357 154.6011 71.0259 19.0721 -0.2541 -8.0226
# 3 67.9019 71.0259 128.5142 29.2494 0.9955 5.3273
# 4 18.6976 19.0721 29.2494 35.1263 -5.2561 -3.8594
# 5 -6.2292 -0.2541 0.9955 -5.2561 59.6329 5.3105
# 6 3.6805 -8.0226 5.3273 -3.8594 5.3105 47.0558
#
#
#
# Elastic Compliance Matrix: (Units=1/GPa)
#
#
# Indices 1 2 3 4 5 6 
#
# 1 0.010085 -0.003490 -0.003178 -0.000792 0.001130 -0.001216
# 2 -0.003490 0.010083 -0.003760 -0.000292 -0.000503 0.002451
# 3 -0.003178 -0.003760 0.013443 -0.007886 -0.001050 -0.002443
# 4 -0.000792 -0.000292 -0.007886 0.036447 0.002943 0.003562
# 5 0.001130 -0.000503 -0.001050 0.002943 0.017320 -0.001768
# 6 -0.001216 0.002451 -0.002443 0.003562 -0.001768 0.022533
#
#
# Mechanical properties :
#
#
# Convention : Reuss Voigt Hill
#
# Bulk Modulus (GPa) = 78.39818 95.93951 87.16885
# Shear Modulus (GPa) = 37.03216 42.85403 39.94309
#
# Velocity S-wave (km/s) = 3.99595 4.29859 4.15003
# Velocity P-wave (km/s) = 7.42254 8.12432 7.78134
#
# Compressibility (1/GPa) = 0.01275540
#
# Stress axis : x y z
#
# Youngs Moduli (GPa) = 99.15747 99.17253 74.38977
#
# Poissons Ratio (x) = 0.34608 0.23641
# Poissons Ratio (y) = 0.34602 0.27972
# Poissons Ratio (z) = 0.31513 0.37291
#
# Static dielectric constant tensor:
#      x y z
#    x 4.306430 0.482980 -0.103490 
#    y 0.482980 3.691620 0.385620 
#    z -0.103490 0.385620 4.435050 
# 
# 
# High freq. dielectric constant tensor:
#      x y z
#    x 1.947810 -0.001050 -0.001320 
#    y -0.001050 1.914120 0.014060 
#    z -0.001320 0.014060 1.929250 
# 
# From -- ./inp_files/487274.got.cif
#   From: 2010.06.25/outbox.cif.g09.slc.cpg/sg2_244_cif.got.tgz:487274.got - 2010.06.27 13:26:56.
