data_PCOD8033488
_publ_section_title
;
Structure prediction by ZEFSAII (Michael W. Deem and Ramdas Pophale) SiO2 
 PCOD8033488
Probable space group: P -1
;
_chemical_formula_sum "Si O2"
_cell_formula_units_Z 16
_cell_length_a 15.114265
_cell_length_b 9.413979
_cell_length_c 8.652353
_cell_angle_alpha 79.530059
_cell_angle_beta 130.378181
_cell_angle_gamma 68.359973
_cell_volume 701.268143
_symmetry_space_group_name_H-M "P -1"
_symmetry_group_IT_number 2
_symmetry_cell_setting 'triclinic'
loop_
_space_group_symop_operation_xyz
x,y,z
-x,-y,-z
loop_
_atom_site_type_symbol
_atom_site_label
_atom_site_fract_x
_atom_site_fract_y
_atom_site_fract_z
Si Si1 0.598519 0.643909 0.170589
Si Si2 0.400876 0.679630 0.703364
Si Si3 0.145347 0.460531 0.741273
Si Si4 0.629464 0.470420 0.751205
Si Si5 0.561461 0.796430 0.433528
Si Si6 0.058971 0.830825 0.718719
Si Si7 0.266637 0.138084 0.183807
Si Si8 0.893508 0.964886 0.814957
O O1 0.662251 0.430358 0.313430
O O2 0.721621 0.635901 0.216205
O O3 0.566498 0.761544 0.264506
O O4 0.433983 0.751175 0.878236
O O5 0.567177 0.543646 0.838700
O O6 0.282071 0.844128 0.418883
O O7 0.091759 0.660547 0.695157
O O8 0.000000 0.500000 0.500000
O O9 0.208933 0.319366 0.984412
O O10 0.500000 0.500000 0.500000
O O11 0.660550 0.595656 0.675749
O O12 0.785647 0.252344 0.994004
O O13 0.644049 0.879790 0.556894
O O14 0.383862 0.945358 0.254575
O O15 0.933384 0.902464 0.693940
O O16 0.000000 0.000000 0.500000
O O17 0.115110 0.170856 0.060133
O O18 0.000000 0.000000 0.000000
#
# Coordination Sequence:
#
# PCOD8033488 Si02
#       8
#     2   2   2   2   2   2   2   2
#     4  11  25  43  76 106 142 192 250 301 373 432
#     4  11  23  46  74 109 145 185 253 314 360 445
#     4  12  29  49  71 106 157 200 240 305 385 452
#     4  12  22  45  76 108 143 196 252 307 369 433
#     4  11  24  45  77 107 142 192 253 310 361 439
#     4  12  29  50  73 110 158 195 247 310 379 449
#     4  11  27  49  71 106 149 191 253 308 367 450
#     4  12  29  46  75 111 147 194 250 309 379 444
#
# _framework density 22.815811
#
# number of rings (size 3 to 8) (size 9 to 14) (size 15 to 20)
#    0.000    0.500    5.000    1.500    8.750    2.000 
#    0.000    0.000    0.000    0.000    0.000    0.000 
#    0.000    0.000    0.000    0.000    0.000    0.000 
#
# Total GULP energy -198350.277368 kJ/mol
# GULP energy per Si atom -12396.892336 kJ/mol
# Density = 2.276388 g / cm^3
# Si number density = 22.815811 Si / 1000 Ang^3
#
#
#
# Elastic Constant Matrix: (Units=GPa)
#
#
# Indices 1 2 3 4 5 6 
#
# 1 167.0404 67.9546 40.4891 9.1465 -9.5553 -1.5097
# 2 67.9546 116.9192 61.2100 18.7371 -6.2736 -4.2486
# 3 40.4891 61.2100 127.0956 4.0873 -1.8492 -2.2280
# 4 9.1465 18.7371 4.0873 50.8803 6.5638 -3.6318
# 5 -9.5553 -6.2736 -1.8492 6.5638 37.7663 2.9998
# 6 -1.5097 -4.2486 -2.2280 -3.6318 2.9998 29.0906
#
#
#
# Elastic Compliance Matrix: (Units=1/GPa)
#
#
# Indices 1 2 3 4 5 6 
#
# 1 0.007920 -0.004325 -0.000428 0.000009 0.001293 -0.000386
# 2 -0.004325 0.014817 -0.005577 -0.004408 0.001798 0.000777
# 3 -0.000428 -0.005577 0.010638 0.001393 -0.000774 0.000232
# 4 0.000009 -0.004408 0.001393 0.021961 -0.004692 0.002689
# 5 0.001293 0.001798 -0.000774 -0.004692 0.028138 -0.003217
# 6 -0.000386 0.000777 0.000232 0.002689 -0.003217 0.035154
#
#
# Mechanical properties :
#
#
# Convention : Reuss Voigt Hill
#
# Bulk Modulus (GPa) = 78.64461 83.37362 81.00911
# Shear Modulus (GPa) = 34.83676 39.64088 37.23882
#
# Velocity S-wave (km/s) = 3.91176 4.17277 4.04437
# Velocity P-wave (km/s) = 7.41260 7.73546 7.57575
#
# Compressibility (1/GPa) = 0.01271543
#
# Stress axis : x y z
#
# Youngs Moduli (GPa) = 126.26492 67.48896 93.99929
#
# Poissons Ratio (x) = 0.29188 0.04027
# Poissons Ratio (y) = 0.54608 0.52421
# Poissons Ratio (z) = 0.05409 0.37637
#
# Static dielectric constant tensor:
#      x y z
#    x 4.241730 -0.039380 -0.012940 
#    y -0.039380 4.142270 0.049220 
#    z -0.012940 0.049220 4.279420 
# 
# 
# High freq. dielectric constant tensor:
#      x y z
#    x 1.909310 0.000730 -0.006250 
#    y 0.000730 1.898820 0.010940 
#    z -0.006250 0.010940 1.907670 
# 
# From -- ./inp_files/298382.got.cif
#   From: 2010.06.25/outbox.cif.g09.slc.cpg/sg2_150_cif.got.tgz:298382.got - 2010.06.27 13:26:56.
