data_PCOD8033513
_publ_section_title
;
Structure prediction by ZEFSAII (Michael W. Deem and Ramdas Pophale) SiO2 
 PCOD8033513
Probable space group: P -1
;
_chemical_formula_sum "Si O2"
_cell_formula_units_Z 14
_cell_length_a 14.632068
_cell_length_b 8.939998
_cell_length_c 9.396294
_cell_angle_alpha 117.946069
_cell_angle_beta 79.739620
_cell_angle_gamma 141.308770
_cell_volume 638.366177
_symmetry_space_group_name_H-M "P -1"
_symmetry_group_IT_number 2
_symmetry_cell_setting 'triclinic'
loop_
_space_group_symop_operation_xyz
x,y,z
-x,-y,-z
loop_
_atom_site_type_symbol
_atom_site_label
_atom_site_fract_x
_atom_site_fract_y
_atom_site_fract_z
Si Si1 0.397682 0.578306 0.149713
Si Si2 0.631629 0.561728 0.451388
Si Si3 0.017413 0.688747 0.677991
Si Si4 0.077652 0.460550 0.042956
Si Si5 0.436471 0.959152 0.151325
Si Si6 0.124238 0.157700 0.247747
Si Si7 0.658517 0.735196 0.226112
O O1 0.448177 0.842910 0.225063
O O2 0.225007 0.314440 0.144927
O O3 0.521968 0.673305 0.263264
O O4 0.409781 0.514577 0.961633
O O5 0.500000 0.500000 0.500000
O O6 0.767556 0.742597 0.608741
O O7 0.715720 0.747060 0.366297
O O8 0.543280 0.259993 0.317498
O O9 0.000000 0.500000 0.500000
O O10 0.942819 0.540686 0.784305
O O11 0.946417 0.759487 0.663801
O O12 0.201610 0.978705 0.773501
O O13 0.257256 0.742550 0.080184
O O14 0.000000 0.500000 0.000000
O O15 0.011121 0.179535 0.888067
O O16 0.500000 0.000000 0.000000
#
# Coordination Sequence:
#
# PCOD8033513 Si02
#       7
#     2   2   2   2   2   2   2
#     4  11  23  46  78 100 139 196 242 290 359 439
#     4  12  27  45  72 110 146 183 238 301 361 427
#     4  12  29  47  72 109 147 193 248 301 361 431
#     4  12  28  48  76 106 147 190 243 300 367 435
#     4  12  27  46  74 106 141 187 245 292 355 434
#     4  12  26  50  75 103 148 199 236 299 371 428
#     4  11  25  45  73 105 148 186 240 296 361 435
#
# _framework density 21.930986000000001
#
# number of rings (size 3 to 8) (size 9 to 14) (size 15 to 20)
#    0.000    0.286    5.714    2.143    8.000    1.143 
#    0.000    0.000    0.000    0.000    0.000    0.000 
#    0.000    0.000    0.000    0.000    0.000    0.000 
#
# Total GULP energy -173614.895052 kJ/mol
# GULP energy per Si atom -12401.063932 kJ/mol
# Density = 2.188107 g / cm^3
# Si number density = 21.930986 Si / 1000 Ang^3
#
#
#
# Elastic Constant Matrix: (Units=GPa)
#
#
# Indices 1 2 3 4 5 6 
#
# 1 113.2796 7.8356 34.3862 -4.4694 -5.8557 -5.2619
# 2 7.8356 80.8751 9.8628 -10.1048 1.9679 7.2284
# 3 34.3862 9.8628 106.5743 -6.3438 1.8070 -7.2500
# 4 -4.4694 -10.1048 -6.3438 32.0992 -4.2820 4.5499
# 5 -5.8557 1.9679 1.8070 -4.2820 35.7428 0.7169
# 6 -5.2619 7.2284 -7.2500 4.5499 0.7169 45.4216
#
#
#
# Elastic Compliance Matrix: (Units=1/GPa)
#
#
# Indices 1 2 3 4 5 6 
#
# 1 0.009969 -0.000598 -0.003105 0.000748 0.001900 0.000650
# 2 -0.000598 0.013329 -0.000970 0.004285 -0.000214 -0.002771
# 3 -0.003105 -0.000970 0.010648 0.001048 -0.000896 0.001403
# 4 0.000748 0.004285 0.001048 0.033894 0.003972 -0.003886
# 5 0.001900 -0.000214 -0.000896 0.003972 0.028837 -0.000742
# 6 0.000650 -0.002771 0.001403 -0.003886 -0.000742 0.023157
#
#
# Mechanical properties :
#
#
# Convention : Reuss Voigt Hill
#
# Bulk Modulus (GPa) = 40.65063 44.98870 42.81966
# Shear Modulus (GPa) = 36.39502 39.22900 37.81201
#
# Velocity S-wave (km/s) = 4.07815 4.23395 4.15678
# Velocity P-wave (km/s) = 6.38365 6.66784 6.52729
#
# Compressibility (1/GPa) = 0.02459987
#
# Stress axis : x y z
#
# Youngs Moduli (GPa) = 100.30662 75.02244 93.91656
#
# Poissons Ratio (x) = 0.04487 0.29159
# Poissons Ratio (y) = 0.06000 0.09113
# Poissons Ratio (z) = 0.31143 0.07280
#
# Static dielectric constant tensor:
#      x y z
#    x 4.240560 -0.055870 -0.078810 
#    y -0.055870 4.115100 -0.041570 
#    z -0.078810 -0.041570 3.906740 
# 
# 
# High freq. dielectric constant tensor:
#      x y z
#    x 1.878970 -0.001230 -0.003230 
#    y -0.001230 1.878540 -0.002400 
#    z -0.003230 -0.002400 1.861370 
# 
# From -- ./inp_files/155701.got.cif
#   From: 2010.06.25/outbox.cif.g09.slc.cpg/sg2_78_cif.got.tgz:155701.got - 2010.06.27 13:26:56.
