data_PCOD8033616
_publ_section_title
;
Structure prediction by ZEFSAII (Michael W. Deem and Ramdas Pophale) SiO2 
 PCOD8033616
Probable space group: P -1
;
_chemical_formula_sum "Si O2"
_cell_formula_units_Z 12
_cell_length_a 12.394509
_cell_length_b 13.412852
_cell_length_c 5.181887
_cell_angle_alpha 59.145973
_cell_angle_beta 60.040770
_cell_angle_gamma 63.465897
_cell_volume 619.330655
_symmetry_space_group_name_H-M "P -1"
_symmetry_group_IT_number 2
_symmetry_cell_setting 'triclinic'
loop_
_space_group_symop_operation_xyz
x,y,z
-x,-y,-z
loop_
_atom_site_type_symbol
_atom_site_label
_atom_site_fract_x
_atom_site_fract_y
_atom_site_fract_z
Si Si1 0.860009 0.946691 0.480378
Si Si2 0.327121 0.524951 0.361170
Si Si3 0.004157 0.151880 0.051001
Si Si4 0.561935 0.040420 0.622013
Si Si5 0.784965 0.374441 0.131123
Si Si6 0.552759 0.312198 0.297191
O O1 0.885318 0.887162 0.811981
O O2 0.712356 0.978799 0.536994
O O3 0.933896 0.853047 0.299947
O O4 0.906638 0.067715 0.272060
O O5 0.225688 0.558644 0.671297
O O6 0.421370 0.393866 0.471064
O O7 0.242905 0.527338 0.197430
O O8 0.414263 0.622089 0.091900
O O9 0.924944 0.286053 0.038069
O O10 0.500000 0.000000 0.500000
O O11 0.532059 0.183093 0.440178
O O12 0.500000 0.000000 0.000000
O O13 0.673641 0.301134 0.361524
#
# Coordination Sequence:
#
# PCOD8033616 Si02
#       6
#     2   2   2   2   2   2
#     4  10  20  36  49  81 105 147 189 215 277 321
#     4   9  19  30  57  79 116 135 172 246 280 324
#     4  10  19  31  59  76 111 137 173 248 274 317
#     4  12  26  38  56  79 118 162 182 215 263 343
#     4  10  17  31  52  88 106 135 167 229 302 319
#     4   9  21  34  53  80 117 138 189 221 280 330
#
# _framework density 19.375755000000002
#
# number of rings (size 3 to 8) (size 9 to 14) (size 15 to 20)
#    1.000    1.000    1.667    2.500    2.333    1.333 
#    0.000    0.000    0.000    0.000    0.000   23.333 
#    0.000    0.000    0.000    0.000    0.000    0.000 
#
# Total GULP energy -148717.070185 kJ/mol
# GULP energy per Si atom -12393.089182 kJ/mol
# Density = 1.933166 g / cm^3
# Si number density = 19.375755 Si / 1000 Ang^3
#
#
#
# Elastic Constant Matrix: (Units=GPa)
#
#
# Indices 1 2 3 4 5 6 
#
# 1 117.4736 36.1023 31.9269 8.8053 6.2259 -5.2043
# 2 36.1023 92.0160 31.4491 21.8473 0.5791 -20.5933
# 3 31.9269 31.4491 53.8766 18.3946 14.4066 4.2249
# 4 8.8053 21.8473 18.3946 34.9161 6.4795 3.8698
# 5 6.2259 0.5791 14.4066 6.4795 26.0392 11.5175
# 6 -5.2043 -20.5933 4.2249 3.8698 11.5175 31.3445
#
#
#
# Elastic Compliance Matrix: (Units=1/GPa)
#
#
# Indices 1 2 3 4 5 6 
#
# 1 0.010694 -0.002623 -0.005393 0.001758 -0.000240 0.000650
# 2 -0.002623 0.020391 -0.008459 -0.009409 0.000530 0.015068
# 3 -0.005393 -0.008459 0.033165 -0.007899 -0.012544 -0.005339
# 4 0.001758 -0.009409 -0.007899 0.039562 -0.001660 -0.009100
# 5 -0.000240 0.000530 -0.012544 -0.001660 0.053527 -0.017464
# 6 0.000650 0.015068 -0.005339 -0.009100 -0.017464 0.050172
#
#
# Mechanical properties :
#
#
# Convention : Reuss Voigt Hill
#
# Bulk Modulus (GPa) = 31.94999 51.36919 41.65959
# Shear Modulus (GPa) = 19.92862 29.38584 24.65723
#
# Velocity S-wave (km/s) = 3.21056 3.89862 3.57120
# Velocity P-wave (km/s) = 5.50173 6.84363 6.20904
#
# Compressibility (1/GPa) = 0.03129892
#
# Stress axis : x y z
#
# Youngs Moduli (GPa) = 93.50899 49.04130 30.15234
#
# Poissons Ratio (x) = 0.12863 0.16262
# Poissons Ratio (y) = 0.24525 0.25507
# Poissons Ratio (z) = 0.50433 0.41486
#
# Static dielectric constant tensor:
#      x y z
#    x 3.434890 -0.107460 0.169370 
#    y -0.107460 3.364730 0.204720 
#    z 0.169370 0.204720 3.288080 
# 
# 
# High freq. dielectric constant tensor:
#      x y z
#    x 1.750380 -0.018740 0.022770 
#    y -0.018740 1.749870 0.028110 
#    z 0.022770 0.028110 1.723320 
# 
# From -- ./inp_files/63992.got.cif
#   From: 2010.06.25/outbox.cif.g09.slc.cpg/sg2_32_cif.got.tgz:63992.got - 2010.06.27 13:26:56.
