data_PCOD8033957
_publ_section_title
;
Structure prediction by ZEFSAII (Michael W. Deem and Ramdas Pophale) SiO2 
 PCOD8033957
Probable space group: P -1
;
_chemical_formula_sum "Si O2"
_cell_formula_units_Z 12
_cell_length_a 9.001875
_cell_length_b 26.405252
_cell_length_c 28.857733
_cell_angle_alpha 8.918500
_cell_angle_beta 29.912840
_cell_angle_gamma 31.328182
_cell_volume 530.105818
_symmetry_space_group_name_H-M "P -1"
_symmetry_group_IT_number 2
_symmetry_cell_setting 'triclinic'
loop_
_space_group_symop_operation_xyz
x,y,z
-x,-y,-z
loop_
_atom_site_type_symbol
_atom_site_label
_atom_site_fract_x
_atom_site_fract_y
_atom_site_fract_z
Si Si1 0.371947 0.143527 0.133498
Si Si2 0.975617 0.627318 0.759111
Si Si3 0.749705 0.357994 0.921338
Si Si4 0.339618 0.111295 0.805247
Si Si5 0.431958 0.188791 0.894251
Si Si6 0.575487 0.086938 0.305552
O O1 0.202081 0.820498 0.489726
O O2 0.501997 0.083039 0.102481
O O3 0.149182 0.444660 0.918221
O O4 0.643284 0.248731 0.998241
O O5 0.752881 0.878981 0.615358
O O6 0.801375 0.361324 0.015918
O O7 0.096276 0.302524 0.882373
O O8 0.691263 0.735778 0.605895
O O9 0.565081 0.133556 0.210810
O O10 0.347824 0.497487 0.444512
O O11 0.513768 0.045929 0.864849
O O12 0.000000 0.000000 0.000000
O O13 0.500000 0.000000 0.000000
#
# Coordination Sequence:
#
# PCOD8033957 Si02
#       6
#     2   2   2   2   2   2
#     4  12  25  42  66  98 134 172 217 268 325 385
#     4  11  24  43  67  95 131 176 222 268 323 384
#     4  12  25  42  66  98 134 172 217 268 325 385
#     4  12  26  46  71  98 132 170 216 268 326 389
#     4  12  26  46  71  98 132 170 216 268 326 389
#     4  11  24  43  67  95 131 176 222 268 323 384
#
# _framework density 22.636990000000001
#
# number of rings (size 3 to 8) (size 9 to 14) (size 15 to 20)
#    0.000    0.333    0.000   10.000    0.000    9.333 
#    0.000    0.000    0.000    0.000    0.000    0.000 
#    0.000    0.000    0.000    0.000    0.000    0.000 
#
# Total GULP energy -148925.567546 kJ/mol
# GULP energy per Si atom -12410.463962 kJ/mol
# Density = 2.258547 g / cm^3
# Si number density = 22.636990 Si / 1000 Ang^3
#
#
#
# Elastic Constant Matrix: (Units=GPa)
#
#
# Indices 1 2 3 4 5 6 
#
# 1 111.8640 32.1917 5.6218 1.9986 6.2000 3.0981
# 2 32.1917 104.7323 31.3725 -4.8560 -12.3676 0.4931
# 3 5.6218 31.3725 81.4811 3.2738 8.9221 -9.4715
# 4 1.9986 -4.8560 3.2738 40.2730 -1.7904 1.7500
# 5 6.2000 -12.3676 8.9221 -1.7904 39.0544 -0.5695
# 6 3.0981 0.4931 -9.4715 1.7500 -0.5695 37.7750
#
#
#
# Elastic Compliance Matrix: (Units=1/GPa)
#
#
# Indices 1 2 3 4 5 6 
#
# 1 0.010219 -0.003911 0.001140 -0.001191 -0.003183 -0.000494
# 2 -0.003911 0.013365 -0.005825 0.002617 0.006285 -0.001341
# 3 0.001140 -0.005825 0.015610 -0.002449 -0.005647 0.003925
# 4 -0.001191 0.002617 -0.002449 0.025599 0.002726 -0.001695
# 5 -0.003183 0.006285 -0.005647 0.002726 0.029502 -0.000918
# 6 -0.000494 -0.001341 0.003925 -0.001695 -0.000918 0.027579
#
#
# Mechanical properties :
#
#
# Convention : Reuss Voigt Hill
#
# Bulk Modulus (GPa) = 45.45267 48.49438 46.97353
# Shear Modulus (GPa) = 34.15252 38.67991 36.41622
#
# Velocity S-wave (km/s) = 3.88842 4.13813 4.01522
# Velocity P-wave (km/s) = 6.34683 6.65592 6.50321
#
# Compressibility (1/GPa) = 0.02200091
#
# Stress axis : x y z
#
# Youngs Moduli (GPa) = 97.85579 74.82183 64.06163
#
# Poissons Ratio (x) = 0.29265 -0.07302
# Poissons Ratio (y) = 0.38275 0.37317
# Poissons Ratio (z) = -0.11155 0.43585
#
# Static dielectric constant tensor:
#      x y z
#    x 4.297450 0.050300 0.157430 
#    y 0.050300 4.272830 0.042750 
#    z 0.157430 0.042750 4.190780 
# 
# 
# High freq. dielectric constant tensor:
#      x y z
#    x 1.907850 0.000240 0.006310 
#    y 0.000240 1.903920 0.000910 
#    z 0.006310 0.000910 1.904990 
# 
# From -- ./inp_files/86107.got.cif
#   From: 2010.06.25/outbox.cif.g09.slc.cpg/sg2_44_cif.got.tgz:86107.got - 2010.06.27 13:26:56.
