data_PCOD8033559
_publ_section_title
;
Structure prediction by ZEFSAII (Michael W. Deem and Ramdas Pophale) SiO2 
 PCOD8033559
Probable space group: P -1
;
_chemical_formula_sum "Si O2"
_cell_formula_units_Z 16
_cell_length_a 12.918966
_cell_length_b 8.836714
_cell_length_c 11.465575
_cell_angle_alpha 62.091605
_cell_angle_beta 124.284483
_cell_angle_gamma 73.108766
_cell_volume 622.218280
_symmetry_space_group_name_H-M "P -1"
_symmetry_group_IT_number 2
_symmetry_cell_setting 'triclinic'
loop_
_space_group_symop_operation_xyz
x,y,z
-x,-y,-z
loop_
_atom_site_type_symbol
_atom_site_label
_atom_site_fract_x
_atom_site_fract_y
_atom_site_fract_z
Si Si1 0.343732 0.404433 0.087282
Si Si2 0.048942 0.255204 0.660518
Si Si3 0.805667 0.381922 0.838987
Si Si4 0.057590 0.167654 0.448107
Si Si5 0.636210 0.370367 0.271343
Si Si6 0.517121 0.158155 0.893087
Si Si7 0.827866 0.207007 0.679938
Si Si8 0.334986 0.186189 0.553919
O O1 0.326663 0.491156 0.176959
O O2 0.460921 0.436480 0.085140
O O3 0.470405 0.100840 0.270476
O O4 0.138178 0.587814 0.832325
O O5 0.017681 0.171618 0.556504
O O6 0.000000 0.500000 0.500000
O O7 0.918634 0.298159 0.660613
O O8 0.264981 0.015479 0.932815
O O9 0.743575 0.318621 0.716871
O O10 0.786842 0.597168 0.703990
O O11 0.020991 0.106556 0.110974
O O12 0.197262 0.187093 0.522504
O O13 0.163340 0.886008 0.571371
O O14 0.579464 0.628043 0.141388
O O15 0.662083 0.313413 0.449150
O O16 0.398484 0.268622 0.657144
O O17 0.500000 0.000000 0.000000
#
# Coordination Sequence:
#
# PCOD8033559 Si02
#       8
#     2   2   2   2   2   2   2   2
#     4  11  25  47  73 113 140 198 241 297 371 427
#     4  12  25  46  76 110 148 190 245 302 367 440
#     4  11  23  47  72 102 149 189 248 298 356 436
#     4  11  25  49  75 108 150 189 238 304 372 436
#     4  11  25  48  72 107 147 186 247 298 365 432
#     4  12  24  47  73 109 146 188 243 300 365 436
#     4  11  24  46  72 106 143 198 240 301 366 422
#     4  11  24  47  74 109 146 190 242 301 367 432
#
# _framework density 25.714445999999999
#
# number of rings (size 3 to 8) (size 9 to 14) (size 15 to 20)
#    0.000    0.750    3.750    3.375    0.000    2.000 
#    9.000    0.000    0.000    0.000    0.000    0.000 
#    0.000    0.000    0.000    0.000    0.000    0.000 
#
# Total GULP energy -198303.643030 kJ/mol
# GULP energy per Si atom -12393.977689 kJ/mol
# Density = 2.565592 g / cm^3
# Si number density = 25.714446 Si / 1000 Ang^3
#
#
#
# Elastic Constant Matrix: (Units=GPa)
#
#
# Indices 1 2 3 4 5 6 
#
# 1 64.9155 36.4345 39.3050 -4.7801 2.9764 -4.2979
# 2 36.4345 148.7418 38.9384 -10.4966 16.6505 -0.3729
# 3 39.3050 38.9384 140.3007 -11.7537 16.5971 11.7289
# 4 -4.7801 -10.4966 -11.7537 48.1269 5.0103 -8.2093
# 5 2.9764 16.6505 16.5971 5.0103 39.4539 -5.9242
# 6 -4.2979 -0.3729 11.7289 -8.2093 -5.9242 44.0053
#
#
#
# Elastic Compliance Matrix: (Units=1/GPa)
#
#
# Indices 1 2 3 4 5 6 
#
# 1 0.021121 -0.004052 -0.005452 0.000243 0.002969 0.003927
# 2 -0.004052 0.008351 -0.000652 0.001541 -0.003184 -0.000292
# 3 -0.005452 -0.000652 0.009736 0.001543 -0.004115 -0.003399
# 4 0.000243 0.001541 0.001543 0.022464 -0.003672 0.003322
# 5 0.002969 -0.003184 -0.004115 -0.003672 0.029358 0.004627
# 6 0.003927 -0.000292 -0.003399 0.003322 0.004627 0.025254
#
#
# Mechanical properties :
#
#
# Convention : Reuss Voigt Hill
#
# Bulk Modulus (GPa) = 52.91954 64.81263 58.86608
# Shear Modulus (GPa) = 34.99061 42.26924 38.62992
#
# Velocity S-wave (km/s) = 3.69282 4.05877 3.88011
# Velocity P-wave (km/s) = 6.22952 6.87199 6.55863
#
# Compressibility (1/GPa) = 0.01889661
#
# Stress axis : x y z
#
# Youngs Moduli (GPa) = 47.34531 119.74957 102.71043
#
# Poissons Ratio (x) = 0.48521 0.55994
# Poissons Ratio (y) = 0.19184 0.06700
# Poissons Ratio (z) = 0.25811 0.07812
#
# Static dielectric constant tensor:
#      x y z
#    x 5.042580 -1.359640 -0.814520 
#    y -1.359640 6.455580 0.356540 
#    z -0.814520 0.356540 4.837180 
# 
# 
# High freq. dielectric constant tensor:
#      x y z
#    x 2.001310 -0.006850 -0.003620 
#    y -0.006850 2.055930 -0.011400 
#    z -0.003620 -0.011400 2.049530 
# 
# From -- ./inp_files/447219.got.cif
#   From: 2010.06.25/outbox.cif.g09.slc.cpg/sg2_224_cif.got.tgz:447219.got - 2010.06.27 13:26:56.
