data_PCOD8033262
_publ_section_title
;
Structure prediction by ZEFSAII (Michael W. Deem and Ramdas Pophale) SiO2 
 PCOD8033262
Probable space group: P -1
;
_chemical_formula_sum "Si O2"
_cell_formula_units_Z 16
_cell_length_a 17.726928
_cell_length_b 11.443844
_cell_length_c 9.384239
_cell_angle_alpha 97.186177
_cell_angle_beta 131.779061
_cell_angle_gamma 44.600362
_cell_volume 742.602842
_symmetry_space_group_name_H-M "P -1"
_symmetry_group_IT_number 2
_symmetry_cell_setting 'triclinic'
loop_
_space_group_symop_operation_xyz
x,y,z
-x,-y,-z
loop_
_atom_site_type_symbol
_atom_site_label
_atom_site_fract_x
_atom_site_fract_y
_atom_site_fract_z
Si Si1 0.124374 0.317590 0.422182
Si Si2 0.018515 0.165305 0.624389
Si Si3 0.186600 0.758439 0.873268
Si Si4 0.413064 0.614579 0.559893
Si Si5 0.224862 0.193596 0.841173
Si Si6 0.796044 0.416769 0.652439
Si Si7 0.060537 0.127872 0.202277
Si Si8 0.580751 0.860792 0.438586
O O1 0.236802 0.229500 0.699194
O O2 0.076536 0.227423 0.333901
O O3 0.241332 0.242637 0.418508
O O4 0.924863 0.584805 0.218515
O O5 0.882047 0.258023 0.340643
O O6 0.880673 0.362420 0.596028
O O7 0.168349 0.112453 0.748712
O O8 0.138716 0.940844 0.809883
O O9 0.080800 0.827204 0.896386
O O10 0.415202 0.518068 0.138667
O O11 0.500000 0.500000 0.500000
O O12 0.304992 0.609416 0.486642
O O13 0.270864 0.865308 0.406757
O O14 0.427831 0.006226 0.142378
O O15 0.642992 0.668784 0.536337
O O16 0.972693 0.245626 0.957352
O O17 0.500000 0.000000 0.500000
#
# Coordination Sequence:
#
# PCOD8033262 Si02
#       8
#     2   2   2   2   2   2   2   2
#     4  11  26  46  70  98 132 184 222 277 335 394
#     4  11  23  45  71  98 135 174 215 285 332 388
#     4  11  24  45  68 100 136 169 224 271 335 394
#     4  12  25  42  69  98 132 180 217 269 329 400
#     4  11  24  48  72  95 136 180 224 274 339 397
#     4  12  25  44  69  99 136 176 223 272 334 397
#     4  12  25  44  68  99 136 176 221 270 330 399
#     4  12  28  44  68 105 135 174 228 281 329 396
#
# _framework density 21.545836999999999
#
# number of rings (size 3 to 8) (size 9 to 14) (size 15 to 20)
#    0.000    0.500    5.000    3.000    3.500    3.500 
#    0.000    0.000    0.000    0.000    0.000    0.000 
#    0.000    0.000    0.000    0.000    0.000    0.000 
#
# Total GULP energy -198516.327679 kJ/mol
# GULP energy per Si atom -12407.270480 kJ/mol
# Density = 2.149680 g / cm^3
# Si number density = 21.545837 Si / 1000 Ang^3
#
#
#
# Elastic Constant Matrix: (Units=GPa)
#
#
# Indices 1 2 3 4 5 6 
#
# 1 75.8028 24.6640 8.6057 -5.4157 -2.0217 -4.5891
# 2 24.6640 113.9534 33.4802 -10.7396 -0.9143 5.2854
# 3 8.6057 33.4802 121.8677 -18.4002 2.4359 4.9725
# 4 -5.4157 -10.7396 -18.4002 32.0889 0.8045 -5.3732
# 5 -2.0217 -0.9143 2.4359 0.8045 26.1741 2.6769
# 6 -4.5891 5.2854 4.9725 -5.3732 2.6769 41.5423
#
#
#
# Elastic Compliance Matrix: (Units=1/GPa)
#
#
# Indices 1 2 3 4 5 6 
#
# 1 0.014464 -0.003054 -0.000021 0.001751 0.000737 0.002168
# 2 -0.003054 0.010322 -0.002373 0.001364 0.000428 -0.001218
# 3 -0.000021 -0.002373 0.009599 0.004705 -0.001105 -0.000170
# 4 0.001751 0.001364 0.004705 0.035352 -0.001765 0.004143
# 5 0.000737 0.000428 -0.001105 -0.001765 0.038697 -0.002563
# 6 0.002168 -0.001218 -0.000170 0.004143 -0.002563 0.025188
#
#
# Mechanical properties :
#
#
# Convention : Reuss Voigt Hill
#
# Bulk Modulus (GPa) = 42.57389 49.45817 46.01603
# Shear Modulus (GPa) = 32.81986 36.28601 34.55294
#
# Velocity S-wave (km/s) = 3.90713 4.10827 4.00896
# Velocity P-wave (km/s) = 6.33694 6.74600 6.54467
#
# Compressibility (1/GPa) = 0.02348858
#
# Stress axis : x y z
#
# Youngs Moduli (GPa) = 69.13601 96.87857 104.18282
#
# Poissons Ratio (x) = 0.29587 0.00220
# Poissons Ratio (y) = 0.21114 0.24723
# Poissons Ratio (z) = 0.00146 0.22990
#
# Static dielectric constant tensor:
#      x y z
#    x 3.983660 0.048450 -0.002580 
#    y 0.048450 3.878230 -0.028920 
#    z -0.002580 -0.028920 4.012890 
# 
# 
# High freq. dielectric constant tensor:
#      x y z
#    x 1.853700 0.003260 -0.006750 
#    y 0.003260 1.854180 0.001730 
#    z -0.006750 0.001730 1.853760 
# 
# From -- ./inp_files/333425.got.cif
#   From: 2010.06.25/outbox.cif.g09.slc.cpg/sg2_167_cif.got.tgz:333425.got - 2010.06.27 13:26:56.
