data_PCOD8033525
_publ_section_title
;
Structure prediction by ZEFSAII (Michael W. Deem and Ramdas Pophale) SiO2 
 PCOD8033525
Probable space group: P -1
;
_chemical_formula_sum "Si O2"
_cell_formula_units_Z 14
_cell_length_a 11.790971
_cell_length_b 8.227474
_cell_length_c 7.825515
_cell_angle_alpha 63.822638
_cell_angle_beta 84.362307
_cell_angle_gamma 111.846171
_cell_volume 600.168201
_symmetry_space_group_name_H-M "P -1"
_symmetry_group_IT_number 2
_symmetry_cell_setting 'triclinic'
loop_
_space_group_symop_operation_xyz
x,y,z
-x,-y,-z
loop_
_atom_site_type_symbol
_atom_site_label
_atom_site_fract_x
_atom_site_fract_y
_atom_site_fract_z
Si Si1 0.292407 0.631067 0.303307
Si Si2 0.174664 0.113796 0.191152
Si Si3 0.500707 0.160906 0.560122
Si Si4 0.997581 0.701111 0.975055
Si Si5 0.038097 0.326894 0.612689
Si Si6 0.413338 0.400661 0.219968
Si Si7 0.261041 0.964573 0.936079
O O1 0.360794 0.749685 0.411410
O O2 0.177754 0.406130 0.470253
O O3 0.393465 0.588628 0.202443
O O4 0.244554 0.767730 0.138995
O O5 0.282001 0.199169 0.282731
O O6 0.103776 0.256279 0.137347
O O7 0.066435 0.884316 0.358134
O O8 0.246592 0.121892 0.996686
O O9 0.486153 0.339944 0.381888
O O10 0.500000 0.000000 0.500000
O O11 0.393024 0.062665 0.768230
O O12 0.950844 0.692280 0.179053
O O13 0.000000 0.500000 0.000000
O O14 0.143000 0.886745 0.854656
O O15 0.000000 0.500000 0.500000
O O16 0.500000 0.500000 0.000000
#
# Coordination Sequence:
#
# PCOD8033525 Si02
#       7
#     2   2   2   2   2   2   2
#     4  12  25  46  72 103 145 182 237 296 351 425
#     4  11  25  46  73 102 148 184 235 289 357 427
#     4  12  28  45  73 101 137 190 242 293 356 422
#     4  11  25  42  71 105 143 185 229 290 351 431
#     4  11  24  44  72 105 141 184 233 292 359 414
#     4  12  28  47  69 103 141 190 240 295 350 423
#     4  11  23  47  69 103 139 187 233 293 356 412
#
# _framework density 23.326794
#
# number of rings (size 3 to 8) (size 9 to 14) (size 15 to 20)
#    0.000    0.571    2.857    6.000    8.000    0.571 
#    0.000    0.000    0.000    0.000    0.000    0.000 
#    0.000    0.000    0.000    0.000    0.000    0.000 
#
# Total GULP energy -173633.683521 kJ/mol
# GULP energy per Si atom -12402.405966 kJ/mol
# Density = 2.327370 g / cm^3
# Si number density = 23.326794 Si / 1000 Ang^3
#
#
#
# Elastic Constant Matrix: (Units=GPa)
#
#
# Indices 1 2 3 4 5 6 
#
# 1 96.1083 21.0657 30.2100 -2.3551 -4.0880 -5.8700
# 2 21.0657 105.6971 14.7213 1.4169 -6.2916 -9.8284
# 3 30.2100 14.7213 104.0349 -15.5697 -15.7535 12.0238
# 4 -2.3551 1.4169 -15.5697 28.6809 -1.4209 2.0154
# 5 -4.0880 -6.2916 -15.7535 -1.4209 38.3506 -2.2055
# 6 -5.8700 -9.8284 12.0238 2.0154 -2.2055 51.5750
#
#
#
# Elastic Compliance Matrix: (Units=1/GPa)
#
#
# Indices 1 2 3 4 5 6 
#
# 1 0.012016 -0.001712 -0.003702 -0.001096 -0.000450 0.001928
# 2 -0.001712 0.010260 -0.001258 -0.001429 0.001055 0.002155
# 3 -0.003702 -0.001258 0.013149 0.007404 0.004855 -0.003808
# 4 -0.001096 -0.001429 0.007404 0.039307 0.003946 -0.003491
# 5 -0.000450 0.001055 0.004855 0.003946 0.028345 0.000076
# 6 0.001928 0.002155 -0.003808 -0.003491 0.000076 0.021047
#
#
# Mechanical properties :
#
#
# Convention : Reuss Voigt Hill
#
# Bulk Modulus (GPa) = 45.28927 48.64826 46.96876
# Shear Modulus (GPa) = 34.52404 39.71084 37.11744
#
# Velocity S-wave (km/s) = 3.85127 4.13046 3.99330
# Velocity P-wave (km/s) = 6.26368 6.60666 6.43745
#
# Compressibility (1/GPa) = 0.02208029
#
# Stress axis : x y z
#
# Youngs Moduli (GPa) = 83.22553 97.46891 76.05380
#
# Poissons Ratio (x) = 0.16686 0.28155
# Poissons Ratio (y) = 0.14248 0.09566
# Poissons Ratio (z) = 0.30810 0.12260
#
# Static dielectric constant tensor:
#      x y z
#    x 4.611410 0.161200 -0.409940 
#    y 0.161200 4.285860 -0.091610 
#    z -0.409940 -0.091610 4.724750 
# 
# 
# High freq. dielectric constant tensor:
#      x y z
#    x 1.942430 -0.001460 -0.005900 
#    y -0.001460 1.931690 0.001900 
#    z -0.005900 0.001900 1.915600 
# 
# From -- ./inp_files/237132.got.cif
#   From: 2010.06.25/outbox.cif.g09.slc.cpg/sg2_119_cif.got.tgz:237132.got - 2010.06.27 13:26:56.
