data_PCOD8033383
_publ_section_title
;
Structure prediction by ZEFSAII (Michael W. Deem and Ramdas Pophale) SiO2 
 PCOD8033383
Probable space group: P -1
;
_chemical_formula_sum "Si O2"
_cell_formula_units_Z 16
_cell_length_a 16.267937
_cell_length_b 9.612968
_cell_length_c 20.474644
_cell_angle_alpha 146.569033
_cell_angle_beta 26.227473
_cell_angle_gamma 147.436507
_cell_volume 718.920887
_symmetry_space_group_name_H-M "P -1"
_symmetry_group_IT_number 2
_symmetry_cell_setting 'triclinic'
loop_
_space_group_symop_operation_xyz
x,y,z
-x,-y,-z
loop_
_atom_site_type_symbol
_atom_site_label
_atom_site_fract_x
_atom_site_fract_y
_atom_site_fract_z
Si Si1 0.070279 0.199439 0.813895
Si Si2 0.637227 0.386847 0.015349
Si Si3 0.189777 0.982649 0.191304
Si Si4 0.211848 0.992259 0.835806
Si Si5 0.601667 0.284271 0.853240
Si Si6 0.998238 0.369897 0.521872
Si Si7 0.246847 0.764839 0.856242
Si Si8 0.264953 0.840386 0.599004
O O1 0.236283 0.462358 0.762239
O O2 0.185525 0.007741 0.671713
O O3 0.874252 0.047466 0.850008
O O4 0.974817 0.253063 0.970237
O O5 0.414068 0.203688 0.125942
O O6 0.641110 0.687929 0.146195
O O7 0.684666 0.335262 0.887130
O O8 0.807724 0.308849 0.900780
O O9 0.030266 0.083171 0.381507
O O10 0.276769 0.837085 0.786637
O O11 0.188533 0.818908 0.718898
O O12 0.000000 0.000000 0.000000
O O13 0.785201 0.329265 0.690529
O O14 0.435144 0.979646 0.844914
O O15 0.500000 0.500000 0.000000
O O16 0.183451 0.546574 0.506962
O O17 0.000000 0.500000 0.500000
O O18 0.500000 0.000000 0.500000
#
# Coordination Sequence:
#
# PCOD8033383 Si02
#       8
#     2   2   2   2   2   2   2   2
#     4  11  23  46  68 104 142 184 233 290 366 411
#     4  11  24  41  72 105 137 183 240 291 350 427
#     4  11  24  44  70 103 140 186 234 294 354 422
#     4  12  23  41  66 103 137 176 235 292 347 413
#     4  12  23  43  72 103 136 184 241 283 348 422
#     4  12  26  46  72  98 143 188 233 290 358 420
#     4  11  24  40  73 104 138 183 234 297 345 422
#     4  12  27  44  71 103 142 189 234 289 356 426
#
# _framework density 22.255579000000001
#
# number of rings (size 3 to 8) (size 9 to 14) (size 15 to 20)
#    0.000    0.500    5.000    3.750    3.500    1.500 
#    0.000    3.750    0.000    0.000    0.000    0.000 
#    0.000    0.000    0.000    0.000    0.000    0.000 
#
# Total GULP energy -198315.917490 kJ/mol
# GULP energy per Si atom -12394.744843 kJ/mol
# Density = 2.220492 g / cm^3
# Si number density = 22.255579 Si / 1000 Ang^3
#
#
#
# Elastic Constant Matrix: (Units=GPa)
#
#
# Indices 1 2 3 4 5 6 
#
# 1 131.2266 19.8201 26.2558 4.0369 8.1174 -6.2681
# 2 19.8201 79.8902 8.8330 -0.5084 4.0116 0.0052
# 3 26.2558 8.8330 100.4997 -11.4627 6.9559 -9.4464
# 4 4.0369 -0.5084 -11.4627 33.0617 3.7425 -3.6834
# 5 8.1174 4.0116 6.9559 3.7425 39.6284 2.8305
# 6 -6.2681 0.0052 -9.4464 -3.6834 2.8305 42.6268
#
#
#
# Elastic Compliance Matrix: (Units=1/GPa)
#
#
# Indices 1 2 3 4 5 6 
#
# 1 0.008464 -0.001825 -0.002089 -0.001583 -0.001084 0.000717
# 2 -0.001825 0.013082 -0.000615 0.000270 -0.000845 -0.000327
# 3 -0.002089 -0.000615 0.011512 0.004796 -0.002184 0.002803
# 4 -0.001583 0.000270 0.004796 0.032992 -0.003942 0.003943
# 5 -0.001084 -0.000845 -0.002184 -0.003942 0.026494 -0.002743
# 6 0.000717 -0.000327 0.002803 0.003943 -0.002743 0.024709
#
#
# Mechanical properties :
#
#
# Convention : Reuss Voigt Hill
#
# Bulk Modulus (GPa) = 41.66415 46.82605 44.24510
# Shear Modulus (GPa) = 37.22752 40.17723 38.70238
#
# Velocity S-wave (km/s) = 4.09434 4.25345 4.17465
# Velocity P-wave (km/s) = 6.41193 6.72371 6.56967
#
# Compressibility (1/GPa) = 0.02400145
#
# Stress axis : x y z
#
# Youngs Moduli (GPa) = 118.14798 76.44126 86.86777
#
# Poissons Ratio (x) = 0.13947 0.18147
# Poissons Ratio (y) = 0.21557 0.05338
# Poissons Ratio (z) = 0.24681 0.04698
#
# Static dielectric constant tensor:
#      x y z
#    x -0.550970 2.613950 0.171010 
#    y 2.613950 2.288210 -0.055550 
#    z 0.171010 -0.055550 3.882180 
# 
# 
# High freq. dielectric constant tensor:
#      x y z
#    x 1.891690 0.007110 0.005700 
#    y 0.007110 1.880340 0.002010 
#    z 0.005700 0.002010 1.865090 
# 
# From -- ./inp_files/572931.got.cif
#   From: 2010.06.25/outbox.cif.g09.slc.cpg/sg2_287_cif.got.tgz:572931.got - 2010.06.27 13:26:56.
