data_PCOD8033536
_publ_section_title
;
Structure prediction by ZEFSAII (Michael W. Deem and Ramdas Pophale) SiO2 
 PCOD8033536
Probable space group: P -1
;
_chemical_formula_sum "Si O2"
_cell_formula_units_Z 14
_cell_length_a 8.910772
_cell_length_b 11.537343
_cell_length_c 9.473518
_cell_angle_alpha 56.126489
_cell_angle_beta 93.864293
_cell_angle_gamma 56.851301
_cell_volume 571.829753
_symmetry_space_group_name_H-M "P -1"
_symmetry_group_IT_number 2
_symmetry_cell_setting 'triclinic'
loop_
_space_group_symop_operation_xyz
x,y,z
-x,-y,-z
loop_
_atom_site_type_symbol
_atom_site_label
_atom_site_fract_x
_atom_site_fract_y
_atom_site_fract_z
Si Si1 0.329809 0.332663 0.256419
Si Si2 0.613002 0.393781 0.936219
Si Si3 0.971338 0.973414 0.359201
Si Si4 0.640321 0.132570 0.652985
Si Si5 0.445892 0.097526 0.139834
Si Si6 0.105468 0.289659 0.476608
Si Si7 0.637070 0.624932 0.275491
O O1 0.268358 0.536669 0.135567
O O2 0.547087 0.165478 0.468830
O O3 0.385200 0.246895 0.159200
O O4 0.138254 0.366012 0.288258
O O5 0.441329 0.459939 0.761526
O O6 0.500000 0.500000 0.000000
O O7 0.770478 0.162255 0.131530
O O8 0.166431 0.886850 0.330002
O O9 0.953928 0.824805 0.493355
O O10 0.000000 0.000000 0.500000
O O11 0.467109 0.318845 0.616153
O O12 0.715733 0.929142 0.850726
O O13 0.674559 0.865709 0.317750
O O14 0.442194 0.182369 0.936578
O O15 0.890763 0.477658 0.416893
#
# Coordination Sequence:
#
# PCOD8033536 Si02
#       7
#     2   2   2   2   2   2   2
#     4  11  24  44  73 104 138 182 238 288 343 417
#     4  12  24  44  70 106 141 180 236 288 342 422
#     4  12  24  44  72 101 139 187 232 285 353 410
#     4  11  26  45  70 102 140 186 231 290 351 411
#     4  11  23  47  70 103 143 180 237 287 345 416
#     4  11  24  43  71 101 140 185 228 285 353 404
#     4  12  26  45  70 103 146 181 233 291 349 414
#
# _framework density 24.482810000000001
#
# number of rings (size 3 to 8) (size 9 to 14) (size 15 to 20)
#    0.000    0.571    2.857    6.429    2.000    5.714 
#    2.571    0.000    0.000    0.000    0.000    0.000 
#    0.000    0.000    0.000    0.000    0.000    0.000 
#
# Total GULP energy -173475.413301 kJ/mol
# GULP energy per Si atom -12391.100950 kJ/mol
# Density = 2.442709 g / cm^3
# Si number density = 24.482810 Si / 1000 Ang^3
#
#
#
# Elastic Constant Matrix: (Units=GPa)
#
#
# Indices 1 2 3 4 5 6 
#
# 1 160.0130 26.9944 27.2497 -1.8422 -19.9106 -6.1137
# 2 26.9944 73.4148 18.5808 -1.4617 4.9103 -21.2279
# 3 27.2497 18.5808 73.4653 -5.5289 -7.8099 -7.1707
# 4 -1.8422 -1.4617 -5.5289 32.0783 2.4989 -0.8099
# 5 -19.9106 4.9103 -7.8099 2.4989 40.7315 -7.0525
# 6 -6.1137 -21.2279 -7.1707 -0.8099 -7.0525 44.8731
#
#
#
# Elastic Compliance Matrix: (Units=1/GPa)
#
#
# Indices 1 2 3 4 5 6 
#
# 1 0.007422 -0.002503 -0.001743 -0.000268 0.003632 0.000115
# 2 -0.002503 0.017552 -0.003075 0.000517 -0.002740 0.007049
# 3 -0.001743 -0.003075 0.015605 0.002279 0.002587 0.001249
# 4 -0.000268 0.000517 0.002279 0.031718 -0.001546 0.000902
# 5 0.003632 -0.002740 0.002587 -0.001546 0.027936 0.003975
# 6 0.000115 0.007049 0.001249 0.000902 0.003975 0.026476
#
#
# Mechanical properties :
#
#
# Convention : Reuss Voigt Hill
#
# Bulk Modulus (GPa) = 38.55574 50.28254 44.41914
# Shear Modulus (GPa) = 33.33443 39.14113 36.23778
#
# Velocity S-wave (km/s) = 3.69391 4.00274 3.85142
# Velocity P-wave (km/s) = 5.82886 6.47650 6.16119
#
# Compressibility (1/GPa) = 0.02593648
#
# Stress axis : x y z
#
# Youngs Moduli (GPa) = 134.73937 56.97427 64.08385
#
# Poissons Ratio (x) = 0.14261 0.11168
# Poissons Ratio (y) = 0.33726 0.19706
# Poissons Ratio (z) = 0.23481 0.17520
#
# Static dielectric constant tensor:
#      x y z
#    x 5.563570 0.199200 -0.623090 
#    y 0.199200 4.280080 -0.349450 
#    z -0.623090 -0.349450 4.695000 
# 
# 
# High freq. dielectric constant tensor:
#      x y z
#    x 2.002100 0.006520 -0.021090 
#    y 0.006520 1.964040 -0.002520 
#    z -0.021090 -0.002520 1.959630 
# 
# From -- ./inp_files/175094.got.cif
#   From: 2010.06.25/outbox.cif.g09.slc.cpg/sg2_88_cif.got.tgz:175094.got - 2010.06.27 13:26:56.
