data_PCOD8033144
_publ_section_title
;
Structure prediction by ZEFSAII (Michael W. Deem and Ramdas Pophale) SiO2 
 PCOD8033144
Probable space group: P -1
;
_chemical_formula_sum "Si O2"
_cell_formula_units_Z 16
_cell_length_a 5.383105
_cell_length_b 11.064476
_cell_length_c 20.261991
_cell_angle_alpha 135.474244
_cell_angle_beta 63.187494
_cell_angle_gamma 125.859330
_cell_volume 684.673563
_symmetry_space_group_name_H-M "P -1"
_symmetry_group_IT_number 2
_symmetry_cell_setting 'triclinic'
loop_
_space_group_symop_operation_xyz
x,y,z
-x,-y,-z
loop_
_atom_site_type_symbol
_atom_site_label
_atom_site_fract_x
_atom_site_fract_y
_atom_site_fract_z
Si Si1 0.823974 0.189251 0.871527
Si Si2 0.194906 0.173307 0.496443
Si Si3 0.565034 0.450398 0.044928
Si Si4 0.512504 0.003335 0.708887
Si Si5 0.381653 0.435448 0.691810
Si Si6 0.145586 0.178674 0.257525
Si Si7 0.326471 0.631899 0.241027
Si Si8 0.166164 0.375616 0.462776
O O1 0.767233 0.111098 0.773808
O O2 0.116298 0.386821 0.905544
O O3 0.843247 0.017887 0.843455
O O4 0.568157 0.242578 0.959167
O O5 0.421095 0.346364 0.582829
O O6 0.996836 0.245672 0.497843
O O7 0.409177 0.113907 0.401738
O O8 0.000000 0.000000 0.500000
O O9 0.315997 0.452471 0.128983
O O10 0.500000 0.500000 0.000000
O O11 0.455616 0.171169 0.744333
O O12 0.206755 0.855647 0.725893
O O13 0.606895 0.658471 0.753198
O O14 0.504928 0.348213 0.701646
O O15 0.022586 0.391354 0.721688
O O16 0.208198 0.233666 0.348912
O O17 0.500000 0.500000 0.500000
O O18 0.000000 0.500000 0.500000
#
# Coordination Sequence:
#
# PCOD8033144 Si02
#       8
#     2   2   2   2   2   2   2   2
#     4  11  23  44  77 113 142 187 261 317 374 445
#     4  12  27  47  75 116 161 209 260 317 387 451
#     4  11  23  44  80 111 143 190 259 324 381 450
#     4  12  25  45  78 109 153 194 270 308 373 462
#     4  12  31  48  73 110 168 199 248 314 392 448
#     4  12  27  45  75 105 152 203 254 308 381 453
#     4  12  27  50  73 114 149 199 249 323 382 454
#     4  12  27  47  72 105 151 207 263 307 365 456
#
# _framework density 23.3688
#
# number of rings (size 3 to 8) (size 9 to 14) (size 15 to 20)
#    0.000    0.250    6.250    1.500    7.000    0.500 
#    0.000    1.250    0.000    0.000    0.000    0.000 
#    0.000    0.000    0.000    0.000    0.000    0.000 
#
# Total GULP energy -198248.040263 kJ/mol
# GULP energy per Si atom -12390.502516 kJ/mol
# Density = 2.331561 g / cm^3
# Si number density = 23.368800 Si / 1000 Ang^3
#
#
#
# Elastic Constant Matrix: (Units=GPa)
#
#
# Indices 1 2 3 4 5 6 
#
# 1 126.7226 30.3573 34.2382 -3.8565 -0.7834 -3.2201
# 2 30.3573 84.0984 1.2595 18.2828 -3.6309 -5.1230
# 3 34.2382 1.2595 149.9010 2.1624 -15.8387 4.5866
# 4 -3.8565 18.2828 2.1624 35.2718 -5.7845 3.3782
# 5 -0.7834 -3.6309 -15.8387 -5.7845 40.8387 2.6708
# 6 -3.2201 -5.1230 4.5866 3.3782 2.6708 39.9630
#
#
#
# Elastic Compliance Matrix: (Units=1/GPa)
#
#
# Indices 1 2 3 4 5 6 
#
# 1 0.009599 -0.004138 -0.002279 0.003204 -0.000632 0.000276
# 2 -0.004138 0.015403 0.000900 -0.008664 0.000265 0.002253
# 3 -0.002279 0.000900 0.007537 -0.000591 0.002946 -0.001080
# 4 0.003204 -0.008664 -0.000591 0.034294 0.004179 -0.003963
# 5 -0.000632 0.000265 0.002946 0.004179 0.026394 -0.002472
# 6 0.000276 0.002253 -0.001080 -0.003963 -0.002472 0.025958
#
#
# Mechanical properties :
#
#
# Convention : Reuss Voigt Hill
#
# Bulk Modulus (GPa) = 46.50175 54.71466 50.60821
# Shear Modulus (GPa) = 36.39334 42.87251 39.63293
#
# Velocity S-wave (km/s) = 3.95061 4.28788 4.12269
# Velocity P-wave (km/s) = 6.38373 6.92668 6.66074
#
# Compressibility (1/GPa) = 0.02150457
#
# Stress axis : x y z
#
# Youngs Moduli (GPa) = 104.17887 64.92165 132.67953
#
# Poissons Ratio (x) = 0.26863 0.30239
# Poissons Ratio (y) = 0.43107 -0.11937
# Poissons Ratio (z) = 0.23743 -0.05841
#
# Static dielectric constant tensor:
#      x y z
#    x 4.386930 -0.361090 -0.392920 
#    y -0.361090 4.374840 -0.066010 
#    z -0.392920 -0.066010 3.956580 
# 
# 
# High freq. dielectric constant tensor:
#      x y z
#    x 1.932000 -0.005860 -0.002890 
#    y -0.005860 1.905110 0.012580 
#    z -0.002890 0.012580 1.942520 
# 
# From -- ./inp_files/604326.got.cif
#   From: 2010.06.25/outbox.cif.g09.slc.cpg/sg2_303_cif.got.tgz:604326.got - 2010.06.27 13:26:56.
