data_PCOD8033702
_publ_section_title
;
Structure prediction by ZEFSAII (Michael W. Deem and Ramdas Pophale) SiO2 
 PCOD8033702
Probable space group: P -1
;
_chemical_formula_sum "Si O2"
_cell_formula_units_Z 12
_cell_length_a 15.625192
_cell_length_b 9.009524
_cell_length_c 13.847846
_cell_angle_alpha 121.766085
_cell_angle_beta 27.629490
_cell_angle_gamma 139.161455
_cell_volume 520.469478
_symmetry_space_group_name_H-M "P -1"
_symmetry_group_IT_number 2
_symmetry_cell_setting 'triclinic'
loop_
_space_group_symop_operation_xyz
x,y,z
-x,-y,-z
loop_
_atom_site_type_symbol
_atom_site_label
_atom_site_fract_x
_atom_site_fract_y
_atom_site_fract_z
Si Si1 0.163514 0.573355 0.509910
Si Si2 0.854898 0.804891 0.703407
Si Si3 0.680468 0.477426 0.937576
Si Si4 0.625909 0.155593 0.203957
Si Si5 0.202220 0.535360 0.678834
Si Si6 0.565914 0.655677 0.663835
O O1 0.193988 0.398706 0.383761
O O2 0.208231 0.617761 0.594310
O O3 0.387471 0.848931 0.327607
O O4 0.862889 0.430659 0.732292
O O5 0.612264 0.768831 0.903513
O O6 0.828931 0.737366 0.819578
O O7 0.144457 0.091958 0.490571
O O8 0.651224 0.515440 0.091129
O O9 0.689099 0.239261 0.281453
O O10 0.538450 0.275007 0.282774
O O11 0.894607 0.264549 0.921771
O O12 0.398339 0.503342 0.480389
#
# Coordination Sequence:
#
# PCOD8033702 Si02
#       6
#     2   2   2   2   2   2
#     4  12  24  44  68  96 132 168 214 266 321 383
#     4  11  26  41  64 102 131 170 209 262 330 379
#     4  11  24  41  64 100 132 169 209 261 328 386
#     4  11  26  45  67  94 129 173 218 264 316 379
#     4  11  26  45  67  94 129 173 218 264 316 379
#     4  12  24  44  68  96 132 168 214 266 321 383
#
# _framework density 23.056107999999998
#
# number of rings (size 3 to 8) (size 9 to 14) (size 15 to 20)
#    0.000    0.667    5.000    2.000    4.667    0.667 
#    0.000    0.833    0.000    0.000    0.000    0.000 
#    0.000    0.000    0.000    0.000    0.000    0.000 
#
# Total GULP energy -148863.943600 kJ/mol
# GULP energy per Si atom -12405.328633 kJ/mol
# Density = 2.300363 g / cm^3
# Si number density = 23.056108 Si / 1000 Ang^3
#
#
#
# Elastic Constant Matrix: (Units=GPa)
#
#
# Indices 1 2 3 4 5 6 
#
# 1 100.7474 4.9658 27.5925 -2.7207 0.5356 -12.3346
# 2 4.9658 51.1885 23.5118 -5.4369 4.0674 -1.4986
# 3 27.5925 23.5118 120.2480 -6.0061 4.3716 -0.9563
# 4 -2.7207 -5.4369 -6.0061 19.8321 -4.6444 -0.8552
# 5 0.5356 4.0674 4.3716 -4.6444 43.3945 -3.1493
# 6 -12.3346 -1.4986 -0.9563 -0.8552 -3.1493 28.0781
#
#
#
# Elastic Compliance Matrix: (Units=1/GPa)
#
#
# Indices 1 2 3 4 5 6 
#
# 1 0.011251 0.000314 -0.002564 0.001203 0.000580 0.004974
# 2 0.000314 0.021998 -0.004093 0.004635 -0.001071 0.001194
# 3 -0.002564 -0.004093 0.009781 0.001326 -0.000503 -0.001028
# 4 0.001203 0.004635 0.001326 0.053653 0.005381 0.003059
# 5 0.000580 -0.001071 -0.000503 0.005381 0.023984 0.003034
# 6 0.004974 0.001194 -0.001028 0.003059 0.003034 0.038262
#
#
# Mechanical properties :
#
#
# Convention : Reuss Voigt Hill
#
# Bulk Modulus (GPa) = 32.95760 42.70268 37.83014
# Shear Modulus (GPa) = 27.51322 32.66854 30.09088
#
# Velocity S-wave (km/s) = 3.45819 3.76828 3.61656
# Velocity P-wave (km/s) = 5.50191 6.12328 5.82089
#
# Compressibility (1/GPa) = 0.03034201
#
# Stress axis : x y z
#
# Youngs Moduli (GPa) = 88.88070 45.45959 102.23609
#
# Poissons Ratio (x) = -0.01426 0.26218
# Poissons Ratio (y) = -0.02789 0.41847
# Poissons Ratio (z) = 0.22793 0.18608
#
# Static dielectric constant tensor:
#      x y z
#    x 4.228640 -0.152050 0.010820 
#    y -0.152050 3.652960 -0.066140 
#    z 0.010820 -0.066140 4.500700 
# 
# 
# High freq. dielectric constant tensor:
#      x y z
#    x 1.925940 -0.013190 0.003950 
#    y -0.013190 1.875750 0.001490 
#    z 0.003950 0.001490 1.936440 
# 
# From -- ./inp_files/292132.got.cif
#   From: 2010.06.25/outbox.cif.g09.slc.cpg/sg2_147_cif.got.tgz:292132.got - 2010.06.27 13:26:56.
