data_PCOD8033729
_publ_section_title
;
Structure prediction by ZEFSAII (Michael W. Deem and Ramdas Pophale) SiO2 
 PCOD8033729
Probable space group: P -1
;
_chemical_formula_sum "Si O2"
_cell_formula_units_Z 16
_cell_length_a 13.540291
_cell_length_b 9.012722
_cell_length_c 14.038775
_cell_angle_alpha 53.862963
_cell_angle_beta 149.740060
_cell_angle_gamma 114.015782
_cell_volume 674.812277
_symmetry_space_group_name_H-M "P -1"
_symmetry_group_IT_number 2
_symmetry_cell_setting 'triclinic'
loop_
_space_group_symop_operation_xyz
x,y,z
-x,-y,-z
loop_
_atom_site_type_symbol
_atom_site_label
_atom_site_fract_x
_atom_site_fract_y
_atom_site_fract_z
Si Si1 0.212975 0.027265 0.702970
Si Si2 0.290335 0.524878 0.411103
Si Si3 0.712692 0.385754 0.320402
Si Si4 0.889763 0.552987 0.987726
Si Si5 0.432506 0.235906 0.474628
Si Si6 0.574224 0.358940 0.873057
Si Si7 0.847062 0.741352 0.249021
Si Si8 0.456155 0.943948 0.761766
O O1 0.330521 0.078024 0.688937
O O2 0.173302 0.203038 0.676538
O O3 0.366066 0.845269 0.949164
O O4 0.000000 0.000000 0.500000
O O5 0.340523 0.420655 0.391801
O O6 0.351329 0.727974 0.390035
O O7 0.407088 0.375596 0.644065
O O8 0.044051 0.577432 0.191464
O O9 0.528477 0.475486 0.201959
O O10 0.781463 0.544614 0.254446
O O11 0.632578 0.241748 0.241245
O O12 0.923475 0.274526 0.590302
O O13 0.712310 0.747301 0.746113
O O14 0.783305 0.390131 0.994568
O O15 0.000000 0.500000 0.000000
O O16 0.434288 0.042001 0.603342
O O17 0.694763 0.899781 0.000162
#
# Coordination Sequence:
#
# PCOD8033729 Si02
#       8
#     2   2   2   2   2   2   2   2
#     4  12  26  42  68 105 135 172 228 278 326 397
#     4   9  19  39  62  94 127 166 218 279 322 384
#     4  11  26  44  63  95 142 181 224 262 342 401
#     4   9  20  38  65  94 128 170 217 275 334 382
#     4   9  20  36  63  95 126 164 218 274 331 379
#     4  11  24  41  67  97 132 174 222 272 327 400
#     4  11  25  44  65  94 137 187 221 268 331 401
#     4  12  24  43  68  97 139 178 219 281 328 401
#
# _framework density 23.710298000000002
#
# number of rings (size 3 to 8) (size 9 to 14) (size 15 to 20)
#    0.000    1.500    2.500    2.250    5.250    2.000 
#    0.000    2.500    0.000    4.500    0.000    0.000 
#    0.000    0.000    0.000    0.000    0.000    0.000 
#
# Total GULP energy -198245.158015 kJ/mol
# GULP energy per Si atom -12390.322376 kJ/mol
# Density = 2.365633 g / cm^3
# Si number density = 23.710298 Si / 1000 Ang^3
#
#
#
# Elastic Constant Matrix: (Units=GPa)
#
#
# Indices 1 2 3 4 5 6 
#
# 1 53.1423 20.3524 18.3060 -3.8104 5.8130 10.4070
# 2 20.3524 86.7951 34.8283 7.2477 2.0336 7.0700
# 3 18.3060 34.8283 179.6483 28.3771 3.1576 13.8139
# 4 -3.8104 7.2477 28.3771 32.7831 1.1830 5.1787
# 5 5.8130 2.0336 3.1576 1.1830 34.8477 -3.3623
# 6 10.4070 7.0700 13.8139 5.1787 -3.3623 16.5377
#
#
#
# Elastic Compliance Matrix: (Units=1/GPa)
#
#
# Indices 1 2 3 4 5 6 
#
# 1 0.025575 -0.004541 -0.001655 0.008223 -0.005723 -0.016510
# 2 -0.004541 0.013529 -0.001811 -0.001826 0.000115 -0.000819
# 3 -0.001655 -0.001811 0.007166 -0.005591 -0.000317 -0.002484
# 4 0.008223 -0.001826 -0.005591 0.038803 -0.003286 -0.012543
# 5 -0.005723 0.000115 -0.000317 -0.003286 0.030858 0.011120
# 6 -0.016510 -0.000819 -0.002484 -0.012543 0.011120 0.079471
#
#
# Mechanical properties :
#
#
# Convention : Reuss Voigt Hill
#
# Bulk Modulus (GPa) = 33.04947 51.83989 42.44468
# Shear Modulus (GPa) = 22.57340 33.24029 27.90684
#
# Velocity S-wave (km/s) = 3.08888 3.74830 3.43445
# Velocity P-wave (km/s) = 5.16630 6.37529 5.80237
#
# Compressibility (1/GPa) = 0.03025767
#
# Stress axis : x y z
#
# Youngs Moduli (GPa) = 39.10037 73.91380 139.55154
#
# Poissons Ratio (x) = 0.33564 0.23090
# Poissons Ratio (y) = 0.17755 0.25270
# Poissons Ratio (z) = 0.06470 0.13384
#
# Static dielectric constant tensor:
#      x y z
#    x 4.164450 0.081720 0.283900 
#    y 0.081720 4.033270 0.421570 
#    z 0.283900 0.421570 5.155670 
# 
# 
# High freq. dielectric constant tensor:
#      x y z
#    x 1.918100 0.015810 0.006880 
#    y 0.015810 1.917310 0.020190 
#    z 0.006880 0.020190 1.963170 
# 
# From -- ./inp_files/528340.got.cif
#   From: 2010.06.25/outbox.cif.g09.slc.cpg/sg2_265_cif.got.tgz:528340.got - 2010.06.27 13:26:56.
