data_PCOD8033721
_publ_section_title
;
Structure prediction by ZEFSAII (Michael W. Deem and Ramdas Pophale) SiO2 
 PCOD8033721
Probable space group: P -1
;
_chemical_formula_sum "Si O2"
_cell_formula_units_Z 16
_cell_length_a 16.135912
_cell_length_b 10.112265
_cell_length_c 19.166144
_cell_angle_alpha 26.927091
_cell_angle_beta 145.112177
_cell_angle_gamma 144.992494
_cell_volume 762.166330
_symmetry_space_group_name_H-M "P -1"
_symmetry_group_IT_number 2
_symmetry_cell_setting 'triclinic'
loop_
_space_group_symop_operation_xyz
x,y,z
-x,-y,-z
loop_
_atom_site_type_symbol
_atom_site_label
_atom_site_fract_x
_atom_site_fract_y
_atom_site_fract_z
Si Si1 0.745964 0.709976 0.053369
Si Si2 0.776032 0.764157 0.399149
Si Si3 0.358465 0.071857 0.901527
Si Si4 0.201211 0.438801 0.153636
Si Si5 0.474665 0.182246 0.464440
Si Si6 0.062642 0.610595 0.104517
Si Si7 0.448818 0.633306 0.798083
Si Si8 0.046933 0.619619 0.710623
O O1 0.691774 0.491868 0.186121
O O2 0.886984 0.641958 0.145817
O O3 0.607824 0.635547 0.938889
O O4 0.798574 0.067525 0.941961
O O5 0.770579 0.926564 0.244887
O O6 0.611739 0.503551 0.422590
O O7 0.910824 0.613634 0.565658
O O8 0.818846 0.040377 0.356703
O O9 0.420463 0.412623 0.815712
O O10 0.500000 0.000000 0.000000
O O11 0.282812 0.810536 0.029255
O O12 0.317164 0.250765 0.314545
O O13 0.118866 0.387501 0.196668
O O14 0.080695 0.319622 0.063106
O O15 0.500000 0.000000 0.500000
O O16 0.459757 0.973977 0.620752
O O17 0.021288 0.448286 0.226812
#
# Coordination Sequence:
#
# PCOD8033721 Si02
#       8
#     2   2   2   2   2   2   2   2
#     4  11  25  44  68  93 136 176 223 270 335 397
#     4  11  24  41  66  98 130 172 228 265 331 394
#     4  12  20  43  72  90 130 174 221 274 322 392
#     4  11  25  42  70 100 132 176 224 273 331 391
#     4  12  25  41  68 102 133 168 222 277 332 387
#     4  11  24  44  67  97 133 178 223 269 331 399
#     4  11  25  43  66 100 129 171 227 272 332 389
#     4  11  25  42  67  96 134 178 219 272 333 399
#
# _framework density 20.992792000000001
#
# number of rings (size 3 to 8) (size 9 to 14) (size 15 to 20)
#    0.000    0.750    5.000    1.875    3.500    2.000 
#    0.000    3.125    0.000    0.000    0.000    0.000 
#    0.000    0.000    0.000    0.000    0.000    0.000 
#
# Total GULP energy -198450.188748 kJ/mol
# GULP energy per Si atom -12403.136797 kJ/mol
# Density = 2.094501 g / cm^3
# Si number density = 20.992792 Si / 1000 Ang^3
#
#
#
# Elastic Constant Matrix: (Units=GPa)
#
#
# Indices 1 2 3 4 5 6 
#
# 1 105.4933 22.0082 60.0170 12.7257 4.9458 1.1583
# 2 22.0082 74.6514 17.5327 14.8289 6.9214 2.1970
# 3 60.0170 17.5327 116.5240 14.7003 3.8291 -2.3842
# 4 12.7257 14.8289 14.7003 36.6820 8.9196 -3.4389
# 5 4.9458 6.9214 3.8291 8.9196 36.4615 -2.3800
# 6 1.1583 2.1970 -2.3842 -3.4389 -2.3800 25.6487
#
#
#
# Elastic Compliance Matrix: (Units=1/GPa)
#
#
# Indices 1 2 3 4 5 6 
#
# 1 0.013940 -0.002200 -0.006700 -0.001249 -0.000548 -0.001282
# 2 -0.002200 0.015375 -0.000534 -0.005079 -0.001458 -0.002084
# 3 -0.006700 -0.000534 0.012431 -0.002419 0.000376 0.001214
# 4 -0.001249 -0.005079 -0.002419 0.032637 -0.006332 0.004055
# 5 -0.000548 -0.001458 0.000376 -0.006332 0.029422 0.002066
# 6 -0.001282 -0.002084 0.001214 0.004055 0.002066 0.040073
#
#
# Mechanical properties :
#
#
# Convention : Reuss Voigt Hill
#
# Bulk Modulus (GPa) = 43.70945 55.08717 49.39831
# Shear Modulus (GPa) = 29.34771 32.89916 31.12343
#
# Velocity S-wave (km/s) = 3.74303 3.96304 3.85460
# Velocity P-wave (km/s) = 6.28862 6.87305 6.58732
#
# Compressibility (1/GPa) = 0.02287835
#
# Stress axis : x y z
#
# Youngs Moduli (GPa) = 71.73502 65.04090 80.44555
#
# Poissons Ratio (x) = 0.14306 0.53897
# Poissons Ratio (y) = 0.15779 0.04299
# Poissons Ratio (z) = 0.48061 0.03476
#
# Static dielectric constant tensor:
#      x y z
#    x 3.735170 0.124920 -0.160520 
#    y 0.124920 3.987250 -0.007840 
#    z -0.160520 -0.007840 3.893790 
# 
# 
# High freq. dielectric constant tensor:
#      x y z
#    x 1.814090 0.006120 -0.007870 
#    y 0.006120 1.837630 0.003160 
#    z -0.007870 0.003160 1.827270 
# 
# From -- ./inp_files/243643.got.cif
#   From: 2010.06.25/outbox.cif.g09.slc.cpg/sg2_122_cif.got.tgz:243643.got - 2010.06.27 13:26:56.
