data_PCOD8033723
_publ_section_title
;
Structure prediction by ZEFSAII (Michael W. Deem and Ramdas Pophale) SiO2 
 PCOD8033723
Probable space group: P -1
;
_chemical_formula_sum "Si O2"
_cell_formula_units_Z 16
_cell_length_a 9.076067
_cell_length_b 8.540423
_cell_length_c 16.366287
_cell_angle_alpha 75.157969
_cell_angle_beta 107.643312
_cell_angle_gamma 49.777126
_cell_volume 723.484532
_symmetry_space_group_name_H-M "P -1"
_symmetry_group_IT_number 2
_symmetry_cell_setting 'triclinic'
loop_
_space_group_symop_operation_xyz
x,y,z
-x,-y,-z
loop_
_atom_site_type_symbol
_atom_site_label
_atom_site_fract_x
_atom_site_fract_y
_atom_site_fract_z
Si Si1 0.706765 0.926615 0.740291
Si Si2 0.589156 0.601990 0.475422
Si Si3 0.293010 0.475144 0.908714
Si Si4 0.565702 0.281951 0.138865
Si Si5 0.637331 0.674910 0.229562
Si Si6 0.987718 0.682844 0.290789
Si Si7 0.246864 0.708143 0.604247
Si Si8 0.646994 0.610584 0.745159
O O1 0.639127 0.089370 0.626747
O O2 0.601670 0.089256 0.785662
O O3 0.584283 0.851675 0.714049
O O4 0.002078 0.669416 0.833951
O O5 0.500000 0.500000 0.500000
O O6 0.772925 0.526164 0.582545
O O7 0.727395 0.460647 0.432203
O O8 0.325292 0.640282 0.884529
O O9 0.434148 0.264465 0.886869
O O10 0.416770 0.315357 0.035932
O O11 0.375158 0.455527 0.160462
O O12 0.802687 0.978893 0.246160
O O13 0.745568 0.400958 0.295837
O O14 0.857946 0.618524 0.289836
O O15 0.081422 0.632677 0.219365
O O16 0.455495 0.677233 0.642891
O O17 0.000000 0.000000 0.500000
#
# Coordination Sequence:
#
# PCOD8033723 Si02
#       8
#     2   2   2   2   2   2   2   2
#     4  11  26  44  67 101 139 171 230 275 329 404
#     4  11  24  41  66  99 133 178 217 273 332 399
#     4  11  25  47  72  96 131 185 217 279 345 391
#     4  11  26  46  71  99 134 171 231 280 331 405
#     4  11  25  44  66 100 136 177 222 277 332 402
#     4  12  25  44  68 100 139 173 225 275 336 399
#     4  11  25  40  68  95 139 180 223 272 331 402
#     4  12  24  44  67 102 133 180 220 281 336 389
#
# _framework density 22.115190999999999
#
# number of rings (size 3 to 8) (size 9 to 14) (size 15 to 20)
#    0.000    0.750    5.000    1.500    5.250    3.500 
#    0.000    2.500    0.000    0.000    0.000    0.000 
#    0.000    0.000    0.000    0.000    0.000    0.000 
#
# Total GULP energy -198336.950192 kJ/mol
# GULP energy per Si atom -12396.059387 kJ/mol
# Density = 2.206486 g / cm^3
# Si number density = 22.115191 Si / 1000 Ang^3
#
#
#
# Elastic Constant Matrix: (Units=GPa)
#
#
# Indices 1 2 3 4 5 6 
#
# 1 101.1222 10.9514 8.9852 0.4387 4.6521 0.0737
# 2 10.9514 76.8638 17.3372 13.7470 2.2549 -11.3159
# 3 8.9852 17.3372 82.6140 13.9691 6.0668 -11.1502
# 4 0.4387 13.7470 13.9691 31.8740 -1.6189 -2.3579
# 5 4.6521 2.2549 6.0668 -1.6189 24.7160 8.6233
# 6 0.0737 -11.3159 -11.1502 -2.3579 8.6233 39.9897
#
#
#
# Elastic Compliance Matrix: (Units=1/GPa)
#
#
# Indices 1 2 3 4 5 6 
#
# 1 0.010180 -0.001390 -0.000880 0.000750 -0.001417 -0.000308
# 2 -0.001390 0.015233 -0.001306 -0.005804 -0.002645 0.004177
# 3 -0.000880 -0.001306 0.014412 -0.005675 -0.005170 0.004431
# 4 0.000750 -0.005804 -0.005675 0.036445 0.004914 -0.002137
# 5 -0.001417 -0.002645 -0.005170 0.004914 0.046737 -0.011976
# 6 -0.000308 0.004177 0.004431 -0.002137 -0.011976 0.029881
#
#
# Mechanical properties :
#
#
# Convention : Reuss Voigt Hill
#
# Bulk Modulus (GPa) = 30.60656 37.23862 33.92259
# Shear Modulus (GPa) = 29.25168 34.20436 31.72802
#
# Velocity S-wave (km/s) = 3.64083 3.93701 3.79181
# Velocity P-wave (km/s) = 5.61639 6.12713 5.87731
#
# Compressibility (1/GPa) = 0.03267273
#
# Stress axis : x y z
#
# Youngs Moduli (GPa) = 98.23305 65.64607 69.38844
#
# Poissons Ratio (x) = 0.09124 0.06105
# Poissons Ratio (y) = 0.13653 0.09064
# Poissons Ratio (z) = 0.08643 0.08575
#
# Static dielectric constant tensor:
#      x y z
#    x 0.633860 -2.376050 2.420380 
#    y -2.376050 2.695230 2.249530 
#    z 2.420380 2.249530 2.560710 
# 
# 
# High freq. dielectric constant tensor:
#      x y z
#    x 1.885370 0.003440 -0.003090 
#    y 0.003440 1.869720 0.024660 
#    z -0.003090 0.024660 1.862400 
# 
# From -- ./inp_files/187958.got.cif
#   From: 2010.06.25/outbox.cif.g09.slc.cpg/sg2_94_cif.got.tgz:187958.got - 2010.06.27 13:26:56.
