data_PCOD8033085
_publ_section_title
;
Structure prediction by ZEFSAII (Michael W. Deem and Ramdas Pophale) SiO2 
 PCOD8033085
Probable space group: P -1
;
_chemical_formula_sum "Si O2"
_cell_formula_units_Z 14
_cell_length_a 15.755602
_cell_length_b 12.889492
_cell_length_c 9.546554
_cell_angle_alpha 126.188456
_cell_angle_beta 133.903747
_cell_angle_gamma 27.195336
_cell_volume 636.356778
_symmetry_space_group_name_H-M "P -1"
_symmetry_group_IT_number 2
_symmetry_cell_setting 'triclinic'
loop_
_space_group_symop_operation_xyz
x,y,z
-x,-y,-z
loop_
_atom_site_type_symbol
_atom_site_label
_atom_site_fract_x
_atom_site_fract_y
_atom_site_fract_z
Si Si1 0.564061 0.468463 0.850939
Si Si2 0.128585 0.759610 0.494396
Si Si3 0.810658 0.999742 0.826816
Si Si4 0.019667 0.288114 0.483499
Si Si5 0.813284 0.391039 0.861438
Si Si6 0.660452 0.787248 0.115899
Si Si7 0.430864 0.281201 0.779555
O O1 0.341146 0.601023 0.691568
O O2 0.746252 0.203122 0.880590
O O3 0.617504 0.490690 0.783143
O O4 0.559432 0.575837 0.056639
O O5 0.185983 0.626228 0.317222
O O6 0.980743 0.809429 0.465118
O O7 0.000000 0.000000 0.500000
O O8 0.611618 0.093905 0.723255
O O9 0.912763 0.844435 0.685089
O O10 0.974379 0.854880 0.025510
O O11 0.176710 0.259974 0.672955
O O12 0.790988 0.554379 0.411144
O O13 0.790328 0.562867 0.002194
O O14 0.530247 0.841079 0.136892
O O15 0.500000 0.000000 0.000000
#
# Coordination Sequence:
#
# PCOD8033085 Si02
#       7
#     2   2   2   2   2   2   2
#     4  11  23  44  73 108 146 183 239 291 365 431
#     4  12  27  43  72 110 152 183 233 301 362 429
#     4  12  24  44  76 106 140 188 238 292 361 426
#     4  12  27  48  71 105 144 189 244 290 353 420
#     4  11  26  45  72 105 143 193 237 294 361 419
#     4  11  28  49  73 101 149 186 244 302 349 422
#     4  11  25  47  73 106 142 190 239 295 355 427
#
# _framework density 22.000236000000001
#
# number of rings (size 3 to 8) (size 9 to 14) (size 15 to 20)
#    0.000    0.571    4.286    3.429   10.000    1.143 
#    0.000    0.000    0.000    0.000    0.000    0.000 
#    0.000    0.000    0.000    0.000    0.000    0.000 
#
# Total GULP energy -173711.516398 kJ/mol
# GULP energy per Si atom -12407.965457 kJ/mol
# Density = 2.195016 g / cm^3
# Si number density = 22.000236 Si / 1000 Ang^3
#
#
#
# Elastic Constant Matrix: (Units=GPa)
#
#
# Indices 1 2 3 4 5 6 
#
# 1 99.5670 17.0629 15.7285 6.7659 -9.8141 -6.2621
# 2 17.0629 75.0394 5.0702 -18.6803 0.2130 9.9321
# 3 15.7285 5.0702 87.8624 -10.0912 3.9312 1.0648
# 4 6.7659 -18.6803 -10.0912 24.6998 0.6386 -4.8565
# 5 -9.8141 0.2130 3.9312 0.6386 39.8189 1.7568
# 6 -6.2621 9.9321 1.0648 -4.8565 1.7568 46.5863
#
#
#
# Elastic Compliance Matrix: (Units=1/GPa)
#
#
# Indices 1 2 3 4 5 6 
#
# 1 0.012347 -0.004847 -0.003026 -0.008019 0.003417 0.001797
# 2 -0.004847 0.018577 0.001685 0.015522 -0.001578 -0.002973
# 3 -0.003026 0.001685 0.012766 0.007332 -0.002123 -0.000213
# 4 -0.008019 0.015522 0.007332 0.057833 -0.003782 0.001617
# 5 0.003417 -0.001578 -0.002123 -0.003782 0.026258 -0.000540
# 6 0.001797 -0.002973 -0.000213 0.001617 -0.000540 0.022535
#
#
# Mechanical properties :
#
#
# Convention : Reuss Voigt Hill
#
# Bulk Modulus (GPa) = 31.93589 37.57688 34.75639
# Shear Modulus (GPa) = 28.88022 37.19482 33.03752
#
# Velocity S-wave (km/s) = 3.62708 4.11622 3.87937
# Velocity P-wave (km/s) = 5.66468 6.30145 5.99153
#
# Compressibility (1/GPa) = 0.03131273
#
# Stress axis : x y z
#
# Youngs Moduli (GPa) = 80.99170 53.83139 78.33564
#
# Poissons Ratio (x) = 0.26092 0.23706
# Poissons Ratio (y) = 0.39256 -0.13200
# Poissons Ratio (z) = 0.24510 -0.09071
#
# Static dielectric constant tensor:
#      x y z
#    x 4.310660 -0.094830 -0.039670 
#    y -0.094830 4.034100 -0.082380 
#    z -0.039670 -0.082380 3.960490 
# 
# 
# High freq. dielectric constant tensor:
#      x y z
#    x 1.886860 -0.001520 -0.004310 
#    y -0.001520 1.866920 -0.005320 
#    z -0.004310 -0.005320 1.865510 
# 
# From -- ./inp_files/222807.got.cif
#   From: 2010.06.25/outbox.cif.g09.slc.cpg/sg2_112_cif.got.tgz:222807.got - 2010.06.27 13:26:56.
