data_PCOD8033076
_publ_section_title
;
Structure prediction by ZEFSAII (Michael W. Deem and Ramdas Pophale) SiO2 
 PCOD8033076
Probable space group: P -1
;
_chemical_formula_sum "Si O2"
_cell_formula_units_Z 12
_cell_length_a 9.122311
_cell_length_b 12.174387
_cell_length_c 16.243080
_cell_angle_alpha 152.929200
_cell_angle_beta 43.416218
_cell_angle_gamma 143.539964
_cell_volume 487.513135
_symmetry_space_group_name_H-M "P -1"
_symmetry_group_IT_number 2
_symmetry_cell_setting 'triclinic'
loop_
_space_group_symop_operation_xyz
x,y,z
-x,-y,-z
loop_
_atom_site_type_symbol
_atom_site_label
_atom_site_fract_x
_atom_site_fract_y
_atom_site_fract_z
Si Si1 0.774004 0.043554 0.419433
Si Si2 0.006522 0.666586 0.775711
Si Si3 0.498336 0.647345 0.726687
Si Si4 0.947678 0.677303 0.203838
Si Si5 0.528519 0.856063 0.671234
Si Si6 0.954569 0.966415 0.856035
O O1 0.842208 0.012835 0.277542
O O2 0.958107 0.352713 0.586912
O O3 0.500000 0.000000 0.500000
O O4 0.812775 0.831402 0.319649
O O5 0.294575 0.901324 0.795451
O O6 0.865312 0.710338 0.786573
O O7 0.936277 0.742606 0.943610
O O8 0.227296 0.543672 0.803862
O O9 0.537526 0.764252 0.698287
O O10 0.531225 0.377231 0.529279
O O11 0.703157 0.894655 0.864023
O O12 0.203854 0.881047 0.282247
O O13 0.000000 0.500000 0.000000
#
# Coordination Sequence:
#
# PCOD8033076 Si02
#       6
#     2   2   2   2   2   2
#     4  12  26  47  74 107 149 194 245 304 365 436
#     4  11  25  44  76 106 142 196 246 296 376 430
#     4  11  23  46  73 100 145 191 242 299 361 433
#     4  12  27  45  71 112 147 193 247 299 366 439
#     4  11  23  44  73 105 140 193 241 299 366 429
#     4  11  24  47  74 105 145 197 242 303 364 441
#
# _framework density 24.614720999999999
#
# number of rings (size 3 to 8) (size 9 to 14) (size 15 to 20)
#    0.000    0.667    3.333    4.000    4.667    3.333 
#    0.000    0.000    0.000    0.000    0.000    0.000 
#    0.000    0.000    0.000    0.000    0.000    0.000 
#
# Total GULP energy -148757.896125 kJ/mol
# GULP energy per Si atom -12396.491344 kJ/mol
# Density = 2.455870 g / cm^3
# Si number density = 24.614721 Si / 1000 Ang^3
#
#
#
# Elastic Constant Matrix: (Units=GPa)
#
#
# Indices 1 2 3 4 5 6 
#
# 1 72.6338 22.0739 19.2157 5.3706 6.7352 15.4686
# 2 22.0739 113.0396 28.5905 -16.7635 9.0266 34.2864
# 3 19.2157 28.5905 120.7503 -13.0958 12.9828 -3.2217
# 4 5.3706 -16.7635 -13.0958 36.7277 -6.5036 -5.5105
# 5 6.7352 9.0266 12.9828 -6.5036 40.3575 -5.9887
# 6 15.4686 34.2864 -3.2217 -5.5105 -5.9887 38.6106
#
#
#
# Elastic Compliance Matrix: (Units=1/GPa)
#
#
# Indices 1 2 3 4 5 6 
#
# 1 0.017265 -0.000769 -0.002992 -0.005813 -0.003858 -0.007912
# 2 -0.000769 0.014349 -0.002901 0.003081 -0.003549 -0.012787
# 3 -0.002992 -0.002901 0.010020 0.003286 -0.000811 0.004954
# 4 -0.005813 0.003081 0.003286 0.032376 0.005228 0.005299
# 5 -0.003858 -0.003549 -0.000811 0.005228 0.028779 0.009839
# 6 -0.007912 -0.012787 0.004954 0.005299 0.009839 0.043120
#
#
# Mechanical properties :
#
#
# Convention : Reuss Voigt Hill
#
# Bulk Modulus (GPa) = 35.32181 49.57598 42.44889
# Shear Modulus (GPa) = 29.64372 38.90874 34.27623
#
# Velocity S-wave (km/s) = 3.47408 3.98013 3.73568
# Velocity P-wave (km/s) = 5.52027 6.42701 5.99081
#
# Compressibility (1/GPa) = 0.02831112
#
# Stress axis : x y z
#
# Youngs Moduli (GPa) = 57.91914 69.69219 99.79810
#
# Poissons Ratio (x) = 0.05359 0.29862
# Poissons Ratio (y) = 0.04453 0.28947
# Poissons Ratio (z) = 0.17331 0.20215
#
# Static dielectric constant tensor:
#      x y z
#    x 4.521360 0.227570 0.008760 
#    y 0.227570 4.777940 -0.077370 
#    z 0.008760 -0.077370 4.714770 
# 
# 
# High freq. dielectric constant tensor:
#      x y z
#    x 1.978500 0.005390 0.003930 
#    y 0.005390 1.972400 -0.015870 
#    z 0.003930 -0.015870 1.997770 
# 
# From -- ./inp_files/400206.got.cif
#   From: 2010.06.25/outbox.cif.g09.slc.cpg/sg2_201_cif.got.tgz:400206.got - 2010.06.27 13:26:56.
