data_PCOD8033089
_publ_section_title
;
Structure prediction by ZEFSAII (Michael W. Deem and Ramdas Pophale) SiO2 
 PCOD8033089
Probable space group: P -1
;
_chemical_formula_sum "Si O2"
_cell_formula_units_Z 16
_cell_length_a 11.513035
_cell_length_b 12.125433
_cell_length_c 21.874616
_cell_angle_alpha 38.649141
_cell_angle_beta 28.550865
_cell_angle_gamma 27.439923
_cell_volume 672.543684
_symmetry_space_group_name_H-M "P -1"
_symmetry_group_IT_number 2
_symmetry_cell_setting 'triclinic'
loop_
_space_group_symop_operation_xyz
x,y,z
-x,-y,-z
loop_
_atom_site_type_symbol
_atom_site_label
_atom_site_fract_x
_atom_site_fract_y
_atom_site_fract_z
Si Si1 0.780577 0.081879 0.442580
Si Si2 0.113740 0.126437 0.863395
Si Si3 0.897954 0.018087 0.788559
Si Si4 0.820588 0.732211 0.021881
Si Si5 0.038361 0.588275 0.587215
Si Si6 0.826906 0.507511 0.921793
Si Si7 0.816064 0.324285 0.793141
Si Si8 0.162033 0.175332 0.297631
O O1 0.400484 0.330062 0.516454
O O2 0.003781 0.068946 0.396071
O O3 0.850136 0.098563 0.333141
O O4 0.887911 0.823857 0.514650
O O5 0.848236 0.395287 0.896164
O O6 0.098673 0.130801 0.795131
O O7 0.472141 0.022981 0.759169
O O8 0.000000 0.000000 0.000000
O O9 0.564328 0.100442 0.880909
O O10 0.889709 0.215358 0.738341
O O11 0.988008 0.835664 0.879674
O O12 0.862428 0.686967 0.094763
O O13 0.000000 0.500000 0.000000
O O14 0.783486 0.552392 0.707935
O O15 0.058223 0.630283 0.631197
O O16 0.824275 0.714981 0.817710
O O17 0.511666 0.610052 0.061634
#
# Coordination Sequence:
#
# PCOD8033089 Si02
#       8
#     2   2   2   2   2   2   2   2
#     4  12  30  51  80 108 149 211 263 315 370 445
#     4  12  23  41  70 111 155 190 235 306 395 461
#     4  11  27  47  73 110 152 198 252 313 383 455
#     4  11  23  44  73 112 148 188 245 314 388 453
#     4  12  29  51  76 111 154 207 263 310 373 453
#     4  12  24  41  77 113 146 190 243 321 394 445
#     4  12  25  48  71 114 153 200 249 309 388 462
#     4  12  26  48  78 111 150 193 256 324 383 446
#
# _framework density 23.790275999999999
#
# number of rings (size 3 to 8) (size 9 to 14) (size 15 to 20)
#    0.000    0.250    3.750    4.875    7.000    2.000 
#    0.000    0.000    0.000    0.000    0.000    0.000 
#    0.000    0.000    0.000    0.000    0.000    0.000 
#
# Total GULP energy -198337.648527 kJ/mol
# GULP energy per Si atom -12396.103033 kJ/mol
# Density = 2.373613 g / cm^3
# Si number density = 23.790276 Si / 1000 Ang^3
#
#
#
# Elastic Constant Matrix: (Units=GPa)
#
#
# Indices 1 2 3 4 5 6 
#
# 1 96.9411 17.5716 23.8262 -6.0769 23.0235 10.1371
# 2 17.5716 107.8730 40.8438 -6.7736 8.8336 3.1645
# 3 23.8262 40.8438 94.9503 -5.1135 15.3439 5.9513
# 4 -6.0769 -6.7736 -5.1135 48.2094 11.9807 1.7829
# 5 23.0235 8.8336 15.3439 11.9807 20.5525 -0.7934
# 6 10.1371 3.1645 5.9513 1.7829 -0.7934 44.9372
#
#
#
# Elastic Compliance Matrix: (Units=1/GPa)
#
#
# Indices 1 2 3 4 5 6 
#
# 1 0.017070 -0.000320 0.000559 0.008426 -0.024494 -0.004669
# 2 -0.000320 0.011241 -0.004287 0.001651 -0.002244 -0.000257
# 3 0.000559 -0.004287 0.014548 0.004101 -0.012118 -0.002128
# 4 0.008426 0.001651 0.004101 0.030353 -0.031070 -0.004313
# 5 -0.024494 -0.002244 -0.012118 -0.031070 0.104618 0.010368
# 6 -0.004669 -0.000257 -0.002128 -0.004313 0.010368 0.023961
#
#
# Mechanical properties :
#
#
# Convention : Reuss Voigt Hill
#
# Bulk Modulus (GPa) = 28.76755 51.58308 40.17531
# Shear Modulus (GPa) = 22.57602 37.24135 29.90868
#
# Velocity S-wave (km/s) = 3.08386 3.96081 3.54952
# Velocity P-wave (km/s) = 4.97983 6.53045 5.80713
#
# Compressibility (1/GPa) = 0.03476139
#
# Stress axis : x y z
#
# Youngs Moduli (GPa) = 58.58285 88.96318 68.73728
#
# Poissons Ratio (x) = 0.02850 -0.03842
# Poissons Ratio (y) = 0.01877 0.29469
# Poissons Ratio (z) = -0.03275 0.38140
#
# Static dielectric constant tensor:
#      x y z
#    x -3.097640 3.282680 3.192840 
#    y 3.282680 2.951090 -1.491340 
#    z 3.192840 -1.491340 3.318670 
# 
# 
# High freq. dielectric constant tensor:
#      x y z
#    x 1.950320 0.008100 0.002300 
#    y 0.008100 1.946450 -0.003930 
#    z 0.002300 -0.003930 1.950040 
# 
# From -- ./inp_files/364051.got.cif
#   From: 2010.06.25/outbox.cif.g09.slc.cpg/sg2_183_cif.got.tgz:364051.got - 2010.06.27 13:26:56.
