data_PCOD8033851
_publ_section_title
;
Structure prediction by ZEFSAII (Michael W. Deem and Ramdas Pophale) SiO2 
 PCOD8033851
Probable space group: P -1
;
_chemical_formula_sum "Si O2"
_cell_formula_units_Z 16
_cell_length_a 5.135899
_cell_length_b 14.830921
_cell_length_c 9.740658
_cell_angle_alpha 60.340048
_cell_angle_beta 75.319400
_cell_angle_gamma 80.637448
_cell_volume 623.073733
_symmetry_space_group_name_H-M "P -1"
_symmetry_group_IT_number 2
_symmetry_cell_setting 'triclinic'
loop_
_space_group_symop_operation_xyz
x,y,z
-x,-y,-z
loop_
_atom_site_type_symbol
_atom_site_label
_atom_site_fract_x
_atom_site_fract_y
_atom_site_fract_z
Si Si1 0.125792 0.536113 0.237157
Si Si2 0.828981 0.317015 0.126255
Si Si3 0.203364 0.021794 0.165632
Si Si4 0.620920 0.843829 0.176686
Si Si5 0.358135 0.183070 0.233051
Si Si6 0.804450 0.348338 0.406394
Si Si7 0.132763 0.150386 0.576134
Si Si8 0.549471 0.619585 0.317524
O O1 0.078820 0.412954 0.325244
O O2 0.864791 0.587799 0.310090
O O3 0.396546 0.557042 0.268107
O O4 0.144313 0.582071 0.047025
O O5 0.642897 0.235285 0.137132
O O6 0.692037 0.353467 0.261624
O O7 0.119919 0.262443 0.155897
O O8 0.362001 0.077825 0.223368
O O9 0.371944 0.924673 0.154525
O O10 0.146273 0.104077 0.986730
O O11 0.938267 0.970469 0.300405
O O12 0.721460 0.808545 0.339560
O O13 0.524893 0.741326 0.189871
O O14 0.329258 0.151834 0.419440
O O15 0.584432 0.401174 0.499876
O O16 0.871900 0.228329 0.528612
#
# Coordination Sequence:
#
# PCOD8033851 Si02
#       8
#     2   2   2   2   2   2   2   2
#     4  12  26  45  74 102 138 183 231 282 344 410
#     4  11  25  48  70 104 140 180 228 287 341 407
#     4  11  24  43  66 101 133 181 231 273 346 405
#     4  11  24  42  69  96 138 181 222 286 338 409
#     4  11  26  44  73 100 139 179 228 282 339 406
#     4  11  25  47  70 103 138 183 228 282 345 410
#     4  11  24  45  67  99 138 181 227 283 340 404
#     4  12  25  46  70 104 140 176 232 287 343 403
#
# _framework density 25.679144000000001
#
# number of rings (size 3 to 8) (size 9 to 14) (size 15 to 20)
#    0.000    0.750    1.250    5.625    3.500    4.500 
#    0.000    4.375    0.000    0.000    0.000    0.000 
#    0.000    0.000    0.000    0.000    0.000    0.000 
#
# Total GULP energy -198462.604270 kJ/mol
# GULP energy per Si atom -12403.912767 kJ/mol
# Density = 2.562070 g / cm^3
# Si number density = 25.679144 Si / 1000 Ang^3
#
#
#
# Elastic Constant Matrix: (Units=GPa)
#
#
# Indices 1 2 3 4 5 6 
#
# 1 58.7935 -0.0300 6.1480 -3.9769 4.1447 15.2757
# 2 -0.0300 93.5301 13.0315 -7.5238 7.3326 22.5936
# 3 6.1480 13.0315 127.6395 -25.9709 9.7772 -1.8010
# 4 -3.9769 -7.5238 -25.9709 38.3072 6.7025 -9.9998
# 5 4.1447 7.3326 9.7772 6.7025 28.9391 0.2903
# 6 15.2757 22.5936 -1.8010 -9.9998 0.2903 30.3822
#
#
#
# Elastic Compliance Matrix: (Units=1/GPa)
#
#
# Indices 1 2 3 4 5 6 
#
# 1 0.020860 0.003669 -0.001604 -0.001261 -0.002946 -0.013698
# 2 0.003669 0.014198 -0.001707 -0.000739 -0.003247 -0.012716
# 3 -0.001604 -0.001707 0.010345 0.008851 -0.004939 0.005649
# 4 -0.001261 -0.000739 0.008851 0.037533 -0.011457 0.014172
# 5 -0.002946 -0.003247 -0.004939 -0.011457 0.040128 -0.000551
# 6 -0.013698 -0.012716 0.005649 0.014172 -0.000551 0.054262
#
#
# Mechanical properties :
#
#
# Convention : Reuss Voigt Hill
#
# Bulk Modulus (GPa) = 21.68377 35.36245 28.52311
# Shear Modulus (GPa) = 26.04403 36.91327 31.47865
#
# Velocity S-wave (km/s) = 3.18812 3.79553 3.50501
# Velocity P-wave (km/s) = 4.69197 5.74533 5.24516
#
# Compressibility (1/GPa) = 0.04611745
#
# Stress axis : x y z
#
# Youngs Moduli (GPa) = 47.93955 70.43425 96.66448
#
# Poissons Ratio (x) = -0.25839 0.15501
# Poissons Ratio (y) = -0.17587 0.16504
# Poissons Ratio (z) = 0.07688 0.12026
#
# Static dielectric constant tensor:
#      x y z
#    x 4.116220 0.136530 -0.191970 
#    y 0.136530 4.825920 -0.193770 
#    z -0.191970 -0.193770 5.183680 
# 
# 
# High freq. dielectric constant tensor:
#      x y z
#    x 2.000910 0.010010 -0.006190 
#    y 0.010010 2.038640 -0.011160 
#    z -0.006190 -0.011160 2.051260 
# 
# From -- ./inp_files/47469.got.cif
#   From: 2010.06.25/outbox.cif.g09.slc.cpg/sg2_24_cif.got.tgz:47469.got - 2010.06.27 13:26:56.
