data_PCOD8033153
_publ_section_title
;
Structure prediction by ZEFSAII (Michael W. Deem and Ramdas Pophale) SiO2 
 PCOD8033153
Probable space group: P -1
;
_chemical_formula_sum "Si O2"
_cell_formula_units_Z 16
_cell_length_a 11.323643
_cell_length_b 10.653347
_cell_length_c 6.904594
_cell_angle_alpha 98.272532
_cell_angle_beta 64.843724
_cell_angle_gamma 107.684176
_cell_volume 718.199463
_symmetry_space_group_name_H-M "P -1"
_symmetry_group_IT_number 2
_symmetry_cell_setting 'triclinic'
loop_
_space_group_symop_operation_xyz
x,y,z
-x,-y,-z
loop_
_atom_site_type_symbol
_atom_site_label
_atom_site_fract_x
_atom_site_fract_y
_atom_site_fract_z
Si Si1 0.037984 0.506627 0.253427
Si Si2 0.161637 0.085134 0.128983
Si Si3 0.279664 0.386937 0.116904
Si Si4 0.505341 0.526152 0.728320
Si Si5 0.869199 0.059707 0.250738
Si Si6 0.328870 0.963615 0.275403
Si Si7 0.571372 0.206902 0.117271
Si Si8 0.140063 0.702393 0.920788
O O1 0.161672 0.442606 0.125501
O O2 0.000000 0.500000 0.500000
O O3 0.905640 0.427010 0.210449
O O4 0.085096 0.656194 0.167389
O O5 0.226100 0.234859 0.176166
O O6 0.230177 0.992924 0.185878
O O7 0.999867 0.044116 0.273897
O O8 0.188744 0.065358 0.877171
O O9 0.345984 0.465031 0.283804
O O10 0.393971 0.405617 0.875492
O O11 0.500000 0.500000 0.500000
O O12 0.476371 0.662420 0.847418
O O13 0.922372 0.185801 0.098919
O O14 0.754596 0.079836 0.479836
O O15 0.451760 0.091123 0.267148
O O16 0.386284 0.844214 0.131070
O O17 0.697796 0.241130 0.183697
#
# Coordination Sequence:
#
# PCOD8033153 Si02
#       8
#     2   2   2   2   2   2   2   2
#     4  11  26  44  70 100 135 180 221 284 344 402
#     4  11  23  45  65 104 140 170 234 281 334 419
#     4  11  24  45  68 101 136 176 232 276 338 419
#     4  11  26  45  70 100 135 185 222 285 344 402
#     4  11  25  43  72 100 132 187 221 285 344 397
#     4  11  25  46  69 101 138 182 228 284 345 396
#     4  11  24  46  67  99 141 174 232 284 329 417
#     4  11  24  44  64 102 136 169 234 273 333 404
#
# _framework density 22.277932
#
# number of rings (size 3 to 8) (size 9 to 14) (size 15 to 20)
#    0.000    1.000    5.000    0.375    5.250    0.500 
#    6.750    0.000    0.000    0.000    0.000    0.000 
#    0.000    0.000    0.000    0.000    0.000    0.000 
#
# Total GULP energy -198393.395341 kJ/mol
# GULP energy per Si atom -12399.587209 kJ/mol
# Density = 2.222723 g / cm^3
# Si number density = 22.277932 Si / 1000 Ang^3
#
#
#
# Elastic Constant Matrix: (Units=GPa)
#
#
# Indices 1 2 3 4 5 6 
#
# 1 103.9317 32.8888 36.4237 -3.8721 7.9467 18.4221
# 2 32.8888 81.3003 36.8456 -4.9028 -2.6559 4.8204
# 3 36.4237 36.8456 142.8589 -8.3147 2.2171 9.8496
# 4 -3.8721 -4.9028 -8.3147 24.7135 -3.9686 2.2243
# 5 7.9467 -2.6559 2.2171 -3.9686 31.4428 4.7483
# 6 18.4221 4.8204 9.8496 2.2243 4.7483 40.4593
#
#
#
# Elastic Compliance Matrix: (Units=1/GPa)
#
#
# Indices 1 2 3 4 5 6 
#
# 1 0.012550 -0.004061 -0.001768 0.000549 -0.002638 -0.004521
# 2 -0.004061 0.015442 -0.002901 0.001862 0.002726 0.000293
# 3 -0.001768 -0.002901 0.008388 0.002064 0.000023 -0.001008
# 4 0.000549 0.001862 0.002064 0.042923 0.005899 -0.004026
# 5 -0.002638 0.002726 0.000023 0.005899 0.033963 -0.003439
# 6 -0.004521 0.000293 -0.001008 -0.004026 -0.003439 0.027610
#
#
# Mechanical properties :
#
#
# Convention : Reuss Voigt Hill
#
# Bulk Modulus (GPa) = 52.85491 60.04525 56.45008
# Shear Modulus (GPa) = 30.36887 34.11864 32.24376
#
# Velocity S-wave (km/s) = 3.69613 3.91768 3.80852
# Velocity P-wave (km/s) = 6.48012 6.89026 6.68833
#
# Compressibility (1/GPa) = 0.01891972
#
# Stress axis : x y z
#
# Youngs Moduli (GPa) = 79.68335 64.75977 119.21477
#
# Poissons Ratio (x) = 0.26297 0.21075
# Poissons Ratio (y) = 0.32357 0.34590
# Poissons Ratio (z) = 0.14087 0.18790
#
# Static dielectric constant tensor:
#      x y z
#    x 4.377720 0.150440 0.066410 
#    y 0.150440 4.065210 -0.009210 
#    z 0.066410 -0.009210 3.716090 
# 
# 
# High freq. dielectric constant tensor:
#      x y z
#    x 1.896270 0.011900 0.009670 
#    y 0.011900 1.880990 -0.001480 
#    z 0.009670 -0.001480 1.854300 
# 
# From -- ./inp_files/71121.got.cif
#   From: 2010.06.25/outbox.cif.g09.slc.cpg/sg2_36_cif.got.tgz:71121.got - 2010.06.27 13:26:56.
