data_PCOD8033688
_publ_section_title
;
Structure prediction by ZEFSAII (Michael W. Deem and Ramdas Pophale) SiO2 
 PCOD8033688
Probable space group: P -1
;
_chemical_formula_sum "Si O2"
_cell_formula_units_Z 16
_cell_length_a 14.609574
_cell_length_b 9.203991
_cell_length_c 8.850392
_cell_angle_alpha 51.140167
_cell_angle_beta 67.812022
_cell_angle_gamma 100.006501
_cell_volume 705.262961
_symmetry_space_group_name_H-M "P -1"
_symmetry_group_IT_number 2
_symmetry_cell_setting 'triclinic'
loop_
_space_group_symop_operation_xyz
x,y,z
-x,-y,-z
loop_
_atom_site_type_symbol
_atom_site_label
_atom_site_fract_x
_atom_site_fract_y
_atom_site_fract_z
Si Si1 0.814227 0.577932 0.193045
Si Si2 0.408449 0.609961 0.093063
Si Si3 0.184927 0.013361 0.172353
Si Si4 0.793883 0.244935 0.181532
Si Si5 0.666885 0.077807 0.078962
Si Si6 0.025414 0.518920 0.650988
Si Si7 0.448093 0.632722 0.389838
Si Si8 0.328994 0.169063 0.270972
O O1 0.809556 0.457213 0.119038
O O2 0.885491 0.551190 0.302107
O O3 0.679522 0.452865 0.411189
O O4 0.865309 0.841344 0.952118
O O5 0.441945 0.574635 0.258198
O O6 0.329660 0.375057 0.206562
O O7 0.320132 0.690263 0.118136
O O8 0.539363 0.785442 0.817688
O O9 0.081839 0.784826 0.473595
O O10 0.296851 0.160284 0.120066
O O11 0.230961 0.938851 0.050714
O O12 0.677937 0.088122 0.247799
O O13 0.778082 0.066536 0.432448
O O14 0.908390 0.352853 0.931182
O O15 0.535010 0.891239 0.219965
O O16 0.000000 0.500000 0.500000
O O17 0.500000 0.500000 0.500000
#
# Coordination Sequence:
#
# PCOD8033688 Si02
#       8
#     2   2   2   2   2   2   2   2
#     4  12  27  48  78 112 147 200 247 308 378 437
#     4  11  24  40  71 107 148 199 238 302 382 439
#     4  12  25  49  73 107 147 193 248 305 370 446
#     4  12  27  48  73 108 150 193 253 312 364 438
#     4  12  24  43  71 108 146 195 243 302 372 445
#     4  12  28  53  76 107 148 195 259 313 365 442
#     4  12  23  42  73 109 153 190 243 299 370 455
#     4  11  24  45  71 108 152 190 251 307 368 451
#
# _framework density 22.686574
#
# number of rings (size 3 to 8) (size 9 to 14) (size 15 to 20)
#    0.000    0.250    5.000    3.750    0.000    5.000 
#    2.250    0.000    0.000    0.000    0.000    0.000 
#    0.000    0.000    0.000    0.000    0.000    0.000 
#
# Total GULP energy -198262.849351 kJ/mol
# GULP energy per Si atom -12391.428084 kJ/mol
# Density = 2.263494 g / cm^3
# Si number density = 22.686574 Si / 1000 Ang^3
#
#
#
# Elastic Constant Matrix: (Units=GPa)
#
#
# Indices 1 2 3 4 5 6 
#
# 1 100.3903 57.6208 33.7118 8.5688 19.4513 -5.0712
# 2 57.6208 155.1986 30.6660 1.4089 19.5069 -4.8040
# 3 33.7118 30.6660 107.7151 4.1742 6.2130 -17.4542
# 4 8.5688 1.4089 4.1742 38.2164 -4.3789 8.6914
# 5 19.4513 19.5069 6.2130 -4.3789 41.6504 0.2361
# 6 -5.0712 -4.8040 -17.4542 8.6914 0.2361 40.1076
#
#
#
# Elastic Compliance Matrix: (Units=1/GPa)
#
#
# Indices 1 2 3 4 5 6 
#
# 1 0.014598 -0.004199 -0.002808 -0.003573 -0.004813 0.000924
# 2 -0.004199 0.008418 -0.001014 0.000556 -0.001771 -0.000074
# 3 -0.002808 -0.001014 0.011300 -0.001672 -0.000103 0.004804
# 4 -0.003573 0.000556 -0.001672 0.029387 0.004790 -0.007509
# 5 -0.004813 -0.001771 -0.000103 0.004790 0.027617 -0.002066
# 6 0.000924 -0.000074 0.004804 -0.007509 -0.002066 0.028771
#
#
# Mechanical properties :
#
#
# Convention : Reuss Voigt Hill
#
# Bulk Modulus (GPa) = 54.71768 67.47792 61.09780
# Shear Modulus (GPa) = 35.15569 40.08192 37.61880
#
# Velocity S-wave (km/s) = 3.94080 4.20785 4.07651
# Velocity P-wave (km/s) = 6.69909 7.30864 7.01049
#
# Compressibility (1/GPa) = 0.01827563
#
# Stress axis : x y z
#
# Youngs Moduli (GPa) = 68.50074 118.79277 88.49399
#
# Poissons Ratio (x) = 0.49884 0.24846
# Poissons Ratio (y) = 0.28765 0.08970
# Poissons Ratio (z) = 0.19232 0.12041
#
# Static dielectric constant tensor:
#      x y z
#    x 4.173060 0.149770 0.084140 
#    y 0.149770 3.928660 0.029250 
#    z 0.084140 0.029250 4.272680 
# 
# 
# High freq. dielectric constant tensor:
#      x y z
#    x 1.891180 0.012060 0.006580 
#    y 0.012060 1.913630 -0.000950 
#    z 0.006580 -0.000950 1.897280 
# 
# From -- ./inp_files/297392.got.cif
#   From: 2010.06.25/outbox.cif.g09.slc.cpg/sg2_149_cif.got.tgz:297392.got - 2010.06.27 13:26:56.
