data_PCOD8033733
_publ_section_title
;
Structure prediction by ZEFSAII (Michael W. Deem and Ramdas Pophale) SiO2 
 PCOD8033733
Probable space group: P -1
;
_chemical_formula_sum "Si O2"
_cell_formula_units_Z 16
_cell_length_a 9.339975
_cell_length_b 8.850307
_cell_length_c 11.439576
_cell_angle_alpha 76.810416
_cell_angle_beta 103.736635
_cell_angle_gamma 129.320389
_cell_volume 706.807925
_symmetry_space_group_name_H-M "P -1"
_symmetry_group_IT_number 2
_symmetry_cell_setting 'triclinic'
loop_
_space_group_symop_operation_xyz
x,y,z
-x,-y,-z
loop_
_atom_site_type_symbol
_atom_site_label
_atom_site_fract_x
_atom_site_fract_y
_atom_site_fract_z
Si Si1 0.459081 0.172193 0.261111
Si Si2 0.168792 0.432460 0.705963
Si Si3 0.240935 0.728767 0.319062
Si Si4 0.110576 0.102729 0.882711
Si Si5 0.539668 0.850599 0.000317
Si Si6 0.298005 0.439861 0.484644
Si Si7 0.171468 0.220869 0.273668
Si Si8 0.824266 0.456844 0.906015
O O1 0.682638 0.331034 0.289656
O O2 0.397442 0.131740 0.122539
O O3 0.373269 0.271182 0.286165
O O4 0.377596 0.960400 0.336801
O O5 0.172591 0.322885 0.841148
O O6 0.218984 0.366091 0.611824
O O7 0.968167 0.378641 0.658298
O O8 0.319811 0.634921 0.422564
O O9 0.237294 0.695294 0.185118
O O10 0.288510 0.106521 0.899810
O O11 0.982546 0.000211 0.760307
O O12 0.000000 0.000000 0.000000
O O13 0.349979 0.634900 0.024876
O O14 0.500000 0.000000 0.000000
O O15 0.500000 0.500000 0.500000
O O16 0.156296 0.262351 0.398474
O O17 0.130431 0.342673 0.163549
O O18 0.000000 0.500000 0.000000
#
# Coordination Sequence:
#
# PCOD8033733 Si02
#       8
#     2   2   2   2   2   2   2   2
#     4  12  24  44  72 108 141 195 242 297 368 433
#     4  12  26  46  77 103 143 196 242 299 374 423
#     4  11  25  48  69 106 148 181 248 304 359 433
#     4  12  26  44  71 109 149 187 242 304 364 444
#     4  12  24  39  66 104 147 190 237 289 367 437
#     4  11  26  50  74 105 145 188 250 306 353 436
#     4  11  24  45  69 103 144 189 237 301 363 419
#     4  11  24  41  68 102 149 191 237 302 360 436
#
# _framework density 22.636986
#
# number of rings (size 3 to 8) (size 9 to 14) (size 15 to 20)
#    0.000    0.500    5.000    2.625    5.250    3.000 
#    0.000    0.000    0.000    0.000    0.000    0.000 
#    0.000    0.000    0.000    0.000    0.000    0.000 
#
# Total GULP energy -198426.667303 kJ/mol
# GULP energy per Si atom -12401.666706 kJ/mol
# Density = 2.258546 g / cm^3
# Si number density = 22.636986 Si / 1000 Ang^3
#
#
#
# Elastic Constant Matrix: (Units=GPa)
#
#
# Indices 1 2 3 4 5 6 
#
# 1 147.1668 47.0468 31.6836 -18.6043 17.0956 6.9158
# 2 47.0468 130.4481 31.8118 0.7911 7.2510 11.5854
# 3 31.6836 31.8118 87.6693 -10.8771 0.4172 -2.7963
# 4 -18.6043 0.7911 -10.8771 25.2494 -3.2188 -2.8159
# 5 17.0956 7.2510 0.4172 -3.2188 37.1983 3.6328
# 6 6.9158 11.5854 -2.7963 -2.8159 3.6328 40.9276
#
#
#
# Elastic Compliance Matrix: (Units=1/GPa)
#
#
# Indices 1 2 3 4 5 6 
#
# 1 0.009103 -0.002741 -0.001581 0.005692 -0.003119 -0.000202
# 2 -0.002741 0.009721 -0.003124 -0.004061 -0.000686 -0.002720
# 3 -0.001581 -0.003124 0.013841 0.005337 0.001414 0.002339
# 4 0.005692 -0.004061 0.005337 0.046860 0.001818 0.003615
# 5 -0.003119 -0.000686 0.001414 0.001818 0.028749 -0.001609
# 6 -0.000202 -0.002720 0.002339 0.003615 -0.001609 0.025789
#
#
# Mechanical properties :
#
#
# Convention : Reuss Voigt Hill
#
# Bulk Modulus (GPa) = 56.26210 65.15208 60.70709
# Shear Modulus (GPa) = 32.28347 37.65785 34.97066
#
# Velocity S-wave (km/s) = 3.78052 4.08309 3.93472
# Velocity P-wave (km/s) = 6.63057 7.14651 6.89337
#
# Compressibility (1/GPa) = 0.01777396
#
# Stress axis : x y z
#
# Youngs Moduli (GPa) = 109.85538 102.87490 72.24725
#
# Poissons Ratio (x) = 0.28195 0.11420
# Poissons Ratio (y) = 0.30109 0.22570
# Poissons Ratio (z) = 0.17364 0.32138
#
# Static dielectric constant tensor:
#      x y z
#    x 4.161010 -0.012050 -0.138740 
#    y -0.012050 4.244530 -0.000260 
#    z -0.138740 -0.000260 4.131140 
# 
# 
# High freq. dielectric constant tensor:
#      x y z
#    x 1.902330 -0.001120 0.000580 
#    y -0.001120 1.896580 0.003420 
#    z 0.000580 0.003420 1.889520 
# 
# From -- ./inp_files/350060.got.cif
#   From: 2010.06.25/outbox.cif.g09.slc.cpg/sg2_176_cif.got.tgz:350060.got - 2010.06.27 13:26:56.
