data_PCOD8033415
_publ_section_title
;
Structure prediction by ZEFSAII (Michael W. Deem and Ramdas Pophale) SiO2 
 PCOD8033415
Probable space group: P -1
;
_chemical_formula_sum "Si O2"
_cell_formula_units_Z 14
_cell_length_a 5.656520
_cell_length_b 7.708497
_cell_length_c 23.568891
_cell_angle_alpha 46.644138
_cell_angle_beta 128.322377
_cell_angle_gamma 118.758894
_cell_volume 583.454789
_symmetry_space_group_name_H-M "P -1"
_symmetry_group_IT_number 2
_symmetry_cell_setting 'triclinic'
loop_
_space_group_symop_operation_xyz
x,y,z
-x,-y,-z
loop_
_atom_site_type_symbol
_atom_site_label
_atom_site_fract_x
_atom_site_fract_y
_atom_site_fract_z
Si Si1 0.092547 0.962872 0.770820
Si Si2 0.142259 0.300689 0.530248
Si Si3 0.204828 0.569183 0.365551
Si Si4 0.783322 0.137515 0.977062
Si Si5 0.012918 0.802126 0.666357
Si Si6 0.385184 0.319519 0.072390
Si Si7 0.400999 0.399912 0.180211
O O1 0.047115 0.241622 0.711737
O O2 0.985599 0.867728 0.713403
O O3 0.439518 0.925023 0.846958
O O4 0.886974 0.794840 0.820215
O O5 0.140316 0.366609 0.449369
O O6 0.476034 0.278735 0.610216
O O7 0.000000 0.500000 0.500000
O O8 0.961601 0.040142 0.569441
O O9 0.217004 0.420885 0.341103
O O10 0.666695 0.333267 0.871650
O O11 0.021517 0.259270 0.031268
O O12 0.500000 0.000000 0.000000
O O13 0.000000 0.000000 0.000000
O O14 0.335679 0.705565 0.721089
O O15 0.494583 0.449816 0.117352
O O16 0.500000 0.500000 0.000000
#
# Coordination Sequence:
#
# PCOD8033415 Si02
#       7
#     2   2   2   2   2   2   2
#     4  11  24  46  70 107 142 190 252 309 370 454
#     4  11  23  46  70 106 142 187 242 297 367 455
#     4  11  25  44  74 101 144 190 238 302 377 439
#     4  12  28  45  70 111 146 191 260 317 377 463
#     4  11  25  45  70 106 145 189 243 303 370 450
#     4  11  24  46  74  97 141 201 244 312 382 441
#     4  11  25  46  71  98 149 190 247 304 380 445
#
# _framework density 23.995003000000001
#
# number of rings (size 3 to 8) (size 9 to 14) (size 15 to 20)
#    0.000    0.857    4.286    1.714    6.000    1.714 
#    0.000    0.000    0.000    0.000    0.000    0.000 
#    0.000    0.000    0.000    0.000    0.000    0.000 
#
# Total GULP energy -173485.647930 kJ/mol
# GULP energy per Si atom -12391.831995 kJ/mol
# Density = 2.394039 g / cm^3
# Si number density = 23.995003 Si / 1000 Ang^3
#
#
#
# Elastic Constant Matrix: (Units=GPa)
#
#
# Indices 1 2 3 4 5 6 
#
# 1 88.5831 25.3134 27.5886 -10.1819 4.1086 0.9556
# 2 25.3134 107.3569 38.7522 -21.9289 -3.0753 -13.3803
# 3 27.5886 38.7522 113.6935 -26.4723 14.1219 -2.8609
# 4 -10.1819 -21.9289 -26.4723 30.9410 -10.7702 5.7302
# 5 4.1086 -3.0753 14.1219 -10.7702 40.4819 -3.2826
# 6 0.9556 -13.3803 -2.8609 5.7302 -3.2826 47.0292
#
#
#
# Elastic Compliance Matrix: (Units=1/GPa)
#
#
# Indices 1 2 3 4 5 6 
#
# 1 0.012713 -0.002241 -0.002085 0.000814 -0.000611 -0.001165
# 2 -0.002241 0.012689 -0.002613 0.006932 0.004186 0.002944
# 3 -0.002085 -0.002613 0.012141 0.007205 -0.002387 -0.001007
# 4 0.000814 0.006932 0.007205 0.047795 0.010427 -0.002702
# 5 -0.000611 0.004186 -0.002387 0.010427 0.028835 0.001800
# 6 -0.001165 0.002944 -0.001007 -0.002702 0.001800 0.022518
#
#
# Mechanical properties :
#
#
# Convention : Reuss Voigt Hill
#
# Bulk Modulus (GPa) = 42.25686 54.77134 48.51410
# Shear Modulus (GPa) = 31.55404 38.22237 34.88821
#
# Velocity S-wave (km/s) = 3.63026 3.99548 3.81724
# Velocity P-wave (km/s) = 5.93470 6.64537 6.30006
#
# Compressibility (1/GPa) = 0.02366480
#
# Stress axis : x y z
#
# Youngs Moduli (GPa) = 78.65885 78.80696 82.36642
#
# Poissons Ratio (x) = 0.17664 0.17171
# Poissons Ratio (y) = 0.17631 0.21523
# Poissons Ratio (z) = 0.16398 0.20593
#
# Static dielectric constant tensor:
#      x y z
#    x 4.426310 -0.079620 0.356170 
#    y -0.079620 4.402270 0.098100 
#    z 0.356170 0.098100 4.735390 
# 
# 
# High freq. dielectric constant tensor:
#      x y z
#    x 1.948320 -0.013840 0.013680 
#    y -0.013840 1.941970 -0.010660 
#    z 0.013680 -0.010660 1.969550 
# 
# From -- ./inp_files/43455.got.cif
#   From: 2010.06.25/outbox.cif.g09.slc.cpg/sg2_22_cif.got.tgz:43455.got - 2010.06.27 13:26:56.
