data_PCOD8033947
_publ_section_title
;
Structure prediction by ZEFSAII (Michael W. Deem and Ramdas Pophale) SiO2 
 PCOD8033947
Probable space group: P -1
;
_chemical_formula_sum "Si O2"
_cell_formula_units_Z 16
_cell_length_a 20.336430
_cell_length_b 5.512830
_cell_length_c 20.546551
_cell_angle_alpha 105.405713
_cell_angle_beta 20.913357
_cell_angle_gamma 113.994950
_cell_volume 703.611633
_symmetry_space_group_name_H-M "P -1"
_symmetry_group_IT_number 2
_symmetry_cell_setting 'triclinic'
loop_
_space_group_symop_operation_xyz
x,y,z
-x,-y,-z
loop_
_atom_site_type_symbol
_atom_site_label
_atom_site_fract_x
_atom_site_fract_y
_atom_site_fract_z
Si Si1 0.806538 0.787744 0.773881
Si Si2 0.169280 0.754058 0.500067
Si Si3 0.259852 0.265465 0.880993
Si Si4 0.978253 0.342934 0.880889
Si Si5 0.916116 0.304990 0.791909
Si Si6 0.455589 0.683343 0.499965
Si Si7 0.354258 0.453661 0.226168
Si Si8 0.499938 0.319132 0.208089
O O1 0.801680 0.765009 0.698316
O O2 0.945888 0.664314 0.668864
O O3 0.911407 0.111419 0.722210
O O4 0.579305 0.619253 0.000048
O O5 0.283370 0.679888 0.331356
O O6 0.113359 0.600953 0.611120
O O7 0.335489 0.072579 0.388971
O O8 0.396596 0.297130 0.694446
O O9 0.411924 0.389765 0.811720
O O10 0.133300 0.450017 0.000054
O O11 0.119370 0.929124 0.000059
O O12 0.964684 0.218812 0.811654
O O13 0.214620 0.524004 0.694300
O O14 0.693318 0.289923 0.000040
O O15 0.500000 0.500000 0.500000
O O16 0.500000 0.000000 0.500000
O O17 0.355949 0.289655 0.277679
#
# Coordination Sequence:
#
# PCOD8033947 Si02
#       8
#     2   2   2   2   2   2   2   2
#     4  11  24  43  66  96 138 187 244 306 368 433
#     4  12  25  41  68  95 134 188 236 310 377 416
#     4  11  27  48  77 110 153 197 243 297 363 429
#     4  11  27  48  77 110 153 197 243 297 363 429
#     4  11  25  44  69 100 139 185 248 298 360 433
#     4  12  28  49  80 119 153 190 245 290 359 442
#     4  11  24  43  66  96 138 187 244 306 368 433
#     4  11  25  44  69 100 139 185 248 298 360 433
#
# _framework density 22.739815
#
# number of rings (size 3 to 8) (size 9 to 14) (size 15 to 20)
#    0.000    0.750    2.500    3.375    7.000    7.500 
#    0.000    0.000    0.000    0.000    0.000    0.000 
#    0.000    0.000    0.000    0.000    0.000    0.000 
#
# Total GULP energy -198256.405241 kJ/mol
# GULP energy per Si atom -12391.025328 kJ/mol
# Density = 2.268806 g / cm^3
# Si number density = 22.739815 Si / 1000 Ang^3
#
#
#
# Elastic Constant Matrix: (Units=GPa)
#
#
# Indices 1 2 3 4 5 6 
#
# 1 114.2198 52.2368 41.6580 1.7955 12.4404 6.1362
# 2 52.2368 121.5861 44.6796 -16.0771 -6.3930 -9.7312
# 3 41.6580 44.6796 130.1697 -17.7536 7.2054 -1.5936
# 4 1.7955 -16.0771 -17.7536 41.1823 -7.7273 -0.3371
# 5 12.4404 -6.3930 7.2054 -7.7273 25.8235 -12.8047
# 6 6.1362 -9.7312 -1.5936 -0.3371 -12.8047 32.9775
#
#
#
# Elastic Compliance Matrix: (Units=1/GPa)
#
#
# Indices 1 2 3 4 5 6 
#
# 1 0.017317 -0.009977 -0.002492 -0.009594 -0.020006 -0.014153
# 2 -0.009977 0.016795 -0.002136 0.009882 0.019684 0.014453
# 3 -0.002492 -0.002136 0.009717 0.003254 -0.001114 -0.000097
# 4 -0.009594 0.009882 0.003254 0.034511 0.023619 0.014382
# 5 -0.020006 0.019684 -0.001114 0.023619 0.081034 0.041183
# 6 -0.014153 0.014453 -0.000097 0.014382 0.041183 0.053355
#
#
# Mechanical properties :
#
#
# Convention : Reuss Voigt Hill
#
# Bulk Modulus (GPa) = 68.40873 71.45826 69.93349
# Shear Modulus (GPa) = 20.25825 35.15674 27.70749
#
# Velocity S-wave (km/s) = 2.98799 3.93624 3.49443
# Velocity P-wave (km/s) = 6.48480 7.22158 6.86308
#
# Compressibility (1/GPa) = 0.01461802
#
# Stress axis : x y z
#
# Youngs Moduli (GPa) = 57.74698 59.54225 102.90978
#
# Poissons Ratio (x) = 0.59408 0.25641
# Poissons Ratio (y) = 0.57617 0.21986
# Poissons Ratio (z) = 0.14388 0.12721
#
# Static dielectric constant tensor:
#      x y z
#    x 4.314610 -0.036990 -0.034810 
#    y -0.036990 4.387340 0.083980 
#    z -0.034810 0.083980 4.248540 
# 
# 
# High freq. dielectric constant tensor:
#      x y z
#    x 1.896150 -0.000400 -0.000030 
#    y -0.000400 1.896960 -0.000250 
#    z -0.000030 -0.000250 1.928840 
# 
# From -- ./inp_files/600786.got.cif
#   From: 2010.06.25/outbox.cif.g09.slc.cpg/sg2_301_cif.got.tgz:600786.got - 2010.06.27 13:26:56.
