data_PCOD8033634
_publ_section_title
;
Structure prediction by ZEFSAII (Michael W. Deem and Ramdas Pophale) SiO2 
 PCOD8033634
Probable space group: P -1
;
_chemical_formula_sum "Si O2"
_cell_formula_units_Z 16
_cell_length_a 5.132890
_cell_length_b 23.601518
_cell_length_c 11.583703
_cell_angle_alpha 146.416867
_cell_angle_beta 87.363149
_cell_angle_gamma 112.532447
_cell_volume 605.829039
_symmetry_space_group_name_H-M "P -1"
_symmetry_group_IT_number 2
_symmetry_cell_setting 'triclinic'
loop_
_space_group_symop_operation_xyz
x,y,z
-x,-y,-z
loop_
_atom_site_type_symbol
_atom_site_label
_atom_site_fract_x
_atom_site_fract_y
_atom_site_fract_z
Si Si1 0.115452 0.722316 0.936191
Si Si2 0.119063 0.142634 0.265214
Si Si3 0.801411 0.250764 0.554950
Si Si4 0.133849 0.026961 0.670687
Si Si5 0.636573 0.517227 0.210523
Si Si6 0.945191 0.757649 0.246335
Si Si7 0.858734 0.461349 0.601202
Si Si8 0.201331 0.227674 0.154127
O O1 0.477294 0.858444 0.148380
O O2 0.970137 0.746631 0.091081
O O3 0.068913 0.589973 0.734455
O O4 0.914182 0.698154 0.782431
O O5 0.477356 0.223531 0.459502
O O6 0.132556 0.212193 0.265357
O O7 0.846086 0.139630 0.337526
O O8 0.000000 0.000000 0.000000
O O9 0.144945 0.389718 0.743392
O O10 0.798812 0.250256 0.695193
O O11 0.003649 0.084366 0.856002
O O12 0.000000 0.000000 0.500000
O O13 0.020929 0.894205 0.506391
O O14 0.366418 0.533147 0.290413
O O15 0.885291 0.552045 0.367766
O O16 0.433211 0.365557 0.917203
O O17 0.608641 0.326774 0.301650
#
# Coordination Sequence:
#
# PCOD8033634 Si02
#       8
#     2   2   2   2   2   2   2   2
#     4  11  27  45  73 106 147 194 245 305 368 438
#     4  12  28  47  75 111 150 194 246 298 372 434
#     4  12  25  49  76 109 147 193 249 302 363 440
#     4  12  26  46  69 108 148 194 244 296 373 442
#     4  11  23  49  74 111 144 193 246 306 362 437
#     4  11  26  47  74 107 149 194 248 304 367 434
#     4  11  25  46  75 109 148 187 248 304 371 432
#     4  12  26  46  75 104 148 192 240 312 361 447
#
# _framework density 26.410091999999999
#
# number of rings (size 3 to 8) (size 9 to 14) (size 15 to 20)
#    0.000    0.500    3.750    3.000    7.000    3.500 
#    0.000    4.375    0.000    0.000    0.000    0.000 
#    0.000    0.000    0.000    0.000    0.000    0.000 
#
# Total GULP energy -198329.932856 kJ/mol
# GULP energy per Si atom -12395.620804 kJ/mol
# Density = 2.634998 g / cm^3
# Si number density = 26.410092 Si / 1000 Ang^3
#
#
#
# Elastic Constant Matrix: (Units=GPa)
#
#
# Indices 1 2 3 4 5 6 
#
# 1 58.8973 8.4686 -6.1652 -19.6783 13.3536 -10.9853
# 2 8.4686 120.8807 20.2845 -16.8798 13.0878 -31.8190
# 3 -6.1652 20.2845 131.3372 9.0122 2.1280 -7.1357
# 4 -19.6783 -16.8798 9.0122 47.6622 -20.2828 8.7505
# 5 13.3536 13.0878 2.1280 -20.2828 41.0195 -2.6830
# 6 -10.9853 -31.8190 -7.1357 8.7505 -2.6830 35.4267
#
#
#
# Elastic Compliance Matrix: (Units=1/GPa)
#
#
# Indices 1 2 3 4 5 6 
#
# 1 0.020926 0.001252 0.000744 0.006247 -0.003773 0.005934
# 2 0.001252 0.011520 -0.001290 0.002034 -0.002370 0.009793
# 3 0.000744 -0.001290 0.008109 -0.002507 -0.001411 0.001218
# 4 0.006247 0.002034 -0.002507 0.030641 0.012378 -0.003372
# 5 -0.003773 -0.002370 -0.001411 0.012378 0.032282 -0.004195
# 6 0.005934 0.009793 0.001218 -0.003372 -0.004195 0.039624
#
#
# Mechanical properties :
#
#
# Convention : Reuss Voigt Hill
#
# Bulk Modulus (GPa) = 23.82764 39.58789 31.70776
# Shear Modulus (GPa) = 32.11731 44.05683 38.08707
#
# Velocity S-wave (km/s) = 3.49105 4.08877 3.80167
# Velocity P-wave (km/s) = 5.02908 6.10843 5.59484
#
# Compressibility (1/GPa) = 0.04196807
#
# Stress axis : x y z
#
# Youngs Moduli (GPa) = 47.78694 86.80728 123.31732
#
# Poissons Ratio (x) = -0.10870 -0.09172
# Poissons Ratio (y) = -0.05984 0.15902
# Poissons Ratio (z) = -0.03554 0.11194
#
# Static dielectric constant tensor:
#      x y z
#    x 4.532290 -0.089440 -0.169660 
#    y -0.089440 5.125770 0.153470 
#    z -0.169660 0.153470 5.401720 
# 
# 
# High freq. dielectric constant tensor:
#      x y z
#    x 2.045210 -0.010720 -0.004580 
#    y -0.010720 2.077970 -0.000640 
#    z -0.004580 -0.000640 2.084720 
# 
# From -- ./inp_files/371063.got.cif
#   From: 2010.06.25/outbox.cif.g09.slc.cpg/sg2_186_cif.got.tgz:371063.got - 2010.06.27 13:26:56.
