data_PCOD8033292
_publ_section_title
;
Structure prediction by ZEFSAII (Michael W. Deem and Ramdas Pophale) SiO2 
 PCOD8033292
Probable space group: P -1
;
_chemical_formula_sum "Si O2"
_cell_formula_units_Z 16
_cell_length_a 17.566177
_cell_length_b 17.664405
_cell_length_c 6.378104
_cell_angle_alpha 131.491066
_cell_angle_beta 49.232885
_cell_angle_gamma 151.377291
_cell_volume 695.939974
_symmetry_space_group_name_H-M "P -1"
_symmetry_group_IT_number 2
_symmetry_cell_setting 'triclinic'
loop_
_space_group_symop_operation_xyz
x,y,z
-x,-y,-z
loop_
_atom_site_type_symbol
_atom_site_label
_atom_site_fract_x
_atom_site_fract_y
_atom_site_fract_z
Si Si1 0.823546 0.132964 0.828971
Si Si2 0.355941 0.911850 0.264011
Si Si3 0.596873 0.797315 0.785420
Si Si4 0.436507 0.750208 0.348639
Si Si5 0.096944 0.028487 0.186273
Si Si6 0.084850 0.211963 0.290211
Si Si7 0.177792 0.683700 0.545169
Si Si8 0.564030 0.441823 0.711852
O O1 0.805425 0.189519 0.762456
O O2 0.969854 0.170833 0.597967
O O3 0.659247 0.937529 0.784625
O O4 0.847128 0.222052 0.152581
O O5 0.292586 0.778502 0.302392
O O6 0.413449 0.054488 0.549938
O O7 0.500000 0.000000 0.000000
O O8 0.736611 0.881880 0.857288
O O9 0.533493 0.651849 0.500901
O O10 0.438930 0.707851 0.031927
O O11 0.268665 0.681493 0.545723
O O12 0.470233 0.683877 0.320010
O O13 0.140087 0.145702 0.149258
O O14 0.000000 0.000000 0.500000
O O15 0.995728 0.862301 0.934380
O O16 0.242137 0.405875 0.361666
O O17 0.000000 0.500000 0.500000
O O18 0.500000 0.500000 0.000000
#
# Coordination Sequence:
#
# PCOD8033292 Si02
#       8
#     2   2   2   2   2   2   2   2
#     4  12  25  45  75 106 146 193 249 302 376 453
#     4  12  24  47  77 105 144 198 255 301 367 455
#     4  12  25  45  77 106 142 199 251 302 369 454
#     4  12  26  47  75 102 147 200 246 302 374 450
#     4  11  23  45  73 102 147 195 251 303 378 448
#     4  11  27  43  72 109 146 195 247 311 375 444
#     4  12  30  47  73 114 153 193 250 316 377 446
#     4  12  29  48  72 112 151 189 250 317 373 433
#
# _framework density 22.990489
#
# number of rings (size 3 to 8) (size 9 to 14) (size 15 to 20)
#    0.000    0.250    5.000    3.375    5.250    3.500 
#    0.000    0.000    0.000    0.000    0.000    0.000 
#    0.000    0.000    0.000    0.000    0.000    0.000 
#
# Total GULP energy -198277.388996 kJ/mol
# GULP energy per Si atom -12392.336812 kJ/mol
# Density = 2.293816 g / cm^3
# Si number density = 22.990489 Si / 1000 Ang^3
#
#
#
# Elastic Constant Matrix: (Units=GPa)
#
#
# Indices 1 2 3 4 5 6 
#
# 1 121.6104 32.0875 26.0345 11.9217 0.5664 2.8411
# 2 32.0875 129.0288 51.9176 16.7609 10.0899 12.0499
# 3 26.0345 51.9176 146.4039 13.9155 2.8228 6.4522
# 4 11.9217 16.7609 13.9155 38.4953 4.1421 5.0868
# 5 0.5664 10.0899 2.8228 4.1421 35.2752 4.8029
# 6 2.8411 12.0499 6.4522 5.0868 4.8029 31.0936
#
#
#
# Elastic Compliance Matrix: (Units=1/GPa)
#
#
# Indices 1 2 3 4 5 6 
#
# 1 0.009033 -0.001740 -0.000837 -0.001832 0.000604 0.000229
# 2 -0.001740 0.010021 -0.002884 -0.002242 -0.002011 -0.002448
# 3 -0.000837 -0.002884 0.008144 -0.001429 0.000399 -0.000324
# 4 -0.001832 -0.002242 -0.001429 0.028670 -0.002170 -0.003022
# 5 0.000604 -0.002011 0.000399 -0.002170 0.029624 -0.003580
# 6 0.000229 -0.002448 -0.000324 -0.003022 -0.003580 0.034203
#
#
# Mechanical properties :
#
#
# Convention : Reuss Voigt Hill
#
# Bulk Modulus (GPa) = 61.44259 68.56913 65.00586
# Shear Modulus (GPa) = 36.75298 40.10638 38.42968
#
# Velocity S-wave (km/s) = 4.00261 4.18123 4.09289
# Velocity P-wave (km/s) = 6.93862 7.29383 7.11844
#
# Compressibility (1/GPa) = 0.01627536
#
# Stress axis : x y z
#
# Youngs Moduli (GPa) = 110.70833 99.79419 122.78272
#
# Poissons Ratio (x) = 0.17366 0.10273
# Poissons Ratio (y) = 0.19266 0.35414
# Poissons Ratio (z) = 0.09263 0.28784
#
# Static dielectric constant tensor:
#      x y z
#    x 4.315040 -0.046380 0.013760 
#    y -0.046380 4.071740 0.068580 
#    z 0.013760 0.068580 4.335590 
# 
# 
# High freq. dielectric constant tensor:
#      x y z
#    x 1.917710 0.002730 -0.002150 
#    y 0.002730 1.895490 0.003650 
#    z -0.002150 0.003650 1.921170 
# 
# From -- ./inp_files/47860.got.cif
#   From: 2010.06.25/outbox.cif.g09.slc.cpg/sg2_24_cif.got.tgz:47860.got - 2010.06.27 13:26:56.
