data_PCOD8033267
_publ_section_title
;
Structure prediction by ZEFSAII (Michael W. Deem and Ramdas Pophale) SiO2 
 PCOD8033267
Probable space group: P -1
;
_chemical_formula_sum "Si O2"
_cell_formula_units_Z 16
_cell_length_a 11.807479
_cell_length_b 9.170431
_cell_length_c 8.861504
_cell_angle_alpha 63.037287
_cell_angle_beta 82.415046
_cell_angle_gamma 60.198863
_cell_volume 736.699469
_symmetry_space_group_name_H-M "P -1"
_symmetry_group_IT_number 2
_symmetry_cell_setting 'triclinic'
loop_
_space_group_symop_operation_xyz
x,y,z
-x,-y,-z
loop_
_atom_site_type_symbol
_atom_site_label
_atom_site_fract_x
_atom_site_fract_y
_atom_site_fract_z
Si Si1 0.599727 0.482596 0.615712
Si Si2 0.548182 0.635586 0.864051
Si Si3 0.975675 0.887796 0.690523
Si Si4 0.784939 0.111896 0.885380
Si Si5 0.058257 0.414592 0.305541
Si Si6 0.212822 0.390763 0.581902
Si Si7 0.839541 0.356278 0.988037
Si Si8 0.606838 0.983267 0.111183
O O1 0.500000 0.500000 0.500000
O O2 0.535656 0.644783 0.679135
O O3 0.645347 0.282677 0.777867
O O4 0.730975 0.470455 0.530676
O O5 0.463326 0.844537 0.841642
O O6 0.500000 0.500000 0.000000
O O7 0.699028 0.544572 0.932659
O O8 0.899806 0.780536 0.695963
O O9 0.114312 0.731980 0.812517
O O10 0.888178 0.027403 0.772022
O O11 0.000000 0.000000 0.500000
O O12 0.846023 0.189030 0.963425
O O13 0.740131 0.968420 0.025783
O O14 0.156103 0.348848 0.460733
O O15 0.905404 0.502896 0.331486
O O16 0.063743 0.574504 0.129187
O O17 0.338114 0.206405 0.713113
O O18 0.500000 0.000000 0.000000
#
# Coordination Sequence:
#
# PCOD8033267 Si02
#       8
#     2   2   2   2   2   2   2   2
#     4  11  23  45  72 101 141 185 229 288 351 420
#     4  11  24  45  69 100 136 189 234 278 356 412
#     4  12  28  41  73 109 131 176 238 294 340 416
#     4  11  24  47  66 101 139 182 227 283 356 413
#     4  11  25  46  72 101 143 188 225 287 363 415
#     4  11  25  44  70 105 144 179 234 292 351 412
#     4  11  24  48  71  93 146 184 227 280 360 426
#     4  12  27  43  72 104 142 187 240 293 345 418
#
# _framework density 21.718489999999999
#
# number of rings (size 3 to 8) (size 9 to 14) (size 15 to 20)
#    0.000    0.750    5.000    3.000    7.000    2.500 
#    0.000    0.000    0.000    0.000    0.000    0.000 
#    0.000    0.000    0.000    0.000    0.000    0.000 
#
# Total GULP energy -198404.982098 kJ/mol
# GULP energy per Si atom -12400.311381 kJ/mol
# Density = 2.166906 g / cm^3
# Si number density = 21.718490 Si / 1000 Ang^3
#
#
#
# Elastic Constant Matrix: (Units=GPa)
#
#
# Indices 1 2 3 4 5 6 
#
# 1 115.3807 28.8767 42.2303 14.5019 -0.1587 11.1510
# 2 28.8767 74.8509 24.0092 2.5970 11.0676 -1.3487
# 3 42.2303 24.0092 119.9766 7.1506 10.6342 2.6650
# 4 14.5019 2.5970 7.1506 22.0442 -2.5098 -5.9936
# 5 -0.1587 11.0676 10.6342 -2.5098 52.9903 0.6043
# 6 11.1510 -1.3487 2.6650 -5.9936 0.6043 38.3930
#
#
#
# Elastic Compliance Matrix: (Units=1/GPa)
#
#
# Indices 1 2 3 4 5 6 
#
# 1 0.012129 -0.003675 -0.003070 -0.007690 0.001109 -0.004657
# 2 -0.003675 0.015751 -0.001724 0.001332 -0.002915 0.001994
# 3 -0.003070 -0.001724 0.009985 -0.001218 -0.001710 -0.000025
# 4 -0.007690 0.001332 -0.001218 0.053849 0.002371 0.010734
# 5 0.001109 -0.002915 -0.001710 0.002371 0.019942 -0.000249
# 6 -0.004657 0.001994 -0.000025 0.010734 -0.000249 0.029150
#
#
# Mechanical properties :
#
#
# Convention : Reuss Voigt Hill
#
# Bulk Modulus (GPa) = 47.78572 55.60449 51.69511
# Shear Modulus (GPa) = 30.35449 37.02498 33.68974
#
# Velocity S-wave (km/s) = 3.74255 4.13336 3.94280
# Velocity P-wave (km/s) = 6.38167 6.95971 6.67695
#
# Compressibility (1/GPa) = 0.02092675
#
# Stress axis : x y z
#
# Youngs Moduli (GPa) = 82.44984 63.48636 100.14714
#
# Poissons Ratio (x) = 0.23334 0.30747
# Poissons Ratio (y) = 0.30303 0.17263
# Poissons Ratio (z) = 0.25313 0.10943
#
# Static dielectric constant tensor:
#      x y z
#    x 4.101770 0.202270 0.076920 
#    y 0.202270 3.706330 0.007790 
#    z 0.076920 0.007790 4.154580 
# 
# 
# High freq. dielectric constant tensor:
#      x y z
#    x 1.863290 0.004960 -0.002360 
#    y 0.004960 1.854190 0.003180 
#    z -0.002360 0.003180 1.863060 
# 
# From -- ./inp_files/190348.got.cif
#   From: 2010.06.25/outbox.cif.g09.slc.cpg/sg2_96_cif.got.tgz:190348.got - 2010.06.27 13:26:56.
