data_PCOD8033681
_publ_section_title
;
Structure prediction by ZEFSAII (Michael W. Deem and Ramdas Pophale) SiO2 
 PCOD8033681
Probable space group: P -1
;
_chemical_formula_sum "Si O2"
_cell_formula_units_Z 16
_cell_length_a 13.431075
_cell_length_b 12.463500
_cell_length_c 12.235259
_cell_angle_alpha 58.587728
_cell_angle_beta 150.394979
_cell_angle_gamma 132.784559
_cell_volume 728.872111
_symmetry_space_group_name_H-M "P -1"
_symmetry_group_IT_number 2
_symmetry_cell_setting 'triclinic'
loop_
_space_group_symop_operation_xyz
x,y,z
-x,-y,-z
loop_
_atom_site_type_symbol
_atom_site_label
_atom_site_fract_x
_atom_site_fract_y
_atom_site_fract_z
Si Si1 0.707534 0.576797 0.418831
Si Si2 0.859490 0.412862 0.807051
Si Si3 0.896381 0.388236 0.364270
Si Si4 0.991178 0.913294 0.148033
Si Si5 0.269551 0.126956 0.686827
Si Si6 0.445030 0.104188 0.634967
Si Si7 0.824409 0.607580 0.045942
Si Si8 0.591454 0.891860 0.928971
O O1 0.826637 0.528753 0.647366
O O2 0.689187 0.711130 0.374928
O O3 0.893031 0.633960 0.464520
O O4 0.445081 0.436525 0.212030
O O5 0.595231 0.274948 0.652513
O O6 0.012817 0.354523 0.926091
O O7 0.000000 0.500000 0.000000
O O8 0.801360 0.459512 0.150338
O O9 0.681716 0.234895 0.289016
O O10 0.000000 0.500000 0.500000
O O11 0.957504 0.755109 0.169896
O O12 0.230430 0.015949 0.391007
O O13 0.771295 0.870138 0.040820
O O14 0.000000 0.000000 0.000000
O O15 0.370570 0.091852 0.696118
O O16 0.383757 0.114620 0.913794
O O17 0.000000 0.000000 0.500000
O O18 0.622188 0.044198 0.835709
#
# Coordination Sequence:
#
# PCOD8033681 Si02
#       8
#     2   2   2   2   2   2   2   2
#     4  11  25  45  69 102 139 177 232 284 340 411
#     4  11  27  45  71 102 137 186 229 283 343 406
#     4  11  24  40  69 103 138 180 221 281 347 410
#     4  12  27  46  72 102 140 187 234 285 348 415
#     4  12  25  45  73 102 141 184 234 286 352 412
#     4  12  27  46  71 103 141 185 235 288 344 416
#     4  11  24  45  68 100 140 177 228 282 341 410
#     4  12  26  45  71 105 141 184 231 288 351 412
#
# _framework density 21.951725
#
# number of rings (size 3 to 8) (size 9 to 14) (size 15 to 20)
#    0.000    0.500    2.500    4.875    5.250    8.000 
#    0.000    0.000    0.000    0.000    0.000    0.000 
#    0.000    0.000    0.000    0.000    0.000    0.000 
#
# Total GULP energy -198401.581271 kJ/mol
# GULP energy per Si atom -12400.098829 kJ/mol
# Density = 2.190176 g / cm^3
# Si number density = 21.951725 Si / 1000 Ang^3
#
#
#
# Elastic Constant Matrix: (Units=GPa)
#
#
# Indices 1 2 3 4 5 6 
#
# 1 122.7778 23.8229 52.4204 10.5556 -2.8785 -9.9421
# 2 23.8229 100.5359 36.4207 13.9855 -4.3886 -6.4327
# 3 52.4204 36.4207 126.1354 17.2455 -0.7971 -8.5486
# 4 10.5556 13.9855 17.2455 48.0914 1.7650 1.4109
# 5 -2.8785 -4.3886 -0.7971 1.7650 35.3240 5.9708
# 6 -9.9421 -6.4327 -8.5486 1.4109 5.9708 39.5151
#
#
#
# Elastic Compliance Matrix: (Units=1/GPa)
#
#
# Indices 1 2 3 4 5 6 
#
# 1 0.010104 -0.000818 -0.003760 -0.000692 0.000408 0.001559
# 2 -0.000818 0.011521 -0.002594 -0.002316 0.001253 0.001002
# 3 -0.003760 -0.002594 0.010616 -0.002242 -0.000459 0.001078
# 4 -0.000692 -0.002316 -0.002242 0.022517 -0.001240 -0.001653
# 5 0.000408 0.001253 -0.000459 -0.001240 0.029255 -0.004169
# 6 0.001559 0.001002 0.001078 -0.001653 -0.004169 0.026784
#
#
# Mechanical properties :
#
#
# Convention : Reuss Voigt Hill
#
# Bulk Modulus (GPa) = 55.87581 63.86415 59.86998
# Shear Modulus (GPa) = 38.13635 40.37177 39.25406
#
# Velocity S-wave (km/s) = 4.17259 4.29314 4.23330
# Velocity P-wave (km/s) = 6.98021 7.33014 7.15731
#
# Compressibility (1/GPa) = 0.01789683
#
# Stress axis : x y z
#
# Youngs Moduli (GPa) = 98.96839 86.79548 94.19429
#
# Poissons Ratio (x) = 0.07103 0.35418
# Poissons Ratio (y) = 0.08099 0.24435
# Poissons Ratio (z) = 0.37213 0.22516
#
# Static dielectric constant tensor:
#      x y z
#    x 3.785330 -0.364570 0.143910 
#    y -0.364570 3.119790 0.315790 
#    z 0.143910 0.315790 3.794270 
# 
# 
# High freq. dielectric constant tensor:
#      x y z
#    x 1.875360 -0.000900 0.001830 
#    y -0.000900 1.877240 0.004520 
#    z 0.001830 0.004520 1.873690 
# 
# From -- ./inp_files/72359.got.cif
#   From: 2010.06.25/outbox.cif.g09.slc.cpg/sg2_37_cif.got.tgz:72359.got - 2010.06.27 13:26:56.
