data_PCOD8033566
_publ_section_title
;
Structure prediction by ZEFSAII (Michael W. Deem and Ramdas Pophale) SiO2 
 PCOD8033566
Probable space group: P -1
;
_chemical_formula_sum "Si O2"
_cell_formula_units_Z 16
_cell_length_a 11.588670
_cell_length_b 14.987560
_cell_length_c 8.263396
_cell_angle_alpha 40.255275
_cell_angle_beta 127.732703
_cell_angle_gamma 124.313139
_cell_volume 720.247423
_symmetry_space_group_name_H-M "P -1"
_symmetry_group_IT_number 2
_symmetry_cell_setting 'triclinic'
loop_
_space_group_symop_operation_xyz
x,y,z
-x,-y,-z
loop_
_atom_site_type_symbol
_atom_site_label
_atom_site_fract_x
_atom_site_fract_y
_atom_site_fract_z
Si Si1 0.174070 0.681642 0.694110
Si Si2 0.415440 0.539756 0.024300
Si Si3 0.103489 0.474431 0.474913
Si Si4 0.161768 0.992268 0.719585
Si Si5 0.841440 0.025742 0.876139
Si Si6 0.623520 0.731715 0.420498
Si Si7 0.719515 0.271989 0.922454
Si Si8 0.687803 0.726320 0.127150
O O1 0.196930 0.840293 0.431930
O O2 0.003166 0.604453 0.648714
O O3 0.265470 0.594824 0.772635
O O4 0.237892 0.667940 0.946419
O O5 0.376364 0.406384 0.288080
O O6 0.516434 0.671858 0.016136
O O7 0.500000 0.500000 0.000000
O O8 0.201369 0.618606 0.295371
O O9 0.211614 0.364603 0.762603
O O10 0.000000 0.500000 0.500000
O O11 0.276944 0.136996 0.582908
O O12 0.000000 0.000000 0.500000
O O13 0.161847 0.955607 0.959969
O O14 0.221033 0.871879 0.840451
O O15 0.725299 0.892276 0.892677
O O16 0.000000 0.000000 0.000000
O O17 0.457290 0.758314 0.213280
O O18 0.708101 0.705996 0.364075
#
# Coordination Sequence:
#
# PCOD8033566 Si02
#       8
#     2   2   2   2   2   2   2   2
#     4  12  26  44  70 109 138 186 237 283 357 418
#     4  12  26  43  71 104 140 181 235 288 349 417
#     4  12  25  43  74 103 141 183 240 295 348 408
#     4  11  27  45  74 106 135 186 239 290 353 415
#     4  11  24  45  72  99 146 179 230 293 347 416
#     4  11  25  49  71  99 143 187 231 289 350 425
#     4  12  25  46  73 100 146 187 233 288 354 427
#     4  11  23  47  72  97 138 191 227 286 355 412
#
# _framework density 22.214587999999999
#
# number of rings (size 3 to 8) (size 9 to 14) (size 15 to 20)
#    0.000    0.500    3.750    4.125    5.250    2.500 
#    0.000    0.000    0.000    0.000    0.000    0.000 
#    0.000    0.000    0.000    0.000    0.000    0.000 
#
# Total GULP energy -198432.964179 kJ/mol
# GULP energy per Si atom -12402.060261 kJ/mol
# Density = 2.216403 g / cm^3
# Si number density = 22.214588 Si / 1000 Ang^3
#
#
#
# Elastic Constant Matrix: (Units=GPa)
#
#
# Indices 1 2 3 4 5 6 
#
# 1 105.1179 21.2839 29.1228 -12.3981 14.6656 4.4347
# 2 21.2839 120.2808 28.0319 -13.6407 0.1587 31.0228
# 3 29.1228 28.0319 95.3088 -8.3903 21.9510 11.5464
# 4 -12.3981 -13.6407 -8.3903 28.7039 -3.6398 5.6044
# 5 14.6656 0.1587 21.9510 -3.6398 38.4262 -1.3393
# 6 4.4347 31.0228 11.5464 5.6044 -1.3393 42.5119
#
#
#
# Elastic Compliance Matrix: (Units=1/GPa)
#
#
# Indices 1 2 3 4 5 6 
#
# 1 0.011101 -0.000966 -0.002131 0.003451 -0.002703 -0.000414
# 2 -0.000966 0.012009 -0.001970 0.006686 0.001766 -0.008954
# 3 -0.002131 -0.001970 0.013796 0.001787 -0.006978 -0.002542
# 4 0.003451 0.006686 0.001787 0.042389 0.001257 -0.011273
# 5 -0.002703 0.001766 -0.006978 0.001257 0.031213 0.001706
# 6 -0.000414 -0.008954 -0.002542 -0.011273 0.001706 0.032330
#
#
# Mechanical properties :
#
#
# Convention : Reuss Voigt Hill
#
# Bulk Modulus (GPa) = 37.35488 53.06495 45.20992
# Shear Modulus (GPa) = 30.88391 38.07965 34.48178
#
# Velocity S-wave (km/s) = 3.73266 4.14475 3.94409
# Velocity P-wave (km/s) = 5.95222 6.84431 6.41379
#
# Compressibility (1/GPa) = 0.02677026
#
# Stress axis : x y z
#
# Youngs Moduli (GPa) = 90.08392 83.26959 72.48716
#
# Poissons Ratio (x) = 0.08042 0.15450
# Poissons Ratio (y) = 0.08700 0.14283
# Poissons Ratio (z) = 0.19201 0.16408
#
# Static dielectric constant tensor:
#      x y z
#    x 3.554270 0.642130 -0.434000 
#    y 0.642130 3.573970 0.755290 
#    z -0.434000 0.755290 3.406210 
# 
# 
# High freq. dielectric constant tensor:
#      x y z
#    x 1.891170 0.003330 0.008320 
#    y 0.003330 1.895240 -0.006440 
#    z 0.008320 -0.006440 1.869940 
# 
# From -- ./inp_files/218269.got.cif
#   From: 2010.06.25/outbox.cif.g09.slc.cpg/sg2_110_cif.got.tgz:218269.got - 2010.06.27 13:26:56.
