data_PCOD8033313
_publ_section_title
;
Structure prediction by ZEFSAII (Michael W. Deem and Ramdas Pophale) SiO2 
 PCOD8033313
Probable space group: P -1
;
_chemical_formula_sum "Si O2"
_cell_formula_units_Z 16
_cell_length_a 8.952634
_cell_length_b 12.074161
_cell_length_c 9.767736
_cell_angle_alpha 72.904068
_cell_angle_beta 71.949537
_cell_angle_gamma 48.116509
_cell_volume 741.715070
_symmetry_space_group_name_H-M "P -1"
_symmetry_group_IT_number 2
_symmetry_cell_setting 'triclinic'
loop_
_space_group_symop_operation_xyz
x,y,z
-x,-y,-z
loop_
_atom_site_type_symbol
_atom_site_label
_atom_site_fract_x
_atom_site_fract_y
_atom_site_fract_z
Si Si1 0.478528 0.101713 0.351391
Si Si2 0.538119 0.915167 0.157302
Si Si3 0.666515 0.408514 0.602654
Si Si4 0.594305 0.453016 0.140581
Si Si5 0.220364 0.881925 0.343495
Si Si6 0.820783 0.570291 0.133039
Si Si7 0.213176 0.847401 0.679056
Si Si8 0.980948 0.605812 0.583850
O O1 0.606570 0.155594 0.322650
O O2 0.243394 0.250550 0.360003
O O3 0.500000 0.000000 0.500000
O O4 0.578009 0.997469 0.226283
O O5 0.343116 0.942332 0.267508
O O6 0.717637 0.741619 0.136331
O O7 0.500000 0.000000 0.000000
O O8 0.500000 0.500000 0.500000
O O9 0.584245 0.513262 0.721833
O O10 0.669293 0.275174 0.705845
O O11 0.892449 0.342310 0.522628
O O12 0.666271 0.548533 0.123119
O O13 0.774860 0.276888 0.188589
O O14 0.500000 0.500000 0.000000
O O15 0.215870 0.834397 0.518050
O O16 0.006306 0.996007 0.286777
O O17 0.907621 0.489999 0.280234
O O18 0.000000 0.500000 0.000000
O O19 0.000000 0.500000 0.500000
#
# Coordination Sequence:
#
# PCOD8033313 Si02
#       8
#     2   2   2   2   2   2   2   2
#     4  12  25  45  71 109 149 183 238 297 360 432
#     4  12  27  46  72 103 147 188 235 295 367 436
#     4  12  22  45  74 104 143 187 246 301 353 432
#     4  12  28  47  73 104 146 190 244 304 365 428
#     4  11  23  45  74 105 136 191 241 293 364 424
#     4  12  28  50  71 103 145 196 240 297 368 437
#     4  11  25  44  74 105 142 187 240 299 357 430
#     4  12  26  43  76 112 142 192 245 298 360 429
#
# _framework density 21.571626999999999
#
# number of rings (size 3 to 8) (size 9 to 14) (size 15 to 20)
#    0.000    0.250    5.000    3.000   10.500    0.000 
#    0.000    1.250    0.000    0.000    0.000    0.000 
#    0.000    0.000    0.000    0.000    0.000    0.000 
#
# Total GULP energy -198267.386495 kJ/mol
# GULP energy per Si atom -12391.711656 kJ/mol
# Density = 2.152253 g / cm^3
# Si number density = 21.571627 Si / 1000 Ang^3
#
#
#
# Elastic Constant Matrix: (Units=GPa)
#
#
# Indices 1 2 3 4 5 6 
#
# 1 103.8490 42.2724 26.4005 6.0556 10.1559 -6.4889
# 2 42.2724 155.3566 45.4204 -1.7299 14.3950 -6.8546
# 3 26.4005 45.4204 139.5793 -7.2240 22.5456 -3.8931
# 4 6.0556 -1.7299 -7.2240 42.3959 -1.0998 -0.5213
# 5 10.1559 14.3950 22.5456 -1.0998 37.8016 1.7024
# 6 -6.4889 -6.8546 -3.8931 -0.5213 1.7024 38.1472
#
#
#
# Elastic Compliance Matrix: (Units=1/GPa)
#
#
# Indices 1 2 3 4 5 6 
#
# 1 0.011307 -0.002570 -0.001120 -0.001933 -0.001510 0.001388
# 2 -0.002570 0.007823 -0.001819 0.000355 -0.001231 0.000843
# 3 -0.001120 -0.001819 0.008739 0.001473 -0.004202 0.000582
# 4 -0.001933 0.000355 0.001473 0.024136 0.000199 0.000206
# 5 -0.001510 -0.001231 -0.004202 0.000199 0.029941 -0.002240
# 6 0.001388 0.000843 0.000582 0.000206 -0.002240 0.026764
#
#
# Mechanical properties :
#
#
# Convention : Reuss Voigt Hill
#
# Bulk Modulus (GPa) = 59.33745 69.66353 64.50049
# Shear Modulus (GPa) = 39.88967 42.64840 41.26904
#
# Velocity S-wave (km/s) = 4.30487 4.45124 4.37866
# Velocity P-wave (km/s) = 7.23022 7.66695 7.45179
#
# Compressibility (1/GPa) = 0.01685276
#
# Stress axis : x y z
#
# Youngs Moduli (GPa) = 88.43943 127.82818 114.42544
#
# Poissons Ratio (x) = 0.32847 0.12814
# Poissons Ratio (y) = 0.22725 0.20813
# Poissons Ratio (z) = 0.09904 0.23250
#
# Static dielectric constant tensor:
#      x y z
#    x 3.913780 -0.061990 0.089400 
#    y -0.061990 4.050450 0.054640 
#    z 0.089400 0.054640 3.317920 
# 
# 
# High freq. dielectric constant tensor:
#      x y z
#    x 1.849770 0.003080 -0.003080 
#    y 0.003080 1.871780 -0.002270 
#    z -0.003080 -0.002270 1.848600 
# 
# From -- ./inp_files/186629.got.cif
#   From: 2010.06.25/outbox.cif.g09.slc.cpg/sg2_94_cif.got.tgz:186629.got - 2010.06.27 13:26:56.
