data_PCOD8033190
_publ_section_title
;
Structure prediction by ZEFSAII (Michael W. Deem and Ramdas Pophale) SiO2 
 PCOD8033190
Probable space group: P -1
;
_chemical_formula_sum "Si O2"
_cell_formula_units_Z 12
_cell_length_a 13.218982
_cell_length_b 6.784783
_cell_length_c 15.519064
_cell_angle_alpha 114.568094
_cell_angle_beta 153.166324
_cell_angle_gamma 62.265805
_cell_volume 556.112826
_symmetry_space_group_name_H-M "P -1"
_symmetry_group_IT_number 2
_symmetry_cell_setting 'triclinic'
loop_
_space_group_symop_operation_xyz
x,y,z
-x,-y,-z
loop_
_atom_site_type_symbol
_atom_site_label
_atom_site_fract_x
_atom_site_fract_y
_atom_site_fract_z
Si Si1 0.535538 0.486540 0.664033
Si Si2 0.044935 0.742221 0.586641
Si Si3 0.165098 0.801509 0.039494
Si Si4 0.823674 0.028545 0.111035
Si Si5 0.131774 0.549661 0.242258
Si Si6 0.626731 0.110301 0.265042
O O1 0.595594 0.282038 0.741062
O O2 0.325702 0.446643 0.440663
O O3 0.761286 0.482210 0.777341
O O4 0.473554 0.727206 0.703756
O O5 0.099538 0.793257 0.736039
O O6 0.267429 0.756231 0.702241
O O7 0.000000 0.500000 0.500000
O O8 0.819069 0.909055 0.410926
O O9 0.219309 0.872169 0.998892
O O10 0.064687 0.582883 0.920313
O O11 0.000000 0.000000 0.000000
O O12 0.027359 0.808238 0.228084
O O13 0.583173 0.979762 0.952097
#
# Coordination Sequence:
#
# PCOD8033190 Si02
#       6
#     2   2   2   2   2   2
#     4  11  23  45  69 100 142 185 217 283 341 411
#     4  11  28  48  70 101 134 179 242 292 337 401
#     4  12  25  40  69 109 144 175 228 279 339 418
#     4  12  25  45  74 103 137 184 229 282 351 410
#     4  11  24  44  70 101 144 182 226 273 350 416
#     4  11  25  46  73  96 139 182 228 286 348 405
#
# _framework density 21.578354000000001
#
# number of rings (size 3 to 8) (size 9 to 14) (size 15 to 20)
#    0.000    0.667    5.000    2.000    4.667    1.333 
#    0.000    0.000    0.000    0.000    0.000    0.000 
#    0.000    0.000    0.000    0.000    0.000    0.000 
#
# Total GULP energy -148868.739607 kJ/mol
# GULP energy per Si atom -12405.728301 kJ/mol
# Density = 2.152924 g / cm^3
# Si number density = 21.578354 Si / 1000 Ang^3
#
#
#
# Elastic Constant Matrix: (Units=GPa)
#
#
# Indices 1 2 3 4 5 6 
#
# 1 127.0040 70.7860 62.7782 3.1595 -1.8811 2.5726
# 2 70.7860 140.4362 50.0464 2.2646 -8.3128 0.6336
# 3 62.7782 50.0464 73.1992 -9.6907 6.2670 3.6292
# 4 3.1595 2.2646 -9.6907 39.0826 -1.1874 -8.8621
# 5 -1.8811 -8.3128 6.2670 -1.1874 30.0369 -2.0172
# 6 2.5726 0.6336 3.6292 -8.8621 -2.0172 40.5536
#
#
#
# Elastic Compliance Matrix: (Units=1/GPa)
#
#
# Indices 1 2 3 4 5 6 
#
# 1 0.015892 -0.003566 -0.011898 -0.004111 0.002283 -0.000673
# 2 -0.003566 0.010922 -0.004934 -0.001365 0.003801 0.000388
# 3 -0.011898 -0.004934 0.029006 0.008114 -0.007867 -0.000382
# 4 -0.004111 -0.001365 0.008114 0.029331 -0.000771 0.005927
# 5 0.002283 0.003801 -0.007867 -0.000771 0.036242 0.002134
# 6 -0.000673 0.000388 -0.000382 0.005927 0.002134 0.026131
#
#
# Mechanical properties :
#
#
# Convention : Reuss Voigt Hill
#
# Bulk Modulus (GPa) = 66.56350 78.65120 72.60735
# Shear Modulus (GPa) = 25.86281 32.40320 29.13300
#
# Velocity S-wave (km/s) = 3.46577 3.87932 3.67836
# Velocity P-wave (km/s) = 6.85053 7.52288 7.19456
#
# Compressibility (1/GPa) = 0.01502325
#
# Stress axis : x y z
#
# Youngs Moduli (GPa) = 62.92397 91.56141 34.47556
#
# Poissons Ratio (x) = 0.32649 0.41020
# Poissons Ratio (y) = 0.22437 0.17011
# Poissons Ratio (z) = 0.74868 0.45179
#
# Static dielectric constant tensor:
#      x y z
#    x 4.007830 -0.017460 -0.045780 
#    y -0.017460 3.894630 -0.192570 
#    z -0.045780 -0.192570 4.106540 
# 
# 
# High freq. dielectric constant tensor:
#      x y z
#    x 1.853440 -0.005850 -0.004130 
#    y -0.005850 1.851240 -0.011360 
#    z -0.004130 -0.011360 1.862180 
# 
# From -- ./inp_files/27998.got.cif
#   From: 2010.06.25/outbox.cif.g09.slc.cpg/sg2_14_cif.got.tgz:27998.got - 2010.06.27 13:26:56.
