data_PCOD8033526
_publ_section_title
;
Structure prediction by ZEFSAII (Michael W. Deem and Ramdas Pophale) SiO2 
 PCOD8033526
Probable space group: P -1
;
_chemical_formula_sum "Si O2"
_cell_formula_units_Z 16
_cell_length_a 9.755605
_cell_length_b 21.636978
_cell_length_c 11.888764
_cell_angle_alpha 151.791017
_cell_angle_beta 45.427491
_cell_angle_gamma 144.888780
_cell_volume 680.589252
_symmetry_space_group_name_H-M "P -1"
_symmetry_group_IT_number 2
_symmetry_cell_setting 'triclinic'
loop_
_space_group_symop_operation_xyz
x,y,z
-x,-y,-z
loop_
_atom_site_type_symbol
_atom_site_label
_atom_site_fract_x
_atom_site_fract_y
_atom_site_fract_z
Si Si1 0.835436 0.346761 0.924186
Si Si2 0.756642 0.151647 0.120116
Si Si3 0.971641 0.858425 0.863492
Si Si4 0.804023 0.710610 0.066737
Si Si5 0.628735 0.392059 0.544576
Si Si6 0.903578 0.801611 0.408022
Si Si7 0.344827 0.157185 0.800614
Si Si8 0.272722 0.485288 0.568766
O O1 0.600298 0.196691 0.751982
O O2 0.021181 0.314425 0.802243
O O3 0.752982 0.388314 0.150588
O O4 0.000000 0.500000 0.000000
O O5 0.758122 0.310441 0.378302
O O6 0.801490 0.086426 0.103080
O O7 0.939948 0.177115 0.961203
O O8 0.500000 0.000000 0.000000
O O9 0.930932 0.701802 0.574343
O O10 0.735322 0.785667 0.957225
O O11 0.000000 0.000000 0.000000
O O12 0.845504 0.788668 0.289546
O O13 0.613594 0.730955 0.149838
O O14 0.691730 0.520021 0.814086
O O15 0.341104 0.258991 0.483040
O O16 0.733425 0.487494 0.518659
O O17 0.129109 0.973087 0.599154
O O18 0.500000 0.500000 0.500000
#
# Coordination Sequence:
#
# PCOD8033526 Si02
#       8
#     2   2   2   2   2   2   2   2
#     4  12  27  46  69 107 142 188 240 288 361 428
#     4  11  25  44  71 106 146 187 242 302 355 432
#     4  11  26  45  75 106 140 186 242 298 363 421
#     4  11  23  47  69 103 141 187 243 297 360 423
#     4  12  24  46  75 106 145 188 248 296 359 430
#     4  12  27  43  74 102 147 192 232 298 364 430
#     4  11  24  48  68 101 145 188 238 299 354 430
#     4  12  24  46  77 104 143 190 240 304 353 428
#
# _framework density 23.509039999999999
#
# number of rings (size 3 to 8) (size 9 to 14) (size 15 to 20)
#    0.000    0.500    3.750    5.250    7.000    1.000 
#    2.250    0.000    0.000    0.000    0.000    0.000 
#    0.000    0.000    0.000    0.000    0.000    0.000 
#
# Total GULP energy -198224.135638 kJ/mol
# GULP energy per Si atom -12389.008477 kJ/mol
# Density = 2.345553 g / cm^3
# Si number density = 23.509040 Si / 1000 Ang^3
#
#
#
# Elastic Constant Matrix: (Units=GPa)
#
#
# Indices 1 2 3 4 5 6 
#
# 1 139.5785 44.2338 24.2272 2.1929 -18.4898 -5.5440
# 2 44.2338 77.7721 21.8159 16.9091 5.0127 4.2557
# 3 24.2272 21.8159 83.7063 8.8417 0.7204 -14.6057
# 4 2.1929 16.9091 8.8417 40.8958 5.2709 -3.8675
# 5 -18.4898 5.0127 0.7204 5.2709 48.0937 12.4261
# 6 -5.5440 4.2557 -14.6057 -3.8675 12.4261 39.8066
#
#
#
# Elastic Compliance Matrix: (Units=1/GPa)
#
#
# Indices 1 2 3 4 5 6 
#
# 1 0.009794 -0.005807 -0.001480 0.001694 0.004125 0.000319
# 2 -0.005807 0.018921 -0.003187 -0.006886 -0.002388 -0.003925
# 3 -0.001480 -0.003187 0.014346 -0.000905 -0.001876 0.005896
# 4 0.001694 -0.006886 -0.000905 0.028168 -0.002803 0.004252
# 5 0.004125 -0.002388 -0.001876 -0.002803 0.025014 -0.007939
# 6 0.000319 -0.003925 0.005896 0.004252 -0.007939 0.030640
#
#
# Mechanical properties :
#
#
# Convention : Reuss Voigt Hill
#
# Bulk Modulus (GPa) = 45.22415 53.51231 49.36823
# Shear Modulus (GPa) = 32.21597 39.81124 36.01361
#
# Velocity S-wave (km/s) = 3.70586 4.11961 3.91820
# Velocity P-wave (km/s) = 6.13106 6.74093 6.44321
#
# Compressibility (1/GPa) = 0.02211208
#
# Stress axis : x y z
#
# Youngs Moduli (GPa) = 102.10262 52.85191 69.70502
#
# Poissons Ratio (x) = 0.30691 0.10317
# Poissons Ratio (y) = 0.59291 0.22218
# Poissons Ratio (z) = 0.15112 0.16846
#
# Static dielectric constant tensor:
#      x y z
#    x 4.539470 0.070780 -0.189970 
#    y 0.070780 4.191450 0.025640 
#    z -0.189970 0.025640 4.799440 
# 
# 
# High freq. dielectric constant tensor:
#      x y z
#    x 1.951600 0.010430 -0.003650 
#    y 0.010430 1.919640 0.015350 
#    z -0.003650 0.015350 1.938450 
# 
# From -- ./inp_files/205899.got.cif
#   From: 2010.06.25/outbox.cif.g09.slc.cpg/sg2_103_cif.got.tgz:205899.got - 2010.06.27 13:26:56.
