data_PCOD8033991
_publ_section_title
;
Structure prediction by ZEFSAII (Michael W. Deem and Ramdas Pophale) SiO2 
 PCOD8033991
Probable space group: P -1
;
_chemical_formula_sum "Si O2"
_cell_formula_units_Z 16
_cell_length_a 21.289542
_cell_length_b 6.279927
_cell_length_c 9.238614
_cell_angle_alpha 100.624631
_cell_angle_beta 136.932907
_cell_angle_gamma 59.316705
_cell_volume 687.011475
_symmetry_space_group_name_H-M "P -1"
_symmetry_group_IT_number 2
_symmetry_cell_setting 'triclinic'
loop_
_space_group_symop_operation_xyz
x,y,z
-x,-y,-z
loop_
_atom_site_type_symbol
_atom_site_label
_atom_site_fract_x
_atom_site_fract_y
_atom_site_fract_z
Si Si1 0.440754 0.250553 0.826094
Si Si2 0.721338 0.558050 0.665983
Si Si3 0.894902 0.005601 0.773188
Si Si4 0.860819 0.779825 0.423911
Si Si5 0.635646 0.277739 0.047831
Si Si6 0.823464 0.854541 0.881020
Si Si7 0.628369 0.379895 0.717437
Si Si8 0.015690 0.210257 0.626430
O O1 0.365931 0.232211 0.574252
O O2 0.523334 0.290497 0.875665
O O3 0.365143 0.507934 0.827815
O O4 0.500000 0.000000 0.000000
O O5 0.783316 0.284749 0.652865
O O6 0.814610 0.612733 0.874509
O O7 0.660813 0.562395 0.713710
O O8 0.910281 0.910914 0.621778
O O9 0.872802 0.809377 0.796778
O O10 0.000000 0.000000 0.000000
O O11 0.910900 0.734432 0.344322
O O12 0.898748 0.487198 0.501967
O O13 0.728906 0.983363 0.220218
O O14 0.658421 0.338179 0.932597
O O15 0.697794 0.103161 0.719046
O O16 0.908649 0.897069 0.117231
O O17 0.500000 0.500000 0.500000
O O18 0.000000 0.000000 0.500000
#
# Coordination Sequence:
#
# PCOD8033991 Si02
#       8
#     2   2   2   2   2   2   2   2
#     4  11  26  42  72 107 141 182 235 290 353 426
#     4  11  25  44  70 105 142 185 238 293 355 422
#     4  11  24  45  71  99 140 186 232 292 358 426
#     4  11  24  43  69 101 135 182 231 290 351 418
#     4  11  24  48  69 102 143 184 238 287 349 427
#     4  11  26  44  68 104 139 182 241 294 353 430
#     4  11  24  45  70  99 144 194 234 291 347 428
#     4  11  25  46  68  98 139 182 235 291 349 425
#
# _framework density 23.289275
#
# number of rings (size 3 to 8) (size 9 to 14) (size 15 to 20)
#    0.000    1.000    3.750    1.500    3.500    8.500 
#    0.000    0.000    0.000    0.000    0.000    0.000 
#    0.000    0.000    0.000    0.000    0.000    0.000 
#
# Total GULP energy -198286.547361 kJ/mol
# GULP energy per Si atom -12392.909210 kJ/mol
# Density = 2.323627 g / cm^3
# Si number density = 23.289275 Si / 1000 Ang^3
#
#
#
# Elastic Constant Matrix: (Units=GPa)
#
#
# Indices 1 2 3 4 5 6 
#
# 1 106.9006 27.1645 24.5825 -4.8327 -12.6174 6.8080
# 2 27.1645 116.1494 39.0426 -6.7522 8.2108 -2.3189
# 3 24.5825 39.0426 112.3610 -2.0489 0.3544 0.8139
# 4 -4.8327 -6.7522 -2.0489 39.6183 -2.4664 6.6091
# 5 -12.6174 8.2108 0.3544 -2.4664 32.3861 -0.5757
# 6 6.8080 -2.3189 0.8139 6.6091 -0.5757 41.0294
#
#
#
# Elastic Compliance Matrix: (Units=1/GPa)
#
#
# Indices 1 2 3 4 5 6 
#
# 1 0.011121 -0.002379 -0.001579 0.001537 0.005032 -0.002125
# 2 -0.002379 0.010533 -0.003117 0.000987 -0.003473 0.000844
# 3 -0.001579 -0.003117 0.010326 -0.000172 0.000047 -0.000091
# 4 0.001537 0.000987 -0.000172 0.026469 0.002288 -0.004427
# 5 0.005032 -0.003473 0.000047 0.002288 0.033876 -0.000925
# 6 -0.002125 0.000844 -0.000091 -0.004427 -0.000925 0.025475
#
#
# Mechanical properties :
#
#
# Convention : Reuss Voigt Hill
#
# Bulk Modulus (GPa) = 56.08295 57.44337 56.76316
# Shear Modulus (GPa) = 36.26012 38.91483 37.58747
#
# Velocity S-wave (km/s) = 3.95010 4.09214 4.02174
# Velocity P-wave (km/s) = 6.70355 6.85902 6.78173
#
# Compressibility (1/GPa) = 0.01783073
#
# Stress axis : x y z
#
# Youngs Moduli (GPa) = 89.92076 94.93597 96.84592
#
# Poissons Ratio (x) = 0.22585 0.15290
# Poissons Ratio (y) = 0.21392 0.30185
# Poissons Ratio (z) = 0.14197 0.29589
#
# Static dielectric constant tensor:
#      x y z
#    x 4.298310 -0.129360 -0.202060 
#    y -0.129360 4.199820 -0.255520 
#    z -0.202060 -0.255520 4.216310 
# 
# 
# High freq. dielectric constant tensor:
#      x y z
#    x 1.929070 -0.011170 -0.006900 
#    y -0.011170 1.916880 -0.008810 
#    z -0.006900 -0.008810 1.924820 
# 
# From -- ./inp_files/340506.got.cif
#   From: 2010.06.25/outbox.cif.g09.slc.cpg/sg2_171_cif.got.tgz:340506.got - 2010.06.27 13:26:56.
