data_PCOD8033462
_publ_section_title
;
Structure prediction by ZEFSAII (Michael W. Deem and Ramdas Pophale) SiO2 
 PCOD8033462
Probable space group: P -1
;
_chemical_formula_sum "Si O2"
_cell_formula_units_Z 16
_cell_length_a 9.390045
_cell_length_b 15.023888
_cell_length_c 10.157541
_cell_angle_alpha 65.125274
_cell_angle_beta 135.999388
_cell_angle_gamma 85.236438
_cell_volume 714.299995
_symmetry_space_group_name_H-M "P -1"
_symmetry_group_IT_number 2
_symmetry_cell_setting 'triclinic'
loop_
_space_group_symop_operation_xyz
x,y,z
-x,-y,-z
loop_
_atom_site_type_symbol
_atom_site_label
_atom_site_fract_x
_atom_site_fract_y
_atom_site_fract_z
Si Si1 0.383031 0.461501 0.698896
Si Si2 0.350897 0.105600 0.944300
Si Si3 0.986555 0.614644 0.549314
Si Si4 0.931031 0.093805 0.778327
Si Si5 0.944459 0.251546 0.116953
Si Si6 0.135541 0.385150 0.254190
Si Si7 0.661007 0.327066 0.617499
Si Si8 0.187711 0.980323 0.523784
O O1 0.192129 0.426997 0.569871
O O2 0.371409 0.550810 0.525151
O O3 0.265866 0.537644 0.710583
O O4 0.682231 0.339662 0.976759
O O5 0.527568 0.108263 0.168498
O O6 0.169924 0.239990 0.673765
O O7 0.197231 0.069392 0.943539
O O8 0.500000 0.000000 0.000000
O O9 0.047179 0.589033 0.760091
O O10 0.724463 0.236689 0.595088
O O11 0.821826 0.077604 0.582032
O O12 0.000000 0.000000 0.000000
O O13 0.150127 0.280004 0.247954
O O14 0.109478 0.113172 0.360499
O O15 0.880729 0.258437 0.916583
O O16 0.405302 0.354996 0.497701
O O17 0.000000 0.500000 0.000000
O O18 0.000000 0.000000 0.500000
#
# Coordination Sequence:
#
# PCOD8033462 Si02
#       8
#     2   2   2   2   2   2   2   2
#     4  11  23  46  73 102 142 191 235 297 369 426
#     4  12  26  49  77 105 149 194 246 303 365 434
#     4  11  25  46  73 107 145 190 240 307 366 428
#     4  12  28  49  74 107 150 194 242 311 365 425
#     4  12  25  44  75 102 146 191 237 298 364 435
#     4  12  26  45  72 108 140 190 243 288 370 446
#     4  12  25  50  71 103 151 187 237 303 368 432
#     4  12  27  46  74 111 141 194 250 291 368 440
#
# _framework density 22.399553999999998
#
# number of rings (size 3 to 8) (size 9 to 14) (size 15 to 20)
#    0.000    0.250    6.250    2.625    3.500    2.000 
#    6.750    0.000    0.000    0.000    0.000    0.000 
#    0.000    0.000    0.000    0.000    0.000    0.000 
#
# Total GULP energy -198322.797861 kJ/mol
# GULP energy per Si atom -12395.174866 kJ/mol
# Density = 2.234857 g / cm^3
# Si number density = 22.399554 Si / 1000 Ang^3
#
#
#
# Elastic Constant Matrix: (Units=GPa)
#
#
# Indices 1 2 3 4 5 6 
#
# 1 129.9264 27.4513 13.5684 4.6558 -14.9580 0.8917
# 2 27.4513 96.9822 0.2159 1.0052 -13.5713 0.6033
# 3 13.5684 0.2159 48.1300 9.5973 -21.9028 -3.9345
# 4 4.6558 1.0052 9.5973 45.1694 -0.6608 2.0421
# 5 -14.9580 -13.5713 -21.9028 -0.6608 38.3050 1.1933
# 6 0.8917 0.6033 -3.9345 2.0421 1.1933 48.5634
#
#
#
# Elastic Compliance Matrix: (Units=1/GPa)
#
#
# Indices 1 2 3 4 5 6 
#
# 1 0.008529 -0.002171 -0.001568 -0.000461 0.001666 -0.000278
# 2 -0.002171 0.011614 0.002921 -0.000585 0.004926 0.000036
# 3 -0.001568 0.002921 0.030763 -0.006283 0.017833 0.002311
# 4 -0.000461 -0.000585 -0.006283 0.023546 -0.003530 -0.001397
# 5 0.001666 0.004926 0.017833 -0.003530 0.038621 0.000552
# 6 -0.000278 0.000036 0.002311 -0.001397 0.000552 0.020829
#
#
# Mechanical properties :
#
#
# Convention : Reuss Voigt Hill
#
# Bulk Modulus (GPa) = 20.29545 39.72331 30.00938
# Shear Modulus (GPa) = 32.90323 41.99442 37.44882
#
# Velocity S-wave (km/s) = 3.83681 4.33458 4.09327
# Velocity P-wave (km/s) = 5.35803 6.54400 5.98049
#
# Compressibility (1/GPa) = 0.04927212
#
# Stress axis : x y z
#
# Youngs Moduli (GPa) = 117.24298 86.09976 32.50661
#
# Poissons Ratio (x) = 0.18694 0.05096
# Poissons Ratio (y) = 0.25455 -0.09496
# Poissons Ratio (z) = 0.18378 -0.25153
#
# Static dielectric constant tensor:
#      x y z
#    x 1.629550 -1.109010 -1.784960 
#    y -1.109010 4.286260 -0.393370 
#    z -1.784960 -0.393370 2.850960 
# 
# 
# High freq. dielectric constant tensor:
#      x y z
#    x 1.900680 0.008380 -0.008900 
#    y 0.008380 1.904040 0.004570 
#    z -0.008900 0.004570 1.873540 
# 
# From -- ./inp_files/206538.got.cif
#   From: 2010.06.25/outbox.cif.g09.slc.cpg/sg2_104_cif.got.tgz:206538.got - 2010.06.27 13:26:56.
