data_PCOD8033003
_publ_section_title
;
Structure prediction by ZEFSAII (Michael W. Deem and Ramdas Pophale) SiO2 
 PCOD8033003
Probable space group: P -1
;
_chemical_formula_sum "Si O2"
_cell_formula_units_Z 16
_cell_length_a 8.427885
_cell_length_b 11.363479
_cell_length_c 11.282032
_cell_angle_alpha 55.429436
_cell_angle_beta 58.831890
_cell_angle_gamma 84.709278
_cell_volume 729.489142
_symmetry_space_group_name_H-M "P -1"
_symmetry_group_IT_number 2
_symmetry_cell_setting 'triclinic'
loop_
_space_group_symop_operation_xyz
x,y,z
-x,-y,-z
loop_
_atom_site_type_symbol
_atom_site_label
_atom_site_fract_x
_atom_site_fract_y
_atom_site_fract_z
Si Si1 0.882650 0.119525 0.978365
Si Si2 0.825864 0.335165 0.526992
Si Si3 0.570570 0.814463 0.526327
Si Si4 0.818136 0.301503 0.112971
Si Si5 0.474832 0.957110 0.248865
Si Si6 0.069245 0.380778 0.189639
Si Si7 0.147434 0.350517 0.572604
Si Si8 0.207065 0.116049 0.367903
O O1 0.838903 0.167182 0.099769
O O2 0.669649 0.037260 0.053510
O O3 0.001882 0.264335 0.779411
O O4 0.000000 0.000000 0.000000
O O5 0.642030 0.190067 0.694381
O O6 0.774654 0.475469 0.524384
O O7 0.873867 0.354736 0.358029
O O8 0.022550 0.318138 0.519285
O O9 0.377747 0.735083 0.716558
O O10 0.530874 0.924329 0.380280
O O11 0.658242 0.697723 0.489390
O O12 0.728417 0.900873 0.512197
O O13 0.003988 0.335384 0.106840
O O14 0.815404 0.444314 0.951728
O O15 0.349003 0.072606 0.243559
O O16 0.205069 0.283560 0.241086
O O17 0.000000 0.000000 0.500000
#
# Coordination Sequence:
#
# PCOD8033003 Si02
#       8
#     2   2   2   2   2   2   2   2
#     4  12  26  44  69 103 144 181 220 291 348 406
#     4  11  23  47  70  97 137 187 230 279 343 417
#     4  12  23  43  72  99 133 184 233 278 339 411
#     4  11  25  45  71 102 137 176 237 283 339 408
#     4  12  25  42  70 103 136 179 233 282 340 414
#     4  11  23  44  71 100 137 180 229 290 337 403
#     4  11  25  46  72  94 141 187 228 279 350 412
#     4  12  23  39  69 101 134 176 227 283 339 403
#
# _framework density 21.933154999999999
#
# number of rings (size 3 to 8) (size 9 to 14) (size 15 to 20)
#    0.000    0.500    7.500    0.375    1.750    2.500 
#    9.000    0.000    0.000    0.000    0.000    0.000 
#    0.000    0.000    0.000    0.000    0.000    0.000 
#
# Total GULP energy -198417.067777 kJ/mol
# GULP energy per Si atom -12401.066736 kJ/mol
# Density = 2.188323 g / cm^3
# Si number density = 21.933155 Si / 1000 Ang^3
#
#
#
# Elastic Constant Matrix: (Units=GPa)
#
#
# Indices 1 2 3 4 5 6 
#
# 1 78.8731 53.9843 16.0519 0.2364 -7.8384 -6.0024
# 2 53.9843 122.5001 42.1448 3.8547 -18.6057 -3.1694
# 3 16.0519 42.1448 79.9167 13.3969 -17.8847 -9.8109
# 4 0.2364 3.8547 13.3969 28.0001 -7.7259 -8.1269
# 5 -7.8384 -18.6057 -17.8847 -7.7259 38.4475 4.3766
# 6 -6.0024 -3.1694 -9.8109 -8.1269 4.3766 40.0093
#
#
#
# Elastic Compliance Matrix: (Units=1/GPa)
#
#
# Indices 1 2 3 4 5 6 
#
# 1 0.018443 -0.008373 0.000812 0.001375 0.000069 0.002574
# 2 -0.008373 0.014113 -0.005474 0.001110 0.002979 -0.001581
# 3 0.000812 -0.005474 0.017428 -0.005755 0.004201 0.002333
# 4 0.001375 0.001110 -0.005755 0.041859 0.005783 0.006753
# 5 0.000069 0.002979 0.004201 0.005783 0.030685 -0.000905
# 6 0.002574 -0.001581 0.002333 0.006753 -0.000905 0.027298
#
#
# Mechanical properties :
#
#
# Convention : Reuss Voigt Hill
#
# Bulk Modulus (GPa) = 41.81647 56.18355 49.00001
# Shear Modulus (GPa) = 27.19335 32.56531 29.87933
#
# Velocity S-wave (km/s) = 3.52494 3.85743 3.69493
# Velocity P-wave (km/s) = 5.97275 6.74619 6.37122
#
# Compressibility (1/GPa) = 0.02391402
#
# Stress axis : x y z
#
# Youngs Moduli (GPa) = 54.22130 70.85506 57.37772
#
# Poissons Ratio (x) = 0.59329 -0.04661
# Poissons Ratio (y) = 0.45401 0.31411
# Poissons Ratio (z) = -0.04405 0.38789
#
# Static dielectric constant tensor:
#      x y z
#    x 4.115800 -0.054340 0.070630 
#    y -0.054340 4.075320 -0.073360 
#    z 0.070630 -0.073360 4.067720 
# 
# 
# High freq. dielectric constant tensor:
#      x y z
#    x 1.859660 -0.001690 -0.004750 
#    y -0.001690 1.877530 -0.001890 
#    z -0.004750 -0.001890 1.857240 
# 
# From -- ./inp_files/392320.got.cif
#   From: 2010.06.25/outbox.cif.g09.slc.cpg/sg2_197_cif.got.tgz:392320.got - 2010.06.27 13:26:56.
