data_PCOD8033345
_publ_section_title
;
Structure prediction by ZEFSAII (Michael W. Deem and Ramdas Pophale) SiO2 
 PCOD8033345
Probable space group: P -1
;
_chemical_formula_sum "Si O2"
_cell_formula_units_Z 16
_cell_length_a 9.119117
_cell_length_b 9.797320
_cell_length_c 15.229206
_cell_angle_alpha 145.638050
_cell_angle_beta 101.486263
_cell_angle_gamma 70.641816
_cell_volume 717.419141
_symmetry_space_group_name_H-M "P -1"
_symmetry_group_IT_number 2
_symmetry_cell_setting 'triclinic'
loop_
_space_group_symop_operation_xyz
x,y,z
-x,-y,-z
loop_
_atom_site_type_symbol
_atom_site_label
_atom_site_fract_x
_atom_site_fract_y
_atom_site_fract_z
Si Si1 0.069143 0.217482 0.586656
Si Si2 0.030663 0.233860 0.075691
Si Si3 0.403884 0.033875 0.596918
Si Si4 0.763884 0.265477 0.934250
Si Si5 0.438555 0.445284 0.556872
Si Si6 0.368477 0.970995 0.902353
Si Si7 0.436672 0.251499 0.900384
Si Si8 0.137761 0.259355 0.420433
O O1 0.226268 0.194870 0.646856
O O2 0.107600 0.164668 0.461844
O O3 0.962643 0.514346 0.736610
O O4 0.000000 0.000000 0.500000
O O5 0.887200 0.344204 0.051034
O O6 0.198366 0.134979 0.998565
O O7 0.000000 0.000000 0.000000
O O8 0.466019 0.169217 0.757259
O O9 0.500000 0.000000 0.500000
O O10 0.415267 0.751061 0.480675
O O11 0.601624 0.274461 0.969989
O O12 0.856106 0.981906 0.765692
O O13 0.704325 0.481589 0.966261
O O14 0.500000 0.500000 0.500000
O O15 0.376117 0.679870 0.739935
O O16 0.301211 0.317486 0.461928
O O17 0.393087 0.047450 0.846426
O O18 0.500000 0.000000 0.000000
O O19 0.000000 0.500000 0.500000
#
# Coordination Sequence:
#
# PCOD8033345 Si02
#       8
#     2   2   2   2   2   2   2   2
#     4  12  29  47  71 110 146 196 247 304 368 437
#     4  12  27  48  71 103 150 195 243 304 364 445
#     4  12  24  48  76 105 146 188 246 305 369 440
#     4  11  23  45  75  98 140 182 239 293 371 429
#     4  12  25  46  75 106 143 190 243 304 365 438
#     4  12  28  45  72 106 145 192 247 297 365 436
#     4  11  24  45  73 107 138 189 240 302 361 441
#     4  12  26  46  71 105 144 191 237 299 373 435
#
# _framework density 22.302164000000001
#
# number of rings (size 3 to 8) (size 9 to 14) (size 15 to 20)
#    0.000    0.250    5.000    3.000    5.250    3.500 
#    0.000    0.000    0.000    0.000    0.000    0.000 
#    0.000    0.000    0.000    0.000    0.000    0.000 
#
# Total GULP energy -198299.061796 kJ/mol
# GULP energy per Si atom -12393.691362 kJ/mol
# Density = 2.225140 g / cm^3
# Si number density = 22.302164 Si / 1000 Ang^3
#
#
#
# Elastic Constant Matrix: (Units=GPa)
#
#
# Indices 1 2 3 4 5 6 
#
# 1 112.7200 45.7501 28.1500 -9.0201 -5.4185 0.3730
# 2 45.7501 125.1395 33.9230 12.5426 -10.8758 10.8461
# 3 28.1500 33.9230 123.1107 23.4772 -6.8821 4.1012
# 4 -9.0201 12.5426 23.4772 45.0415 -3.6330 -4.2862
# 5 -5.4185 -10.8758 -6.8821 -3.6330 33.2500 6.8425
# 6 0.3730 10.8461 4.1012 -4.2862 6.8425 50.8468
#
#
#
# Elastic Compliance Matrix: (Units=1/GPa)
#
#
# Indices 1 2 3 4 5 6 
#
# 1 0.011575 -0.004150 -0.002471 0.004915 0.000271 0.001378
# 2 -0.004150 0.010619 -0.001108 -0.003252 0.002788 -0.002795
# 3 -0.002471 -0.001108 0.010135 -0.005501 0.000970 -0.001157
# 4 0.004915 -0.003252 -0.005501 0.027345 0.000911 0.003284
# 5 0.000271 0.002788 0.000970 0.000911 0.032350 -0.004951
# 6 0.001378 -0.002795 -0.001157 0.003284 -0.004951 0.021289
#
#
# Mechanical properties :
#
#
# Convention : Reuss Voigt Hill
#
# Bulk Modulus (GPa) = 59.27631 64.06847 61.67239
# Shear Modulus (GPa) = 37.20362 42.70412 39.95387
#
# Velocity S-wave (km/s) = 4.08874 4.38059 4.23718
# Velocity P-wave (km/s) = 6.99477 7.37400 7.18689
#
# Compressibility (1/GPa) = 0.01687015
#
# Stress axis : x y z
#
# Youngs Moduli (GPa) = 86.39401 94.16920 98.66906
#
# Poissons Ratio (x) = 0.39083 0.24381
# Poissons Ratio (y) = 0.35856 0.10933
# Poissons Ratio (z) = 0.21348 0.10435
#
# Static dielectric constant tensor:
#      x y z
#    x 4.740790 0.019550 -0.012930 
#    y 0.019550 4.450640 0.420850 
#    z -0.012930 0.420850 4.377110 
# 
# 
# High freq. dielectric constant tensor:
#      x y z
#    x 1.874410 -0.009900 -0.004950 
#    y -0.009900 1.891300 0.019970 
#    z -0.004950 0.019970 1.897530 
# 
# From -- ./inp_files/495884.got.cif
#   From: 2010.06.25/outbox.cif.g09.slc.cpg/sg2_248_cif.got.tgz:495884.got - 2010.06.27 13:26:56.
