data_PCOD8033120
_publ_section_title
;
Structure prediction by ZEFSAII (Michael W. Deem and Ramdas Pophale) SiO2 
 PCOD8033120
Probable space group: P -1
;
_chemical_formula_sum "Si O2"
_cell_formula_units_Z 14
_cell_length_a 5.948348
_cell_length_b 16.144918
_cell_length_c 16.386419
_cell_angle_alpha 153.814859
_cell_angle_beta 111.284856
_cell_angle_gamma 68.380884
_cell_volume 643.558017
_symmetry_space_group_name_H-M "P -1"
_symmetry_group_IT_number 2
_symmetry_cell_setting 'triclinic'
loop_
_space_group_symop_operation_xyz
x,y,z
-x,-y,-z
loop_
_atom_site_type_symbol
_atom_site_label
_atom_site_fract_x
_atom_site_fract_y
_atom_site_fract_z
Si Si1 0.208932 0.421766 0.020157
Si Si2 0.348853 0.067338 0.119322
Si Si3 0.045819 0.500000 0.250000
Si Si4 0.255116 0.067338 0.619322
Si Si5 0.870416 0.282645 0.174821
Si Si6 0.487850 0.421766 0.520157
Si Si7 0.586063 0.717356 0.325179
O O1 0.123480 0.438568 0.116044
O O2 0.446528 0.530025 0.131789
O O3 0.250324 0.196685 0.813187
O O4 0.000000 0.500000 0.000000
O O5 0.482680 0.196685 0.313187
O O6 0.103430 0.198027 0.181036
O O7 0.500000 0.000000 0.000000
O O8 0.311608 0.877966 0.996239
O O9 0.268528 0.561431 0.383955
O O10 0.941533 0.328408 0.132444
O O11 0.833461 0.671592 0.367556
O O12 0.362587 0.198027 0.681036
O O13 0.424940 0.877966 0.496239
O O14 0.000000 0.000000 0.500000
O O15 0.743000 0.469975 0.368211
O O16 0.500000 0.500000 0.500000
#
# Coordination Sequence:
#
# PCOD8033120 Si02
#       7
#     2   2   2   2   2   2   2
#     4  12  24  47  75  99 145 191 237 298 359 435
#     4  11  23  44  75 103 136 190 242 291 365 432
#     4  12  26  44  70 108 144 184 248 298 356 428
#     4  11  23  44  75 103 136 190 242 291 365 432
#     4  11  24  44  72 104 139 188 242 296 364 428
#     4  12  24  47  75  99 145 191 237 298 359 435
#     4  11  24  44  72 104 139 188 242 296 364 428
#
# _framework density 21.754059999999999
#
# number of rings (size 3 to 8) (size 9 to 14) (size 15 to 20)
#    0.000    0.571    5.714    1.714    0.000    0.000 
#    0.000   21.429    0.000    0.000    0.000    0.000 
#    0.000    0.000    0.000    0.000    0.000    0.000 
#
# Total GULP energy -173589.602178 kJ/mol
# GULP energy per Si atom -12399.257298 kJ/mol
# Density = 2.170455 g / cm^3
# Si number density = 21.754060 Si / 1000 Ang^3
#
#
#
# Elastic Constant Matrix: (Units=GPa)
#
#
# Indices 1 2 3 4 5 6 
#
# 1 137.8204 49.3847 86.2528 -4.7759 -0.5141 -0.4085
# 2 49.3847 99.5931 63.8322 -16.9995 1.3235 1.5568
# 3 86.2528 63.8322 202.2450 3.4775 0.3745 0.4971
# 4 -4.7759 -16.9995 3.4775 33.4932 -0.1699 0.5484
# 5 -0.5141 1.3235 0.3745 -0.1699 28.7664 11.8728
# 6 -0.4085 1.5568 0.4971 0.5484 11.8728 53.7064
#
#
#
# Elastic Compliance Matrix: (Units=1/GPa)
#
#
# Indices 1 2 3 4 5 6 
#
# 1 0.010553 -0.002852 -0.003609 0.000431 0.000319 0.000121
# 2 -0.002852 0.015144 -0.003693 0.007667 -0.000491 -0.000396
# 3 -0.003609 -0.003693 0.007704 -0.003190 -0.000034 0.000048
# 4 0.000431 0.007667 -0.003190 0.034151 0.000132 -0.000567
# 5 0.000319 -0.000491 -0.000034 0.000132 0.038278 -0.008447
# 6 0.000121 -0.000396 0.000048 -0.000567 -0.008447 0.020505
#
#
# Mechanical properties :
#
#
# Convention : Reuss Voigt Hill
#
# Bulk Modulus (GPa) = 76.38145 93.17754 84.77949
# Shear Modulus (GPa) = 33.11118 39.20579 36.15849
#
# Velocity S-wave (km/s) = 3.90560 4.24987 4.08137
# Velocity P-wave (km/s) = 7.45157 8.18579 7.82729
#
# Compressibility (1/GPa) = 0.01309218
#
# Stress axis : x y z
#
# Youngs Moduli (GPa) = 94.76190 66.03430 129.80545
#
# Poissons Ratio (x) = 0.18836 0.46841
# Poissons Ratio (y) = 0.27030 0.47938
# Poissons Ratio (z) = 0.34195 0.24387
#
# Static dielectric constant tensor:
#      x y z
#    x 4.363010 0.018900 -0.010930 
#    y 0.018900 3.823610 0.359870 
#    z -0.010930 0.359870 4.328670 
# 
# 
# High freq. dielectric constant tensor:
#      x y z
#    x 1.876650 0.000940 -0.000490 
#    y 0.000940 1.848110 0.011890 
#    z -0.000490 0.011890 1.860110 
# 
# From -- ./inp_files/484665.got.cif
#   From: 2010.06.25/outbox.cif.g09.slc.cpg/sg2_243_cif.got.tgz:484665.got - 2010.06.27 13:26:56.
