data_PCOD8033850
_publ_section_title
;
Structure prediction by ZEFSAII (Michael W. Deem and Ramdas Pophale) SiO2 
 PCOD8033850
Probable space group: P -1
;
_chemical_formula_sum "Si O2"
_cell_formula_units_Z 16
_cell_length_a 9.133590
_cell_length_b 16.739413
_cell_length_c 6.525297
_cell_angle_alpha 101.569069
_cell_angle_beta 131.691450
_cell_angle_gamma 81.430985
_cell_volume 729.687493
_symmetry_space_group_name_H-M "P -1"
_symmetry_group_IT_number 2
_symmetry_cell_setting 'triclinic'
loop_
_space_group_symop_operation_xyz
x,y,z
-x,-y,-z
loop_
_atom_site_type_symbol
_atom_site_label
_atom_site_fract_x
_atom_site_fract_y
_atom_site_fract_z
Si Si1 0.106439 0.870197 0.969639
Si Si2 0.803093 0.667369 0.022123
Si Si3 0.946173 0.079240 0.625230
Si Si4 0.789954 0.822332 0.326759
Si Si5 0.408406 0.587847 0.513763
Si Si6 0.122292 0.689838 0.004295
Si Si7 0.074658 0.581337 0.513926
Si Si8 0.594338 0.082694 0.049850
O O1 0.053801 0.932436 0.137428
O O2 0.197278 0.782711 0.087939
O O3 0.257165 0.924178 0.007812
O O4 0.908475 0.850661 0.650622
O O5 0.792432 0.726747 0.240274
O O6 0.920617 0.698635 0.949500
O O7 0.922166 0.591616 0.189875
O O8 0.584593 0.648535 0.744256
O O9 0.111209 0.143955 0.769364
O O10 0.729688 0.114573 0.378090
O O11 0.000000 0.000000 0.500000
O O12 0.567007 0.853092 0.142908
O O13 0.500000 0.500000 0.500000
O O14 0.279721 0.630993 0.236848
O O15 0.289001 0.575519 0.606795
O O16 0.077741 0.652665 0.721459
O O17 0.000000 0.500000 0.500000
O O18 0.500000 0.000000 0.000000
#
# Coordination Sequence:
#
# PCOD8033850 Si02
#       8
#     2   2   2   2   2   2   2   2
#     4  11  26  44  72 100 139 182 229 284 353 405
#     4  11  24  42  69  96 138 177 227 284 341 402
#     4  11  24  48  69  97 140 177 222 286 344 413
#     4  11  24  44  67  99 134 175 230 283 343 406
#     4  11  26  43  68 103 140 180 229 284 341 404
#     4  11  24  44  67 101 136 180 229 281 344 403
#     4  11  24  44  68  95 140 179 229 278 338 410
#     4  11  26  45  68 103 137 174 230 281 343 411
#
# _framework density 21.927195000000001
#
# number of rings (size 3 to 8) (size 9 to 14) (size 15 to 20)
#    0.000    1.000    3.750    1.500    3.500    9.500 
#    0.000    0.000    0.000    0.000    0.000    0.000 
#    0.000    0.000    0.000    0.000    0.000    0.000 
#
# Total GULP energy -198272.662375 kJ/mol
# GULP energy per Si atom -12392.041398 kJ/mol
# Density = 2.187729 g / cm^3
# Si number density = 21.927195 Si / 1000 Ang^3
#
#
#
# Elastic Constant Matrix: (Units=GPa)
#
#
# Indices 1 2 3 4 5 6 
#
# 1 128.5757 40.7901 74.0928 6.4393 -6.5139 0.6683
# 2 40.7901 86.1787 24.1814 -0.1324 -8.5785 1.0886
# 3 74.0928 24.1814 118.1199 0.5483 -3.2287 -13.9271
# 4 6.4393 -0.1324 0.5483 38.0304 -4.5522 -1.6191
# 5 -6.5139 -8.5785 -3.2287 -4.5522 46.2319 -0.6711
# 6 0.6683 1.0886 -13.9271 -1.6191 -0.6711 41.1008
#
#
#
# Elastic Compliance Matrix: (Units=1/GPa)
#
#
# Indices 1 2 3 4 5 6 
#
# 1 0.014048 -0.004260 -0.008274 -0.002362 0.000335 -0.003007
# 2 -0.004260 0.013872 -0.000149 0.001006 0.002058 -0.000275
# 3 -0.008274 -0.000149 0.014274 0.001411 0.000015 0.005031
# 4 -0.002362 0.001006 0.001411 0.027062 0.002640 0.001599
# 5 0.000335 0.002058 0.000015 0.002640 0.022326 0.000414
# 6 -0.003007 -0.000275 0.005031 0.001599 0.000414 0.026161
#
#
# Mechanical properties :
#
#
# Convention : Reuss Voigt Hill
#
# Bulk Modulus (GPa) = 59.42473 67.88920 63.65697
# Shear Modulus (GPa) = 33.62096 37.99328 35.80712
#
# Velocity S-wave (km/s) = 3.91998 4.16709 4.04542
# Velocity P-wave (km/s) = 6.90276 7.36079 7.13545
#
# Compressibility (1/GPa) = 0.01682801
#
# Stress axis : x y z
#
# Youngs Moduli (GPa) = 71.18538 72.08940 70.05971
#
# Poissons Ratio (x) = 0.30708 0.57968
# Poissons Ratio (y) = 0.30323 0.01041
# Poissons Ratio (z) = 0.58900 0.01072
#
# Static dielectric constant tensor:
#      x y z
#    x 4.165740 -0.029630 -0.004310 
#    y -0.029630 3.636040 -0.347410 
#    z -0.004310 -0.347410 4.172310 
# 
# 
# High freq. dielectric constant tensor:
#      x y z
#    x 1.869080 0.004610 -0.002430 
#    y 0.004610 1.866640 -0.007160 
#    z -0.002430 -0.007160 1.869720 
# 
# From -- ./inp_files/48448.got.cif
#   From: 2010.06.25/outbox.cif.g09.slc.cpg/sg2_25_cif.got.tgz:48448.got - 2010.06.27 13:26:56.
