data_PCOD8033138
_publ_section_title
;
Structure prediction by ZEFSAII (Michael W. Deem and Ramdas Pophale) SiO2 
 PCOD8033138
Probable space group: P -1
;
_chemical_formula_sum "Si O2"
_cell_formula_units_Z 14
_cell_length_a 5.296090
_cell_length_b 9.233459
_cell_length_c 11.907747
_cell_angle_alpha 89.994898
_cell_angle_beta 99.828369
_cell_angle_gamma 90.000520
_cell_volume 573.757295
_symmetry_space_group_name_H-M "P -1"
_symmetry_group_IT_number 2
_symmetry_cell_setting 'triclinic'
loop_
_space_group_symop_operation_xyz
x,y,z
-x,-y,-z
loop_
_atom_site_type_symbol
_atom_site_label
_atom_site_fract_x
_atom_site_fract_y
_atom_site_fract_z
Si Si1 0.499867 0.319743 0.249961
Si Si2 0.000129 0.497138 0.750029
Si Si3 0.265582 0.264645 0.655205
Si Si4 0.000081 0.005015 0.750017
Si Si5 0.265444 0.735377 0.155216
Si Si6 0.610871 0.857932 0.563985
Si Si7 0.389252 0.857901 0.936048
O O1 0.256302 0.407905 0.278411
O O2 0.584297 0.218122 0.362059
O O3 0.415488 0.218133 0.137865
O O4 0.743379 0.407962 0.221505
O O5 0.962063 0.384466 0.851860
O O6 0.038139 0.384517 0.648174
O O7 0.193265 0.105545 0.694501
O O8 0.500156 0.322023 0.749950
O O9 0.331482 0.257494 0.529230
O O10 0.806926 0.105500 0.805581
O O11 0.136496 0.900146 0.848460
O O12 0.863640 0.900246 0.651527
O O13 0.331620 0.742482 0.029285
O O14 0.500000 0.000000 0.500000
O O15 0.500000 0.000000 0.000000
#
# Coordination Sequence:
#
# PCOD8033138 Si02
#       7
#     2   2   2   2   2   2   2
#     4  12  28  50  74 112 152 196 254 314 370 458
#     4  11  27  52  72 112 151 203 262 296 378 447
#     4  11  23  47  77 109 152 203 249 312 370 452
#     4  11  23  44  76 116 153 191 250 312 394 441
#     4  11  23  47  77 109 152 203 249 312 370 452
#     4  12  25  46  79 113 152 193 250 317 385 448
#     4  12  25  46  79 113 152 193 250 317 385 448
#
# _framework density 24.400559999999999
#
# number of rings (size 3 to 8) (size 9 to 14) (size 15 to 20)
#    0.000    0.571    4.286    3.429    0.000    4.571 
#    0.000    0.000    0.000    0.000    0.000    0.000 
#    0.000    0.000    0.000    0.000    0.000    0.000 
#
# Total GULP energy -173533.118779 kJ/mol
# GULP energy per Si atom -12395.222770 kJ/mol
# Density = 2.434502 g / cm^3
# Si number density = 24.400560 Si / 1000 Ang^3
#
#
#
# Elastic Constant Matrix: (Units=GPa)
#
#
# Indices 1 2 3 4 5 6 
#
# 1 126.2315 58.7320 66.6174 0.0797 -7.0587 -0.0101
# 2 58.7320 133.8970 71.7538 0.0810 -14.9537 -0.0046
# 3 66.6174 71.7538 197.6744 0.1288 -22.1267 -0.0335
# 4 0.0797 0.0810 0.1288 10.3127 -0.0037 -3.9286
# 5 -7.0587 -14.9537 -22.1267 -0.0037 51.6193 0.0078
# 6 -0.0101 -0.0046 -0.0335 -3.9286 0.0078 44.1699
#
#
#
# Elastic Compliance Matrix: (Units=1/GPa)
#
#
# Indices 1 2 3 4 5 6 
#
# 1 0.010802 -0.003498 -0.002436 -0.000027 -0.000580 -0.000002
# 2 -0.003498 0.010489 -0.002460 -0.000026 0.001506 -0.000004
# 3 -0.002436 -0.002460 0.006991 -0.000049 0.001951 0.000000
# 4 -0.000027 -0.000026 -0.000049 0.100370 -0.000026 0.008927
# 5 -0.000580 0.001506 0.001951 -0.000026 0.020566 -0.000004
# 6 -0.000002 -0.000004 0.000000 0.008927 -0.000004 0.023434
#
#
# Mechanical properties :
#
#
# Convention : Reuss Voigt Hill
#
# Bulk Modulus (GPa) = 86.99152 94.66769 90.82961
# Shear Modulus (GPa) = 25.87037 38.60036 32.23537
#
# Velocity S-wave (km/s) = 3.25966 3.98168 3.63863
# Velocity P-wave (km/s) = 7.06371 7.74726 7.41337
#
# Compressibility (1/GPa) = 0.01149537
#
# Stress axis : x y z
#
# Youngs Moduli (GPa) = 92.57207 95.33589 143.03906
#
# Poissons Ratio (x) = 0.33347 0.34840
# Poissons Ratio (y) = 0.32380 0.35189
# Poissons Ratio (z) = 0.22548 0.23454
#
# Static dielectric constant tensor:
#      x y z
#    x 4.440810 0.000040 -0.439490 
#    y 0.000040 4.849290 0.000690 
#    z -0.439490 0.000690 4.102670 
# 
# 
# High freq. dielectric constant tensor:
#      x y z
#    x 1.965890 0.000000 -0.024990 
#    y 0.000000 1.991250 0.000020 
#    z -0.024990 0.000020 1.960230 
# 
# From -- ./inp_files/360773.got.cif
#   From: 2010.06.25/outbox.cif.g09.slc.cpg/sg2_181_cif.got.tgz:360773.got - 2010.06.27 13:26:56.
