data_PCOD8033989
_publ_section_title
;
Structure prediction by ZEFSAII (Michael W. Deem and Ramdas Pophale) SiO2 
 PCOD8033989
Probable space group: P -1
;
_chemical_formula_sum "Si O2"
_cell_formula_units_Z 16
_cell_length_a 8.608946
_cell_length_b 11.520644
_cell_length_c 13.561251
_cell_angle_alpha 148.158504
_cell_angle_beta 84.306034
_cell_angle_gamma 89.999964
_cell_volume 696.929174
_symmetry_space_group_name_H-M "P -1"
_symmetry_group_IT_number 2
_symmetry_cell_setting 'triclinic'
loop_
_space_group_symop_operation_xyz
x,y,z
-x,-y,-z
loop_
_atom_site_type_symbol
_atom_site_label
_atom_site_fract_x
_atom_site_fract_y
_atom_site_fract_z
Si Si1 0.310413 0.542378 0.542371
Si Si2 0.850220 0.046207 0.284605
Si Si3 0.202552 0.870414 0.110656
Si Si4 0.322191 0.106683 0.106671
Si Si5 0.202563 0.350908 0.110644
Si Si6 0.645286 0.960636 0.595772
Si Si7 0.354728 0.769086 0.404212
Si Si8 0.149769 0.477007 0.715399
O O1 0.500000 0.500000 0.500000
O O2 0.273040 0.333542 0.333519
O O3 0.236329 0.537987 0.653325
O O4 0.236346 0.768694 0.653348
O O5 0.038954 0.030580 0.260728
O O6 0.801484 0.107836 0.444064
O O7 0.810414 0.793840 0.091357
O O8 0.246282 0.921691 0.033804
O O9 0.339636 0.908472 0.207454
O O10 0.189590 0.611159 0.908656
O O11 0.246319 0.145919 0.033772
O O12 0.500000 0.000000 0.000000
O O13 0.339642 0.506445 0.207436
O O14 0.038969 0.490863 0.260714
O O15 0.500010 0.818713 0.499982
O O16 0.801498 0.780269 0.444043
O O17 0.628985 0.143409 0.643417
#
# Coordination Sequence:
#
# PCOD8033989 Si02
#       8
#     2   2   2   2   2   2   2   2
#     4  12  23  40  67 102 140 183 219 270 339 404
#     4  11  24  43  69 100 139 178 222 277 334 405
#     4  11  25  43  68 102 138 177 223 277 338 399
#     4  12  25  38  67 104 138 177 217 272 331 406
#     4  11  25  43  68 102 138 177 223 277 338 399
#     4  11  26  46  69  97 132 179 232 285 336 394
#     4  11  26  46  69  97 132 179 232 285 336 394
#     4  11  24  43  69 100 139 178 222 277 334 405
#
# _framework density 22.957854999999999
#
# number of rings (size 3 to 8) (size 9 to 14) (size 15 to 20)
#    0.000    0.750    2.500    4.500    3.500    6.000 
#    0.000    5.000    0.000    0.000    0.000    0.000 
#    0.000    0.000    0.000    0.000    0.000    0.000 
#
# Total GULP energy -198255.019738 kJ/mol
# GULP energy per Si atom -12390.938734 kJ/mol
# Density = 2.290560 g / cm^3
# Si number density = 22.957855 Si / 1000 Ang^3
#
#
#
# Elastic Constant Matrix: (Units=GPa)
#
#
# Indices 1 2 3 4 5 6 
#
# 1 97.5088 26.2318 17.6594 -0.9758 13.7638 -4.1061
# 2 26.2318 80.2394 16.2504 2.9104 12.5878 0.5939
# 3 17.6594 16.2504 108.6132 -6.8963 7.3772 -1.4139
# 4 -0.9758 2.9104 -6.8963 14.3243 -2.0989 -2.3050
# 5 13.7638 12.5878 7.3772 -2.0989 38.6756 -2.1124
# 6 -4.1061 0.5939 -1.4139 -2.3050 -2.1124 20.8841
#
#
#
# Elastic Compliance Matrix: (Units=1/GPa)
#
#
# Indices 1 2 3 4 5 6 
#
# 1 0.011829 -0.003243 -0.001169 0.000843 -0.002768 0.002152
# 2 -0.003243 0.014646 -0.001755 -0.004913 -0.003659 -0.002085
# 3 -0.001169 -0.001755 0.010042 0.005188 -0.000592 0.001013
# 4 0.000843 -0.004913 0.005188 0.075616 0.004932 0.009501
# 5 -0.002768 -0.003659 -0.000592 0.004932 0.028574 0.002954
# 6 0.002152 -0.002085 0.001013 0.009501 0.002954 0.049782
#
#
# Mechanical properties :
#
#
# Convention : Reuss Voigt Hill
#
# Bulk Modulus (GPa) = 41.34735 45.18276 43.26505
# Shear Modulus (GPa) = 23.70985 29.85812 26.78399
#
# Velocity S-wave (km/s) = 3.21714 3.61024 3.41934
# Velocity P-wave (km/s) = 5.64351 6.09114 5.87159
#
# Compressibility (1/GPa) = 0.02418535
#
# Stress axis : x y z
#
# Youngs Moduli (GPa) = 84.53597 68.27912 99.57894
#
# Poissons Ratio (x) = 0.22141 0.11637
# Poissons Ratio (y) = 0.27413 0.17472
# Poissons Ratio (z) = 0.09879 0.11980
#
# Static dielectric constant tensor:
#      x y z
#    x 4.122000 -0.043480 0.054160 
#    y -0.043480 3.703960 -0.070500 
#    z 0.054160 -0.070500 4.399690 
# 
# 
# High freq. dielectric constant tensor:
#      x y z
#    x 1.912290 -0.003060 0.005650 
#    y -0.003060 1.884950 -0.005100 
#    z 0.005650 -0.005100 1.933360 
# 
# From -- ./inp_files/501176.got.cif
#   From: 2010.06.25/outbox.cif.g09.slc.cpg/sg2_251_cif.got.tgz:501176.got - 2010.06.27 13:26:56.
