data_PCOD8033330
_publ_section_title
;
Structure prediction by ZEFSAII (Michael W. Deem and Ramdas Pophale) SiO2 
 PCOD8033330
Probable space group: P -1
;
_chemical_formula_sum "Si O2"
_cell_formula_units_Z 12
_cell_length_a 12.621773
_cell_length_b 18.897697
_cell_length_c 15.158792
_cell_angle_alpha 155.333540
_cell_angle_beta 151.824682
_cell_angle_gamma 19.524772
_cell_volume 496.143637
_symmetry_space_group_name_H-M "P -1"
_symmetry_group_IT_number 2
_symmetry_cell_setting 'triclinic'
loop_
_space_group_symop_operation_xyz
x,y,z
-x,-y,-z
loop_
_atom_site_type_symbol
_atom_site_label
_atom_site_fract_x
_atom_site_fract_y
_atom_site_fract_z
Si Si1 0.914661 0.976862 0.005963
Si Si2 0.768673 0.575678 0.994027
Si Si3 0.250622 0.454585 0.694184
Si Si4 0.295206 0.756966 0.491660
Si Si5 0.925979 0.633687 0.832460
Si Si6 0.988060 0.021466 0.734182
O O1 0.174123 0.694101 0.900348
O O2 0.946501 0.082054 0.235073
O O3 0.536886 0.129669 0.895376
O O4 0.000000 0.000000 0.000000
O O5 0.625723 0.464740 0.747655
O O6 0.000000 0.500000 0.000000
O O7 0.956908 0.488307 0.124425
O O8 0.608799 0.222654 0.661803
O O9 0.000000 0.500000 0.500000
O O10 0.196591 0.431411 0.730233
O O11 0.597941 0.716871 0.660997
O O12 0.000000 0.000000 0.500000
O O13 0.179682 0.793963 0.550573
O O14 0.866752 0.867936 0.048997
#
# Coordination Sequence:
#
# PCOD8033330 Si02
#       6
#     2   2   2   2   2   2
#     4  11  25  45  69  99 144 177 228 296 346 399
#     4  12  28  46  69 107 146 179 225 296 359 400
#     4  11  25  45  75 102 135 188 242 279 340 424
#     4  12  26  44  77 103 138 186 241 277 344 432
#     4  11  24  46  73 101 139 186 236 285 341 417
#     4  11  23  45  75 101 138 187 237 284 343 415
#
# _framework density 24.186544000000001
#
# number of rings (size 3 to 8) (size 9 to 14) (size 15 to 20)
#    0.000    0.667    1.667    6.500    9.333    2.667 
#    0.000    1.667    0.000    0.000    0.000    0.000 
#    0.000    0.000    0.000    0.000    0.000    0.000 
#
# Total GULP energy -148778.056583 kJ/mol
# GULP energy per Si atom -12398.171382 kJ/mol
# Density = 2.413149 g / cm^3
# Si number density = 24.186544 Si / 1000 Ang^3
#
#
#
# Elastic Constant Matrix: (Units=GPa)
#
#
# Indices 1 2 3 4 5 6 
#
# 1 162.3666 25.4972 14.6284 -16.9257 -14.6815 4.6963
# 2 25.4972 96.9350 7.1501 -26.1875 18.1132 -6.1872
# 3 14.6284 7.1501 83.4508 -33.8648 -0.8650 -2.3160
# 4 -16.9257 -26.1875 -33.8648 36.3702 -6.2634 -5.2435
# 5 -14.6815 18.1132 -0.8650 -6.2634 35.0332 -13.3284
# 6 4.6963 -6.1872 -2.3160 -5.2435 -13.3284 47.1553
#
#
#
# Elastic Compliance Matrix: (Units=1/GPa)
#
#
# Indices 1 2 3 4 5 6 
#
# 1 0.007183 -0.001917 0.000254 0.003147 0.004863 0.000770
# 2 -0.001917 0.015410 0.004763 0.014120 -0.005155 0.002560
# 3 0.000254 0.004763 0.022356 0.026130 0.005175 0.006066
# 4 0.003147 0.014120 0.026130 0.067489 0.011943 0.013703
# 5 0.004863 -0.005155 0.005175 0.011943 0.039969 0.011719
# 6 0.000770 0.002560 0.006066 0.013703 0.011719 0.026600
#
#
# Mechanical properties :
#
#
# Convention : Reuss Voigt Hill
#
# Bulk Modulus (GPa) = 19.55053 48.58932 34.06993
# Shear Modulus (GPa) = 26.33577 43.41021 34.87299
#
# Velocity S-wave (km/s) = 3.30337 4.24111 3.80127
# Velocity P-wave (km/s) = 4.75925 6.64197 5.77781
#
# Compressibility (1/GPa) = 0.05114950
#
# Stress axis : x y z
#
# Youngs Moduli (GPa) = 139.22411 64.89089 44.73069
#
# Poissons Ratio (x) = 0.12442 -0.01137
# Poissons Ratio (y) = 0.26695 -0.21307
# Poissons Ratio (z) = -0.03539 -0.30910
#
# Static dielectric constant tensor:
#      x y z
#    x 4.905130 0.174530 -0.334480 
#    y 0.174530 5.346420 0.301490 
#    z -0.334480 0.301490 4.561180 
# 
# 
# High freq. dielectric constant tensor:
#      x y z
#    x 1.979970 -0.008060 -0.026460 
#    y -0.008060 1.968430 -0.020400 
#    z -0.026460 -0.020400 1.947780 
# 
# From -- ./inp_files/166627.got.cif
#   From: 2010.06.25/outbox.cif.g09.slc.cpg/sg2_84_cif.got.tgz:166627.got - 2010.06.27 13:26:56.
