data_PCOD8033102
_publ_section_title
;
Structure prediction by ZEFSAII (Michael W. Deem and Ramdas Pophale) SiO2 
 PCOD8033102
Probable space group: P -1
;
_chemical_formula_sum "Si O2"
_cell_formula_units_Z 16
_cell_length_a 19.614010
_cell_length_b 25.802588
_cell_length_c 5.442979
_cell_angle_alpha 113.769281
_cell_angle_beta 74.707265
_cell_angle_gamma 162.440023
_cell_volume 684.309111
_symmetry_space_group_name_H-M "P -1"
_symmetry_group_IT_number 2
_symmetry_cell_setting 'triclinic'
loop_
_space_group_symop_operation_xyz
x,y,z
-x,-y,-z
loop_
_atom_site_type_symbol
_atom_site_label
_atom_site_fract_x
_atom_site_fract_y
_atom_site_fract_z
Si Si1 0.895237 0.446174 0.247055
Si Si2 0.694631 0.015633 0.139433
Si Si3 0.055463 0.389190 0.568873
Si Si4 0.801155 0.033897 0.582885
Si Si5 0.227614 0.311777 0.966742
Si Si6 0.549076 0.323393 0.902195
Si Si7 0.124760 0.044381 0.105934
Si Si8 0.407150 0.567504 0.335979
O O1 0.977330 0.574545 0.446817
O O2 0.000000 0.500000 0.500000
O O3 0.599404 0.210552 0.056073
O O4 0.000000 0.500000 0.000000
O O5 0.775447 0.042563 0.356183
O O6 0.788264 0.151895 0.361115
O O7 0.819118 0.089998 0.907770
O O8 0.270508 0.515585 0.488321
O O9 0.182237 0.495020 0.918356
O O10 0.056580 0.192460 0.659045
O O11 0.559339 0.807590 0.432440
O O12 0.500000 0.500000 0.000000
O O13 0.273785 0.407434 0.242223
O O14 0.094187 0.164267 0.985850
O O15 0.607315 0.430238 0.937140
O O16 0.316902 0.152081 0.982101
O O17 0.294153 0.204147 0.459430
O O18 0.000000 0.000000 0.000000
#
# Coordination Sequence:
#
# PCOD8033102 Si02
#       8
#     2   2   2   2   2   2   2   2
#     4  12  29  50  78 116 158 195 241 313 393 456
#     4  12  26  49  81 112 152 199 258 307 374 470
#     4  11  26  45  79 109 147 196 252 311 372 464
#     4  12  24  47  77 111 148 205 258 311 378 449
#     4  12  26  44  70 107 153 199 260 329 379 439
#     4  11  23  44  74 100 145 195 260 315 377 449
#     4  11  26  44  64  96 147 200 251 318 391 446
#     4  11  24  45  70 103 139 196 261 311 381 449
#
# _framework density 23.381249
#
# number of rings (size 3 to 8) (size 9 to 14) (size 15 to 20)
#    0.000    0.500    3.750    3.750    3.500    3.500 
#    0.000    0.000    0.000    0.000    0.000    0.000 
#    0.000    0.000    0.000    0.000    0.000    0.000 
#
# Total GULP energy -198227.579888 kJ/mol
# GULP energy per Si atom -12389.223743 kJ/mol
# Density = 2.332803 g / cm^3
# Si number density = 23.381249 Si / 1000 Ang^3
#
#
#
# Elastic Constant Matrix: (Units=GPa)
#
#
# Indices 1 2 3 4 5 6 
#
# 1 183.8695 59.7417 74.5491 17.5904 12.9656 -31.2126
# 2 59.7417 113.5860 39.8114 17.9256 7.8406 -20.6846
# 3 74.5491 39.8114 121.9657 16.1458 15.3595 -13.1865
# 4 17.5904 17.9256 16.1458 42.0856 -9.8285 -8.7967
# 5 12.9656 7.8406 15.3595 -9.8285 51.3930 7.5369
# 6 -31.2126 -20.6846 -13.1865 -8.7967 7.5369 45.4624
#
#
#
# Elastic Compliance Matrix: (Units=1/GPa)
#
#
# Indices 1 2 3 4 5 6 
#
# 1 0.008519 -0.002256 -0.003800 -0.000661 -0.001356 0.003817
# 2 -0.002256 0.011693 -0.001442 -0.003285 -0.001856 0.003025
# 3 -0.003800 -0.001442 0.011759 -0.002978 -0.002913 0.000052
# 4 -0.000661 -0.003285 -0.002978 0.028491 0.006775 0.001577
# 5 -0.001356 -0.001856 -0.002913 0.006775 0.023000 -0.005122
# 6 0.003817 0.003025 0.000052 0.001577 -0.005122 0.027163
#
#
# Mechanical properties :
#
#
# Convention : Reuss Voigt Hill
#
# Bulk Modulus (GPa) = 58.90872 85.29175 72.10023
# Shear Modulus (GPa) = 38.08635 44.14280 41.11457
#
# Velocity S-wave (km/s) = 4.04038 4.34978 4.19793
# Velocity P-wave (km/s) = 6.85680 7.86036 7.37567
#
# Compressibility (1/GPa) = 0.01697542
#
# Stress axis : x y z
#
# Youngs Moduli (GPa) = 117.38449 85.51818 85.04017
#
# Poissons Ratio (x) = 0.19292 0.32314
# Poissons Ratio (y) = 0.26480 0.12266
# Poissons Ratio (z) = 0.44604 0.12335
#
# Static dielectric constant tensor:
#      x y z
#    x 4.780580 -0.658960 0.426560 
#    y -0.658960 5.063360 -0.480900 
#    z 0.426560 -0.480900 5.355340 
# 
# 
# High freq. dielectric constant tensor:
#      x y z
#    x 1.928370 -0.012700 0.003340 
#    y -0.012700 1.921740 0.022550 
#    z 0.003340 0.022550 1.942560 
# 
# From -- ./inp_files/48814.got.cif
#   From: 2010.06.25/outbox.cif.g09.slc.cpg/sg2_25_cif.got.tgz:48814.got - 2010.06.27 13:26:56.
