data_PCOD8033595
_publ_section_title
;
Structure prediction by ZEFSAII (Michael W. Deem and Ramdas Pophale) SiO2 
 PCOD8033595
Probable space group: P -1
;
_chemical_formula_sum "Si O2"
_cell_formula_units_Z 16
_cell_length_a 11.476430
_cell_length_b 7.998135
_cell_length_c 20.240860
_cell_angle_alpha 45.495552
_cell_angle_beta 146.502214
_cell_angle_gamma 123.703111
_cell_volume 729.225652
_symmetry_space_group_name_H-M "P -1"
_symmetry_group_IT_number 2
_symmetry_cell_setting 'triclinic'
loop_
_space_group_symop_operation_xyz
x,y,z
-x,-y,-z
loop_
_atom_site_type_symbol
_atom_site_label
_atom_site_fract_x
_atom_site_fract_y
_atom_site_fract_z
Si Si1 0.258759 0.954402 0.890059
Si Si2 0.277253 0.518310 0.925424
Si Si3 0.778187 0.930537 0.889465
Si Si4 0.115293 0.227609 0.392218
Si Si5 0.929296 0.756711 0.872999
Si Si6 0.390892 0.252181 0.392305
Si Si7 0.088834 0.230783 0.617411
Si Si8 0.612452 0.709246 0.370281
O O1 0.251829 0.722017 0.909440
O O2 0.129781 0.912531 0.908593
O O3 0.141327 0.171459 0.734912
O O4 0.500000 0.000000 0.000000
O O5 0.087004 0.580793 0.765764
O O6 0.500000 0.500000 0.000000
O O7 0.273836 0.281587 0.030167
O O8 0.786179 0.877417 0.829735
O O9 0.603457 0.143993 0.754736
O O10 0.000000 0.000000 0.000000
O O11 0.300451 0.284452 0.414033
O O12 0.202527 0.261203 0.497448
O O13 0.067501 0.954642 0.434672
O O14 0.801757 0.714409 0.758333
O O15 0.000000 0.500000 0.000000
O O16 0.566335 0.438003 0.414878
O O17 0.500000 0.000000 0.500000
O O18 0.304014 0.201303 0.684832
O O19 0.000000 0.500000 0.500000
#
# Coordination Sequence:
#
# PCOD8033595 Si02
#       8
#     2   2   2   2   2   2   2   2
#     4  11  26  45  70 103 137 186 240 288 354 427
#     4  11  24  45  69 100 144 183 228 292 356 420
#     4  12  26  44  71 107 142 185 232 296 359 425
#     4  11  23  48  67 103 145 182 241 294 352 427
#     4  12  24  47  73 101 143 185 236 298 352 427
#     4  12  25  46  71 101 142 185 238 292 356 428
#     4  11  25  47  70 103 143 188 241 298 353 426
#     4  12  27  43  73 106 141 187 242 295 360 428
#
# _framework density 21.941082000000002
#
# number of rings (size 3 to 8) (size 9 to 14) (size 15 to 20)
#    0.000    0.500    3.750    5.250    5.250    3.000 
#    0.000    0.000    0.000    0.000    0.000    0.000 
#    0.000    0.000    0.000    0.000    0.000    0.000 
#
# Total GULP energy -198425.040081 kJ/mol
# GULP energy per Si atom -12401.565005 kJ/mol
# Density = 2.189114 g / cm^3
# Si number density = 21.941082 Si / 1000 Ang^3
#
#
#
# Elastic Constant Matrix: (Units=GPa)
#
#
# Indices 1 2 3 4 5 6 
#
# 1 131.6554 24.5281 36.0065 -10.3706 0.8180 22.9948
# 2 24.5281 106.3926 51.3799 -3.9745 -12.2407 20.8485
# 3 36.0065 51.3799 131.3815 -10.0651 5.0772 6.6601
# 4 -10.3706 -3.9745 -10.0651 42.4072 3.7046 3.9295
# 5 0.8180 -12.2407 5.0772 3.7046 30.9538 -6.7222
# 6 22.9948 20.8485 6.6601 3.9295 -6.7222 42.1823
#
#
#
# Elastic Compliance Matrix: (Units=1/GPa)
#
#
# Indices 1 2 3 4 5 6 
#
# 1 0.009254 -0.000287 -0.001932 0.002369 -0.001420 -0.005045
# 2 -0.000287 0.013501 -0.005154 -0.000024 0.005135 -0.004882
# 3 -0.001932 -0.005154 0.010365 0.001708 -0.003625 0.001227
# 4 0.002369 -0.000024 0.001708 0.025374 -0.004391 -0.004613
# 5 -0.001420 0.005135 -0.003625 -0.004391 0.036591 0.005049
# 6 -0.005045 -0.004882 0.001227 -0.004613 0.005049 0.029910
#
#
# Mechanical properties :
#
#
# Convention : Reuss Voigt Hill
#
# Bulk Modulus (GPa) = 54.42297 65.91760 60.17028
# Shear Modulus (GPa) = 34.27816 40.27632 37.27724
#
# Velocity S-wave (km/s) = 3.95686 4.28911 4.12633
# Velocity P-wave (km/s) = 6.76267 7.39167 7.08415
#
# Compressibility (1/GPa) = 0.01837459
#
# Stress axis : x y z
#
# Youngs Moduli (GPa) = 108.06211 74.06959 96.47695
#
# Poissons Ratio (x) = 0.02124 0.18638
# Poissons Ratio (y) = 0.03099 0.49724
# Poissons Ratio (z) = 0.20876 0.38176
#
# Static dielectric constant tensor:
#      x y z
#    x 3.995700 0.285890 0.228770 
#    y 0.285890 4.063860 -0.282440 
#    z 0.228770 -0.282440 3.536680 
# 
# 
# High freq. dielectric constant tensor:
#      x y z
#    x 1.880490 0.011870 -0.000460 
#    y 0.011870 1.872610 -0.007050 
#    z -0.000460 -0.007050 1.870560 
# 
# From -- ./inp_files/244353.got.cif
#   From: 2010.06.25/outbox.cif.g09.slc.cpg/sg2_123_cif.got.tgz:244353.got - 2010.06.27 13:26:56.
