data_PCOD8033232
_publ_section_title
;
Structure prediction by ZEFSAII (Michael W. Deem and Ramdas Pophale) SiO2 
 PCOD8033232
Probable space group: P -1
;
_chemical_formula_sum "Si O2"
_cell_formula_units_Z 12
_cell_length_a 9.118876
_cell_length_b 8.402067
_cell_length_c 9.482661
_cell_angle_alpha 86.499203
_cell_angle_beta 72.265517
_cell_angle_gamma 49.371798
_cell_volume 515.644437
_symmetry_space_group_name_H-M "P -1"
_symmetry_group_IT_number 2
_symmetry_cell_setting 'triclinic'
loop_
_space_group_symop_operation_xyz
x,y,z
-x,-y,-z
loop_
_atom_site_type_symbol
_atom_site_label
_atom_site_fract_x
_atom_site_fract_y
_atom_site_fract_z
Si Si1 0.576010 0.562033 0.854838
Si Si2 0.310623 0.563398 0.464933
Si Si3 0.920157 0.787732 0.725031
Si Si4 0.005764 0.391303 0.796413
Si Si5 0.292442 0.197701 0.478140
Si Si6 0.829649 0.982392 0.028647
O O1 0.653256 0.401390 0.707888
O O2 0.762877 0.532409 0.865919
O O3 0.388861 0.810119 0.855451
O O4 0.500000 0.500000 0.000000
O O5 0.500000 0.500000 0.500000
O O6 0.302048 0.379897 0.456770
O O7 0.097519 0.766036 0.590646
O O8 0.036591 0.561532 0.785180
O O9 0.743934 0.849231 0.664552
O O10 0.812212 0.969617 0.865620
O O11 0.100818 0.269309 0.625418
O O12 0.115780 0.221867 0.900270
O O13 0.500000 0.000000 0.500000
O O14 0.000000 0.000000 0.000000
#
# Coordination Sequence:
#
# PCOD8033232 Si02
#       6
#     2   2   2   2   2   2
#     4  12  24  44  69 100 146 180 226 290 349 409
#     4  11  23  45  70  97 136 182 232 287 347 409
#     4  11  24  47  72 100 141 185 234 294 343 412
#     4  11  23  47  71  99 142 183 233 287 344 420
#     4  11  23  46  73 102 137 186 236 290 346 413
#     4  12  26  44  69 105 142 184 233 285 353 417
#
# _framework density 23.271851999999999
#
# number of rings (size 3 to 8) (size 9 to 14) (size 15 to 20)
#    0.000    0.667    5.000    3.500    0.000    2.000 
#    3.000    2.500    0.000    0.000    0.000    0.000 
#    0.000    0.000    0.000    0.000    0.000    0.000 
#
# Total GULP energy -148771.062045 kJ/mol
# GULP energy per Si atom -12397.588504 kJ/mol
# Density = 2.321888 g / cm^3
# Si number density = 23.271852 Si / 1000 Ang^3
#
#
#
# Elastic Constant Matrix: (Units=GPa)
#
#
# Indices 1 2 3 4 5 6 
#
# 1 120.1899 13.3540 49.8023 5.1641 5.9169 -17.8683
# 2 13.3540 71.9844 23.1225 -7.5788 -4.4505 -27.2571
# 3 49.8023 23.1225 157.6084 2.2086 2.8595 3.3272
# 4 5.1641 -7.5788 2.2086 37.3669 -2.0585 -0.3445
# 5 5.9169 -4.4505 2.8595 -2.0585 45.4772 7.4884
# 6 -17.8683 -27.2571 3.3272 -0.3445 7.4884 29.1975
#
#
#
# Elastic Compliance Matrix: (Units=1/GPa)
#
#
# Indices 1 2 3 4 5 6 
#
# 1 0.011614 0.003303 -0.004334 -0.000730 -0.002826 0.011401
# 2 0.003303 0.025780 -0.005441 0.005245 -0.001812 0.027234
# 3 -0.004334 -0.005441 0.008700 -0.001051 0.000914 -0.008970
# 4 -0.000730 0.005245 -0.001051 0.028096 0.001189 0.004596
# 5 -0.002826 -0.001812 0.000914 0.001189 0.023757 -0.009604
# 6 0.011401 0.027234 -0.008970 0.004596 -0.009604 0.070191
#
#
# Mechanical properties :
#
#
# Convention : Reuss Voigt Hill
#
# Bulk Modulus (GPa) = 30.16605 58.03782 44.10193
# Shear Modulus (GPa) = 26.02375 39.97526 32.99950
#
# Velocity S-wave (km/s) = 3.34765 4.14907 3.76972
# Velocity P-wave (km/s) = 5.28517 6.92432 6.15951
#
# Compressibility (1/GPa) = 0.03314985
#
# Stress axis : x y z
#
# Youngs Moduli (GPa) = 86.10016 38.79048 114.94158
#
# Poissons Ratio (x) = -0.12813 0.49813
# Poissons Ratio (y) = -0.28440 0.62544
# Poissons Ratio (z) = 0.37314 0.21107
#
# Static dielectric constant tensor:
#      x y z
#    x 4.400250 -0.345580 -0.294700 
#    y -0.345580 4.388550 0.207250 
#    z -0.294700 0.207250 4.647030 
# 
# 
# High freq. dielectric constant tensor:
#      x y z
#    x 1.916700 -0.011800 -0.011260 
#    y -0.011800 1.902700 0.000160 
#    z -0.011260 0.000160 1.947120 
# 
# From -- ./inp_files/151621.got.cif
#   From: 2010.06.25/outbox.cif.g09.slc.cpg/sg2_76_cif.got.tgz:151621.got - 2010.06.27 13:26:56.
