data_PCOD8033770
_publ_section_title
;
Structure prediction by ZEFSAII (Michael W. Deem and Ramdas Pophale) SiO2 
 PCOD8033770
Probable space group: P -1
;
_chemical_formula_sum "Si O2"
_cell_formula_units_Z 14
_cell_length_a 9.881790
_cell_length_b 14.610878
_cell_length_c 17.946979
_cell_angle_alpha 160.022575
_cell_angle_beta 45.655733
_cell_angle_gamma 137.348849
_cell_volume 599.476951
_symmetry_space_group_name_H-M "P -1"
_symmetry_group_IT_number 2
_symmetry_cell_setting 'triclinic'
loop_
_space_group_symop_operation_xyz
x,y,z
-x,-y,-z
loop_
_atom_site_type_symbol
_atom_site_label
_atom_site_fract_x
_atom_site_fract_y
_atom_site_fract_z
Si Si1 0.010528 0.962234 0.199943
Si Si2 0.760843 0.870602 0.497267
Si Si3 0.374013 0.770968 0.932379
Si Si4 0.473249 0.104480 0.868809
Si Si5 0.093213 0.576093 0.602882
Si Si6 0.174682 0.358250 0.116905
Si Si7 0.703928 0.012122 0.467649
O O1 0.822385 0.873862 0.260033
O O2 0.939512 0.879927 0.079985
O O3 0.119600 0.298220 0.417632
O O4 0.161685 0.813029 0.059152
O O5 0.678947 0.555908 0.324076
O O6 0.679323 0.087252 0.741165
O O7 0.672074 0.839725 0.424406
O O8 0.000000 0.000000 0.500000
O O9 0.500000 0.000000 0.000000
O O10 0.499357 0.820027 0.997376
O O11 0.310401 0.800702 0.686158
O O12 0.395067 0.336959 0.034437
O O13 0.000000 0.500000 0.500000
O O14 0.949435 0.696579 0.800443
O O15 0.183109 0.656891 0.306491
O O16 0.500000 0.000000 0.500000
#
# Coordination Sequence:
#
# PCOD8033770 Si02
#       7
#     2   2   2   2   2   2   2
#     4  11  24  44  68 100 141 183 230 295 348 415
#     4  12  28  48  71 102 147 194 238 287 348 424
#     4  12  28  46  72 103 144 184 242 290 354 420
#     4  12  26  43  73 104 141 189 235 292 355 417
#     4  11  24  41  72 104 142 177 236 295 357 417
#     4  11  24  42  71 103 135 182 235 291 359 418
#     4  11  25  43  68 100 138 178 239 291 346 416
#
# _framework density 23.353693
#
# number of rings (size 3 to 8) (size 9 to 14) (size 15 to 20)
#    0.000    0.571    1.429    5.571    6.000   11.429 
#    0.000    0.000    0.000    0.000    0.000    0.000 
#    0.000    0.000    0.000    0.000    0.000    0.000 
#
# Total GULP energy -173657.473026 kJ/mol
# GULP energy per Si atom -12404.105216 kJ/mol
# Density = 2.330054 g / cm^3
# Si number density = 23.353693 Si / 1000 Ang^3
#
#
#
# Elastic Constant Matrix: (Units=GPa)
#
#
# Indices 1 2 3 4 5 6 
#
# 1 116.9723 16.4712 26.3129 -0.5037 -4.2550 4.1808
# 2 16.4712 101.1907 36.8451 -6.9337 -4.1399 0.6636
# 3 26.3129 36.8451 112.9406 -10.0088 -11.3012 -1.5560
# 4 -0.5037 -6.9337 -10.0088 37.8603 1.8044 -5.8842
# 5 -4.2550 -4.1399 -11.3012 1.8044 45.5762 -5.4074
# 6 4.1808 0.6636 -1.5560 -5.8842 -5.4074 41.3863
#
#
#
# Elastic Compliance Matrix: (Units=1/GPa)
#
#
# Indices 1 2 3 4 5 6 
#
# 1 0.009138 -0.000823 -0.001918 -0.000710 0.000206 -0.001056
# 2 -0.000823 0.011336 -0.003399 0.001155 0.000058 -0.000055
# 3 -0.001918 -0.003399 0.010859 0.002314 0.002265 0.001281
# 4 -0.000710 0.001155 0.002314 0.027864 -0.000004 0.004101
# 5 0.000206 0.000058 0.002265 -0.000004 0.022890 0.003054
# 6 -0.001056 -0.000055 0.001281 0.004101 0.003054 0.025300
#
#
# Mechanical properties :
#
#
# Convention : Reuss Voigt Hill
#
# Bulk Modulus (GPa) = 52.47975 54.48468 53.48221
# Shear Modulus (GPa) = 39.67682 41.72952 40.70317
#
# Velocity S-wave (km/s) = 4.12631 4.23170 4.17934
# Velocity P-wave (km/s) = 6.72476 6.87439 6.79999
#
# Compressibility (1/GPa) = 0.01905497
#
# Stress axis : x y z
#
# Youngs Moduli (GPa) = 109.42833 88.21647 92.08735
#
# Poissons Ratio (x) = 0.07256 0.17659
# Poissons Ratio (y) = 0.09001 0.31301
# Poissons Ratio (z) = 0.20984 0.29985
#
# Static dielectric constant tensor:
#      x y z
#    x 4.257250 0.042780 -0.131300 
#    y 0.042780 4.182060 0.046920 
#    z -0.131300 0.046920 4.542620 
# 
# 
# High freq. dielectric constant tensor:
#      x y z
#    x 1.928560 0.000720 -0.006720 
#    y 0.000720 1.923690 0.001230 
#    z -0.006720 0.001230 1.942700 
# 
# From -- ./inp_files/101283.got.cif
#   From: 2010.06.25/outbox.cif.g09.slc.cpg/sg2_51_cif.got.tgz:101283.got - 2010.06.27 13:26:56.
