data_PCOD8033910
_publ_section_title
;
Structure prediction by ZEFSAII (Michael W. Deem and Ramdas Pophale) SiO2 
 PCOD8033910
Probable space group: P -1
;
_chemical_formula_sum "Si O2"
_cell_formula_units_Z 16
_cell_length_a 9.711750
_cell_length_b 8.643146
_cell_length_c 12.283239
_cell_angle_alpha 53.119234
_cell_angle_beta 96.805914
_cell_angle_gamma 77.832785
_cell_volume 765.604685
_symmetry_space_group_name_H-M "P -1"
_symmetry_group_IT_number 2
_symmetry_cell_setting 'triclinic'
loop_
_space_group_symop_operation_xyz
x,y,z
-x,-y,-z
loop_
_atom_site_type_symbol
_atom_site_label
_atom_site_fract_x
_atom_site_fract_y
_atom_site_fract_z
Si Si1 0.379185 0.655247 0.716790
Si Si2 0.088131 0.430059 0.148188
Si Si3 0.093692 0.200001 0.917461
Si Si4 0.585847 0.859827 0.757223
Si Si5 0.623268 0.293634 0.555288
Si Si6 0.944406 0.146539 0.330200
Si Si7 0.408054 0.212470 0.962572
Si Si8 0.078100 0.910289 0.223362
O O1 0.481083 0.788049 0.699035
O O2 0.338014 0.684144 0.574794
O O3 0.232523 0.755160 0.733248
O O4 0.454583 0.407716 0.849876
O O5 0.251854 0.285254 0.200320
O O6 0.065402 0.641242 0.120821
O O7 0.011771 0.325092 0.272331
O O8 0.000000 0.500000 0.000000
O O9 0.232820 0.276517 0.893937
O O10 0.054770 0.154683 0.810168
O O11 0.138345 0.014127 0.086857
O O12 0.567640 0.099284 0.641885
O O13 0.552183 0.820434 0.893715
O O14 0.500000 0.500000 0.500000
O O15 0.772460 0.269190 0.646785
O O16 0.000000 0.000000 0.500000
O O17 0.005716 0.049307 0.260549
O O18 0.500000 0.000000 0.000000
#
# Coordination Sequence:
#
# PCOD8033910 Si02
#       8
#     2   2   2   2   2   2   2   2
#     4  12  27  42  70 103 135 181 222 283 349 395
#     4  12  20  43  72  92 129 176 232 278 321 396
#     4  11  24  42  73  99 131 179 235 277 337 403
#     4  12  25  46  68  99 134 184 232 274 332 415
#     4  12  25  48  67  97 142 184 225 274 340 418
#     4  12  22  44  67  95 135 170 221 286 334 391
#     4  12  25  44  64 102 141 174 221 288 343 397
#     4  11  24  44  69 101 131 184 228 278 337 411
#
# _framework density 20.898512
#
# number of rings (size 3 to 8) (size 9 to 14) (size 15 to 20)
#    0.000    0.250    7.500    1.500    3.500    1.000 
#    0.000    1.250    0.000    0.000    0.000    0.000 
#    0.000    0.000    0.000    0.000    0.000    0.000 
#
# Total GULP energy -198308.850355 kJ/mol
# GULP energy per Si atom -12394.303147 kJ/mol
# Density = 2.085095 g / cm^3
# Si number density = 20.898512 Si / 1000 Ang^3
#
#
#
# Elastic Constant Matrix: (Units=GPa)
#
#
# Indices 1 2 3 4 5 6 
#
# 1 82.2481 35.6177 23.6628 10.4595 12.2776 -24.3626
# 2 35.6177 87.7265 24.2495 -2.6308 19.8395 -15.6747
# 3 23.6628 24.2495 119.9298 6.6398 1.5885 -4.0241
# 4 10.4595 -2.6308 6.6398 33.8868 0.1523 13.2279
# 5 12.2776 19.8395 1.5885 0.1523 29.7564 -6.4939
# 6 -24.3626 -15.6747 -4.0241 13.2279 -6.4939 27.3970
#
#
#
# Elastic Compliance Matrix: (Units=1/GPa)
#
#
# Indices 1 2 3 4 5 6 
#
# 1 0.026358 -0.005311 -0.002044 -0.019623 -0.000707 0.029407
# 2 -0.005311 0.016325 -0.002285 0.003079 -0.008412 0.000801
# 3 -0.002044 -0.002285 0.009208 -0.001013 0.001688 -0.000883
# 4 -0.019623 0.003079 -0.001013 0.052381 -0.003318 -0.041914
# 5 -0.000707 -0.008412 0.001688 -0.003318 0.040758 0.006069
# 6 0.029407 0.000801 -0.000883 -0.041914 0.006069 0.084654
#
#
# Mechanical properties :
#
#
# Convention : Reuss Voigt Hill
#
# Bulk Modulus (GPa) = 30.66521 50.77380 40.71951
# Shear Modulus (GPa) = 19.24309 31.96633 25.60471
#
# Velocity S-wave (km/s) = 3.03774 3.91525 3.50407
# Velocity P-wave (km/s) = 5.19702 6.69231 5.99150
#
# Compressibility (1/GPa) = 0.03261024
#
# Stress axis : x y z
#
# Youngs Moduli (GPa) = 37.93927 61.25657 108.60463
#
# Poissons Ratio (x) = 0.32531 0.22201
# Poissons Ratio (y) = 0.20148 0.24818
# Poissons Ratio (z) = 0.07756 0.13998
#
# Static dielectric constant tensor:
#      x y z
#    x 3.540350 0.052270 -0.132220 
#    y 0.052270 4.290530 -0.118110 
#    z -0.132220 -0.118110 3.983350 
# 
# 
# High freq. dielectric constant tensor:
#      x y z
#    x 1.814900 -0.008020 0.000260 
#    y -0.008020 1.831200 -0.000150 
#    z 0.000260 -0.000150 1.829400 
# 
# From -- ./inp_files/208426.got.cif
#   From: 2010.06.25/outbox.cif.g09.slc.cpg/sg2_105_cif.got.tgz:208426.got - 2010.06.27 13:26:56.
