data_PCOD8033443
_publ_section_title
;
Structure prediction by ZEFSAII (Michael W. Deem and Ramdas Pophale) SiO2 
 PCOD8033443
Probable space group: P -1
;
_chemical_formula_sum "Si O2"
_cell_formula_units_Z 14
_cell_length_a 17.132569
_cell_length_b 9.022068
_cell_length_c 10.730258
_cell_angle_alpha 105.505650
_cell_angle_beta 51.280307
_cell_angle_gamma 144.468099
_cell_volume 636.293182
_symmetry_space_group_name_H-M "P -1"
_symmetry_group_IT_number 2
_symmetry_cell_setting 'triclinic'
loop_
_space_group_symop_operation_xyz
x,y,z
-x,-y,-z
loop_
_atom_site_type_symbol
_atom_site_label
_atom_site_fract_x
_atom_site_fract_y
_atom_site_fract_z
Si Si1 0.157259 0.198868 0.547062
Si Si2 0.009417 0.152653 0.119922
Si Si3 0.451293 0.850043 0.884399
Si Si4 0.142091 0.827351 0.915780
Si Si5 0.798064 0.901110 0.857592
Si Si6 0.480464 0.866034 0.370450
Si Si7 0.606287 0.761544 0.801862
O O1 0.270770 0.510176 0.510611
O O2 0.284045 0.245546 0.354841
O O3 0.122440 0.070650 0.683710
O O4 0.942913 0.970352 0.658339
O O5 0.896724 0.149297 0.173969
O O6 0.228240 0.494594 0.018097
O O7 0.000000 0.000000 0.000000
O O8 0.601930 0.902220 0.746001
O O9 0.501333 0.018491 0.752203
O O10 0.500000 0.000000 0.000000
O O11 0.364289 0.066705 0.761383
O O12 0.000000 0.500000 0.000000
O O13 0.089466 0.881776 0.087038
O O14 0.727309 0.950185 0.851941
O O15 0.616740 0.563931 0.013124
O O16 0.500000 0.000000 0.500000
#
# Coordination Sequence:
#
# PCOD8033443 Si02
#       7
#     2   2   2   2   2   2   2
#     4  12  25  45  74 109 141 191 250 301 357 449
#     4  12  25  47  76 107 147 196 246 303 366 447
#     4  12  27  50  73 109 153 193 243 310 375 435
#     4  12  23  44  72 100 143 191 239 291 376 429
#     4  11  23  46  72 103 143 191 236 300 363 441
#     4  12  27  46  71 110 151 190 247 312 367 439
#     4  11  25  44  76 102 143 190 243 293 370 434
#
# _framework density 22.002437
#
# number of rings (size 3 to 8) (size 9 to 14) (size 15 to 20)
#    0.000    0.286    5.714    3.000    4.000    1.714 
#    0.000    1.429    0.000    0.000    0.000    0.000 
#    0.000    0.000    0.000    0.000    0.000    0.000 
#
# Total GULP energy -173486.501231 kJ/mol
# GULP energy per Si atom -12391.892945 kJ/mol
# Density = 2.195236 g / cm^3
# Si number density = 22.002437 Si / 1000 Ang^3
#
#
#
# Elastic Constant Matrix: (Units=GPa)
#
#
# Indices 1 2 3 4 5 6 
#
# 1 215.1332 44.2478 58.1530 -13.5521 2.8323 -12.3611
# 2 44.2478 110.3627 45.3310 -6.8292 -1.4757 10.3397
# 3 58.1530 45.3310 120.7191 -17.1547 -9.7043 -2.5222
# 4 -13.5521 -6.8292 -17.1547 29.8306 -9.1678 2.9371
# 5 2.8323 -1.4757 -9.7043 -9.1678 48.1704 2.0532
# 6 -12.3611 10.3397 -2.5222 2.9371 2.0532 31.3212
#
#
#
# Elastic Compliance Matrix: (Units=1/GPa)
#
#
# Indices 1 2 3 4 5 6 
#
# 1 0.005752 -0.001682 -0.002076 0.000519 -0.000823 0.002663
# 2 -0.001682 0.011705 -0.003646 0.000291 -0.000015 -0.004848
# 3 -0.002076 -0.003646 0.011805 0.006038 0.003515 0.000538
# 4 0.000519 0.000291 0.006038 0.040454 0.009056 -0.003792
# 5 -0.000823 -0.000015 0.003515 0.009056 0.023342 -0.002416
# 6 0.002663 -0.004848 0.000538 -0.003792 -0.002416 0.035136
#
#
# Mechanical properties :
#
#
# Convention : Reuss Voigt Hill
#
# Bulk Modulus (GPa) = 69.18702 82.40875 75.79789
# Shear Modulus (GPa) = 33.82501 41.76331 37.79416
#
# Velocity S-wave (km/s) = 3.92513 4.36147 4.14904
# Velocity P-wave (km/s) = 7.21496 7.93088 7.58138
#
# Compressibility (1/GPa) = 0.01445358
#
# Stress axis : x y z
#
# Youngs Moduli (GPa) = 173.85492 85.43346 84.71183
#
# Poissons Ratio (x) = 0.14368 0.17586
# Poissons Ratio (y) = 0.29239 0.30888
# Poissons Ratio (z) = 0.36092 0.31151
#
# Static dielectric constant tensor:
#      x y z
#    x 5.733870 0.491000 0.098590 
#    y 0.491000 4.055110 -0.054740 
#    z 0.098590 -0.054740 3.796770 
# 
# 
# High freq. dielectric constant tensor:
#      x y z
#    x 1.898700 0.002730 -0.004250 
#    y 0.002730 1.866240 0.001170 
#    z -0.004250 0.001170 1.864850 
# 
# From -- ./inp_files/461381.got.cif
#   From: 2010.06.25/outbox.cif.g09.slc.cpg/sg2_231_cif.got.tgz:461381.got - 2010.06.27 13:26:56.
