data_PCOD8033248
_publ_section_title
;
Structure prediction by ZEFSAII (Michael W. Deem and Ramdas Pophale) SiO2 
 PCOD8033248
Probable space group: P -1
;
_chemical_formula_sum "Si O2"
_cell_formula_units_Z 14
_cell_length_a 12.503096
_cell_length_b 11.873895
_cell_length_c 8.501742
_cell_angle_alpha 49.127647
_cell_angle_beta 60.832048
_cell_angle_gamma 42.547778
_cell_volume 645.346246
_symmetry_space_group_name_H-M "P -1"
_symmetry_group_IT_number 2
_symmetry_cell_setting 'triclinic'
loop_
_space_group_symop_operation_xyz
x,y,z
-x,-y,-z
loop_
_atom_site_type_symbol
_atom_site_label
_atom_site_fract_x
_atom_site_fract_y
_atom_site_fract_z
Si Si1 0.206617 0.440767 0.785217
Si Si2 0.078377 0.397317 0.377839
Si Si3 0.368931 0.697913 0.830547
Si Si4 0.645404 0.975386 0.339192
Si Si5 0.474562 0.682014 0.422526
Si Si6 0.749712 0.917420 0.967393
Si Si7 0.886009 0.331657 0.048784
O O1 0.355938 0.370935 0.637980
O O2 0.184544 0.580577 0.808568
O O3 0.047584 0.572347 0.679351
O O4 0.233530 0.247249 0.999901
O O5 0.207737 0.173279 0.518390
O O6 0.000000 0.500000 0.500000
O O7 0.159901 0.484756 0.179313
O O8 0.410039 0.722553 0.605888
O O9 0.202167 0.739688 0.902517
O O10 0.364786 0.839872 0.819951
O O11 0.500000 0.500000 0.000000
O O12 0.500000 0.000000 0.500000
O O13 0.675440 0.915977 0.187696
O O14 0.500000 0.500000 0.500000
O O15 0.358021 0.873820 0.225262
O O16 0.926412 0.847673 0.926062
#
# Coordination Sequence:
#
# PCOD8033248 Si02
#       7
#     2   2   2   2   2   2   2
#     4  11  24  45  73  99 139 178 228 283 334 412
#     4  11  23  45  71 104 133 180 230 279 340 401
#     4  12  28  45  70 102 139 181 228 286 344 406
#     4  12  26  44  73 103 138 182 229 283 340 407
#     4  12  26  45  68 101 138 181 228 282 345 403
#     4  11  25  46  69 104 135 181 231 280 341 408
#     4  11  25  46  70 101 141 179 226 283 344 406
#
# _framework density 21.69378
#
# number of rings (size 3 to 8) (size 9 to 14) (size 15 to 20)
#    0.000    0.571    4.286    4.714    8.000    2.286 
#    0.000    0.000    0.000    0.000    0.000    0.000 
#    0.000    0.000    0.000    0.000    0.000    0.000 
#
# Total GULP energy -173563.451751 kJ/mol
# GULP energy per Si atom -12397.389411 kJ/mol
# Density = 2.164440 g / cm^3
# Si number density = 21.693780 Si / 1000 Ang^3
#
#
#
# Elastic Constant Matrix: (Units=GPa)
#
#
# Indices 1 2 3 4 5 6 
#
# 1 115.6422 38.7126 36.7122 -6.2379 -27.5517 -7.4128
# 2 38.7126 98.6182 36.3172 -17.0419 -1.7111 -17.1355
# 3 36.7122 36.3172 112.2827 -16.3667 9.9580 -26.8855
# 4 -6.2379 -17.0419 -16.3667 53.8943 -2.3012 -3.8820
# 5 -27.5517 -1.7111 9.9580 -2.3012 33.3267 8.4979
# 6 -7.4128 -17.1355 -26.8855 -3.8820 8.4979 36.5073
#
#
#
# Elastic Compliance Matrix: (Units=1/GPa)
#
#
# Indices 1 2 3 4 5 6 
#
# 1 0.016397 -0.005218 -0.007743 -0.002004 0.017803 -0.009179
# 2 -0.005218 0.014080 -0.000098 0.004113 -0.005088 0.007099
# 3 -0.007743 -0.000098 0.017056 0.004688 -0.014986 0.014930
# 4 -0.002004 0.004113 0.004688 0.021482 -0.003418 0.008056
# 5 0.017803 -0.005088 -0.014986 -0.003418 0.054536 -0.022867
# 6 -0.009179 0.007099 0.014930 0.008056 -0.022867 0.046035
#
#
# Mechanical properties :
#
#
# Convention : Reuss Voigt Hill
#
# Bulk Modulus (GPa) = 46.68927 61.11413 53.90170
# Shear Modulus (GPa) = 24.64986 39.06574 31.85780
#
# Velocity S-wave (km/s) = 3.37451 4.24816 3.83629
# Velocity P-wave (km/s) = 6.06232 7.23153 6.67258
#
# Compressibility (1/GPa) = 0.02141820
#
# Stress axis : x y z
#
# Youngs Moduli (GPa) = 60.98591 71.02132 58.62876
#
# Poissons Ratio (x) = 0.37057 0.45393
# Poissons Ratio (y) = 0.31821 0.00572
# Poissons Ratio (z) = 0.47219 0.00693
#
# Static dielectric constant tensor:
#      x y z
#    x 3.980780 0.112190 -0.159440 
#    y 0.112190 3.997470 0.122990 
#    z -0.159440 0.122990 4.098590 
# 
# 
# High freq. dielectric constant tensor:
#      x y z
#    x 1.858360 -0.005070 -0.003470 
#    y -0.005070 1.866570 0.001790 
#    z -0.003470 0.001790 1.859340 
# 
# From -- ./inp_files/155390.got.cif
#   From: 2010.06.25/outbox.cif.g09.slc.cpg/sg2_78_cif.got.tgz:155390.got - 2010.06.27 13:26:56.
