data_PCOD8033246
_publ_section_title
;
Structure prediction by ZEFSAII (Michael W. Deem and Ramdas Pophale) SiO2 
 PCOD8033246
Probable space group: P -1
;
_chemical_formula_sum "Si O2"
_cell_formula_units_Z 14
_cell_length_a 10.696452
_cell_length_b 14.412806
_cell_length_c 19.159594
_cell_angle_alpha 22.223661
_cell_angle_beta 33.854394
_cell_angle_gamma 32.165823
_cell_volume 578.446059
_symmetry_space_group_name_H-M "P -1"
_symmetry_group_IT_number 2
_symmetry_cell_setting 'triclinic'
loop_
_space_group_symop_operation_xyz
x,y,z
-x,-y,-z
loop_
_atom_site_type_symbol
_atom_site_label
_atom_site_fract_x
_atom_site_fract_y
_atom_site_fract_z
Si Si1 0.667446 0.385064 0.365973
Si Si2 0.424801 0.830311 0.780351
Si Si3 0.785344 0.208088 0.645318
Si Si4 0.903107 0.798469 0.622666
Si Si5 0.569415 0.378564 0.935498
Si Si6 0.149915 0.341731 0.477509
Si Si7 0.274585 0.311223 0.994702
O O1 0.445846 0.518849 0.429154
O O2 0.594212 0.542949 0.217419
O O3 0.924792 0.400147 0.261228
O O4 0.722391 0.074497 0.547745
O O5 0.719586 0.685991 0.749820
O O6 0.368663 0.632768 0.889819
O O7 0.369370 0.110671 0.574193
O O8 0.310716 0.834989 0.908066
O O9 0.897115 0.168430 0.544221
O O10 0.994183 0.204037 0.604426
O O11 0.702954 0.959842 0.865511
O O12 0.765000 0.466916 0.743174
O O13 0.425034 0.257023 0.035044
O O14 0.000000 0.500000 0.500000
O O15 0.000000 0.500000 0.000000
#
# Coordination Sequence:
#
# PCOD8033246 Si02
#       7
#     2   2   2   2   2   2   2
#     4  11  25  43  69 105 141 182 232 293 360 417
#     4  11  24  45  73 101 141 186 241 285 355 429
#     4  12  25  45  71 105 139 184 235 293 352 419
#     4  11  23  45  71 103 138 184 234 291 354 422
#     4  11  25  45  70 103 139 188 236 287 353 424
#     4  12  26  47  72 104 145 185 235 293 354 427
#     4  12  23  43  70 103 140 184 236 290 354 419
#
# _framework density 24.202776
#
# number of rings (size 3 to 8) (size 9 to 14) (size 15 to 20)
#    0.000    0.571    2.857    5.571    2.000    1.714 
#    2.571    0.000    0.000    0.000    0.000    0.000 
#    0.000    0.000    0.000    0.000    0.000    0.000 
#
# Total GULP energy -173488.025869 kJ/mol
# GULP energy per Si atom -12392.001848 kJ/mol
# Density = 2.414769 g / cm^3
# Si number density = 24.202776 Si / 1000 Ang^3
#
#
#
# Elastic Constant Matrix: (Units=GPa)
#
#
# Indices 1 2 3 4 5 6 
#
# 1 126.4562 31.8947 32.7415 4.3452 -12.1611 7.7755
# 2 31.8947 132.0730 34.8956 0.6487 3.2679 8.2966
# 3 32.7415 34.8956 99.6212 17.4260 6.4119 6.2881
# 4 4.3452 0.6487 17.4260 27.9495 3.6054 3.0313
# 5 -12.1611 3.2679 6.4119 3.6054 37.6371 -0.5358
# 6 7.7755 8.2966 6.2881 3.0313 -0.5358 36.9492
#
#
#
# Elastic Compliance Matrix: (Units=1/GPa)
#
#
# Indices 1 2 3 4 5 6 
#
# 1 0.009425 -0.001586 -0.002689 -0.000101 0.003635 -0.001109
# 2 -0.001586 0.008784 -0.002762 0.002043 -0.001019 -0.001351
# 3 -0.002689 -0.002762 0.013378 -0.007521 -0.002195 -0.000505
# 4 -0.000101 0.002043 -0.007521 0.041089 -0.002901 -0.002571
# 5 0.003635 -0.001019 -0.002195 -0.002901 0.028491 0.000489
# 6 -0.001109 -0.001351 -0.000505 -0.002571 0.000489 0.027905
#
#
# Mechanical properties :
#
#
# Convention : Reuss Voigt Hill
#
# Bulk Modulus (GPa) = 57.09560 61.91267 59.50413
# Shear Modulus (GPa) = 33.56058 37.74839 35.65449
#
# Velocity S-wave (km/s) = 3.72780 3.95355 3.84234
# Velocity P-wave (km/s) = 6.49388 6.81741 6.65761
#
# Compressibility (1/GPa) = 0.01751449
#
# Stress axis : x y z
#
# Youngs Moduli (GPa) = 106.09947 113.83833 74.74940
#
# Poissons Ratio (x) = 0.18049 0.20097
# Poissons Ratio (y) = 0.16822 0.20649
# Poissons Ratio (z) = 0.28526 0.31447
#
# Static dielectric constant tensor:
#      x y z
#    x 4.534660 0.219850 0.158880 
#    y 0.219850 4.234610 0.055350 
#    z 0.158880 0.055350 4.555230 
# 
# 
# High freq. dielectric constant tensor:
#      x y z
#    x 1.983580 0.017370 -0.001550 
#    y 0.017370 1.944540 0.008000 
#    z -0.001550 0.008000 1.959070 
# 
# From -- ./inp_files/595566.got.cif
#   From: 2010.06.25/outbox.cif.g09.slc.cpg/sg2_298_cif.got.tgz:595566.got - 2010.06.27 13:26:56.
