data_PCOD8033295
_publ_section_title
;
Structure prediction by ZEFSAII (Michael W. Deem and Ramdas Pophale) SiO2 
 PCOD8033295
Probable space group: P -1
;
_chemical_formula_sum "Si O2"
_cell_formula_units_Z 14
_cell_length_a 9.491936
_cell_length_b 22.037735
_cell_length_c 12.121940
_cell_angle_alpha 151.798268
_cell_angle_beta 120.977200
_cell_angle_gamma 38.657087
_cell_volume 605.597913
_symmetry_space_group_name_H-M "P -1"
_symmetry_group_IT_number 2
_symmetry_cell_setting 'triclinic'
loop_
_space_group_symop_operation_xyz
x,y,z
-x,-y,-z
loop_
_atom_site_type_symbol
_atom_site_label
_atom_site_fract_x
_atom_site_fract_y
_atom_site_fract_z
Si Si1 0.780123 0.282394 0.211460
Si Si2 0.101297 0.185029 0.373254
Si Si3 0.248024 0.974927 0.317380
Si Si4 0.412256 0.154511 0.117031
Si Si5 0.102217 0.417999 0.032920
Si Si6 0.169677 0.560040 0.710765
Si Si7 0.184484 0.649535 0.093218
O O1 0.500000 0.500000 0.500000
O O2 0.862944 0.339667 0.252528
O O3 0.993478 0.143424 0.177564
O O4 0.748757 0.171629 0.955850
O O5 0.941886 0.419212 0.660691
O O6 0.083588 0.161868 0.458250
O O7 0.422111 0.987582 0.153950
O O8 0.565926 0.825484 0.223633
O O9 0.054486 0.106698 0.560206
O O10 0.429780 0.292938 0.388808
O O11 0.113000 0.339566 0.237175
O O12 0.500000 0.000000 0.000000
O O13 0.000000 0.500000 0.000000
O O14 0.899060 0.440434 0.041981
O O15 0.180236 0.652151 0.963707
O O16 0.500000 0.500000 0.000000
#
# Coordination Sequence:
#
# PCOD8033295 Si02
#       7
#     2   2   2   2   2   2   2
#     4  12  26  46  75 109 146 193 251 312 371 443
#     4  12  25  46  81 106 144 193 255 311 375 443
#     4  12  28  50  76 110 151 202 251 309 376 453
#     4  11  23  45  73 107 142 192 241 309 379 441
#     4  12  27  51  78 109 151 200 260 300 376 461
#     4  11  27  46  69 107 154 187 248 308 378 442
#     4  12  30  49  76 110 155 199 248 313 375 448
#
# _framework density 23.117647999999999
#
# number of rings (size 3 to 8) (size 9 to 14) (size 15 to 20)
#    0.000    0.286    4.286    3.429   10.000    1.714 
#    0.000    0.000    0.000    0.000    0.000    0.000 
#    0.000    0.000    0.000    0.000    0.000    0.000 
#
# Total GULP energy -173442.206044 kJ/mol
# GULP energy per Si atom -12388.729003 kJ/mol
# Density = 2.306503 g / cm^3
# Si number density = 23.117648 Si / 1000 Ang^3
#
#
#
# Elastic Constant Matrix: (Units=GPa)
#
#
# Indices 1 2 3 4 5 6 
#
# 1 78.2786 30.4585 31.6818 7.9223 -10.0963 -20.2867
# 2 30.4585 125.2703 32.5862 -6.3018 -8.0246 -2.6439
# 3 31.6818 32.5862 166.7956 -5.6002 -9.2420 -13.2827
# 4 7.9223 -6.3018 -5.6002 37.2158 2.2857 -4.0678
# 5 -10.0963 -8.0246 -9.2420 2.2857 47.7288 1.9647
# 6 -20.2867 -2.6439 -13.2827 -4.0678 1.9647 32.0356
#
#
#
# Elastic Compliance Matrix: (Units=1/GPa)
#
#
# Indices 1 2 3 4 5 6 
#
# 1 0.018310 -0.003766 -0.001945 -0.003918 0.002647 0.009818
# 2 -0.003766 0.009292 -0.001155 0.001964 0.000525 -0.001880
# 3 -0.001945 -0.001155 0.006799 0.001385 0.000577 0.001632
# 4 -0.003918 0.001964 0.001385 0.028565 -0.001680 0.001985
# 5 0.002647 0.000525 0.000577 -0.001680 0.021775 0.000410
# 6 0.009818 -0.001880 0.001632 0.001985 0.000410 0.038181
#
#
# Mechanical properties :
#
#
# Convention : Reuss Voigt Hill
#
# Bulk Modulus (GPa) = 48.38288 62.19972 55.29130
# Shear Modulus (GPa) = 34.83275 41.77056 38.30166
#
# Velocity S-wave (km/s) = 3.88591 4.25534 4.07481
# Velocity P-wave (km/s) = 6.41157 7.14899 6.79029
#
# Compressibility (1/GPa) = 0.02066847
#
# Stress axis : x y z
#
# Youngs Moduli (GPa) = 54.61558 107.62464 147.08360
#
# Poissons Ratio (x) = 0.40534 0.28609
# Poissons Ratio (y) = 0.20570 0.16981
# Poissons Ratio (z) = 0.10623 0.12426
#
# Static dielectric constant tensor:
#      x y z
#    x 4.300630 -0.015360 -0.135420 
#    y -0.015360 4.081840 -0.246750 
#    z -0.135420 -0.246750 4.742080 
# 
# 
# High freq. dielectric constant tensor:
#      x y z
#    x 1.911870 -0.003780 -0.007500 
#    y -0.003780 1.918940 -0.008910 
#    z -0.007500 -0.008910 1.936840 
# 
# From -- ./inp_files/69663.got.cif
#   From: 2010.06.25/outbox.cif.g09.slc.cpg/sg2_35_cif.got.tgz:69663.got - 2010.06.27 13:26:56.
