data_PCOD8033314
_publ_section_title
;
Structure prediction by ZEFSAII (Michael W. Deem and Ramdas Pophale) SiO2 
 PCOD8033314
Probable space group: P -1
;
_chemical_formula_sum "Si O2"
_cell_formula_units_Z 16
_cell_length_a 11.468014
_cell_length_b 6.883825
_cell_length_c 10.986986
_cell_angle_alpha 74.858701
_cell_angle_beta 76.196082
_cell_angle_gamma 59.260947
_cell_volume 713.818095
_symmetry_space_group_name_H-M "P -1"
_symmetry_group_IT_number 2
_symmetry_cell_setting 'triclinic'
loop_
_space_group_symop_operation_xyz
x,y,z
-x,-y,-z
loop_
_atom_site_type_symbol
_atom_site_label
_atom_site_fract_x
_atom_site_fract_y
_atom_site_fract_z
Si Si1 0.741176 0.165190 0.785297
Si Si2 0.092376 0.587826 0.345296
Si Si3 0.424598 0.747035 0.415327
Si Si4 0.631509 0.278533 0.050327
Si Si5 0.201716 0.498860 0.914217
Si Si6 0.359523 0.119780 0.739768
Si Si7 0.805069 0.840342 0.458138
Si Si8 0.924620 0.666106 0.827375
O O1 0.817949 0.312853 0.752689
O O2 0.612100 0.289670 0.707079
O O3 0.840441 0.915442 0.747277
O O4 0.702690 0.131092 0.936877
O O5 0.196657 0.370414 0.435334
O O6 0.024584 0.513987 0.265330
O O7 0.965339 0.779185 0.423740
O O8 0.500000 0.500000 0.500000
O O9 0.518535 0.870020 0.365985
O O10 0.287055 0.913286 0.496533
O O11 0.734595 0.339804 0.088100
O O12 0.586102 0.128381 0.170333
O O13 0.500000 0.500000 0.000000
O O14 0.302541 0.317290 0.822253
O O15 0.052868 0.657581 0.867621
O O16 0.180418 0.370859 0.054915
O O17 0.243802 0.153768 0.667820
#
# Coordination Sequence:
#
# PCOD8033314 Si02
#       8
#     2   2   2   2   2   2   2   2
#     4  12  26  45  75 106 144 182 242 297 368 426
#     4  11  24  48  75 104 144 185 240 305 358 422
#     4  12  29  48  74 105 145 197 246 293 351 428
#     4  12  29  44  73 106 146 191 233 293 362 439
#     4  11  25  45  73 106 145 181 239 288 371 424
#     4  12  27  47  72 103 148 187 239 294 354 428
#     4  11  26  48  73 102 142 195 240 296 358 415
#     4  11  23  45  74 105 143 187 229 309 357 430
#
# _framework density 22.414674999999999
#
# number of rings (size 3 to 8) (size 9 to 14) (size 15 to 20)
#    0.000    0.500    5.000    1.875    8.750    2.000 
#    0.000    0.000    0.000    0.000    0.000    0.000 
#    0.000    0.000    0.000    0.000    0.000    0.000 
#
# Total GULP energy -198458.001034 kJ/mol
# GULP energy per Si atom -12403.625065 kJ/mol
# Density = 2.236366 g / cm^3
# Si number density = 22.414675 Si / 1000 Ang^3
#
#
#
# Elastic Constant Matrix: (Units=GPa)
#
#
# Indices 1 2 3 4 5 6 
#
# 1 96.0312 46.4204 32.8076 -18.0328 2.9299 6.6291
# 2 46.4204 123.7150 49.3501 -14.5991 0.5795 -10.8589
# 3 32.8076 49.3501 108.0661 -17.3999 8.4076 0.3610
# 4 -18.0328 -14.5991 -17.3999 47.6739 0.2321 -1.7959
# 5 2.9299 0.5795 8.4076 0.2321 35.1118 2.8984
# 6 6.6291 -10.8589 0.3610 -1.7959 2.8984 32.7240
#
#
#
# Elastic Compliance Matrix: (Units=1/GPa)
#
#
# Indices 1 2 3 4 5 6 
#
# 1 0.014100 -0.004640 -0.001607 0.003171 -0.000392 -0.004170
# 2 -0.004640 0.011924 -0.004012 0.000614 0.000742 0.004909
# 3 -0.001607 -0.004012 0.012203 0.002602 -0.002676 -0.000761
# 4 0.003171 0.000614 0.002602 0.023353 -0.001128 0.000914
# 5 -0.000392 0.000742 -0.002676 -0.001128 0.029339 -0.002305
# 6 -0.004170 0.004909 -0.000761 0.000914 -0.002305 0.033295
#
#
# Mechanical properties :
#
#
# Convention : Reuss Voigt Hill
#
# Bulk Modulus (GPa) = 56.46404 64.99650 60.73027
# Shear Modulus (GPa) = 33.19262 36.38424 34.78843
#
# Velocity S-wave (km/s) = 3.85235 4.03331 3.94387
# Velocity P-wave (km/s) = 6.71065 7.12393 6.92037
#
# Compressibility (1/GPa) = 0.01771039
#
# Stress axis : x y z
#
# Youngs Moduli (GPa) = 70.92070 83.86268 81.94474
#
# Poissons Ratio (x) = 0.38909 0.13168
# Poissons Ratio (y) = 0.32905 0.32878
# Poissons Ratio (z) = 0.11396 0.33647
#
# Static dielectric constant tensor:
#      x y z
#    x 3.935780 -0.038340 0.034430 
#    y -0.038340 3.894980 0.028960 
#    z 0.034430 0.028960 4.249930 
# 
# 
# High freq. dielectric constant tensor:
#      x y z
#    x 1.882150 -0.006110 0.004810 
#    y -0.006110 1.884620 0.000990 
#    z 0.004810 0.000990 1.899710 
# 
# From -- ./inp_files/70140.got.cif
#   From: 2010.06.25/outbox.cif.g09.slc.cpg/sg2_36_cif.got.tgz:70140.got - 2010.06.27 13:26:56.
