data_PCOD8033969
_publ_section_title
;
Structure prediction by ZEFSAII (Michael W. Deem and Ramdas Pophale) SiO2 
 PCOD8033969
Probable space group: P -1
;
_chemical_formula_sum "Si O2"
_cell_formula_units_Z 16
_cell_length_a 8.662751
_cell_length_b 14.321055
_cell_length_c 11.693156
_cell_angle_alpha 77.786586
_cell_angle_beta 32.874684
_cell_angle_gamma 66.884951
_cell_volume 703.626047
_symmetry_space_group_name_H-M "P -1"
_symmetry_group_IT_number 2
_symmetry_cell_setting 'triclinic'
loop_
_space_group_symop_operation_xyz
x,y,z
-x,-y,-z
loop_
_atom_site_type_symbol
_atom_site_label
_atom_site_fract_x
_atom_site_fract_y
_atom_site_fract_z
Si Si1 0.886838 0.906354 0.581024
Si Si2 0.703990 0.326827 0.915828
Si Si3 0.759358 0.760045 0.858504
Si Si4 0.682219 0.035367 0.254569
Si Si5 0.397954 0.578699 0.440832
Si Si6 0.660246 0.507941 0.728270
Si Si7 0.539359 0.757996 0.236340
Si Si8 0.643390 0.834372 0.390861
O O1 0.770936 0.868999 0.780248
O O2 0.618219 0.931624 0.648914
O O3 0.197413 0.806233 0.376970
O O4 0.000000 0.000000 0.500000
O O5 0.644165 0.413960 0.835654
O O6 0.071315 0.270353 0.722941
O O7 0.554790 0.246927 0.990356
O O8 0.551316 0.380195 0.116273
O O9 0.041964 0.659005 0.658752
O O10 0.775731 0.757004 0.988581
O O11 0.631138 0.132624 0.349485
O O12 0.740430 0.931276 0.316552
O O13 0.000000 0.000000 0.000000
O O14 0.500000 0.500000 0.500000
O O15 0.468658 0.500163 0.312390
O O16 0.612356 0.643361 0.272049
O O17 0.000000 0.500000 0.500000
O O18 0.535687 0.829146 0.329442
#
# Coordination Sequence:
#
# PCOD8033969 Si02
#       8
#     2   2   2   2   2   2   2   2
#     4  11  24  48  73 103 142 183 239 301 356 435
#     4  11  24  44  72 101 141 191 240 296 352 433
#     4  11  24  44  71 100 137 197 235 286 366 424
#     4  11  25  47  73 103 141 183 236 298 363 425
#     4  11  26  43  67 103 142 181 238 298 352 419
#     4  11  24  43  68 102 142 192 242 288 361 426
#     4  11  25  47  67 101 144 187 236 292 358 436
#     4  11  26  44  69 103 139 181 237 296 356 422
#
# _framework density 22.739350999999999
#
# number of rings (size 3 to 8) (size 9 to 14) (size 15 to 20)
#    0.000    1.000    3.750    1.500    5.250    5.000 
#    0.000    0.000    0.000    0.000    0.000    0.000 
#    0.000    0.000    0.000    0.000    0.000    0.000 
#
# Total GULP energy -198281.310409 kJ/mol
# GULP energy per Si atom -12392.581901 kJ/mol
# Density = 2.268760 g / cm^3
# Si number density = 22.739351 Si / 1000 Ang^3
#
#
#
# Elastic Constant Matrix: (Units=GPa)
#
#
# Indices 1 2 3 4 5 6 
#
# 1 124.9379 41.6980 52.3228 10.9594 29.8085 6.2177
# 2 41.6980 114.1450 42.8120 -13.5860 16.0607 -0.9503
# 3 52.3228 42.8120 131.8903 6.0557 29.6218 11.4251
# 4 10.9594 -13.5860 6.0557 44.9256 0.4575 2.0916
# 5 29.8085 16.0607 29.6218 0.4575 45.0894 4.9807
# 6 6.2177 -0.9503 11.4251 2.0916 4.9807 40.4375
#
#
#
# Elastic Compliance Matrix: (Units=1/GPa)
#
#
# Indices 1 2 3 4 5 6 
#
# 1 0.011456 -0.003045 -0.002261 -0.003341 -0.004924 -0.000415
# 2 -0.003045 0.011523 -0.002749 0.004541 -0.000479 0.001340
# 3 -0.002261 -0.002749 0.010574 -0.001564 -0.004225 -0.002103
# 4 -0.003341 0.004541 -0.001564 0.024662 0.001412 -0.000387
# 5 -0.004924 -0.000479 -0.004225 0.001412 0.028547 -0.001650
# 6 -0.000415 0.001340 -0.002103 -0.000387 -0.001650 0.025642
#
#
# Mechanical properties :
#
#
# Convention : Reuss Voigt Hill
#
# Bulk Modulus (GPa) = 57.33196 71.62653 64.47925
# Shear Modulus (GPa) = 37.22182 41.69986 39.46084
#
# Velocity S-wave (km/s) = 4.05024 4.28696 4.17028
# Velocity P-wave (km/s) = 6.86586 7.48808 7.18371
#
# Compressibility (1/GPa) = 0.01744228
#
# Stress axis : x y z
#
# Youngs Moduli (GPa) = 87.29354 86.77935 94.56860
#
# Poissons Ratio (x) = 0.26426 0.21382
# Poissons Ratio (y) = 0.26582 0.26001
# Poissons Ratio (z) = 0.19737 0.23859
#
# Static dielectric constant tensor:
#      x y z
#    x 4.315060 0.094680 0.415550 
#    y 0.094680 4.377720 0.057310 
#    z 0.415550 0.057310 4.660530 
# 
# 
# High freq. dielectric constant tensor:
#      x y z
#    x 1.892460 -0.003810 0.016150 
#    y -0.003810 1.901800 0.000780 
#    z 0.016150 0.000780 1.907530 
# 
# From -- ./inp_files/117191.got.cif
#   From: 2010.06.25/outbox.cif.g09.slc.cpg/sg2_59_cif.got.tgz:117191.got - 2010.06.27 13:26:56.
