data_PCOD8033760
_publ_section_title
;
Structure prediction by ZEFSAII (Michael W. Deem and Ramdas Pophale) SiO2 
 PCOD8033760
Probable space group: P -1
;
_chemical_formula_sum "Si O2"
_cell_formula_units_Z 14
_cell_length_a 12.112012
_cell_length_b 7.609229
_cell_length_c 17.112095
_cell_angle_alpha 132.387764
_cell_angle_beta 34.701767
_cell_angle_gamma 142.507703
_cell_volume 545.395635
_symmetry_space_group_name_H-M "P -1"
_symmetry_group_IT_number 2
_symmetry_cell_setting 'triclinic'
loop_
_space_group_symop_operation_xyz
x,y,z
-x,-y,-z
loop_
_atom_site_type_symbol
_atom_site_label
_atom_site_fract_x
_atom_site_fract_y
_atom_site_fract_z
Si Si1 0.768954 0.790137 0.815976
Si Si2 0.311027 0.405103 0.876292
Si Si3 0.275105 0.519924 0.562847
Si Si4 0.174195 0.691353 0.327303
Si Si5 0.365167 0.885466 0.891317
Si Si6 0.755033 0.950411 0.467243
Si Si7 0.125247 0.800701 0.842869
O O1 0.581809 0.626591 0.806753
O O2 0.783238 0.558534 0.788684
O O3 0.021502 0.997471 0.691258
O O4 0.698231 0.969198 0.961250
O O5 0.263288 0.554315 0.876832
O O6 0.239377 0.080536 0.801702
O O7 0.152622 0.353904 0.029430
O O8 0.539502 0.814889 0.489223
O O9 0.307009 0.266086 0.488719
O O10 0.151428 0.560525 0.720117
O O11 0.101776 0.433879 0.564211
O O12 0.353585 0.943685 0.237891
O O13 0.215939 0.779936 0.421903
O O14 0.249366 0.899709 0.884248
#
# Coordination Sequence:
#
# PCOD8033760 Si02
#       7
#     2   2   2   2   2   2   2
#     4  12  25  45  69 106 145 185 246 293 356 432
#     4  11  24  41  71 102 150 185 234 296 361 415
#     4  11  24  46  73 100 143 188 240 296 351 425
#     4  12  25  46  75 101 146 191 238 295 363 419
#     4  12  24  45  73 108 143 191 237 295 364 420
#     4  11  25  48  70 102 145 191 241 294 355 431
#     4  11  24  45  68 111 146 183 240 300 353 429
#
# _framework density 25.669438
#
# number of rings (size 3 to 8) (size 9 to 14) (size 15 to 20)
#    0.000    0.571    2.857    4.714    4.000    0.571 
#    2.571    0.000    0.000    0.000    0.000    0.000 
#    0.000    0.000    0.000    0.000    0.000    0.000 
#
# Total GULP energy -173543.954623 kJ/mol
# GULP energy per Si atom -12395.996759 kJ/mol
# Density = 2.561101 g / cm^3
# Si number density = 25.669438 Si / 1000 Ang^3
#
#
#
# Elastic Constant Matrix: (Units=GPa)
#
#
# Indices 1 2 3 4 5 6 
#
# 1 76.4332 46.8846 17.0908 -8.2736 -20.2135 -8.4552
# 2 46.8846 117.6206 33.9989 -14.8844 -1.0283 -9.6941
# 3 17.0908 33.9989 101.3297 -17.8591 -6.7208 17.1910
# 4 -8.2736 -14.8844 -17.8591 44.1849 4.9338 -16.1974
# 5 -20.2135 -1.0283 -6.7208 4.9338 36.1536 -2.3004
# 6 -8.4552 -9.6941 17.1910 -16.1974 -2.3004 47.2053
#
#
#
# Elastic Compliance Matrix: (Units=1/GPa)
#
#
# Indices 1 2 3 4 5 6 
#
# 1 0.021749 -0.007976 -0.000595 0.001071 0.011894 0.003422
# 2 -0.007976 0.013364 -0.003456 0.003456 -0.004969 0.003518
# 3 -0.000595 -0.003456 0.012326 0.001874 0.001312 -0.004598
# 4 0.001071 0.003456 0.001874 0.028648 -0.002231 0.009940
# 5 0.011894 -0.004969 0.001312 -0.002231 0.034816 0.001563
# 6 0.003422 0.003518 -0.004598 0.009940 0.001563 0.027681
#
#
# Mechanical properties :
#
#
# Convention : Reuss Voigt Hill
#
# Bulk Modulus (GPa) = 42.76194 54.59246 48.67720
# Shear Modulus (GPa) = 29.33728 38.66939 34.00334
#
# Velocity S-wave (km/s) = 3.38433 3.88550 3.64354
# Velocity P-wave (km/s) = 5.65389 6.43763 6.05845
#
# Compressibility (1/GPa) = 0.02338528
#
# Stress axis : x y z
#
# Youngs Moduli (GPa) = 45.98016 74.82817 81.12785
#
# Poissons Ratio (x) = 0.59680 0.04827
# Poissons Ratio (y) = 0.36672 0.28039
# Poissons Ratio (z) = 0.02736 0.25861
#
# Static dielectric constant tensor:
#      x y z
#    x 4.429840 0.035400 -0.381430 
#    y 0.035400 4.914560 -0.140160 
#    z -0.381430 -0.140160 4.582760 
# 
# 
# High freq. dielectric constant tensor:
#      x y z
#    x 2.007160 0.004300 -0.023950 
#    y 0.004300 2.037380 -0.001970 
#    z -0.023950 -0.001970 2.032200 
# 
# From -- ./inp_files/597251.got.cif
#   From: 2010.06.25/outbox.cif.g09.slc.cpg/sg2_299_cif.got.tgz:597251.got - 2010.06.27 13:26:56.
