data_PCOD8033660
_publ_section_title
;
Structure prediction by ZEFSAII (Michael W. Deem and Ramdas Pophale) SiO2 
 PCOD8033660
Probable space group: P -1
;
_chemical_formula_sum "Si O2"
_cell_formula_units_Z 14
_cell_length_a 9.418113
_cell_length_b 12.055265
_cell_length_c 15.203405
_cell_angle_alpha 46.788945
_cell_angle_beta 153.743402
_cell_angle_gamma 125.504263
_cell_volume 553.596317
_symmetry_space_group_name_H-M "P -1"
_symmetry_group_IT_number 2
_symmetry_cell_setting 'triclinic'
loop_
_space_group_symop_operation_xyz
x,y,z
-x,-y,-z
loop_
_atom_site_type_symbol
_atom_site_label
_atom_site_fract_x
_atom_site_fract_y
_atom_site_fract_z
Si Si1 0.813922 0.384282 0.254508
Si Si2 0.279514 0.588991 0.488728
Si Si3 0.784596 0.816741 0.160794
Si Si4 0.173372 0.080276 0.236017
Si Si5 0.395333 0.240206 0.572741
Si Si6 0.338574 0.699301 0.120777
Si Si7 0.479814 0.103679 0.216600
O O1 0.723282 0.219002 0.330048
O O2 0.027044 0.463877 0.400091
O O3 0.043525 0.340948 0.319880
O O4 0.500000 0.500000 0.000000
O O5 0.356941 0.685912 0.393635
O O6 0.604444 0.485495 0.757068
O O7 0.117221 0.700869 0.412951
O O8 0.506834 0.773639 0.092730
O O9 0.663927 0.812028 0.995849
O O10 0.878957 0.982398 0.148719
O O11 0.196357 0.094083 0.135860
O O12 0.500000 0.000000 0.500000
O O13 0.048817 0.242947 0.125184
O O14 0.529339 0.242013 0.744995
O O15 0.347352 0.066275 0.612403
#
# Coordination Sequence:
#
# PCOD8033660 Si02
#       7
#     2   2   2   2   2   2   2
#     4  11  24  39  70 112 141 175 246 299 342 414
#     4  11  24  48  74 102 145 198 236 286 363 436
#     4  12  24  48  75 104 144 194 237 288 368 432
#     4  12  28  46  72 107 146 186 244 302 352 423
#     4  11  24  46  76 102 144 197 240 283 365 433
#     4  11  25  43  73 104 145 186 240 297 357 420
#     4  12  25  46  77 102 146 188 241 288 361 428
#
# _framework density 25.289183999999999
#
# number of rings (size 3 to 8) (size 9 to 14) (size 15 to 20)
#    0.000    0.571    4.286    4.286    6.000    1.143 
#    0.000    0.714    0.000    0.000    0.000    0.000 
#    0.000    0.000    0.000    0.000    0.000    0.000 
#
# Total GULP energy -173529.104592 kJ/mol
# GULP energy per Si atom -12394.936042 kJ/mol
# Density = 2.523163 g / cm^3
# Si number density = 25.289184 Si / 1000 Ang^3
#
#
#
# Elastic Constant Matrix: (Units=GPa)
#
#
# Indices 1 2 3 4 5 6 
#
# 1 153.7287 8.5606 53.3106 -20.0996 7.4546 2.1226
# 2 8.5606 94.5167 14.3074 -22.4949 -0.4425 9.1817
# 3 53.3106 14.3074 135.1934 -37.7623 30.6104 -5.9051
# 4 -20.0996 -22.4949 -37.7623 28.6751 -11.9481 9.8787
# 5 7.4546 -0.4425 30.6104 -11.9481 47.7789 -16.9421
# 6 2.1226 9.1817 -5.9051 9.8787 -16.9421 29.0199
#
#
#
# Elastic Compliance Matrix: (Units=1/GPa)
#
#
# Indices 1 2 3 4 5 6 
#
# 1 0.007788 0.000924 -0.002123 0.004426 0.000337 -0.002604
# 2 0.000924 0.016614 0.004051 0.022924 -0.001533 -0.013199
# 3 -0.002123 0.004051 0.015186 0.022013 -0.007335 -0.009812
# 4 0.004426 0.022924 0.022013 0.096457 -0.004037 -0.038290
# 5 0.000337 -0.001533 -0.007335 -0.004037 0.031115 0.018508
# 6 -0.002604 -0.013199 -0.009812 -0.038290 0.018508 0.060668
#
#
# Mechanical properties :
#
#
# Convention : Reuss Voigt Hill
#
# Bulk Modulus (GPa) = 22.07845 59.53289 40.80567
# Shear Modulus (GPa) = 21.07744 41.57878 31.32811
#
# Velocity S-wave (km/s) = 2.89010 4.05919 3.52347
# Velocity P-wave (km/s) = 4.45940 6.74991 5.72047
#
# Compressibility (1/GPa) = 0.04529304
#
# Stress axis : x y z
#
# Youngs Moduli (GPa) = 128.40510 60.18965 65.85073
#
# Poissons Ratio (x) = -0.05560 0.13977
# Poissons Ratio (y) = -0.11862 -0.26679
# Poissons Ratio (z) = 0.27254 -0.24385
#
# Static dielectric constant tensor:
#      x y z
#    x 4.589060 0.015250 0.473260 
#    y 0.015250 4.771320 -0.475080 
#    z 0.473260 -0.475080 5.123460 
# 
# 
# High freq. dielectric constant tensor:
#      x y z
#    x 2.011420 0.002710 0.026750 
#    y 0.002710 2.010440 -0.031150 
#    z 0.026750 -0.031150 2.006730 
# 
# From -- ./inp_files/222819.got.cif
#   From: 2010.06.25/outbox.cif.g09.slc.cpg/sg2_112_cif.got.tgz:222819.got - 2010.06.27 13:26:56.
