data_PCOD8033627
_publ_section_title
;
Structure prediction by ZEFSAII (Michael W. Deem and Ramdas Pophale) SiO2 
 PCOD8033627
Probable space group: P -1
;
_chemical_formula_sum "Si O2"
_cell_formula_units_Z 16
_cell_length_a 21.491777
_cell_length_b 6.611697
_cell_length_c 11.031072
_cell_angle_alpha 81.324784
_cell_angle_beta 29.782089
_cell_angle_gamma 70.248637
_cell_volume 697.908952
_symmetry_space_group_name_H-M "P -1"
_symmetry_group_IT_number 2
_symmetry_cell_setting 'triclinic'
loop_
_space_group_symop_operation_xyz
x,y,z
-x,-y,-z
loop_
_atom_site_type_symbol
_atom_site_label
_atom_site_fract_x
_atom_site_fract_y
_atom_site_fract_z
Si Si1 0.822785 0.068604 0.564298
Si Si2 0.470496 0.978435 0.191844
Si Si3 0.010676 0.283727 0.149657
Si Si4 0.164221 0.215075 0.660887
Si Si5 0.543126 0.183038 0.279874
Si Si6 0.155587 0.346998 0.282153
Si Si7 0.648306 0.483930 0.954375
Si Si8 0.715501 0.775759 0.171765
O O1 0.689483 0.307589 0.787917
O O2 0.960401 0.113985 0.317855
O O3 0.804437 0.971931 0.477145
O O4 0.837709 0.894444 0.663918
O O5 0.313291 0.140669 0.479078
O O6 0.561065 0.041230 0.133903
O O7 0.510263 0.712123 0.153502
O O8 0.500000 0.000000 0.000000
O O9 0.890392 0.538011 0.329066
O O10 0.053720 0.205632 0.945093
O O11 0.143450 0.278222 0.993103
O O12 0.380546 0.310179 0.578916
O O13 0.623913 0.038700 0.273085
O O14 0.609970 0.359989 0.140308
O O15 0.216048 0.465441 0.266140
O O16 0.000000 0.500000 0.500000
O O17 0.247019 0.339311 0.011765
#
# Coordination Sequence:
#
# PCOD8033627 Si02
#       8
#     2   2   2   2   2   2   2   2
#     4  12  24  45  70 105 138 184 239 288 352 419
#     4  12  24  46  74 104 145 184 236 293 347 424
#     4  11  25  46  76 101 143 191 226 301 357 415
#     4  11  25  47  70 107 143 179 244 291 355 422
#     4  11  25  46  72 103 142 187 234 291 354 421
#     4  12  26  44  69 105 142 182 235 289 344 425
#     4  12  25  45  71 104 140 187 233 289 356 407
#     4  11  23  49  70 100 146 180 235 293 349 422
#
# _framework density 22.925625
#
# number of rings (size 3 to 8) (size 9 to 14) (size 15 to 20)
#    0.000    0.500    3.750    4.875    1.750    4.500 
#    4.500    0.000    0.000    0.000    0.000    0.000 
#    0.000    0.000    0.000    0.000    0.000    0.000 
#
# Total GULP energy -198272.945415 kJ/mol
# GULP energy per Si atom -12392.059088 kJ/mol
# Density = 2.287344 g / cm^3
# Si number density = 22.925625 Si / 1000 Ang^3
#
#
#
# Elastic Constant Matrix: (Units=GPa)
#
#
# Indices 1 2 3 4 5 6 
#
# 1 74.1809 42.2689 28.2732 13.2584 -2.5813 -6.3416
# 2 42.2689 142.4722 70.5158 1.8432 -10.9198 -0.0308
# 3 28.2732 70.5158 126.6458 -2.6820 -3.9021 1.7439
# 4 13.2584 1.8432 -2.6820 44.2604 -6.2134 -3.4074
# 5 -2.5813 -10.9198 -3.9021 -6.2134 50.8312 7.7517
# 6 -6.3416 -0.0308 1.7439 -3.4074 7.7517 26.9866
#
#
#
# Elastic Compliance Matrix: (Units=1/GPa)
#
#
# Indices 1 2 3 4 5 6 
#
# 1 0.017926 -0.004523 -0.001694 -0.005173 -0.001446 0.004079
# 2 -0.004523 0.010986 -0.005012 0.000785 0.002026 -0.001209
# 3 -0.001694 -0.005012 0.011105 0.001315 -0.000004 -0.000954
# 4 -0.005173 0.000785 0.001315 0.024670 0.002871 0.000990
# 5 -0.001446 0.002026 -0.000004 0.002871 0.021315 -0.006097
# 6 0.004079 -0.001209 -0.000954 0.000990 -0.006097 0.039951
#
#
# Mechanical properties :
#
#
# Convention : Reuss Voigt Hill
#
# Bulk Modulus (GPa) = 56.94416 69.49053 63.21735
# Shear Modulus (GPa) = 32.41188 37.89836 35.15512
#
# Velocity S-wave (km/s) = 3.76411 4.07024 3.92017
# Velocity P-wave (km/s) = 6.61694 7.24336 6.93723
#
# Compressibility (1/GPa) = 0.01756106
#
# Stress axis : x y z
#
# Youngs Moduli (GPa) = 55.78343 91.02364 90.04576
#
# Poissons Ratio (x) = 0.41171 0.15252
# Poissons Ratio (y) = 0.25231 0.45127
# Poissons Ratio (z) = 0.09449 0.45617
#
# Static dielectric constant tensor:
#      x y z
#    x 4.367330 -0.571830 -0.407620 
#    y -0.571830 4.886770 0.753620 
#    z -0.407620 0.753620 5.553750 
# 
# 
# High freq. dielectric constant tensor:
#      x y z
#    x 1.895020 -0.006010 0.008200 
#    y -0.006010 1.894790 0.001030 
#    z 0.008200 0.001030 1.936510 
# 
# From -- ./inp_files/434183.got.cif
#   From: 2010.06.25/outbox.cif.g09.slc.cpg/sg2_218_cif.got.tgz:434183.got - 2010.06.27 13:26:56.
