data_PCOD8033481
_publ_section_title
;
Structure prediction by ZEFSAII (Michael W. Deem and Ramdas Pophale) SiO2 
 PCOD8033481
Probable space group: P -1
;
_chemical_formula_sum "Si O2"
_cell_formula_units_Z 12
_cell_length_a 9.457664
_cell_length_b 13.333636
_cell_length_c 9.072562
_cell_angle_alpha 149.306215
_cell_angle_beta 57.355626
_cell_angle_gamma 120.062114
_cell_volume 489.917406
_symmetry_space_group_name_H-M "P -1"
_symmetry_group_IT_number 2
_symmetry_cell_setting 'triclinic'
loop_
_space_group_symop_operation_xyz
x,y,z
-x,-y,-z
loop_
_atom_site_type_symbol
_atom_site_label
_atom_site_fract_x
_atom_site_fract_y
_atom_site_fract_z
Si Si1 0.518614 0.230752 0.788392
Si Si2 0.566918 0.780260 0.505568
Si Si3 0.827760 0.498637 0.005068
Si Si4 0.649848 0.639816 0.662529
Si Si5 0.044667 0.599685 0.752237
Si Si6 0.718496 0.052979 0.974183
O O1 0.458272 0.294350 0.740778
O O2 0.718351 0.289341 0.780546
O O3 0.500000 0.000000 0.500000
O O4 0.398175 0.321370 0.090348
O O5 0.652365 0.001174 0.777589
O O6 0.695059 0.637233 0.329534
O O7 0.387598 0.771466 0.678873
O O8 0.878369 0.587882 0.930217
O O9 0.000000 0.500000 0.000000
O O10 0.500000 0.500000 0.500000
O O11 0.813568 0.519670 0.400319
O O12 0.694705 0.857706 0.841210
O O13 0.000000 0.500000 0.500000
O O14 0.095870 0.835551 0.999681
#
# Coordination Sequence:
#
# PCOD8033481 Si02
#       6
#     2   2   2   2   2   2
#     4  12  25  46  76 107 139 190 254 294 351 440
#     4  11  23  46  74 102 142 189 249 294 350 440
#     4  12  27  46  70 108 148 186 236 305 374 423
#     4  12  25  49  77 104 144 194 245 298 357 442
#     4  12  27  46  69 104 153 187 235 303 374 428
#     4  11  24  45  75 107 139 198 248 291 366 434
#
# _framework density 24.493925000000001
#
# number of rings (size 3 to 8) (size 9 to 14) (size 15 to 20)
#    0.000    0.333    1.667    8.500    2.333    1.333 
#    6.000    0.000    0.000    0.000    0.000    0.000 
#    0.000    0.000    0.000    0.000    0.000    0.000 
#
# Total GULP energy -148668.256882 kJ/mol
# GULP energy per Si atom -12389.021407 kJ/mol
# Density = 2.443818 g / cm^3
# Si number density = 24.493925 Si / 1000 Ang^3
#
#
#
# Elastic Constant Matrix: (Units=GPa)
#
#
# Indices 1 2 3 4 5 6 
#
# 1 108.1347 29.6058 28.4204 16.0723 4.6070 4.0618
# 2 29.6058 139.5887 47.7779 15.7642 11.0363 28.4680
# 3 28.4204 47.7779 139.5606 2.0336 14.4700 5.8558
# 4 16.0723 15.7642 2.0336 40.5122 1.0016 11.0737
# 5 4.6070 11.0363 14.4700 1.0016 52.5237 3.0424
# 6 4.0618 28.4680 5.8558 11.0737 3.0424 34.0489
#
#
#
# Elastic Compliance Matrix: (Units=1/GPa)
#
#
# Indices 1 2 3 4 5 6 
#
# 1 0.010640 -0.001572 -0.001621 -0.003970 -0.000175 0.001631
# 2 -0.001572 0.010129 -0.002740 -0.001147 -0.000787 -0.007367
# 3 -0.001621 -0.002740 0.008561 0.001101 -0.001708 0.000807
# 4 -0.003970 -0.001147 0.001101 0.028877 0.000208 -0.008167
# 5 -0.000175 -0.000787 -0.001708 0.000208 0.019736 -0.000859
# 6 0.001631 -0.007367 0.000807 -0.008167 -0.000859 0.037929
#
#
# Mechanical properties :
#
#
# Convention : Reuss Voigt Hill
#
# Bulk Modulus (GPa) = 57.26177 66.54358 61.90267
# Shear Modulus (GPa) = 37.43615 44.18229 40.80922
#
# Velocity S-wave (km/s) = 3.91370 4.25173 4.08621
# Velocity P-wave (km/s) = 6.62204 7.16445 6.89858
#
# Compressibility (1/GPa) = 0.01746366
#
# Stress axis : x y z
#
# Youngs Moduli (GPa) = 93.98083 98.72173 116.81225
#
# Poissons Ratio (x) = 0.15523 0.18935
# Poissons Ratio (y) = 0.14777 0.32008
# Poissons Ratio (z) = 0.15234 0.27051
#
# Static dielectric constant tensor:
#      x y z
#    x 3.762330 0.466000 0.375680 
#    y 0.466000 4.290020 0.176550 
#    z 0.375680 0.176550 4.225460 
# 
# 
# High freq. dielectric constant tensor:
#      x y z
#    x 1.968240 0.005520 0.015550 
#    y 0.005520 1.981190 -0.005210 
#    z 0.015550 -0.005210 1.999510 
# 
# From -- ./inp_files/209592.got.cif
#   From: 2010.06.25/outbox.cif.g09.slc.cpg/sg2_105_cif.got.tgz:209592.got - 2010.06.27 13:26:56.
