data_PCOD8033031
_publ_section_title
;
Structure prediction by ZEFSAII (Michael W. Deem and Ramdas Pophale) SiO2 
 PCOD8033031
Probable space group: P -1
;
_chemical_formula_sum "Si O2"
_cell_formula_units_Z 16
_cell_length_a 11.492889
_cell_length_b 8.971693
_cell_length_c 9.569881
_cell_angle_alpha 117.816090
_cell_angle_beta 52.965031
_cell_angle_gamma 102.823353
_cell_volume 694.232251
_symmetry_space_group_name_H-M "P -1"
_symmetry_group_IT_number 2
_symmetry_cell_setting 'triclinic'
loop_
_space_group_symop_operation_xyz
x,y,z
-x,-y,-z
loop_
_atom_site_type_symbol
_atom_site_label
_atom_site_fract_x
_atom_site_fract_y
_atom_site_fract_z
Si Si1 0.937218 0.006814 0.846808
Si Si2 0.221802 0.128502 0.639586
Si Si3 0.479764 0.160872 0.986000
Si Si4 0.335196 0.983145 0.770291
Si Si5 0.914974 0.334143 0.506044
Si Si6 0.199822 0.877313 0.291550
Si Si7 0.412407 0.517906 0.215928
Si Si8 0.538522 0.654150 0.447802
O O1 0.015516 0.814916 0.710580
O O2 0.844628 0.036571 0.784786
O O3 0.057938 0.145376 0.829792
O O4 0.831479 0.036326 0.068235
O O5 0.291239 0.305594 0.636212
O O6 0.333737 0.035858 0.631753
O O7 0.211982 0.025106 0.459757
O O8 0.641159 0.223196 0.872766
O O9 0.403421 0.123062 0.878356
O O10 0.388618 0.322889 0.193668
O O11 0.500000 0.000000 0.000000
O O12 0.431857 0.809975 0.647062
O O13 0.916403 0.253594 0.627786
O O14 0.744476 0.376870 0.614854
O O15 0.000000 0.500000 0.500000
O O16 0.517009 0.610412 0.283347
O O17 0.500000 0.500000 0.000000
O O18 0.500000 0.500000 0.500000
#
# Coordination Sequence:
#
# PCOD8033031 Si02
#       8
#     2   2   2   2   2   2   2   2
#     4  11  25  46  73 101 138 189 236 278 344 434
#     4  11  24  43  68 101 137 180 231 284 347 407
#     4  12  23  42  75 104 131 183 239 281 337 420
#     4  12  24  45  74 100 136 184 233 285 347 417
#     4  11  24  42  66 105 140 171 227 294 345 392
#     4  11  23  44  72 101 136 184 237 278 336 426
#     4  12  26  45  69 102 140 178 232 293 345 401
#     4  12  27  43  66 103 143 178 227 293 348 400
#
# _framework density 23.047041
#
# number of rings (size 3 to 8) (size 9 to 14) (size 15 to 20)
#    0.000    0.500    3.750    6.000    0.000    1.000 
#    0.000    0.625    0.000    0.000    0.000    0.000 
#    0.000    0.000    0.000    0.000    0.000    0.000 
#
# Total GULP energy -198318.876784 kJ/mol
# GULP energy per Si atom -12394.929799 kJ/mol
# Density = 2.299458 g / cm^3
# Si number density = 23.047041 Si / 1000 Ang^3
#
#
#
# Elastic Constant Matrix: (Units=GPa)
#
#
# Indices 1 2 3 4 5 6 
#
# 1 95.8911 22.9091 21.9522 0.0702 -2.7323 23.7400
# 2 22.9091 118.3975 25.3113 -4.7397 -1.7735 31.1846
# 3 21.9522 25.3113 84.4258 4.8810 -6.9606 11.5705
# 4 0.0702 -4.7397 4.8810 35.8793 -3.4688 -1.2392
# 5 -2.7323 -1.7735 -6.9606 -3.4688 42.3983 -3.8230
# 6 23.7400 31.1846 11.5705 -1.2392 -3.8230 38.2229
#
#
#
# Elastic Compliance Matrix: (Units=1/GPa)
#
#
# Indices 1 2 3 4 5 6 
#
# 1 0.012749 -0.000085 -0.002325 0.000012 -0.000209 -0.007166
# 2 -0.000085 0.011224 -0.002320 0.001454 -0.000556 -0.008410
# 3 -0.002325 -0.002320 0.013491 -0.001990 0.001748 -0.000637
# 4 0.000012 0.001454 -0.001990 0.028558 0.002121 0.000546
# 5 -0.000209 -0.000556 0.001748 0.002121 0.024239 0.002548
# 6 -0.007166 -0.008410 -0.000637 0.000546 0.002548 0.037940
#
#
# Mechanical properties :
#
#
# Convention : Reuss Voigt Hill
#
# Bulk Modulus (GPa) = 35.71035 48.78440 42.24738
# Shear Modulus (GPa) = 34.01441 38.53624 36.27532
#
# Velocity S-wave (km/s) = 3.84587 4.09353 3.97163
# Velocity P-wave (km/s) = 5.93710 6.59969 6.27714
#
# Compressibility (1/GPa) = 0.02800309
#
# Stress axis : x y z
#
# Youngs Moduli (GPa) = 78.43613 89.09775 74.12158
#
# Poissons Ratio (x) = 0.00758 0.17236
# Poissons Ratio (y) = 0.00667 0.17197
# Poissons Ratio (z) = 0.18240 0.20672
#
# Static dielectric constant tensor:
#      x y z
#    x 4.512190 0.232710 -0.169500 
#    y 0.232710 4.648990 -0.020150 
#    z -0.169500 -0.020150 4.329080 
# 
# 
# High freq. dielectric constant tensor:
#      x y z
#    x 1.917190 0.003300 -0.006630 
#    y 0.003300 1.916220 -0.013290 
#    z -0.006630 -0.013290 1.906830 
# 
# From -- ./inp_files/245350.got.cif
#   From: 2010.06.25/outbox.cif.g09.slc.cpg/sg2_123_cif.got.tgz:245350.got - 2010.06.27 13:26:56.
