data_PCOD8033787
_publ_section_title
;
Structure prediction by ZEFSAII (Michael W. Deem and Ramdas Pophale) SiO2 
 PCOD8033787
Probable space group: P -1
;
_chemical_formula_sum "Si O2"
_cell_formula_units_Z 12
_cell_length_a 18.904051
_cell_length_b 4.973760
_cell_length_c 9.764879
_cell_angle_alpha 65.839239
_cell_angle_beta 38.596726
_cell_angle_gamma 73.138348
_cell_volume 521.872839
_symmetry_space_group_name_H-M "P -1"
_symmetry_group_IT_number 2
_symmetry_cell_setting 'triclinic'
loop_
_space_group_symop_operation_xyz
x,y,z
-x,-y,-z
loop_
_atom_site_type_symbol
_atom_site_label
_atom_site_fract_x
_atom_site_fract_y
_atom_site_fract_z
Si Si1 0.928213 0.766867 0.825401
Si Si2 0.475464 0.575376 0.365036
Si Si3 0.682610 0.594082 0.843966
Si Si4 0.351481 0.164747 0.437152
Si Si5 0.170719 0.927412 0.337672
Si Si6 0.889319 0.107566 0.072046
O O1 0.870159 0.825490 0.756328
O O2 0.896108 0.030103 0.918270
O O3 0.063956 0.757054 0.606982
O O4 0.881727 0.458259 0.023599
O O5 0.500000 0.500000 0.500000
O O6 0.378981 0.348110 0.496178
O O7 0.437382 0.906558 0.346118
O O8 0.588176 0.546745 0.112235
O O9 0.755561 0.898568 0.695665
O O10 0.757605 0.310866 0.798462
O O11 0.370449 0.380046 0.232806
O O12 0.221788 0.043683 0.660104
O O13 0.000000 0.000000 0.000000
#
# Coordination Sequence:
#
# PCOD8033787 Si02
#       6
#     2   2   2   2   2   2
#     4  11  24  42  65 103 143 180 237 283 340 414
#     4  12  28  47  73 104 140 183 242 290 350 409
#     4  12  25  46  74  99 142 182 239 284 355 411
#     4  12  26  47  72 105 143 185 230 292 351 413
#     4  11  24  42  71 101 139 187 230 288 349 410
#     4  12  25  42  71 101 145 182 232 277 353 417
#
# _framework density 22.994109000000002
#
# number of rings (size 3 to 8) (size 9 to 14) (size 15 to 20)
#    0.000    0.333    0.000    9.000    7.000    2.667 
#    0.000    0.000    0.000    0.000    0.000    0.000 
#    0.000    0.000    0.000    0.000    0.000    0.000 
#
# Total GULP energy -148912.822001 kJ/mol
# GULP energy per Si atom -12409.401833 kJ/mol
# Density = 2.294177 g / cm^3
# Si number density = 22.994109 Si / 1000 Ang^3
#
#
#
# Elastic Constant Matrix: (Units=GPa)
#
#
# Indices 1 2 3 4 5 6 
#
# 1 90.9495 32.4325 66.1085 -11.1998 5.2854 12.7224
# 2 32.4325 116.4729 30.5138 -0.9919 -2.8773 1.6230
# 3 66.1085 30.5138 125.1733 1.4469 2.5440 -8.5266
# 4 -11.1998 -0.9919 1.4469 38.9429 -0.8725 -2.3001
# 5 5.2854 -2.8773 2.5440 -0.8725 33.9568 4.9999
# 6 12.7224 1.6230 -8.5266 -2.3001 4.9999 42.0477
#
#
#
# Elastic Compliance Matrix: (Units=1/GPa)
#
#
# Indices 1 2 3 4 5 6 
#
# 1 0.022898 -0.003100 -0.011975 0.006404 -0.001482 -0.008710
# 2 -0.003100 0.009662 -0.000723 -0.000576 0.001306 0.000232
# 3 -0.011975 -0.000723 0.014984 -0.003641 -0.000376 0.006535
# 4 0.006404 -0.000576 -0.003641 0.027575 0.000106 -0.001158
# 5 -0.001482 0.001306 -0.000376 0.000106 0.030304 -0.003276
# 6 -0.008710 0.000232 0.006535 -0.001158 -0.003276 0.028060
#
#
# Mechanical properties :
#
#
# Convention : Reuss Voigt Hill
#
# Bulk Modulus (GPa) = 62.69389 65.63391 64.16390
# Shear Modulus (GPa) = 29.34387 36.55886 32.95136
#
# Velocity S-wave (km/s) = 3.57620 3.99171 3.78965
# Velocity P-wave (km/s) = 6.66158 7.06051 6.86394
#
# Compressibility (1/GPa) = 0.01595052
#
# Stress axis : x y z
#
# Youngs Moduli (GPa) = 43.67280 103.49602 66.73692
#
# Poissons Ratio (x) = 0.32079 0.79915
# Poissons Ratio (y) = 0.13536 0.04822
# Poissons Ratio (z) = 0.52297 0.07478
#
# Static dielectric constant tensor:
#      x y z
#    x 4.285360 0.174190 -0.089430 
#    y 0.174190 4.207590 0.103230 
#    z -0.089430 0.103230 4.125170 
# 
# 
# High freq. dielectric constant tensor:
#      x y z
#    x 1.920440 0.004290 -0.003080 
#    y 0.004290 1.919590 0.005790 
#    z -0.003080 0.005790 1.917550 
# 
# From -- ./inp_files/323641.got.cif
#   From: 2010.06.25/outbox.cif.g09.slc.cpg/sg2_162_cif.got.tgz:323641.got - 2010.06.27 13:26:56.
