data_PCOD8033227
_publ_section_title
;
Structure prediction by ZEFSAII (Michael W. Deem and Ramdas Pophale) SiO2 
 PCOD8033227
Probable space group: P -1
;
_chemical_formula_sum "Si O2"
_cell_formula_units_Z 16
_cell_length_a 8.938475
_cell_length_b 8.763289
_cell_length_c 22.197061
_cell_angle_alpha 42.738977
_cell_angle_beta 38.543962
_cell_angle_gamma 45.448264
_cell_volume 701.264744
_symmetry_space_group_name_H-M "P -1"
_symmetry_group_IT_number 2
_symmetry_cell_setting 'triclinic'
loop_
_space_group_symop_operation_xyz
x,y,z
-x,-y,-z
loop_
_atom_site_type_symbol
_atom_site_label
_atom_site_fract_x
_atom_site_fract_y
_atom_site_fract_z
Si Si1 0.845069 0.148607 0.870575
Si Si2 0.556541 0.608582 0.763586
Si Si3 0.711156 0.123671 0.399780
Si Si4 0.446942 0.569670 0.427442
Si Si5 0.928001 0.834661 0.521983
Si Si6 0.450512 0.263709 0.061932
Si Si7 0.378101 0.010799 0.794570
Si Si8 0.947220 0.243645 0.177283
O O1 0.770078 0.372803 0.784325
O O2 0.078970 0.143671 0.842320
O O3 0.606237 0.157406 0.984162
O O4 0.916543 0.918909 0.873315
O O5 0.678404 0.760932 0.636776
O O6 0.310337 0.562310 0.822317
O O7 0.454360 0.758737 0.811478
O O8 0.603531 0.391050 0.380147
O O9 0.848473 0.097281 0.300426
O O10 0.500000 0.000000 0.500000
O O11 0.914462 0.984044 0.423112
O O12 0.500000 0.500000 0.500000
O O13 0.480866 0.823303 0.329522
O O14 0.151672 0.595042 0.508412
O O15 0.000000 0.000000 0.500000
O O16 0.152374 0.345543 0.115228
O O17 0.534056 0.051631 0.145969
O O18 0.500000 0.500000 0.000000
#
# Coordination Sequence:
#
# PCOD8033227 Si02
#       8
#     2   2   2   2   2   2   2   2
#     4  11  26  48  75  99 148 192 236 302 376 425
#     4  11  23  45  70 106 146 193 235 297 366 436
#     4  12  27  47  67 109 150 189 241 293 359 438
#     4  12  25  41  75 105 145 195 235 296 362 419
#     4  12  23  41  72 104 145 187 246 289 351 434
#     4  12  26  50  78 108 138 191 251 316 362 417
#     4  11  24  45  74 112 142 184 253 304 360 437
#     4  11  28  48  70 105 150 190 243 296 367 451
#
# _framework density 22.815919000000001
#
# number of rings (size 3 to 8) (size 9 to 14) (size 15 to 20)
#    0.000    0.500    5.000    2.250    5.250    3.000 
#    2.250    0.000    0.000    0.000    0.000    0.000 
#    0.000    0.000    0.000    0.000    0.000    0.000 
#
# Total GULP energy -198330.092251 kJ/mol
# GULP energy per Si atom -12395.630766 kJ/mol
# Density = 2.276399 g / cm^3
# Si number density = 22.815919 Si / 1000 Ang^3
#
#
#
# Elastic Constant Matrix: (Units=GPa)
#
#
# Indices 1 2 3 4 5 6 
#
# 1 128.8594 40.0799 42.6497 1.0757 -7.5556 -22.1381
# 2 40.0799 86.3804 19.1461 5.9616 -1.1494 -24.5871
# 3 42.6497 19.1461 106.6486 11.5465 2.3945 -3.2139
# 4 1.0757 5.9616 11.5465 39.5450 -3.6619 1.8487
# 5 -7.5556 -1.1494 2.3945 -3.6619 49.9083 5.8886
# 6 -22.1381 -24.5871 -3.2139 1.8487 5.8886 40.1700
#
#
#
# Elastic Compliance Matrix: (Units=1/GPa)
#
#
# Indices 1 2 3 4 5 6 
#
# 1 0.010650 -0.003233 -0.003748 0.001268 0.001418 0.003324
# 2 -0.003233 0.015750 -0.000995 -0.002486 -0.001214 0.008071
# 3 -0.003748 -0.000995 0.011374 -0.003112 -0.001194 -0.001446
# 4 0.001268 -0.002486 -0.003112 0.026901 0.002575 -0.002687
# 5 0.001418 -0.001214 -0.001194 0.002575 0.020851 -0.003232
# 6 0.003324 0.008071 -0.001446 -0.002687 -0.003232 0.032148
#
#
# Mechanical properties :
#
#
# Convention : Reuss Voigt Hill
#
# Bulk Modulus (GPa) = 45.82383 58.40441 52.11412
# Shear Modulus (GPa) = 35.48614 40.59217 38.03916
#
# Velocity S-wave (km/s) = 3.94804 4.22253 4.08759
# Velocity P-wave (km/s) = 6.39613 7.03041 6.72076
#
# Compressibility (1/GPa) = 0.02182271
#
# Stress axis : x y z
#
# Youngs Moduli (GPa) = 93.89543 63.49111 87.91955
#
# Poissons Ratio (x) = 0.20529 0.32948
# Poissons Ratio (y) = 0.30360 0.08747
# Poissons Ratio (z) = 0.35188 0.06317
#
# Static dielectric constant tensor:
#      x y z
#    x 9.346590 1.880010 1.647960 
#    y 1.880010 5.055730 0.936680 
#    z 1.647960 0.936680 4.664220 
# 
# 
# High freq. dielectric constant tensor:
#      x y z
#    x 1.915280 -0.018310 0.008020 
#    y -0.018310 1.897550 0.015160 
#    z 0.008020 0.015160 1.903370 
# 
# From -- ./inp_files/606605.got.cif
#   From: 2010.06.25/outbox.cif.g09.slc.cpg/sg2_304_cif.got.tgz:606605.got - 2010.06.27 13:26:56.
