data_PCOD8033168
_publ_section_title
;
Structure prediction by ZEFSAII (Michael W. Deem and Ramdas Pophale) SiO2 
 PCOD8033168
Probable space group: P -1
;
_chemical_formula_sum "Si O2"
_cell_formula_units_Z 16
_cell_length_a 15.770342
_cell_length_b 9.317732
_cell_length_c 9.157329
_cell_angle_alpha 98.064155
_cell_angle_beta 69.701640
_cell_angle_gamma 141.665757
_cell_volume 762.416512
_symmetry_space_group_name_H-M "P -1"
_symmetry_group_IT_number 2
_symmetry_cell_setting 'triclinic'
loop_
_space_group_symop_operation_xyz
x,y,z
-x,-y,-z
loop_
_atom_site_type_symbol
_atom_site_label
_atom_site_fract_x
_atom_site_fract_y
_atom_site_fract_z
Si Si1 0.392768 0.064015 0.478781
Si Si2 0.362631 0.691929 0.406886
Si Si3 0.342618 0.463496 0.133076
Si Si4 0.982353 0.897889 0.846290
Si Si5 0.938004 0.815609 0.388523
Si Si6 0.395008 0.219671 0.194105
Si Si7 0.891865 0.245186 0.198268
Si Si8 0.882252 0.211367 0.859102
O O1 0.538396 0.255224 0.518781
O O2 0.406699 0.194396 0.354861
O O3 0.382638 0.887926 0.400671
O O4 0.253088 0.929406 0.641505
O O5 0.401582 0.669583 0.226482
O O6 0.192909 0.448677 0.513148
O O7 0.177142 0.278764 0.153494
O O8 0.348138 0.326526 0.210445
O O9 0.444208 0.592607 0.947491
O O10 0.006111 0.758094 0.818018
O O11 0.109384 0.132469 0.702885
O O12 0.000000 0.000000 0.000000
O O13 0.060909 0.868717 0.248508
O O14 0.000000 0.000000 0.500000
O O15 0.273366 0.957789 0.155017
O O16 0.992695 0.511813 0.207905
O O17 0.844770 0.164007 0.046778
#
# Coordination Sequence:
#
# PCOD8033168 Si02
#       8
#     2   2   2   2   2   2   2   2
#     4  11  27  44  69  99 134 179 225 281 329 403
#     4  11  25  47  65  99 138 173 226 277 339 396
#     4  11  25  46  65  96 139 178 220 281 334 402
#     4  12  25  42  68 101 130 175 225 274 338 399
#     4  12  23  43  69  98 134 174 219 282 336 389
#     4  11  25  44  68  97 132 179 225 275 338 394
#     4  11  25  43  69 100 134 178 224 275 337 401
#     4  11  23  45  67  97 138 176 220 280 335 400
#
# _framework density 20.985904000000001
#
# number of rings (size 3 to 8) (size 9 to 14) (size 15 to 20)
#    0.000    0.750    5.000    0.750    7.000    2.500 
#    2.250    0.000    0.000    0.000    0.000    0.000 
#    0.000    0.000    0.000    0.000    0.000    0.000 
#
# Total GULP energy -198343.149200 kJ/mol
# GULP energy per Si atom -12396.446825 kJ/mol
# Density = 2.093814 g / cm^3
# Si number density = 20.985904 Si / 1000 Ang^3
#
#
#
# Elastic Constant Matrix: (Units=GPa)
#
#
# Indices 1 2 3 4 5 6 
#
# 1 117.0176 36.4891 58.7619 5.8203 5.4232 -2.1227
# 2 36.4891 81.3682 40.2716 10.1323 -5.2925 -4.9663
# 3 58.7619 40.2716 132.9783 2.5562 4.1257 -18.2486
# 4 5.8203 10.1323 2.5562 42.1246 -6.4533 -2.9307
# 5 5.4232 -5.2925 4.1257 -6.4533 31.5168 -2.9150
# 6 -2.1227 -4.9663 -18.2486 -2.9307 -2.9150 23.3354
#
#
#
# Elastic Compliance Matrix: (Units=1/GPa)
#
#
# Indices 1 2 3 4 5 6 
#
# 1 0.012079 -0.003312 -0.004752 -0.001250 -0.002621 -0.003806
# 2 -0.003312 0.016010 -0.003358 -0.002661 0.003204 0.000546
# 3 -0.004752 -0.003358 0.011740 0.001279 -0.000266 0.008162
# 4 -0.001250 -0.002661 0.001279 0.025565 0.005223 0.004183
# 5 -0.002621 0.003204 -0.000266 0.005223 0.034301 0.005176
# 6 -0.003806 0.000546 0.008162 0.004183 0.005176 0.050178
#
#
# Mechanical properties :
#
#
# Convention : Reuss Voigt Hill
#
# Bulk Modulus (GPa) = 58.87310 66.93435 62.90373
# Shear Modulus (GPa) = 28.02996 32.45145 30.24070
#
# Velocity S-wave (km/s) = 3.65863 3.93663 3.80017
# Velocity P-wave (km/s) = 6.77952 7.25444 7.02100
#
# Compressibility (1/GPa) = 0.01698569
#
# Stress axis : x y z
#
# Youngs Moduli (GPa) = 82.78658 62.45961 85.17547
#
# Poissons Ratio (x) = 0.20688 0.40472
# Poissons Ratio (y) = 0.27421 0.28605
# Poissons Ratio (z) = 0.39337 0.20976
#
# Static dielectric constant tensor:
#      x y z
#    x 4.485240 0.502160 -0.153990 
#    y 0.502160 4.249100 -0.014850 
#    z -0.153990 -0.014850 3.957770 
# 
# 
# High freq. dielectric constant tensor:
#      x y z
#    x 1.821340 -0.003540 -0.002170 
#    y -0.003540 1.835110 0.002780 
#    z -0.002170 0.002780 1.837930 
# 
# From -- ./inp_files/298797.got.cif
#   From: 2010.06.25/outbox.cif.g09.slc.cpg/sg2_150_cif.got.tgz:298797.got - 2010.06.27 13:26:56.
