data_PCOD8033048
_publ_section_title
;
Structure prediction by ZEFSAII (Michael W. Deem and Ramdas Pophale) SiO2 
 PCOD8033048
Probable space group: P -1
;
_chemical_formula_sum "Si O2"
_cell_formula_units_Z 14
_cell_length_a 5.269644
_cell_length_b 17.082552
_cell_length_c 11.367965
_cell_angle_alpha 136.004813
_cell_angle_beta 63.034065
_cell_angle_gamma 122.781612
_cell_volume 594.008059
_symmetry_space_group_name_H-M "P -1"
_symmetry_group_IT_number 2
_symmetry_cell_setting 'triclinic'
loop_
_space_group_symop_operation_xyz
x,y,z
-x,-y,-z
loop_
_atom_site_type_symbol
_atom_site_label
_atom_site_fract_x
_atom_site_fract_y
_atom_site_fract_z
Si Si1 0.973012 0.592689 0.309565
Si Si2 0.534870 0.800952 0.432926
Si Si3 0.472084 0.895144 0.982358
Si Si4 0.315320 0.235532 0.385472
Si Si5 0.845600 0.805668 0.152501
Si Si6 0.422212 0.466448 0.114996
Si Si7 0.733490 0.005824 0.268558
O O1 0.802249 0.654819 0.504241
O O2 0.728918 0.525764 0.189337
O O3 0.242772 0.709014 0.324200
O O4 0.130237 0.507220 0.249073
O O5 0.514334 0.735951 0.493844
O O6 0.829979 0.804073 0.297612
O O7 0.525493 0.934537 0.596648
O O8 0.483006 0.778908 0.782602
O O9 0.743913 0.949426 0.076303
O O10 0.179304 0.857661 0.086409
O O11 0.500000 0.000000 0.000000
O O12 0.057633 0.107688 0.325467
O O13 0.669564 0.896966 0.255906
O O14 0.679384 0.674708 0.991301
O O15 0.500000 0.500000 0.000000
#
# Coordination Sequence:
#
# PCOD8033048 Si02
#       7
#     2   2   2   2   2   2   2
#     4  11  24  45  73 105 141 193 242 296 364 420
#     4  11  23  44  72 108 146 184 241 304 371 432
#     4  12  25  46  68 103 148 194 242 294 367 440
#     4  11  23  46  75 101 145 196 240 300 363 439
#     4  12  27  41  72 110 144 189 242 302 366 433
#     4  12  25  46  74 106 151 190 245 299 363 431
#     4  11  24  41  71 104 148 187 245 297 374 428
#
# _framework density 23.568702999999999
#
# number of rings (size 3 to 8) (size 9 to 14) (size 15 to 20)
#    0.000    0.571    5.714    1.286    2.000    4.571 
#    0.000    1.429    0.000    0.000    0.000    0.000 
#    0.000    0.000    0.000    0.000    0.000    0.000 
#
# Total GULP energy -173450.498637 kJ/mol
# GULP energy per Si atom -12389.321331 kJ/mol
# Density = 2.351506 g / cm^3
# Si number density = 23.568703 Si / 1000 Ang^3
#
#
#
# Elastic Constant Matrix: (Units=GPa)
#
#
# Indices 1 2 3 4 5 6 
#
# 1 102.0155 14.8533 48.7632 5.9631 -1.5999 4.4399
# 2 14.8533 53.2655 41.9365 8.1009 -2.5457 10.1404
# 3 48.7632 41.9365 143.4309 -6.7750 -15.1452 8.9137
# 4 5.9631 8.1009 -6.7750 48.2220 2.3264 -8.0827
# 5 -1.5999 -2.5457 -15.1452 2.3264 53.1767 3.7002
# 6 4.4399 10.1404 8.9137 -8.0827 3.7002 24.2498
#
#
#
# Elastic Compliance Matrix: (Units=1/GPa)
#
#
# Indices 1 2 3 4 5 6 
#
# 1 0.011991 0.000761 -0.004381 -0.002469 -0.000629 -0.001630
# 2 0.000761 0.028494 -0.008216 -0.008013 0.000214 -0.011738
# 3 -0.004381 -0.008216 0.011233 0.003535 0.002456 0.000912
# 4 -0.002469 -0.008013 0.003535 0.024786 -0.001298 0.010963
# 5 -0.000629 0.000214 0.002456 -0.001298 0.019855 -0.004340
# 6 -0.001630 -0.011738 0.000912 0.010963 -0.004340 0.050425
#
#
# Mechanical properties :
#
#
# Convention : Reuss Voigt Hill
#
# Bulk Modulus (GPa) = 35.65524 56.64644 46.15084
# Shear Modulus (GPa) = 27.80785 38.00695 32.90740
#
# Velocity S-wave (km/s) = 3.43864 4.02008 3.74067
# Velocity P-wave (km/s) = 5.56118 6.75536 6.18715
#
# Compressibility (1/GPa) = 0.02804637
#
# Stress axis : x y z
#
# Youngs Moduli (GPa) = 83.39496 35.09516 89.02039
#
# Poissons Ratio (x) = -0.02672 0.39000
# Poissons Ratio (y) = -0.06349 0.73142
# Poissons Ratio (z) = 0.36536 0.28835
#
# Static dielectric constant tensor:
#      x y z
#    x 4.383900 0.017820 -0.234820 
#    y 0.017820 4.037560 0.022830 
#    z -0.234820 0.022830 5.094790 
# 
# 
# High freq. dielectric constant tensor:
#      x y z
#    x 1.929920 0.008490 -0.008010 
#    y 0.008490 1.897800 0.017570 
#    z -0.008010 0.017570 1.962080 
# 
# From -- ./inp_files/363087.got.cif
#   From: 2010.06.25/outbox.cif.g09.slc.cpg/sg2_182_cif.got.tgz:363087.got - 2010.06.27 13:26:56.
