data_PCOD8033772
_publ_section_title
;
Structure prediction by ZEFSAII (Michael W. Deem and Ramdas Pophale) SiO2 
 PCOD8033772
Probable space group: P -1
;
_chemical_formula_sum "Si O2"
_cell_formula_units_Z 12
_cell_length_a 5.767131
_cell_length_b 14.637885
_cell_length_c 11.742842
_cell_angle_alpha 42.159252
_cell_angle_beta 54.609642
_cell_angle_gamma 72.991957
_cell_volume 525.194753
_symmetry_space_group_name_H-M "P -1"
_symmetry_group_IT_number 2
_symmetry_cell_setting 'triclinic'
loop_
_space_group_symop_operation_xyz
x,y,z
-x,-y,-z
loop_
_atom_site_type_symbol
_atom_site_label
_atom_site_fract_x
_atom_site_fract_y
_atom_site_fract_z
Si Si1 0.170997 0.308156 0.905436
Si Si2 0.298308 0.343421 0.089912
Si Si3 0.118180 0.444015 0.264890
Si Si4 0.177849 0.649701 0.353431
Si Si5 0.354806 0.049445 0.381130
Si Si6 0.842505 0.092466 0.037323
O O1 0.493932 0.361585 0.714351
O O2 0.017225 0.424981 0.798675
O O3 0.135791 0.292290 0.066016
O O4 0.038504 0.153260 0.035161
O O5 0.064419 0.372278 0.222043
O O6 0.439988 0.219763 0.210616
O O7 0.535900 0.492455 0.867566
O O8 0.969482 0.323262 0.509501
O O9 0.000000 0.500000 0.500000
O O10 0.186661 0.775743 0.149511
O O11 0.525959 0.009369 0.257237
O O12 0.500000 0.000000 0.500000
O O13 0.000000 0.000000 0.500000
O O14 0.000000 0.000000 0.000000
#
# Coordination Sequence:
#
# PCOD8033772 Si02
#       6
#     2   2   2   2   2   2
#     4  12  21  46  73  97 151 187 242 314 380 442
#     4  11  24  45  70 104 145 181 245 307 377 442
#     4  11  24  41  72 108 138 185 236 309 377 456
#     4  12  23  45  72 105 145 186 249 303 387 445
#     4  12  27  51  76 105 152 206 259 314 381 459
#     4  12  29  48  72 108 149 202 253 318 377 460
#
# _framework density 22.848666000000001
#
# number of rings (size 3 to 8) (size 9 to 14) (size 15 to 20)
#    0.000    0.333    6.667    2.000    2.333    2.000 
#    0.000    0.000    0.000    0.000    0.000    0.000 
#    0.000    0.000    0.000    0.000    0.000    0.000 
#
# Total GULP energy -148700.649322 kJ/mol
# GULP energy per Si atom -12391.720777 kJ/mol
# Density = 2.279666 g / cm^3
# Si number density = 22.848666 Si / 1000 Ang^3
#
#
#
# Elastic Constant Matrix: (Units=GPa)
#
#
# Indices 1 2 3 4 5 6 
#
# 1 108.2247 41.7841 51.0111 19.0739 -1.5993 15.8844
# 2 41.7841 151.8272 51.9171 39.4024 -4.6309 15.4158
# 3 51.0111 51.9171 137.7348 41.3614 7.9159 5.7986
# 4 19.0739 39.4024 41.3614 46.3431 -3.9460 5.8807
# 5 -1.5993 -4.6309 7.9159 -3.9460 41.9973 5.6570
# 6 15.8844 15.4158 5.7986 5.8807 5.6570 38.2785
#
#
#
# Elastic Compliance Matrix: (Units=1/GPa)
#
#
# Indices 1 2 3 4 5 6 
#
# 1 0.012322 -0.001707 -0.004036 0.000652 0.001663 -0.004160
# 2 -0.001707 0.009157 -0.001033 -0.005826 0.000869 -0.002056
# 3 -0.004036 -0.001033 0.011848 -0.008614 -0.003600 0.002152
# 4 0.000652 -0.005826 -0.008614 0.034678 0.004619 -0.002630
# 5 0.001663 0.000869 -0.003600 0.004619 0.025758 -0.005011
# 6 -0.004160 -0.002056 0.002152 -0.002630 -0.005011 0.029497
#
#
# Mechanical properties :
#
#
# Convention : Reuss Voigt Hill
#
# Bulk Modulus (GPa) = 50.57300 76.35681 63.46491
# Shear Modulus (GPa) = 34.86671 42.19541 38.53106
#
# Velocity S-wave (km/s) = 3.91062 4.30203 4.11099
# Velocity P-wave (km/s) = 6.52477 7.62677 7.09719
#
# Compressibility (1/GPa) = 0.01977340
#
# Stress axis : x y z
#
# Youngs Moduli (GPa) = 81.15672 109.20990 84.40453
#
# Poissons Ratio (x) = 0.18641 0.34068
# Poissons Ratio (y) = 0.13852 0.08721
# Poissons Ratio (z) = 0.32757 0.11284
#
# Static dielectric constant tensor:
#      x y z
#    x 4.203140 -0.071050 0.068030 
#    y -0.071050 4.281940 0.179000 
#    z 0.068030 0.179000 5.035210 
# 
# 
# High freq. dielectric constant tensor:
#      x y z
#    x 1.897090 0.000350 0.003060 
#    y 0.000350 1.901390 0.023360 
#    z 0.003060 0.023360 1.915770 
# 
# From -- ./inp_files/38065.got.cif
#   From: 2010.06.25/outbox.cif.g09.slc.cpg/sg2_20_cif.got.tgz:38065.got - 2010.06.27 13:26:56.
