data_PCOD8033271
_publ_section_title
;
Structure prediction by ZEFSAII (Michael W. Deem and Ramdas Pophale) SiO2 
 PCOD8033271
Probable space group: P -1
;
_chemical_formula_sum "Si O2"
_cell_formula_units_Z 12
_cell_length_a 11.665308
_cell_length_b 8.015947
_cell_length_c 7.988428
_cell_angle_alpha 117.175245
_cell_angle_beta 93.117842
_cell_angle_gamma 47.337112
_cell_volume 449.972986
_symmetry_space_group_name_H-M "P -1"
_symmetry_group_IT_number 2
_symmetry_cell_setting 'triclinic'
loop_
_space_group_symop_operation_xyz
x,y,z
-x,-y,-z
loop_
_atom_site_type_symbol
_atom_site_label
_atom_site_fract_x
_atom_site_fract_y
_atom_site_fract_z
Si Si1 0.759548 0.036820 0.957825
Si Si2 0.718329 0.743719 0.059002
Si Si3 0.586501 0.051400 0.676964
Si Si4 0.617348 0.497518 0.402998
Si Si5 0.117709 0.681313 0.392762
Si Si6 0.087264 0.443864 0.684476
O O1 0.723105 0.272319 0.158978
O O2 0.694240 0.941048 0.018761
O O3 0.652180 0.156373 0.830997
O O4 0.960087 0.774491 0.812884
O O5 0.537000 0.921851 0.206141
O O6 0.856627 0.642735 0.158742
O O7 0.785434 0.478553 0.846586
O O8 0.502186 0.208219 0.565303
O O9 0.748571 0.724687 0.497032
O O10 0.500000 0.500000 0.500000
O O11 0.748001 0.438312 0.508113
O O12 0.007606 0.632097 0.415965
O O13 0.000000 0.000000 0.500000
#
# Coordination Sequence:
#
# PCOD8033271 Si02
#       6
#     2   2   2   2   2   2
#     4  11  24  47  72 101 139 184 232 285 343 413
#     4  11  24  45  72 103 137 182 233 287 342 409
#     4  12  26  44  71 106 140 181 232 288 345 409
#     4  12  26  46  72 105 141 182 231 289 347 409
#     4  11  23  45  72 102 140 185 229 285 349 412
#     4  11  25  45  70 103 140 184 232 284 343 412
#
# _framework density 26.668268000000001
#
# number of rings (size 3 to 8) (size 9 to 14) (size 15 to 20)
#    0.000    0.667    0.000    9.000    0.000    9.333 
#    0.000    2.500    0.000    4.000    0.000    0.000 
#    0.000    0.000    0.000    0.000    0.000    0.000 
#
# Total GULP energy -148840.764767 kJ/mol
# GULP energy per Si atom -12403.397064 kJ/mol
# Density = 2.660757 g / cm^3
# Si number density = 26.668268 Si / 1000 Ang^3
#
#
#
# Elastic Constant Matrix: (Units=GPa)
#
#
# Indices 1 2 3 4 5 6 
#
# 1 94.7952 39.4306 47.3794 7.0997 -14.8082 -37.3808
# 2 39.4306 136.2558 45.7864 -3.0693 3.7383 -43.0051
# 3 47.3794 45.7864 186.0223 14.1945 -1.3058 -40.5632
# 4 7.0997 -3.0693 14.1945 59.1384 -15.3962 14.4582
# 5 -14.8082 3.7383 -1.3058 -15.3962 60.3058 -11.8014
# 6 -37.3808 -43.0051 -40.5632 14.4582 -11.8014 49.3134
#
#
#
# Elastic Compliance Matrix: (Units=1/GPa)
#
#
# Indices 1 2 3 4 5 6 
#
# 1 0.018849 -0.000359 -0.000812 -0.004296 0.006701 0.016171
# 2 -0.000359 0.010368 -0.000388 -0.001351 0.000679 0.009009
# 3 -0.000812 -0.000388 0.007207 -0.003008 0.000376 0.005946
# 4 -0.004296 -0.001351 -0.003008 0.021729 0.002006 -0.012800
# 5 0.006701 0.000679 0.000376 0.002006 0.020732 0.010354
# 6 0.016171 0.009009 0.005946 -0.012800 0.010354 0.051514
#
#
# Mechanical properties :
#
#
# Convention : Reuss Voigt Hill
#
# Bulk Modulus (GPa) = 30.02420 75.80733 52.91577
# Shear Modulus (GPa) = 34.57386 52.71667 43.64527
#
# Velocity S-wave (km/s) = 3.60452 4.45090 4.04988
# Velocity P-wave (km/s) = 5.34848 7.40957 6.46173
#
# Compressibility (1/GPa) = 0.03330646
#
# Stress axis : x y z
#
# Youngs Moduli (GPa) = 53.05331 96.45336 138.75829
#
# Poissons Ratio (x) = 0.03460 0.11261
# Poissons Ratio (y) = 0.01903 0.05386
# Poissons Ratio (z) = 0.04306 0.03744
#
# Static dielectric constant tensor:
#      x y z
#    x 4.708140 -0.403400 0.076660 
#    y -0.403400 5.020560 -0.082290 
#    z 0.076660 -0.082290 5.631790 
# 
# 
# High freq. dielectric constant tensor:
#      x y z
#    x 2.066310 -0.024880 0.000190 
#    y -0.024880 2.084320 -0.010070 
#    z 0.000190 -0.010070 2.105400 
# 
# From -- ./inp_files/245522.got.cif
#   From: 2010.06.25/outbox.cif.g09.slc.cpg/sg2_123_cif.got.tgz:245522.got - 2010.06.27 13:26:56.
