data_PCOD8033849
_publ_section_title
;
Structure prediction by ZEFSAII (Michael W. Deem and Ramdas Pophale) SiO2 
 PCOD8033849
Probable space group: P -1
;
_chemical_formula_sum "Si O2"
_cell_formula_units_Z 16
_cell_length_a 23.545759
_cell_length_b 6.567488
_cell_length_c 18.878824
_cell_angle_alpha 59.532277
_cell_angle_beta 21.063272
_cell_angle_gamma 48.565852
_cell_volume 717.435834
_symmetry_space_group_name_H-M "P -1"
_symmetry_group_IT_number 2
_symmetry_cell_setting 'triclinic'
loop_
_space_group_symop_operation_xyz
x,y,z
-x,-y,-z
loop_
_atom_site_type_symbol
_atom_site_label
_atom_site_fract_x
_atom_site_fract_y
_atom_site_fract_z
Si Si1 0.547008 0.467446 0.034499
Si Si2 0.405080 0.224266 0.961431
Si Si3 0.368447 0.648180 0.816077
Si Si4 0.729327 0.675128 0.590875
Si Si5 0.367365 0.724868 0.554817
Si Si6 0.021640 0.734311 0.895526
Si Si7 0.304930 0.290576 0.532561
Si Si8 0.896340 0.893001 0.686004
O O1 0.544789 0.724620 0.027670
O O2 0.765156 0.153386 0.850834
O O3 0.500000 0.500000 0.000000
O O4 0.376225 0.479976 0.270482
O O5 0.261988 0.135334 0.163203
O O6 0.308035 0.511662 0.971424
O O7 0.609827 0.950872 0.735052
O O8 0.504661 0.385870 0.647162
O O9 0.491248 0.746822 0.693302
O O10 0.180286 0.939152 0.944205
O O11 0.750284 0.752747 0.474195
O O12 0.949513 0.431882 0.405318
O O13 0.500000 0.500000 0.500000
O O14 0.161805 0.768938 0.775604
O O15 0.328776 0.011507 0.587724
O O16 0.126362 0.597549 0.721830
O O17 0.000000 0.500000 0.000000
O O18 0.000000 0.000000 0.500000
#
# Coordination Sequence:
#
# PCOD8033849 Si02
#       8
#     2   2   2   2   2   2   2   2
#     4  11  24  48  69  99 136 179 223 283 346 408
#     4  11  26  43  72 100 136 183 226 289 345 404
#     4  11  24  44  67 101 137 176 234 279 341 402
#     4  11  24  45  67  99 136 173 232 280 343 405
#     4  11  24  44  69  96 136 183 224 278 342 402
#     4  11  26  43  66 105 137 180 229 281 339 408
#     4  11  24  42  69  96 137 179 223 285 336 401
#     4  11  26  45  67 104 135 177 227 279 346 414
#
# _framework density 22.301646999999999
#
# number of rings (size 3 to 8) (size 9 to 14) (size 15 to 20)
#    0.000    1.000    3.750    1.500    3.500    8.500 
#    0.000    0.000    0.000    0.000    0.000    0.000 
#    0.000    0.000    0.000    0.000    0.000    0.000 
#
# Total GULP energy -198249.439221 kJ/mol
# GULP energy per Si atom -12390.589951 kJ/mol
# Density = 2.225089 g / cm^3
# Si number density = 22.301647 Si / 1000 Ang^3
#
#
#
# Elastic Constant Matrix: (Units=GPa)
#
#
# Indices 1 2 3 4 5 6 
#
# 1 108.8763 28.7678 29.5659 7.9702 -8.6556 16.5656
# 2 28.7678 112.6275 34.5162 -0.5911 -15.1414 14.1093
# 3 29.5659 34.5162 101.7672 10.0179 -10.4430 7.9052
# 4 7.9702 -0.5911 10.0179 48.9470 -9.2342 -2.0631
# 5 -8.6556 -15.1414 -10.4430 -9.2342 21.7502 2.8902
# 6 16.5656 14.1093 7.9052 -2.0631 2.8902 43.6596
#
#
#
# Elastic Compliance Matrix: (Units=1/GPa)
#
#
# Indices 1 2 3 4 5 6 
#
# 1 0.010922 -0.001396 -0.002075 -0.001068 0.002394 -0.003526
# 2 -0.001396 0.011462 -0.002692 0.002197 0.007473 -0.003078
# 3 -0.002075 -0.002692 0.011806 -0.001699 0.002342 -0.000715
# 4 -0.001068 0.002197 -0.001699 0.022872 0.009943 0.000425
# 5 0.002394 0.007473 0.002342 0.009943 0.058426 -0.007145
# 6 -0.003526 -0.003078 -0.000715 0.000425 -0.007145 0.025860
#
#
# Mechanical properties :
#
#
# Convention : Reuss Voigt Hill
#
# Bulk Modulus (GPa) = 45.73909 56.55233 51.14571
# Shear Modulus (GPa) = 31.06315 38.23276 34.64796
#
# Velocity S-wave (km/s) = 3.73616 4.14496 3.94586
# Velocity P-wave (km/s) = 6.25825 6.95130 6.61386
#
# Compressibility (1/GPa) = 0.02186314
#
# Stress axis : x y z
#
# Youngs Moduli (GPa) = 91.55810 87.24289 84.70611
#
# Poissons Ratio (x) = 0.12178 0.17577
# Poissons Ratio (y) = 0.12781 0.22806
# Poissons Ratio (z) = 0.18999 0.23489
#
# Static dielectric constant tensor:
#      x y z
#    x 4.181760 0.063890 0.064340 
#    y 0.063890 4.530270 0.106920 
#    z 0.064340 0.106920 4.287770 
# 
# 
# High freq. dielectric constant tensor:
#      x y z
#    x 1.873270 0.001890 0.001050 
#    y 0.001890 1.900140 0.001710 
#    z 0.001050 0.001710 1.878700 
# 
# From -- ./inp_files/53179.got.cif
#   From: 2010.06.25/outbox.cif.g09.slc.cpg/sg2_27_cif.got.tgz:53179.got - 2010.06.27 13:26:56.
