data_PCOD8033528
_publ_section_title
;
Structure prediction by ZEFSAII (Michael W. Deem and Ramdas Pophale) SiO2 
 PCOD8033528
Probable space group: P -1
;
_chemical_formula_sum "Si O2"
_cell_formula_units_Z 16
_cell_length_a 8.313763
_cell_length_b 13.628593
_cell_length_c 16.583899
_cell_angle_alpha 20.900693
_cell_angle_beta 81.970580
_cell_angle_gamma 84.662986
_cell_volume 660.027320
_symmetry_space_group_name_H-M "P -1"
_symmetry_group_IT_number 2
_symmetry_cell_setting 'triclinic'
loop_
_space_group_symop_operation_xyz
x,y,z
-x,-y,-z
loop_
_atom_site_type_symbol
_atom_site_label
_atom_site_fract_x
_atom_site_fract_y
_atom_site_fract_z
Si Si1 0.631232 0.267110 0.915698
Si Si2 0.625906 0.867821 0.650801
Si Si3 0.795854 0.366402 0.979679
Si Si4 0.866967 0.370186 0.435008
Si Si5 0.143822 0.622548 0.755583
Si Si6 0.333652 0.309111 0.674791
Si Si7 0.781656 0.748040 0.450441
Si Si8 0.351128 0.181274 0.132426
O O1 0.795066 0.332896 0.908490
O O2 0.623849 0.544578 0.650269
O O3 0.487062 0.192503 0.046292
O O4 0.632739 0.000813 0.061898
O O5 0.646795 0.548398 0.873023
O O6 0.570445 0.876271 0.741618
O O7 0.500000 0.000000 0.500000
O O8 0.802328 0.050803 0.487614
O O9 0.962604 0.535939 0.868527
O O10 0.775758 0.052294 0.257640
O O11 0.845283 0.462669 0.273353
O O12 0.775541 0.578956 0.334618
O O13 0.054957 0.383367 0.436599
O O14 0.788512 0.060088 0.695572
O O15 0.268486 0.465950 0.920841
O O16 0.500000 0.500000 0.500000
O O17 0.229402 0.255996 0.641529
#
# Coordination Sequence:
#
# PCOD8033528 Si02
#       8
#     2   2   2   2   2   2   2   2
#     4  11  25  44  71 106 144 197 236 297 366 420
#     4  11  27  48  75 109 143 189 242 298 366 436
#     4  11  24  46  71 106 145 184 245 301 360 435
#     4  11  23  47  69 104 148 187 242 297 363 427
#     4  11  24  44  75 106 141 194 239 303 366 422
#     4  11  25  43  71 109 143 191 251 300 353 427
#     4  11  25  45  72 103 147 197 240 299 362 424
#     4  11  25  46  73 106 146 189 237 301 362 429
#
# _framework density 24.241420999999999
#
# number of rings (size 3 to 8) (size 9 to 14) (size 15 to 20)
#    0.000    1.000    3.750    1.500    1.750    8.500 
#    0.000    0.625    0.000    0.000    0.000    0.000 
#    0.000    0.000    0.000    0.000    0.000    0.000 
#
# Total GULP energy -198342.841896 kJ/mol
# GULP energy per Si atom -12396.427618 kJ/mol
# Density = 2.418625 g / cm^3
# Si number density = 24.241421 Si / 1000 Ang^3
#
#
#
# Elastic Constant Matrix: (Units=GPa)
#
#
# Indices 1 2 3 4 5 6 
#
# 1 89.7525 23.3126 35.1157 0.0096 9.0986 -2.1270
# 2 23.3126 83.1145 40.9879 -10.0895 8.4353 -3.5647
# 3 35.1157 40.9879 151.2829 -15.5339 -7.7146 -14.8760
# 4 0.0096 -10.0895 -15.5339 46.8499 1.2576 6.1032
# 5 9.0986 8.4353 -7.7146 1.2576 41.9231 -2.3480
# 6 -2.1270 -3.5647 -14.8760 6.1032 -2.3480 34.2273
#
#
#
# Elastic Compliance Matrix: (Units=1/GPa)
#
#
# Indices 1 2 3 4 5 6 
#
# 1 0.013076 -0.002178 -0.002779 -0.001237 -0.002908 -0.000601
# 2 -0.002178 0.014974 -0.003565 0.002230 -0.003305 -0.000749
# 3 -0.002779 -0.003565 0.008867 0.001670 0.003083 0.003223
# 4 -0.001237 0.002230 0.001670 0.022821 -0.000739 -0.003239
# 5 -0.002908 -0.003305 0.003083 -0.000739 0.025891 0.002723
# 6 -0.000601 -0.000749 0.003223 -0.003239 0.002723 0.031266
#
#
# Mechanical properties :
#
#
# Convention : Reuss Voigt Hill
#
# Bulk Modulus (GPa) = 50.32049 58.10917 54.21483
# Shear Modulus (GPa) = 35.57117 39.58228 37.57673
#
# Velocity S-wave (km/s) = 3.83478 4.04522 3.94141
# Velocity P-wave (km/s) = 6.35693 6.77063 6.56704
#
# Compressibility (1/GPa) = 0.01987262
#
# Stress axis : x y z
#
# Youngs Moduli (GPa) = 76.47886 66.78054 112.78011
#
# Poissons Ratio (x) = 0.14543 0.31347
# Poissons Ratio (y) = 0.16655 0.40205
# Poissons Ratio (z) = 0.21257 0.23807
#
# Static dielectric constant tensor:
#      x y z
#    x 4.449770 0.244160 -0.153800 
#    y 0.244160 4.196800 -0.091290 
#    z -0.153800 -0.091290 4.744610 
# 
# 
# High freq. dielectric constant tensor:
#      x y z
#    x 1.965330 0.012060 -0.013770 
#    y 0.012060 1.949740 -0.004960 
#    z -0.013770 -0.004960 1.982960 
# 
# From -- ./inp_files/561063.got.cif
#   From: 2010.06.25/outbox.cif.g09.slc.cpg/sg2_281_cif.got.tgz:561063.got - 2010.06.27 13:26:56.
