data_PCOD8033751
_publ_section_title
;
Structure prediction by ZEFSAII (Michael W. Deem and Ramdas Pophale) SiO2 
 PCOD8033751
Probable space group: P -1
;
_chemical_formula_sum "Si O2"
_cell_formula_units_Z 16
_cell_length_a 9.281173
_cell_length_b 5.042213
_cell_length_c 22.255710
_cell_angle_alpha 72.646499
_cell_angle_beta 128.461891
_cell_angle_gamma 125.803707
_cell_volume 657.876298
_symmetry_space_group_name_H-M "P -1"
_symmetry_group_IT_number 2
_symmetry_cell_setting 'triclinic'
loop_
_space_group_symop_operation_xyz
x,y,z
-x,-y,-z
loop_
_atom_site_type_symbol
_atom_site_label
_atom_site_fract_x
_atom_site_fract_y
_atom_site_fract_z
Si Si1 0.289888 0.657875 0.482986
Si Si2 0.061282 0.331102 0.676655
Si Si3 0.898303 0.237637 0.839221
Si Si4 0.819211 0.786807 0.744063
Si Si5 0.538249 0.106706 0.184560
Si Si6 0.386991 0.698096 0.947180
Si Si7 0.633256 0.712755 0.318566
Si Si8 0.221165 0.019795 0.542011
O O1 0.356350 0.385945 0.522174
O O2 0.101416 0.547385 0.390791
O O3 0.500000 0.000000 0.500000
O O4 0.205130 0.724950 0.519553
O O5 0.267520 0.572682 0.754439
O O6 0.147702 0.281098 0.639012
O O7 0.924100 0.979307 0.697175
O O8 0.838716 0.469382 0.772100
O O9 0.132834 0.469728 0.915454
O O10 0.933818 0.020235 0.815260
O O11 0.707374 0.995650 0.853182
O O12 0.561583 0.652948 0.687568
O O13 0.575176 0.160873 0.119849
O O14 0.560014 0.805784 0.231631
O O15 0.500000 0.500000 0.000000
O O16 0.500000 0.000000 0.000000
O O17 0.675699 0.968681 0.366357
O O18 0.000000 0.000000 0.500000
#
# Coordination Sequence:
#
# PCOD8033751 Si02
#       8
#     2   2   2   2   2   2   2   2
#     4  12  28  45  68 103 147 190 246 299 366 427
#     4  12  24  43  73 101 140 194 241 300 354 419
#     4  11  24  46  71 106 141 178 233 288 342 421
#     4  11  24  41  70 104 139 177 237 298 342 407
#     4  11  26  45  76 105 140 182 245 284 351 425
#     4  12  28  48  75 106 147 184 221 286 356 422
#     4  11  25  43  72 101 139 188 239 299 355 416
#     4  12  25  46  67  97 143 188 238 299 363 426
#
# _framework density 24.320681
#
# number of rings (size 3 to 8) (size 9 to 14) (size 15 to 20)
#    0.000    0.500    3.750    3.750    3.500    3.000 
#    0.000    0.000    0.000    0.000    0.000    0.000 
#    0.000    0.000    0.000    0.000    0.000    0.000 
#
# Total GULP energy -198334.232499 kJ/mol
# GULP energy per Si atom -12395.889531 kJ/mol
# Density = 2.426533 g / cm^3
# Si number density = 24.320681 Si / 1000 Ang^3
#
#
#
# Elastic Constant Matrix: (Units=GPa)
#
#
# Indices 1 2 3 4 5 6 
#
# 1 75.1703 20.5787 27.2957 2.2487 0.8238 25.3717
# 2 20.5787 93.7557 23.4399 0.9081 -2.4968 27.3692
# 3 27.2957 23.4399 123.3061 -1.6686 -8.9578 16.9347
# 4 2.2487 0.9081 -1.6686 34.5616 -1.3938 3.5699
# 5 0.8238 -2.4968 -8.9578 -1.3938 39.4488 7.5395
# 6 25.3717 27.3692 16.9347 3.5699 7.5395 54.2284
#
#
#
# Elastic Compliance Matrix: (Units=1/GPa)
#
#
# Indices 1 2 3 4 5 6 
#
# 1 0.016746 -0.001134 -0.002598 -0.000511 0.000202 -0.006445
# 2 -0.001134 0.012996 -0.001283 0.000347 0.001692 -0.005886
# 3 -0.002598 -0.001283 0.009312 0.000897 0.002394 -0.001437
# 4 -0.000511 0.000347 0.000897 0.029318 0.001728 -0.002386
# 5 0.000202 0.001692 0.002394 0.001728 0.027123 -0.005581
# 6 -0.006445 -0.005886 -0.001437 -0.002386 -0.005581 0.025808
#
#
# Mechanical properties :
#
#
# Convention : Reuss Voigt Hill
#
# Bulk Modulus (GPa) = 34.45659 48.31785 41.38722
# Shear Modulus (GPa) = 35.45884 40.37561 37.91722
#
# Velocity S-wave (km/s) = 3.82248 4.07890 3.95277
# Velocity P-wave (km/s) = 5.80346 6.48793 6.15522
#
# Compressibility (1/GPa) = 0.02902202
#
# Stress axis : x y z
#
# Youngs Moduli (GPa) = 59.71706 76.94897 107.38362
#
# Poissons Ratio (x) = 0.08726 0.27902
# Poissons Ratio (y) = 0.06772 0.13782
# Poissons Ratio (z) = 0.15516 0.09876
#
# Static dielectric constant tensor:
#      x y z
#    x 6.978940 -2.480570 -0.543730 
#    y -2.480570 7.720400 1.030660 
#    z -0.543730 1.030660 4.292980 
# 
# 
# High freq. dielectric constant tensor:
#      x y z
#    x 1.969350 0.016200 0.003590 
#    y 0.016200 1.988120 0.010240 
#    z 0.003590 0.010240 1.953200 
# 
# From -- ./inp_files/53236.got.cif
#   From: 2010.06.25/outbox.cif.g09.slc.cpg/sg2_27_cif.got.tgz:53236.got - 2010.06.27 13:26:56.
