data_PCOD8033117
_publ_section_title
;
Structure prediction by ZEFSAII (Michael W. Deem and Ramdas Pophale) SiO2 
 PCOD8033117
Probable space group: P -1
;
_chemical_formula_sum "Si O2"
_cell_formula_units_Z 16
_cell_length_a 12.204791
_cell_length_b 21.114478
_cell_length_c 18.288720
_cell_angle_alpha 19.805526
_cell_angle_beta 150.548892
_cell_angle_gamma 150.958265
_cell_volume 741.137879
_symmetry_space_group_name_H-M "P -1"
_symmetry_group_IT_number 2
_symmetry_cell_setting 'triclinic'
loop_
_space_group_symop_operation_xyz
x,y,z
-x,-y,-z
loop_
_atom_site_type_symbol
_atom_site_label
_atom_site_fract_x
_atom_site_fract_y
_atom_site_fract_z
Si Si1 0.894301 0.832741 0.030642
Si Si2 0.287578 0.612888 0.148116
Si Si3 0.126357 0.553011 0.274716
Si Si4 0.698183 0.500983 0.171770
Si Si5 0.638745 0.780390 0.381967
Si Si6 0.254383 0.978461 0.676053
Si Si7 0.696906 0.136677 0.659637
Si Si8 0.194952 0.158836 0.743493
O O1 0.732394 0.938146 0.864164
O O2 0.704536 0.636455 0.099417
O O3 0.049808 0.966705 0.911845
O O4 0.074508 0.769085 0.257601
O O5 0.128307 0.612661 0.126591
O O6 0.249318 0.388080 0.343944
O O7 0.558602 0.731120 0.194353
O O8 0.213424 0.743036 0.902426
O O9 0.372602 0.663125 0.335558
O O10 0.055612 0.315077 0.494460
O O11 0.934915 0.612157 0.144425
O O12 0.686387 0.284190 0.428113
O O13 0.500000 0.500000 0.000000
O O14 0.642983 0.936708 0.277171
O O15 0.771596 0.898035 0.259625
O O16 0.444789 0.089275 0.605334
O O17 0.000000 0.000000 0.500000
#
# Coordination Sequence:
#
# PCOD8033117 Si02
#       8
#     2   2   2   2   2   2   2   2
#     4  11  23  44  74  92 130 178 220 279 314 384
#     4   9  20  38  62  93 123 155 205 263 320 368
#     4   9  19  39  65  93 126 154 211 268 313 381
#     4  12  27  42  64  99 134 174 216 270 333 393
#     4   9  21  38  66  94 123 163 211 271 313 369
#     4  12  26  40  61  93 130 168 211 256 319 397
#     4  11  26  47  64  98 132 176 226 260 326 396
#     4   9  17  39  68  99 116 156 219 271 317 362
#
# _framework density 21.588425000000001
#
# number of rings (size 3 to 8) (size 9 to 14) (size 15 to 20)
#    0.000    1.750    2.500    2.625    3.500    3.000 
#    4.500    0.000    0.000    0.000    0.000    0.000 
#    0.000    0.000    0.000    0.000    0.000    0.000 
#
# Total GULP energy -198307.736605 kJ/mol
# GULP energy per Si atom -12394.233538 kJ/mol
# Density = 2.153929 g / cm^3
# Si number density = 21.588425 Si / 1000 Ang^3
#
#
#
# Elastic Constant Matrix: (Units=GPa)
#
#
# Indices 1 2 3 4 5 6 
#
# 1 109.9727 31.7621 22.1572 10.7510 9.4749 13.2456
# 2 31.7621 51.1620 31.9140 15.3840 3.5097 -3.1169
# 3 22.1572 31.9140 99.3874 14.8457 -11.0682 8.4575
# 4 10.7510 15.3840 14.8457 22.8025 0.2120 1.0651
# 5 9.4749 3.5097 -11.0682 0.2120 31.8382 -1.5139
# 6 13.2456 -3.1169 8.4575 1.0651 -1.5139 24.2495
#
#
#
# Elastic Compliance Matrix: (Units=1/GPa)
#
#
# Indices 1 2 3 4 5 6 
#
# 1 0.012727 -0.008259 0.000181 -0.000130 -0.003207 -0.008271
# 2 -0.008259 0.035780 -0.008916 -0.014995 -0.003885 0.012636
# 3 0.000181 -0.008916 0.014507 -0.003297 0.005718 -0.005803
# 4 -0.000130 -0.014995 -0.003297 0.056328 0.000019 -0.003179
# 5 -0.003207 -0.003885 0.005718 0.000019 0.034847 0.001432
# 6 -0.008271 0.012636 -0.005803 -0.003179 0.001432 0.049633
#
#
# Mechanical properties :
#
#
# Convention : Reuss Voigt Hill
#
# Bulk Modulus (GPa) = 34.45154 48.02096 41.23625
# Shear Modulus (GPa) = 20.20319 27.42395 23.81357
#
# Velocity S-wave (km/s) = 3.06246 3.56800 3.32485
# Velocity P-wave (km/s) = 5.33834 6.26629 5.82083
#
# Compressibility (1/GPa) = 0.02902628
#
# Stress axis : x y z
#
# Youngs Moduli (GPa) = 78.57164 27.94887 68.92987
#
# Poissons Ratio (x) = 0.23082 -0.01246
# Poissons Ratio (y) = 0.64890 0.61458
# Poissons Ratio (z) = -0.01420 0.24919
#
# Static dielectric constant tensor:
#      x y z
#    x 3.578970 0.096120 -0.552860 
#    y 0.096120 3.626400 -0.025580 
#    z -0.552860 -0.025580 3.406770 
# 
# 
# High freq. dielectric constant tensor:
#      x y z
#    x 1.856350 0.003750 0.004090 
#    y 0.003750 1.815570 -0.011790 
#    z 0.004090 -0.011790 1.857480 
# 
# From -- ./inp_files/346510.got.cif
#   From: 2010.06.25/outbox.cif.g09.slc.cpg/sg2_174_cif.got.tgz:346510.got - 2010.06.27 13:26:56.
