data_PCOD8033444
_publ_section_title
;
Structure prediction by ZEFSAII (Michael W. Deem and Ramdas Pophale) SiO2 
 PCOD8033444
Probable space group: P -1
;
_chemical_formula_sum "Si O2"
_cell_formula_units_Z 16
_cell_length_a 9.454027
_cell_length_b 16.997933
_cell_length_c 11.193966
_cell_angle_alpha 132.764361
_cell_angle_beta 129.832923
_cell_angle_gamma 87.853242
_cell_volume 719.216453
_symmetry_space_group_name_H-M "P -1"
_symmetry_group_IT_number 2
_symmetry_cell_setting 'triclinic'
loop_
_space_group_symop_operation_xyz
x,y,z
-x,-y,-z
loop_
_atom_site_type_symbol
_atom_site_label
_atom_site_fract_x
_atom_site_fract_y
_atom_site_fract_z
Si Si1 0.318072 0.198829 0.287573
Si Si2 0.603185 0.671160 0.786968
Si Si3 0.821428 0.443226 0.954640
Si Si4 0.586450 0.107102 0.768557
Si Si5 0.751027 0.846059 0.269174
Si Si6 0.779411 0.650912 0.255756
Si Si7 0.063306 0.359800 0.152635
Si Si8 0.122930 0.890213 0.891664
O O1 0.438240 0.291929 0.326274
O O2 0.524083 0.294051 0.605673
O O3 0.068281 0.163312 0.156284
O O4 0.226385 0.041548 0.044722
O O5 0.353698 0.495845 0.498854
O O6 0.879461 0.717512 0.987299
O O7 0.583135 0.747484 0.961252
O O8 0.875954 0.586788 0.171609
O O9 0.000000 0.500000 0.000000
O O10 0.915799 0.399736 0.059609
O O11 0.391121 0.125824 0.695286
O O12 0.500000 0.000000 0.500000
O O13 0.614372 0.056272 0.857126
O O14 0.884157 0.261869 0.067068
O O15 0.784522 0.754936 0.276654
O O16 0.000000 0.000000 0.500000
O O17 0.980550 0.757879 0.581153
O O18 0.500000 0.500000 0.000000
#
# Coordination Sequence:
#
# PCOD8033444 Si02
#       8
#     2   2   2   2   2   2   2   2
#     4  11  23  46  72 103 145 193 238 293 367 426
#     4  11  24  45  72 102 145 187 236 295 360 425
#     4  12  24  43  70 106 143 186 239 301 353 430
#     4  12  27  46  73 104 140 189 243 291 354 438
#     4  12  29  49  71 104 150 189 235 300 365 429
#     4  12  27  47  74 109 147 188 242 298 365 424
#     4  11  24  42  71 102 141 183 240 284 358 425
#     4  11  26  44  75 102 146 191 240 297 358 435
#
# _framework density 22.246431000000001
#
# number of rings (size 3 to 8) (size 9 to 14) (size 15 to 20)
#    0.000    0.500    3.750    3.750    8.750    1.500 
#    0.000    1.875    0.000    0.000    0.000    0.000 
#    0.000    0.000    0.000    0.000    0.000    0.000 
#
# Total GULP energy -198286.108154 kJ/mol
# GULP energy per Si atom -12392.881760 kJ/mol
# Density = 2.219580 g / cm^3
# Si number density = 22.246431 Si / 1000 Ang^3
#
#
#
# Elastic Constant Matrix: (Units=GPa)
#
#
# Indices 1 2 3 4 5 6 
#
# 1 130.4363 55.7467 49.4562 12.0008 -15.2908 -15.6363
# 2 55.7467 121.4969 47.3101 -4.4041 -3.4084 -14.3127
# 3 49.4562 47.3101 121.3715 4.7412 -20.3129 -6.0534
# 4 12.0008 -4.4041 4.7412 35.8079 5.1404 5.9344
# 5 -15.2908 -3.4084 -20.3129 5.1404 47.6003 5.2251
# 6 -15.6363 -14.3127 -6.0534 5.9344 5.2251 41.2281
#
#
#
# Elastic Compliance Matrix: (Units=1/GPa)
#
#
# Indices 1 2 3 4 5 6 
#
# 1 0.011384 -0.004098 -0.002269 -0.004878 0.002600 0.002934
# 2 -0.004098 0.011676 -0.003330 0.003297 -0.002460 0.001847
# 3 -0.002269 -0.003330 0.011168 -0.001599 0.004043 -0.000659
# 4 -0.004878 0.003297 -0.001599 0.031691 -0.004900 -0.004881
# 5 0.002600 -0.002460 0.004043 -0.004900 0.024100 -0.001623
# 6 0.002934 0.001847 -0.000659 -0.004881 -0.001623 0.026821
#
#
# Mechanical properties :
#
#
# Convention : Reuss Voigt Hill
#
# Bulk Modulus (GPa) = 67.41397 75.37010 71.39203
# Shear Modulus (GPa) = 35.41631 39.64670 37.53151
#
# Velocity S-wave (km/s) = 3.99432 4.22614 4.11186
# Velocity P-wave (km/s) = 7.18622 7.60045 7.39624
#
# Compressibility (1/GPa) = 0.01483372
#
# Stress axis : x y z
#
# Youngs Moduli (GPa) = 87.84503 85.64898 89.54091
#
# Poissons Ratio (x) = 0.35097 0.20320
# Poissons Ratio (y) = 0.35997 0.29815
# Poissons Ratio (z) = 0.19935 0.28519
#
# Static dielectric constant tensor:
#      x y z
#    x 4.347510 -0.304450 -0.028050 
#    y -0.304450 4.169270 0.534630 
#    z -0.028050 0.534630 3.927340 
# 
# 
# High freq. dielectric constant tensor:
#      x y z
#    x 1.878410 -0.002870 0.000580 
#    y -0.002870 1.890390 0.008960 
#    z 0.000580 0.008960 1.882650 
# 
# From -- ./inp_files/403420.got.cif
#   From: 2010.06.25/outbox.cif.g09.slc.cpg/sg2_202_cif.got.tgz:403420.got - 2010.06.27 13:26:56.
