data_PCOD8033213
_publ_section_title
;
Structure prediction by ZEFSAII (Michael W. Deem and Ramdas Pophale) SiO2 
 PCOD8033213
Probable space group: P -1
;
_chemical_formula_sum "Si O2"
_cell_formula_units_Z 16
_cell_length_a 7.800213
_cell_length_b 12.509045
_cell_length_c 19.528072
_cell_angle_alpha 43.284732
_cell_angle_beta 147.563934
_cell_angle_gamma 124.253673
_cell_volume 693.785221
_symmetry_space_group_name_H-M "P -1"
_symmetry_group_IT_number 2
_symmetry_cell_setting 'triclinic'
loop_
_space_group_symop_operation_xyz
x,y,z
-x,-y,-z
loop_
_atom_site_type_symbol
_atom_site_label
_atom_site_fract_x
_atom_site_fract_y
_atom_site_fract_z
Si Si1 0.204214 0.956058 0.654957
Si Si2 0.754998 0.421415 0.677810
Si Si3 0.691014 0.628160 0.323418
Si Si4 0.841069 0.403505 0.176695
Si Si5 0.137848 0.085228 0.170847
Si Si6 0.145819 0.037776 0.743566
Si Si7 0.153293 0.090779 0.948990
Si Si8 0.126590 0.565186 0.081613
O O1 0.197931 0.775955 0.752979
O O2 0.555073 0.993046 0.732903
O O3 0.057889 0.060294 0.622462
O O4 0.000000 0.000000 0.500000
O O5 0.500000 0.500000 0.500000
O O6 0.567872 0.370654 0.704181
O O7 0.002835 0.543511 0.724473
O O8 0.970282 0.266066 0.793354
O O9 0.810071 0.797653 0.283119
O O10 0.503933 0.595524 0.203786
O O11 0.000000 0.500000 0.500000
O O12 0.085140 0.434329 0.184763
O O13 0.500000 0.500000 0.000000
O O14 0.129307 0.037252 0.271057
O O15 0.844477 0.011298 0.072071
O O16 0.105979 0.271222 0.061716
O O17 0.468098 0.907623 0.909849
O O18 0.000000 0.000000 0.000000
O O19 0.000000 0.500000 0.000000
#
# Coordination Sequence:
#
# PCOD8033213 Si02
#       8
#     2   2   2   2   2   2   2   2
#     4  12  28  46  74 104 147 193 242 301 367 432
#     4  11  26  42  74 106 138 189 242 299 366 426
#     4  11  26  44  67 106 149 184 238 304 365 431
#     4  11  23  45  69  99 139 187 237 290 360 431
#     4  12  25  44  73 107 142 188 248 295 362 437
#     4  12  26  46  75 108 143 192 245 303 363 435
#     4  12  21  45  77 102 140 186 245 297 357 435
#     4  11  24  45  69 104 140 189 244 295 358 440
#
# _framework density 23.061893999999999
#
# number of rings (size 3 to 8) (size 9 to 14) (size 15 to 20)
#    0.000    0.500    5.000    2.625    5.250    3.500 
#    0.000    0.000    0.000    0.000    0.000    0.000 
#    0.000    0.000    0.000    0.000    0.000    0.000 
#
# Total GULP energy -198329.425635 kJ/mol
# GULP energy per Si atom -12395.589102 kJ/mol
# Density = 2.300940 g / cm^3
# Si number density = 23.061894 Si / 1000 Ang^3
#
#
#
# Elastic Constant Matrix: (Units=GPa)
#
#
# Indices 1 2 3 4 5 6 
#
# 1 106.6367 36.4787 16.0104 -0.8032 -16.8504 0.0080
# 2 36.4787 130.6779 48.9756 10.8286 -7.6137 -13.8002
# 3 16.0104 48.9756 117.1695 7.8588 -11.2506 -14.0272
# 4 -0.8032 10.8286 7.8588 42.1532 -9.1381 -8.8009
# 5 -16.8504 -7.6137 -11.2506 -9.1381 34.4799 1.0556
# 6 0.0080 -13.8002 -14.0272 -8.8009 1.0556 40.4603
#
#
#
# Elastic Compliance Matrix: (Units=1/GPa)
#
#
# Indices 1 2 3 4 5 6 
#
# 1 0.011303 -0.003104 0.000048 0.002021 0.005412 -0.000746
# 2 -0.003104 0.010145 -0.003566 -0.001826 -0.000981 0.001853
# 3 0.000048 -0.003566 0.010553 0.000012 0.002610 0.002377
# 4 0.002021 -0.001826 0.000012 0.026921 0.007569 0.005039
# 5 0.005412 -0.000981 0.002610 0.007569 0.034248 0.001322
# 6 -0.000746 0.001853 0.002377 0.005039 0.001322 0.027233
#
#
# Mechanical properties :
#
#
# Convention : Reuss Voigt Hill
#
# Bulk Modulus (GPa) = 53.31584 61.93482 57.62533
# Shear Modulus (GPa) = 35.73950 40.28664 38.01307
#
# Velocity S-wave (km/s) = 3.94092 4.18412 4.06434
# Velocity P-wave (km/s) = 6.62394 7.08919 6.86051
#
# Compressibility (1/GPa) = 0.01875615
#
# Stress axis : x y z
#
# Youngs Moduli (GPa) = 88.47329 98.56717 94.75843
#
# Poissons Ratio (x) = 0.30596 -0.00453
# Poissons Ratio (y) = 0.27462 0.33795
# Poissons Ratio (z) = -0.00423 0.35153
#
# Static dielectric constant tensor:
#      x y z
#    x 5.228770 0.356410 1.430300 
#    y 0.356410 4.575280 0.927890 
#    z 1.430300 0.927890 6.801970 
# 
# 
# High freq. dielectric constant tensor:
#      x y z
#    x 1.908870 -0.000110 -0.009830 
#    y -0.000110 1.924430 0.005880 
#    z -0.009830 0.005880 1.906550 
# 
# From -- ./inp_files/589512.got.cif
#   From: 2010.06.25/outbox.cif.g09.slc.cpg/sg2_295_cif.got.tgz:589512.got - 2010.06.27 13:26:56.
