data_PCOD8033962
_publ_section_title
;
Structure prediction by ZEFSAII (Michael W. Deem and Ramdas Pophale) SiO2 
 PCOD8033962
Probable space group: P -1
;
_chemical_formula_sum "Si O2"
_cell_formula_units_Z 16
_cell_length_a 8.098145
_cell_length_b 21.632958
_cell_length_c 7.813797
_cell_angle_alpha 62.418107
_cell_angle_beta 34.427898
_cell_angle_gamma 55.844227
_cell_volume 640.428701
_symmetry_space_group_name_H-M "P -1"
_symmetry_group_IT_number 2
_symmetry_cell_setting 'triclinic'
loop_
_space_group_symop_operation_xyz
x,y,z
-x,-y,-z
loop_
_atom_site_type_symbol
_atom_site_label
_atom_site_fract_x
_atom_site_fract_y
_atom_site_fract_z
Si Si1 0.677332 0.683046 0.675182
Si Si2 0.845614 0.563718 0.186270
Si Si3 0.118168 0.833040 0.433493
Si Si4 0.774149 0.913632 0.195438
Si Si5 0.381728 0.833031 0.566884
Si Si6 0.274035 0.683011 0.323947
Si Si7 0.462870 0.563725 0.814057
Si Si8 0.516125 0.086296 0.194730
O O1 0.649665 0.756955 0.498751
O O2 0.569741 0.627547 0.722059
O O3 0.030498 0.646686 0.498877
O O4 0.435544 0.710322 0.999280
O O5 0.547222 0.627499 0.278313
O O6 0.709657 0.526725 0.500176
O O7 0.000000 0.500000 0.000000
O O8 0.107661 0.594724 0.000323
O O9 0.284294 0.810411 0.499722
O O10 0.079073 0.756923 0.500972
O O11 0.782401 0.894183 0.699345
O O12 0.270663 0.867990 0.108711
O O13 0.533378 0.894348 0.301892
O O14 0.669436 0.886740 0.500353
O O15 0.734677 0.999928 0.120020
O O16 0.124109 0.867703 0.892247
O O17 0.500000 0.500000 0.000000
#
# Coordination Sequence:
#
# PCOD8033962 Si02
#       8
#     2   2   2   2   2   2   2   2
#     4  12  26  47  74 104 142 189 240 291 351 419
#     4  12  27  49  76 109 147 186 234 289 354 422
#     4  12  25  42  68 101 138 181 233 294 355 416
#     4  11  24  43  67  97 136 184 236 290 352 423
#     4  12  25  42  68 101 138 181 233 294 355 416
#     4  12  26  47  74 104 142 189 240 291 351 419
#     4  12  27  49  76 109 147 186 234 289 354 422
#     4  11  24  43  67  97 136 184 236 290 352 423
#
# _framework density 24.983263999999998
#
# number of rings (size 3 to 8) (size 9 to 14) (size 15 to 20)
#    0.000    0.250    0.000    9.750    0.000    9.000 
#    0.000    0.000    0.000    0.000    0.000    0.000 
#    0.000    0.000    0.000    0.000    0.000    0.000 
#
# Total GULP energy -198257.465469 kJ/mol
# GULP energy per Si atom -12391.091592 kJ/mol
# Density = 2.492640 g / cm^3
# Si number density = 24.983264 Si / 1000 Ang^3
#
#
#
# Elastic Constant Matrix: (Units=GPa)
#
#
# Indices 1 2 3 4 5 6 
#
# 1 143.8050 65.4243 51.2618 2.5373 -36.3812 -0.3696
# 2 65.4243 134.9735 51.3309 2.1457 -5.1272 3.9427
# 3 51.2618 51.3309 150.4549 -0.7072 -22.0742 0.8654
# 4 2.5373 2.1457 -0.7072 35.2379 -0.7313 -5.7791
# 5 -36.3812 -5.1272 -22.0742 -0.7313 61.2750 -2.3668
# 6 -0.3696 3.9427 0.8654 -5.7791 -2.3668 11.4493
#
#
#
# Elastic Compliance Matrix: (Units=1/GPa)
#
#
# Indices 1 2 3 4 5 6 
#
# 1 0.011059 -0.004740 -0.001315 0.000138 0.005828 0.003363
# 2 -0.004740 0.010686 -0.002449 -0.001222 -0.003006 -0.004886
# 3 -0.001315 -0.002449 0.008224 0.000598 0.002019 0.000899
# 4 0.000138 -0.001222 0.000598 0.031163 0.001199 0.016358
# 5 0.005828 -0.003006 0.002019 0.001199 0.020499 0.005913
# 6 0.003363 -0.004886 0.000899 0.016358 0.005913 0.098544
#
#
# Mechanical properties :
#
#
# Convention : Reuss Voigt Hill
#
# Bulk Modulus (GPa) = 77.15195 85.02970 81.09082
# Shear Modulus (GPa) = 24.81356 39.00686 31.91021
#
# Velocity S-wave (km/s) = 3.15494 3.95564 3.57776
# Velocity P-wave (km/s) = 6.64981 7.41427 7.04242
#
# Compressibility (1/GPa) = 0.01296144
#
# Stress axis : x y z
#
# Youngs Moduli (GPa) = 90.42049 93.58176 121.59579
#
# Poissons Ratio (x) = 0.44356 0.15986
# Poissons Ratio (y) = 0.42858 0.29784
# Poissons Ratio (z) = 0.11887 0.22922
#
# Static dielectric constant tensor:
#      x y z
#    x 4.833030 -0.019890 -0.104460 
#    y -0.019890 4.276700 -0.038770 
#    z -0.104460 -0.038770 4.865420 
# 
# 
# High freq. dielectric constant tensor:
#      x y z
#    x 2.019270 -0.001080 -0.008260 
#    y -0.001080 1.987390 -0.001460 
#    z -0.008260 -0.001460 2.013640 
# 
# From -- ./inp_files/226247.got.cif
#   From: 2010.06.25/outbox.cif.g09.slc.cpg/sg2_114_cif.got.tgz:226247.got - 2010.06.27 13:26:56.
