data_PCOD8033842
_publ_section_title
;
Structure prediction by ZEFSAII (Michael W. Deem and Ramdas Pophale) SiO2 
 PCOD8033842
Probable space group: P -1
;
_chemical_formula_sum "Si O2"
_cell_formula_units_Z 16
_cell_length_a 8.376463
_cell_length_b 22.546177
_cell_length_c 12.931101
_cell_angle_alpha 154.322991
_cell_angle_beta 41.039857
_cell_angle_gamma 127.427514
_cell_volume 672.150057
_symmetry_space_group_name_H-M "P -1"
_symmetry_group_IT_number 2
_symmetry_cell_setting 'triclinic'
loop_
_space_group_symop_operation_xyz
x,y,z
-x,-y,-z
loop_
_atom_site_type_symbol
_atom_site_label
_atom_site_fract_x
_atom_site_fract_y
_atom_site_fract_z
Si Si1 0.592091 0.876339 0.107132
Si Si2 0.231103 0.155883 0.805723
Si Si3 0.733550 0.133178 0.071082
Si Si4 0.420357 0.603788 0.311112
Si Si5 0.774489 0.889401 0.818214
Si Si6 0.678021 0.362647 0.145274
Si Si7 0.166599 0.607999 0.108936
Si Si8 0.793234 0.625117 0.004948
O O1 0.749650 0.813005 0.032365
O O2 0.441414 0.031567 0.457696
O O3 0.774338 0.892705 0.948408
O O4 0.418013 0.775183 0.995014
O O5 0.248199 0.298144 0.964192
O O6 0.968331 0.114427 0.849462
O O7 0.669629 0.296628 0.392263
O O8 0.503163 0.108777 0.081470
O O9 0.823008 0.030413 0.964713
O O10 0.190761 0.543065 0.283790
O O11 0.630364 0.459283 0.009821
O O12 0.553148 0.687346 0.295236
O O13 0.989603 0.756795 0.465845
O O14 0.500000 0.500000 0.500000
O O15 0.960428 0.347692 0.020948
O O16 0.677251 0.371936 0.036779
O O17 0.000000 0.500000 0.000000
#
# Coordination Sequence:
#
# PCOD8033842 Si02
#       8
#     2   2   2   2   2   2   2   2
#     4  11  26  46  69 101 139 186 234 285 356 412
#     4  11  26  46  69 101 144 180 229 297 350 417
#     4  11  24  42  69 104 133 187 229 292 349 408
#     4  11  25  43  70 100 144 183 233 286 344 421
#     4  11  24  44  73 100 139 185 239 286 341 427
#     4  12  26  42  72 106 138 184 230 286 348 418
#     4  12  22  43  68 102 141 181 230 286 344 416
#     4  11  25  44  68 101 139 184 230 285 351 405
#
# _framework density 23.804207000000002
#
# number of rings (size 3 to 8) (size 9 to 14) (size 15 to 20)
#    0.000    0.750    2.500    3.750    3.500    7.000 
#    0.000    0.000    0.000    0.000    0.000    0.000 
#    0.000    0.000    0.000    0.000    0.000    0.000 
#
# Total GULP energy -198386.737208 kJ/mol
# GULP energy per Si atom -12399.171076 kJ/mol
# Density = 2.375003 g / cm^3
# Si number density = 23.804207 Si / 1000 Ang^3
#
#
#
# Elastic Constant Matrix: (Units=GPa)
#
#
# Indices 1 2 3 4 5 6 
#
# 1 65.0536 28.0538 20.0477 1.7740 4.9378 -8.6184
# 2 28.0538 140.7863 32.3857 -11.3524 -4.7962 -18.2014
# 3 20.0477 32.3857 111.4117 -12.9753 5.0062 -17.1984
# 4 1.7740 -11.3524 -12.9753 40.8472 -3.0818 10.0122
# 5 4.9378 -4.7962 5.0062 -3.0818 28.4672 -3.6207
# 6 -8.6184 -18.2014 -17.1984 10.0122 -3.6207 46.2551
#
#
#
# Elastic Compliance Matrix: (Units=1/GPa)
#
#
# Indices 1 2 3 4 5 6 
#
# 1 0.018014 -0.003220 -0.002255 -0.003053 -0.003392 0.001646
# 2 -0.003220 0.008593 -0.001521 0.001748 0.002724 0.002051
# 3 -0.002255 -0.001521 0.010504 0.002364 -0.001166 0.002284
# 4 -0.003053 0.001748 0.002364 0.027205 0.002759 -0.004675
# 5 -0.003392 0.002724 -0.001166 0.002759 0.036972 0.002303
# 6 0.001646 0.002051 0.002284 -0.004675 0.002303 0.024774
#
#
# Mechanical properties :
#
#
# Convention : Reuss Voigt Hill
#
# Bulk Modulus (GPa) = 43.25095 53.13619 48.19357
# Shear Modulus (GPa) = 33.83877 38.89820 36.36848
#
# Velocity S-wave (km/s) = 3.77443 4.04677 3.91297
# Velocity P-wave (km/s) = 6.09951 6.64874 6.38004
#
# Compressibility (1/GPa) = 0.02312088
#
# Stress axis : x y z
#
# Youngs Moduli (GPa) = 55.51217 116.37003 95.20399
#
# Poissons Ratio (x) = 0.37469 0.21464
# Poissons Ratio (y) = 0.17874 0.14478
# Poissons Ratio (z) = 0.12515 0.17697
#
# Static dielectric constant tensor:
#      x y z
#    x 4.474160 -0.042010 -0.045920 
#    y -0.042010 4.699620 -0.120420 
#    z -0.045920 -0.120420 4.156750 
# 
# 
# High freq. dielectric constant tensor:
#      x y z
#    x 1.947270 0.001690 0.004310 
#    y 0.001690 1.964510 -0.005980 
#    z 0.004310 -0.005980 1.937780 
# 
# From -- ./inp_files/405650.got.cif
#   From: 2010.06.25/outbox.cif.g09.slc.cpg/sg2_203_cif.got.tgz:405650.got - 2010.06.27 13:26:56.
