data_PCOD8033793
_publ_section_title
;
Structure prediction by ZEFSAII (Michael W. Deem and Ramdas Pophale) SiO2 
 PCOD8033793
Probable space group: P -1
;
_chemical_formula_sum "Si O2"
_cell_formula_units_Z 12
_cell_length_a 5.186747
_cell_length_b 19.946232
_cell_length_c 5.053430
_cell_angle_alpha 96.309729
_cell_angle_beta 99.954068
_cell_angle_gamma 78.901783
_cell_volume 503.717266
_symmetry_space_group_name_H-M "P -1"
_symmetry_group_IT_number 2
_symmetry_cell_setting 'triclinic'
loop_
_space_group_symop_operation_xyz
x,y,z
-x,-y,-z
loop_
_atom_site_type_symbol
_atom_site_label
_atom_site_fract_x
_atom_site_fract_y
_atom_site_fract_z
Si Si1 0.775339 0.454329 0.948390
Si Si2 0.509442 0.952226 0.730704
Si Si3 0.089053 0.173713 0.067407
Si Si4 0.217327 0.836992 0.509449
Si Si5 0.357795 0.277302 0.384759
Si Si6 0.189113 0.636546 0.586847
O O1 0.248336 0.576055 0.359132
O O2 0.500000 0.500000 0.000000
O O3 0.849485 0.392650 0.141810
O O4 0.000000 0.500000 0.000000
O O5 0.768863 0.894631 0.785419
O O6 0.263074 0.912507 0.631959
O O7 0.500000 0.000000 0.500000
O O8 0.500000 0.000000 0.000000
O O9 0.261587 0.234582 0.100595
O O10 0.855637 0.200049 0.248868
O O11 0.003399 0.154660 0.753993
O O12 0.475849 0.783321 0.425906
O O13 0.550219 0.328259 0.346858
O O14 0.095233 0.315435 0.511412
#
# Coordination Sequence:
#
# PCOD8033793 Si02
#       6
#     2   2   2   2   2   2
#     4  12  26  48  72 107 148 188 236 290 350 416
#     4  11  24  42  66 102 138 188 244 290 360 434
#     4  11  25  44  69  98 146 185 232 310 355 419
#     4  11  25  44  69  98 146 185 232 310 355 419
#     4  11  26  47  70 112 142 187 246 294 364 423
#     4  12  26  45  78 105 144 191 238 292 350 431
#
# _framework density 23.822887000000001
#
# number of rings (size 3 to 8) (size 9 to 14) (size 15 to 20)
#    0.000    0.667    1.667    5.000    2.333   10.667 
#    0.000    0.000    0.000    0.000    0.000    0.000 
#    0.000    0.000    0.000    0.000    0.000    0.000 
#
# Total GULP energy -148722.531451 kJ/mol
# GULP energy per Si atom -12393.544288 kJ/mol
# Density = 2.376867 g / cm^3
# Si number density = 23.822887 Si / 1000 Ang^3
#
#
#
# Elastic Constant Matrix: (Units=GPa)
#
#
# Indices 1 2 3 4 5 6 
#
# 1 151.9150 67.4655 40.3727 23.6408 14.7031 27.6352
# 2 67.4655 135.2179 45.4039 23.8526 14.8806 22.0273
# 3 40.3727 45.4039 137.9463 25.8695 10.6824 29.0200
# 4 23.6408 23.8526 25.8695 30.6839 6.2770 2.2832
# 5 14.7031 14.8806 10.6824 6.2770 36.2963 8.1018
# 6 27.6352 22.0273 29.0200 2.2832 8.1018 53.1993
#
#
#
# Elastic Compliance Matrix: (Units=1/GPa)
#
#
# Indices 1 2 3 4 5 6 
#
# 1 0.009385 -0.003289 -0.000167 -0.004097 -0.001005 -0.003093
# 2 -0.003289 0.010644 -0.001300 -0.004205 -0.001571 -0.001569
# 3 -0.000167 -0.001300 0.009980 -0.006912 -0.000136 -0.004501
# 4 -0.004097 -0.004205 -0.006912 0.045152 -0.003792 0.006280
# 5 -0.001005 -0.001571 -0.000136 -0.003792 0.030003 -0.003160
# 6 -0.003093 -0.001569 -0.004501 0.006280 -0.003160 0.023721
#
#
# Mechanical properties :
#
#
# Convention : Reuss Voigt Hill
#
# Bulk Modulus (GPa) = 48.79118 81.28481 65.03800
# Shear Modulus (GPa) = 34.42806 42.15838 38.29322
#
# Velocity S-wave (km/s) = 3.80566 4.21129 4.01360
# Velocity P-wave (km/s) = 6.31158 7.60534 6.98846
#
# Compressibility (1/GPa) = 0.02049551
#
# Stress axis : x y z
#
# Youngs Moduli (GPa) = 106.54753 93.95346 100.20332
#
# Poissons Ratio (x) = 0.30904 0.01675
# Poissons Ratio (y) = 0.35047 0.13027
# Poissons Ratio (z) = 0.01781 0.12215
#
# Static dielectric constant tensor:
#      x y z
#    x 4.618000 -0.114840 0.206820 
#    y -0.114840 4.837430 0.153610 
#    z 0.206820 0.153610 4.120370 
# 
# 
# High freq. dielectric constant tensor:
#      x y z
#    x 1.957950 0.000040 0.013830 
#    y 0.000040 1.966870 0.011050 
#    z 0.013830 0.011050 1.935110 
# 
# From -- ./inp_files/5321.got.cif
#   From: 2010.06.25/outbox.cif.g09.slc.cpg/sg2_3_cif.got.tgz:5321.got - 2010.06.27 13:26:56.
