data_PCOD8033346
_publ_section_title
;
Structure prediction by ZEFSAII (Michael W. Deem and Ramdas Pophale) SiO2 
 PCOD8033346
Probable space group: P -1
;
_chemical_formula_sum "Si O2"
_cell_formula_units_Z 16
_cell_length_a 9.234325
_cell_length_b 28.249661
_cell_length_c 11.969858
_cell_angle_alpha 26.358040
_cell_angle_beta 41.479465
_cell_angle_gamma 31.743666
_cell_volume 728.284387
_symmetry_space_group_name_H-M "P -1"
_symmetry_group_IT_number 2
_symmetry_cell_setting 'triclinic'
loop_
_space_group_symop_operation_xyz
x,y,z
-x,-y,-z
loop_
_atom_site_type_symbol
_atom_site_label
_atom_site_fract_x
_atom_site_fract_y
_atom_site_fract_z
Si Si1 0.040128 0.699302 0.467348
Si Si2 0.043755 0.397652 0.601004
Si Si3 0.115858 0.833082 0.939387
Si Si4 0.110845 0.084924 0.732713
Si Si5 0.374612 0.320966 0.356637
Si Si6 0.983553 0.102732 0.520556
Si Si7 0.493008 0.585703 0.117547
Si Si8 0.722769 0.880159 0.882868
O O1 0.245680 0.539509 0.705309
O O2 0.058638 0.772734 0.407302
O O3 0.742709 0.734637 0.541845
O O4 0.122410 0.741256 0.223273
O O5 0.149858 0.413576 0.387724
O O6 0.000000 0.500000 0.500000
O O7 0.756098 0.422261 0.704131
O O8 0.277176 0.246572 0.828697
O O9 0.839568 0.906863 0.867609
O O10 0.391220 0.728960 0.926943
O O11 0.125351 0.946527 0.747472
O O12 0.095306 0.113648 0.550082
O O13 0.417311 0.008561 0.763282
O O14 0.000000 0.000000 0.000000
O O15 0.653114 0.192910 0.522484
O O16 0.432169 0.412062 0.060060
O O17 0.075357 0.158044 0.256561
#
# Coordination Sequence:
#
# PCOD8033346 Si02
#       8
#     2   2   2   2   2   2   2   2
#     4  12  26  46  72 102 146 191 239 299 350 426
#     4  11  26  44  75 104 145 192 233 295 356 426
#     4  11  23  45  76 101 141 190 238 293 352 424
#     4  12  27  43  67 106 141 186 238 292 360 424
#     4  12  25  48  75 105 141 189 245 291 357 424
#     4  12  25  45  73 107 145 185 236 301 359 423
#     4  11  26  48  69 109 144 188 243 290 356 422
#     4  11  24  48  66 106 144 183 241 290 361 422
#
# _framework density 21.969441
#
# number of rings (size 3 to 8) (size 9 to 14) (size 15 to 20)
#    0.000    0.500    6.250    3.000    5.250    2.500 
#    0.000    0.000    0.000    0.000    0.000    0.000 
#    0.000    0.000    0.000    0.000    0.000    0.000 
#
# Total GULP energy -198427.799427 kJ/mol
# GULP energy per Si atom -12401.737464 kJ/mol
# Density = 2.191944 g / cm^3
# Si number density = 21.969441 Si / 1000 Ang^3
#
#
#
# Elastic Constant Matrix: (Units=GPa)
#
#
# Indices 1 2 3 4 5 6 
#
# 1 120.5139 56.6719 41.5847 -12.3975 13.2389 19.2045
# 2 56.6719 109.0127 44.5493 12.2667 3.4375 5.7859
# 3 41.5847 44.5493 77.7650 20.1626 25.7455 -0.1651
# 4 -12.3975 12.2667 20.1626 38.3096 2.0428 13.0607
# 5 13.2389 3.4375 25.7455 2.0428 34.0555 -0.6751
# 6 19.2045 5.7859 -0.1651 13.0607 -0.6751 34.6425
#
#
#
# Elastic Compliance Matrix: (Units=1/GPa)
#
#
# Indices 1 2 3 4 5 6 
#
# 1 0.022229 -0.007394 -0.014216 0.023851 0.001023 -0.020128
# 2 -0.007394 0.015423 -0.005103 -0.006305 0.005633 0.003986
# 3 -0.014216 -0.005103 0.037376 -0.028077 -0.020152 0.019104
# 4 0.023851 -0.006305 -0.028077 0.062336 0.008144 -0.035646
# 5 0.001023 0.005633 -0.020152 0.008144 0.043068 -0.003835
# 6 -0.020128 0.003986 0.019104 -0.035646 -0.003835 0.052814
#
#
# Mechanical properties :
#
#
# Convention : Reuss Voigt Hill
#
# Bulk Modulus (GPa) = 46.29315 65.87814 56.08565
# Shear Modulus (GPa) = 17.01410 32.36723 24.69067
#
# Velocity S-wave (km/s) = 2.78590 3.84250 3.35605
# Velocity P-wave (km/s) = 5.60943 7.05250 6.37195
#
# Compressibility (1/GPa) = 0.02160147
#
# Stress axis : x y z
#
# Youngs Moduli (GPa) = 44.98556 64.83839 26.75480
#
# Poissons Ratio (x) = 0.47944 0.38036
# Poissons Ratio (y) = 0.33264 0.13653
# Poissons Ratio (z) = 0.63953 0.33086
#
# Static dielectric constant tensor:
#      x y z
#    x 4.667380 0.186010 -0.229700 
#    y 0.186010 4.202910 -0.039350 
#    z -0.229700 -0.039350 4.224500 
# 
# 
# High freq. dielectric constant tensor:
#      x y z
#    x 1.863240 0.001860 0.013400 
#    y 0.001860 1.869990 0.008780 
#    z 0.013400 0.008780 1.867670 
# 
# From -- ./inp_files/407317.got.cif
#   From: 2010.06.25/outbox.cif.g09.slc.cpg/sg2_204_cif.got.tgz:407317.got - 2010.06.27 13:26:56.
