data_PCOD8033511
_publ_section_title
;
Structure prediction by ZEFSAII (Michael W. Deem and Ramdas Pophale) SiO2 
 PCOD8033511
Probable space group: P -1
;
_chemical_formula_sum "Si O2"
_cell_formula_units_Z 16
_cell_length_a 19.599582
_cell_length_b 11.271457
_cell_length_c 16.237823
_cell_angle_alpha 147.845119
_cell_angle_beta 21.177552
_cell_angle_gamma 136.930307
_cell_volume 656.518188
_symmetry_space_group_name_H-M "P -1"
_symmetry_group_IT_number 2
_symmetry_cell_setting 'triclinic'
loop_
_space_group_symop_operation_xyz
x,y,z
-x,-y,-z
loop_
_atom_site_type_symbol
_atom_site_label
_atom_site_fract_x
_atom_site_fract_y
_atom_site_fract_z
Si Si1 0.168317 0.637717 0.213929
Si Si2 0.875445 0.560983 0.022183
Si Si3 0.275323 0.168671 0.198441
Si Si4 0.438212 0.768302 0.215546
Si Si5 0.543233 0.728117 0.611821
Si Si6 0.005951 0.021152 0.908228
Si Si7 0.653292 0.832413 0.167559
Si Si8 0.787193 0.847787 0.549591
O O1 0.932134 0.676193 0.515198
O O2 0.212506 0.887611 0.317457
O O3 0.223240 0.531309 0.998350
O O4 0.284661 0.441941 0.033992
O O5 0.701053 0.756850 0.382583
O O6 0.027262 0.702429 0.907243
O O7 0.991889 0.338651 0.817248
O O8 0.278773 0.182242 0.300791
O O9 0.478063 0.206361 0.955439
O O10 0.317809 0.900036 0.965071
O O11 0.203824 0.868476 0.550460
O O12 0.551266 0.872419 0.217688
O O13 0.500000 0.500000 0.000000
O O14 0.500000 0.500000 0.500000
O O15 0.636417 0.756189 0.611727
O O16 0.838010 0.928593 0.004214
O O17 0.000000 0.000000 0.000000
O O18 0.500000 0.000000 0.500000
#
# Coordination Sequence:
#
# PCOD8033511 Si02
#       8
#     2   2   2   2   2   2   2   2
#     4  11  24  48  77 108 153 197 253 309 380 459
#     4  11  23  46  77 105 151 196 250 315 370 451
#     4  11  25  47  70 110 152 197 244 311 382 450
#     4  12  28  47  75 113 151 196 258 314 378 452
#     4  12  25  45  71 111 150 191 256 306 370 455
#     4  12  24  50  75 112 153 197 257 314 380 451
#     4  12  27  48  83 113 147 205 256 315 388 448
#     4  11  26  46  74 110 149 206 245 310 386 445
#
# _framework density 24.370992000000001
#
# number of rings (size 3 to 8) (size 9 to 14) (size 15 to 20)
#    0.000    0.500    3.750    4.500    3.500    4.000 
#    2.250    0.000    0.000    0.000    0.000    0.000 
#    0.000    0.000    0.000    0.000    0.000    0.000 
#
# Total GULP energy -198210.506382 kJ/mol
# GULP energy per Si atom -12388.156649 kJ/mol
# Density = 2.431552 g / cm^3
# Si number density = 24.370992 Si / 1000 Ang^3
#
#
#
# Elastic Constant Matrix: (Units=GPa)
#
#
# Indices 1 2 3 4 5 6 
#
# 1 71.1594 51.7866 37.3349 -4.0850 0.2610 8.5760
# 2 51.7866 136.0608 30.7505 -1.9312 -4.1981 14.3747
# 3 37.3349 30.7505 152.3046 -11.0100 10.5429 -5.2584
# 4 -4.0850 -1.9312 -11.0100 47.3705 -3.9130 1.4698
# 5 0.2610 -4.1981 10.5429 -3.9130 34.3106 -1.4303
# 6 8.5760 14.3747 -5.2584 1.4698 -1.4303 40.7430
#
#
#
# Elastic Compliance Matrix: (Units=1/GPa)
#
#
# Indices 1 2 3 4 5 6 
#
# 1 0.021587 -0.007043 -0.003915 0.000758 0.000156 -0.002586
# 2 -0.007043 0.010433 -0.000562 -0.000129 0.001396 -0.002217
# 3 -0.003915 -0.000562 0.007952 0.001241 -0.002261 0.001925
# 4 0.000758 -0.000129 0.001241 0.021648 0.002038 -0.000663
# 5 0.000156 0.001396 -0.002261 0.002038 0.030249 0.000171
# 6 -0.002586 -0.002217 0.001925 -0.000663 0.000171 0.026149
#
#
# Mechanical properties :
#
#
# Convention : Reuss Voigt Hill
#
# Bulk Modulus (GPa) = 59.06295 66.58543 62.82419
# Shear Modulus (GPa) = 34.08273 40.46169 37.27221
#
# Velocity S-wave (km/s) = 3.74370 4.07902 3.91496
# Velocity P-wave (km/s) = 6.55550 7.04028 6.80221
#
# Compressibility (1/GPa) = 0.01693109
#
# Stress axis : x y z
#
# Youngs Moduli (GPa) = 46.32419 95.85132 125.75889
#
# Poissons Ratio (x) = 0.67505 0.49235
# Poissons Ratio (y) = 0.32625 0.07074
# Poissons Ratio (z) = 0.18136 0.05391
#
# Static dielectric constant tensor:
#      x y z
#    x 4.554180 -0.559040 0.848870 
#    y -0.559040 5.697880 -0.928480 
#    z 0.848870 -0.928480 5.852490 
# 
# 
# High freq. dielectric constant tensor:
#      x y z
#    x 1.960820 0.001270 0.011500 
#    y 0.001270 1.979060 0.010570 
#    z 0.011500 0.010570 1.995620 
# 
# From -- ./inp_files/578012.got.cif
#   From: 2010.06.25/outbox.cif.g09.slc.cpg/sg2_290_cif.got.tgz:578012.got - 2010.06.27 13:26:56.
