data_PCOD8033678
_publ_section_title
;
Structure prediction by ZEFSAII (Michael W. Deem and Ramdas Pophale) SiO2 
 PCOD8033678
Probable space group: P -1
;
_chemical_formula_sum "Si O2"
_cell_formula_units_Z 16
_cell_length_a 24.671526
_cell_length_b 6.042932
_cell_length_c 11.028994
_cell_angle_alpha 109.208678
_cell_angle_beta 32.403401
_cell_angle_gamma 123.872969
_cell_volume 693.570541
_symmetry_space_group_name_H-M "P -1"
_symmetry_group_IT_number 2
_symmetry_cell_setting 'triclinic'
loop_
_space_group_symop_operation_xyz
x,y,z
-x,-y,-z
loop_
_atom_site_type_symbol
_atom_site_label
_atom_site_fract_x
_atom_site_fract_y
_atom_site_fract_z
Si Si1 0.393837 0.048186 0.201568
Si Si2 0.164104 0.365821 0.180973
Si Si3 0.364389 0.313249 0.674265
Si Si4 0.300547 0.785136 0.571564
Si Si5 0.079668 0.088341 0.546556
Si Si6 0.459299 0.584306 0.297709
Si Si7 0.944414 0.696083 0.120496
Si Si8 0.718295 0.031235 0.856099
O O1 0.449566 0.377275 0.174206
O O2 0.296781 0.896650 0.465831
O O3 0.325777 0.925663 0.181554
O O4 0.500000 0.000000 0.000000
O O5 0.113612 0.270440 0.394167
O O6 0.223049 0.696971 0.119808
O O7 0.269162 0.314521 0.942910
O O8 0.052648 0.201903 0.268327
O O9 0.500000 0.500000 0.500000
O O10 0.370059 0.437336 0.553377
O O11 0.316667 0.988267 0.687848
O O12 0.419202 0.773528 0.345481
O O13 0.175463 0.486077 0.768076
O O14 0.078909 0.265760 0.690351
O O15 0.181380 0.030543 0.373099
O O16 0.601304 0.780324 0.104263
O O17 0.000000 0.500000 0.000000
O O18 0.000000 0.000000 0.000000
#
# Coordination Sequence:
#
# PCOD8033678 Si02
#       8
#     2   2   2   2   2   2   2   2
#     4  11  24  40  68 102 142 180 234 304 375 449
#     4  11  26  47  71 100 148 194 248 305 371 451
#     4  11  25  45  70 103 147 192 248 307 378 454
#     4  11  25  45  70 101 145 189 247 309 378 452
#     4  11  27  48  73 105 143 194 254 305 375 453
#     4  11  25  41  69 106 138 187 240 304 382 448
#     4  12  30  51  80 112 150 200 256 320 382 451
#     4  12  24  42  72 105 144 188 242 304 378 451
#
# _framework density 23.069027999999999
#
# number of rings (size 3 to 8) (size 9 to 14) (size 15 to 20)
#    0.000    0.750    1.250    4.500   14.000    3.000 
#    0.000    0.000    0.000    0.000    0.000    0.000 
#    0.000    0.000    0.000    0.000    0.000    0.000 
#
# Total GULP energy -198289.365784 kJ/mol
# GULP energy per Si atom -12393.085361 kJ/mol
# Density = 2.301652 g / cm^3
# Si number density = 23.069028 Si / 1000 Ang^3
#
#
#
# Elastic Constant Matrix: (Units=GPa)
#
#
# Indices 1 2 3 4 5 6 
#
# 1 73.2143 30.1847 30.1123 2.6894 -18.4366 7.8646
# 2 30.1847 169.3885 65.4514 6.8807 -10.8467 20.5598
# 3 30.1123 65.4514 129.3638 8.9480 -17.4665 8.7312
# 4 2.6894 6.8807 8.9480 49.1547 3.3953 -7.6571
# 5 -18.4366 -10.8467 -17.4665 3.3953 47.3490 -2.8117
# 6 7.8646 20.5598 8.7312 -7.6571 -2.8117 44.1127
#
#
#
# Elastic Compliance Matrix: (Units=1/GPa)
#
#
# Indices 1 2 3 4 5 6 
#
# 1 0.016763 -0.001550 -0.002225 -0.000919 0.005319 -0.001646
# 2 -0.001550 0.007860 -0.003387 -0.000835 -0.000163 -0.002872
# 3 -0.002225 -0.003387 0.010385 -0.001482 0.002284 -0.000192
# 4 -0.000919 -0.000835 -0.001482 0.021639 -0.002383 0.004451
# 5 0.005319 -0.000163 0.002284 -0.002383 0.024155 -0.000199
# 6 -0.001646 -0.002872 -0.000192 0.004451 -0.000199 0.025099
#
#
# Mechanical properties :
#
#
# Convention : Reuss Voigt Hill
#
# Bulk Modulus (GPa) = 48.34149 69.27370 58.80760
# Shear Modulus (GPa) = 39.33301 44.53784 41.93542
#
# Velocity S-wave (km/s) = 4.13366 4.39866 4.26822
# Velocity P-wave (km/s) = 6.61691 7.47608 7.05958
#
# Compressibility (1/GPa) = 0.02068616
#
# Stress axis : x y z
#
# Youngs Moduli (GPa) = 59.65663 127.21922 96.28932
#
# Poissons Ratio (x) = 0.19713 0.21424
# Poissons Ratio (y) = 0.09244 0.32609
# Poissons Ratio (z) = 0.13273 0.43084
#
# Static dielectric constant tensor:
#      x y z
#    x 4.238370 0.146510 0.021340 
#    y 0.146510 4.700510 -0.079290 
#    z 0.021340 -0.079290 4.299330 
# 
# 
# High freq. dielectric constant tensor:
#      x y z
#    x 1.914260 0.008310 0.001250 
#    y 0.008310 1.926830 -0.000420 
#    z 0.001250 -0.000420 1.922090 
# 
# From -- ./inp_files/371054.got.cif
#   From: 2010.06.25/outbox.cif.g09.slc.cpg/sg2_186_cif.got.tgz:371054.got - 2010.06.27 13:26:56.
