data_PCOD8033260
_publ_section_title
;
Structure prediction by ZEFSAII (Michael W. Deem and Ramdas Pophale) SiO2 
 PCOD8033260
Probable space group: P -1
;
_chemical_formula_sum "Si O2"
_cell_formula_units_Z 16
_cell_length_a 10.729456
_cell_length_b 14.071254
_cell_length_c 8.941666
_cell_angle_alpha 44.565026
_cell_angle_beta 81.350232
_cell_angle_gamma 55.098560
_cell_volume 694.986385
_symmetry_space_group_name_H-M "P -1"
_symmetry_group_IT_number 2
_symmetry_cell_setting 'triclinic'
loop_
_space_group_symop_operation_xyz
x,y,z
-x,-y,-z
loop_
_atom_site_type_symbol
_atom_site_label
_atom_site_fract_x
_atom_site_fract_y
_atom_site_fract_z
Si Si1 0.525965 0.969051 0.352623
Si Si2 0.177598 0.338875 0.972345
Si Si3 0.205594 0.017772 0.836482
Si Si4 0.360870 0.401588 0.366401
Si Si5 0.859349 0.399541 0.544867
Si Si6 0.134202 0.579798 0.948501
Si Si7 0.682749 0.262088 0.624694
Si Si8 0.029863 0.912138 0.436006
O O1 0.500000 0.000000 0.500000
O O2 0.682194 0.946482 0.295583
O O3 0.556327 0.798104 0.476421
O O4 0.353609 0.144509 0.108128
O O5 0.120846 0.489004 0.693628
O O6 0.199494 0.393819 0.069786
O O7 0.034685 0.326357 0.028587
O O8 0.139952 0.970610 0.764542
O O9 0.043642 0.195682 0.755027
O O10 0.318791 0.842560 0.120488
O O11 0.205267 0.492851 0.407513
O O12 0.502916 0.394075 0.424336
O O13 0.280382 0.530388 0.089031
O O14 0.721531 0.387053 0.529938
O O15 0.097476 0.711089 0.675079
O O16 0.826918 0.107981 0.655717
O O17 0.000000 0.000000 0.500000
#
# Coordination Sequence:
#
# PCOD8033260 Si02
#       8
#     2   2   2   2   2   2   2   2
#     4  12  26  44  70 106 143 178 232 297 351 405
#     4  11  23  45  71  96 144 182 226 290 346 410
#     4  11  25  47  75  98 143 189 226 289 352 408
#     4  12  28  43  71 106 137 185 233 287 349 415
#     4  11  24  48  70 101 140 184 236 280 345 423
#     4  11  24  44  71 103 136 185 230 281 349 411
#     4  11  26  47  68 104 145 183 232 286 351 415
#     4  11  25  43  73 108 139 184 236 284 348 418
#
# _framework density 23.022034999999999
#
# number of rings (size 3 to 8) (size 9 to 14) (size 15 to 20)
#    0.000    0.750    3.750    4.125    7.000    4.500 
#    0.000    0.000    0.000    0.000    0.000    0.000 
#    0.000    0.000    0.000    0.000    0.000    0.000 
#
# Total GULP energy -198426.026602 kJ/mol
# GULP energy per Si atom -12401.626663 kJ/mol
# Density = 2.296964 g / cm^3
# Si number density = 23.022035 Si / 1000 Ang^3
#
#
#
# Elastic Constant Matrix: (Units=GPa)
#
#
# Indices 1 2 3 4 5 6 
#
# 1 96.6706 12.9717 29.3583 5.9371 13.0247 -18.3535
# 2 12.9717 115.7214 -1.2634 -3.9192 0.3422 5.6820
# 3 29.3583 -1.2634 78.0957 15.1669 7.3313 3.8349
# 4 5.9371 -3.9192 15.1669 32.9988 -2.4197 0.1110
# 5 13.0247 0.3422 7.3313 -2.4197 42.5320 4.0241
# 6 -18.3535 5.6820 3.8349 0.1110 4.0241 22.8314
#
#
#
# Elastic Compliance Matrix: (Units=1/GPa)
#
#
# Indices 1 2 3 4 5 6 
#
# 1 0.016442 -0.002706 -0.006333 -0.000824 -0.005475 0.015924
# 2 -0.002706 0.009232 0.001071 0.001188 0.001096 -0.004851
# 3 -0.006333 0.001071 0.016922 -0.006528 -0.000595 -0.008063
# 4 -0.000824 0.001188 -0.006528 0.033842 0.003352 -0.000617
# 5 -0.005475 0.001096 -0.000595 0.003352 0.026346 -0.009234
# 6 0.015924 -0.004851 -0.008063 -0.000617 -0.009234 0.060792
#
#
# Mechanical properties :
#
#
# Convention : Reuss Voigt Hill
#
# Bulk Modulus (GPa) = 37.50732 41.40234 39.45483
# Shear Modulus (GPa) = 26.53955 36.30051 31.42003
#
# Velocity S-wave (km/s) = 3.39896 3.97517 3.69830
# Velocity P-wave (km/s) = 5.63304 6.25237 5.95077
#
# Compressibility (1/GPa) = 0.02666146
#
# Stress axis : x y z
#
# Youngs Moduli (GPa) = 60.81919 108.32315 59.09372
#
# Poissons Ratio (x) = 0.29310 0.37422
# Poissons Ratio (y) = 0.16456 -0.06330
# Poissons Ratio (z) = 0.38515 -0.11603
#
# Static dielectric constant tensor:
#      x y z
#    x 4.093570 -0.050560 0.055160 
#    y -0.050560 4.397760 -0.047730 
#    z 0.055160 -0.047730 4.214810 
# 
# 
# High freq. dielectric constant tensor:
#      x y z
#    x 1.904870 -0.004270 0.006170 
#    y -0.004270 1.921400 0.005910 
#    z 0.006170 0.005910 1.911250 
# 
# From -- ./inp_files/271502.got.cif
#   From: 2010.06.25/outbox.cif.g09.slc.cpg/sg2_136_cif.got.tgz:271502.got - 2010.06.27 13:26:56.
