data_PCOD8033104
_publ_section_title
;
Structure prediction by ZEFSAII (Michael W. Deem and Ramdas Pophale) SiO2 
 PCOD8033104
Probable space group: P -1
;
_chemical_formula_sum "Si O2"
_cell_formula_units_Z 14
_cell_length_a 6.415620
_cell_length_b 11.362599
_cell_length_c 11.656157
_cell_angle_alpha 48.748690
_cell_angle_beta 112.318432
_cell_angle_gamma 104.439194
_cell_volume 590.977138
_symmetry_space_group_name_H-M "P -1"
_symmetry_group_IT_number 2
_symmetry_cell_setting 'triclinic'
loop_
_space_group_symop_operation_xyz
x,y,z
-x,-y,-z
loop_
_atom_site_type_symbol
_atom_site_label
_atom_site_fract_x
_atom_site_fract_y
_atom_site_fract_z
Si Si1 0.939171 0.735545 0.292439
Si Si2 0.966661 0.749344 0.036611
Si Si3 0.204348 0.849122 0.609971
Si Si4 0.392156 0.347560 0.125578
Si Si5 0.917812 0.004659 0.281593
Si Si6 0.376168 0.549015 0.557280
Si Si7 0.165400 0.409870 0.255457
O O1 0.838339 0.850635 0.294696
O O2 0.189081 0.683090 0.416296
O O3 0.759054 0.598204 0.324551
O O4 0.970100 0.818896 0.121286
O O5 0.707366 0.745408 0.943885
O O6 0.093632 0.859191 0.902300
O O7 0.074816 0.576036 0.173213
O O8 0.431629 0.754148 0.699530
O O9 0.162111 0.968118 0.417656
O O10 0.991916 0.729102 0.641717
O O11 0.235402 0.944790 0.674566
O O12 0.177684 0.395246 0.129257
O O13 0.500000 0.500000 0.000000
O O14 0.500000 0.500000 0.500000
O O15 0.572621 0.610303 0.641477
#
# Coordination Sequence:
#
# PCOD8033104 Si02
#       7
#     2   2   2   2   2   2   2
#     4  11  25  46  69 103 142 178 227 282 342 415
#     4  12  24  44  69 104 143 177 228 280 348 409
#     4  11  25  47  71 100 139 179 237 281 337 408
#     4  12  23  41  71 103 133 180 228 288 339 393
#     4  11  25  47  68  98 146 182 220 287 343 411
#     4  11  23  44  74 102 130 180 237 281 334 399
#     4  12  23  44  74 102 132 178 236 288 330 403
#
# _framework density 23.689582000000001
#
# number of rings (size 3 to 8) (size 9 to 14) (size 15 to 20)
#    0.000    0.571    4.286    4.286    2.000    0.571 
#    7.714    1.429    0.000    0.000    0.000    0.000 
#    0.000    0.000    0.000    0.000    0.000    0.000 
#
# Total GULP energy -173498.556268 kJ/mol
# GULP energy per Si atom -12392.754019 kJ/mol
# Density = 2.363566 g / cm^3
# Si number density = 23.689582 Si / 1000 Ang^3
#
#
#
# Elastic Constant Matrix: (Units=GPa)
#
#
# Indices 1 2 3 4 5 6 
#
# 1 79.1702 24.7969 19.5295 2.5458 13.9564 0.9963
# 2 24.7969 111.7778 22.3790 11.9525 -1.0609 -13.5780
# 3 19.5295 22.3790 100.9102 9.6246 -3.8861 -6.6659
# 4 2.5458 11.9525 9.6246 33.6331 -6.4742 2.0061
# 5 13.9564 -1.0609 -3.8861 -6.4742 38.7223 13.6659
# 6 0.9963 -13.5780 -6.6659 2.0061 13.6659 39.9717
#
#
#
# Elastic Compliance Matrix: (Units=1/GPa)
#
#
# Indices 1 2 3 4 5 6 
#
# 1 0.015204 -0.002829 -0.002466 -0.000621 -0.006029 0.000341
# 2 -0.002829 0.010682 -0.001247 -0.003617 -0.000812 0.003950
# 3 -0.002466 -0.001247 0.011013 -0.002375 0.001137 0.001205
# 4 -0.000621 -0.003617 -0.002375 0.033553 0.007572 -0.005882
# 5 -0.006029 -0.000812 0.001137 0.007572 0.033511 -0.011773
# 6 0.000341 0.003950 0.001205 -0.005882 -0.011773 0.030872
#
#
# Mechanical properties :
#
#
# Convention : Reuss Voigt Hill
#
# Bulk Modulus (GPa) = 41.98596 47.25210 44.61903
# Shear Modulus (GPa) = 32.08071 37.47559 34.77815
#
# Velocity S-wave (km/s) = 3.68395 3.98168 3.83571
# Velocity P-wave (km/s) = 5.98809 6.41311 6.20424
#
# Compressibility (1/GPa) = 0.02381749
#
# Stress axis : x y z
#
# Youngs Moduli (GPa) = 65.77380 93.61175 90.79849
#
# Poissons Ratio (x) = 0.26478 0.22387
# Poissons Ratio (y) = 0.18604 0.11322
# Poissons Ratio (z) = 0.16217 0.11673
#
# Static dielectric constant tensor:
#      x y z
#    x 4.197330 -0.076850 0.181310 
#    y -0.076850 4.523740 0.206200 
#    z 0.181310 0.206200 4.596600 
# 
# 
# High freq. dielectric constant tensor:
#      x y z
#    x 1.920690 -0.013650 -0.001470 
#    y -0.013650 1.946420 0.011500 
#    z -0.001470 0.011500 1.950150 
# 
# From -- ./inp_files/68378.got.cif
#   From: 2010.06.25/outbox.cif.g09.slc.cpg/sg2_35_cif.got.tgz:68378.got - 2010.06.27 13:26:56.
