data_PCOD8033278
_publ_section_title
;
Structure prediction by ZEFSAII (Michael W. Deem and Ramdas Pophale) SiO2 
 PCOD8033278
Probable space group: P -1
;
_chemical_formula_sum "Si O2"
_cell_formula_units_Z 14
_cell_length_a 14.384793
_cell_length_b 11.279221
_cell_length_c 9.495569
_cell_angle_alpha 50.069491
_cell_angle_beta 62.771627
_cell_angle_gamma 30.055230
_cell_volume 572.094033
_symmetry_space_group_name_H-M "P -1"
_symmetry_group_IT_number 2
_symmetry_cell_setting 'triclinic'
loop_
_space_group_symop_operation_xyz
x,y,z
-x,-y,-z
loop_
_atom_site_type_symbol
_atom_site_label
_atom_site_fract_x
_atom_site_fract_y
_atom_site_fract_z
Si Si1 0.258723 0.130679 0.953250
Si Si2 0.220870 0.022387 0.530439
Si Si3 0.763815 0.435073 0.907245
Si Si4 0.817952 0.654065 0.877091
Si Si5 0.426204 0.599900 0.316515
Si Si6 0.607645 0.004171 0.337570
Si Si7 0.060362 0.860801 0.278085
O O1 0.276160 0.238660 0.982750
O O2 0.397207 0.811276 0.123335
O O3 0.042543 0.334444 0.959926
O O4 0.298295 0.163310 0.749958
O O5 0.226342 0.115138 0.314055
O O6 0.020118 0.177865 0.540446
O O7 0.405987 0.683138 0.676648
O O8 0.223062 0.133048 0.580517
O O9 0.719313 0.658740 0.835281
O O10 0.545509 0.665264 0.838730
O O11 0.888707 0.282460 0.795692
O O12 0.870560 0.201159 0.127510
O O13 0.500000 0.500000 0.500000
O O14 0.230685 0.742363 0.324748
O O15 0.500000 0.000000 0.500000
#
# Coordination Sequence:
#
# PCOD8033278 Si02
#       7
#     2   2   2   2   2   2   2
#     4  11  26  46  73 105 154 198 247 311 381 445
#     4  12  26  45  77 111 150 197 254 311 377 444
#     4  11  23  45  72 110 150 193 252 304 378 443
#     4  11  24  47  73 108 148 199 247 310 375 448
#     4  12  25  49  75 110 153 200 252 312 376 459
#     4  12  26  44  74 112 150 195 255 313 371 449
#     4  11  26  44  76 113 152 197 249 314 379 455
#
# _framework density 24.471501
#
# number of rings (size 3 to 8) (size 9 to 14) (size 15 to 20)
#    0.000    0.571    5.714    1.714    4.000    3.429 
#    0.000    1.429    0.000    0.000    0.000    0.000 
#    0.000    0.000    0.000    0.000    0.000    0.000 
#
# Total GULP energy -173495.377655 kJ/mol
# GULP energy per Si atom -12392.526975 kJ/mol
# Density = 2.441580 g / cm^3
# Si number density = 24.471501 Si / 1000 Ang^3
#
#
#
# Elastic Constant Matrix: (Units=GPa)
#
#
# Indices 1 2 3 4 5 6 
#
# 1 119.3919 21.5659 39.5961 16.8636 10.9496 2.5822
# 2 21.5659 88.6291 38.4280 8.1013 3.6306 13.6255
# 3 39.5961 38.4280 99.8539 20.7536 16.6231 11.7472
# 4 16.8636 8.1013 20.7536 49.5495 -1.7593 4.9142
# 5 10.9496 3.6306 16.6231 -1.7593 32.2440 0.0715
# 6 2.5822 13.6255 11.7472 4.9142 0.0715 39.0513
#
#
#
# Elastic Compliance Matrix: (Units=1/GPa)
#
#
# Indices 1 2 3 4 5 6 
#
# 1 0.009984 -0.001028 -0.002896 -0.002169 -0.001902 0.000846
# 2 -0.001028 0.014103 -0.004945 0.000503 0.001345 -0.003431
# 3 -0.002896 -0.004945 0.015394 -0.004680 -0.006647 -0.002113
# 4 -0.002169 0.000503 -0.004680 0.023105 0.004357 -0.001540
# 5 -0.001902 0.001345 -0.006647 0.004357 0.035170 0.001043
# 6 0.000846 -0.003431 -0.002113 -0.001540 0.001043 0.027576
#
#
# Mechanical properties :
#
#
# Convention : Reuss Voigt Hill
#
# Bulk Modulus (GPa) = 45.98887 56.33942 51.16414
# Shear Modulus (GPa) = 33.26291 38.05464 35.65877
#
# Velocity S-wave (km/s) = 3.69080 3.94770 3.82141
# Velocity P-wave (km/s) = 6.08246 6.62205 6.35798
#
# Compressibility (1/GPa) = 0.02174439
#
# Stress axis : x y z
#
# Youngs Moduli (GPa) = 100.15780 70.90444 64.96186
#
# Poissons Ratio (x) = 0.07287 0.18812
# Poissons Ratio (y) = 0.10294 0.32123
# Poissons Ratio (z) = 0.29003 0.35062
#
# Static dielectric constant tensor:
#      x y z
#    x 4.307160 0.104280 0.204530 
#    y 0.104280 4.543390 -0.217010 
#    z 0.204530 -0.217010 4.387470 
# 
# 
# High freq. dielectric constant tensor:
#      x y z
#    x 1.963980 0.003520 0.019280 
#    y 0.003520 1.984810 -0.011050 
#    z 0.019280 -0.011050 1.972410 
# 
# From -- ./inp_files/306469.got.cif
#   From: 2010.06.25/outbox.cif.g09.slc.cpg/sg2_154_cif.got.tgz:306469.got - 2010.06.27 13:26:56.
