data_PCOD8033372
_publ_section_title
;
Structure prediction by ZEFSAII (Michael W. Deem and Ramdas Pophale) SiO2 
 PCOD8033372
Probable space group: P -1
;
_chemical_formula_sum "Si O2"
_cell_formula_units_Z 12
_cell_length_a 17.950248
_cell_length_b 10.417085
_cell_length_c 14.390564
_cell_angle_alpha 34.106893
_cell_angle_beta 20.600472
_cell_angle_gamma 37.449487
_cell_volume 528.472298
_symmetry_space_group_name_H-M "P -1"
_symmetry_group_IT_number 2
_symmetry_cell_setting 'triclinic'
loop_
_space_group_symop_operation_xyz
x,y,z
-x,-y,-z
loop_
_atom_site_type_symbol
_atom_site_label
_atom_site_fract_x
_atom_site_fract_y
_atom_site_fract_z
Si Si1 0.357035 0.008029 0.570405
Si Si2 0.015968 0.963091 0.738255
Si Si3 0.085150 0.221304 0.218477
Si Si4 0.385013 0.741783 0.019349
Si Si5 0.021383 0.716299 0.071875
Si Si6 0.491526 0.007608 0.115086
O O1 0.498773 0.056818 0.287261
O O2 0.500000 0.000000 0.500000
O O3 0.247345 0.771375 0.820156
O O4 0.166419 0.213412 0.677913
O O5 0.963598 0.863110 0.958750
O O6 0.258875 0.013450 0.424719
O O7 0.995120 0.769927 0.799198
O O8 0.864248 0.200817 0.752157
O O9 0.010475 0.448468 0.226528
O O10 0.342648 0.207632 0.920058
O O11 0.000000 0.000000 0.500000
O O12 0.413347 0.770232 0.080868
O O13 0.500000 0.500000 0.000000
O O14 0.500000 0.000000 0.000000
#
# Coordination Sequence:
#
# PCOD8033372 Si02
#       6
#     2   2   2   2   2   2
#     4  11  24  46  68 101 138 182 227 279 347 409
#     4  11  23  46  66  99 137 179 229 277 346 411
#     4  11  25  43  69 102 133 178 232 286 341 406
#     4  11  26  43  71 102 137 180 233 287 340 411
#     4  11  25  44  69  99 138 181 228 279 344 415
#     4  11  24  44  67  99 139 178 232 282 349 402
#
# _framework density 22.706961
#
# number of rings (size 3 to 8) (size 9 to 14) (size 15 to 20)
#    0.000    1.000    5.000    0.500    4.667    4.000 
#    0.000    0.000    0.000    0.000    0.000    0.000 
#    0.000    0.000    0.000    0.000    0.000    0.000 
#
# Total GULP energy -148697.993711 kJ/mol
# GULP energy per Si atom -12391.499476 kJ/mol
# Density = 2.265528 g / cm^3
# Si number density = 22.706961 Si / 1000 Ang^3
#
#
#
# Elastic Constant Matrix: (Units=GPa)
#
#
# Indices 1 2 3 4 5 6 
#
# 1 125.0309 21.8188 16.1536 -11.7373 -21.2538 16.6851
# 2 21.8188 139.2711 28.0206 -2.1331 -13.3319 9.6212
# 3 16.1536 28.0206 94.6271 18.7824 -19.0838 -14.8185
# 4 -11.7373 -2.1331 18.7824 30.6043 4.0239 -4.3141
# 5 -21.2538 -13.3319 -19.0838 4.0239 40.6844 6.0812
# 6 16.6851 9.6212 -14.8185 -4.3141 6.0812 31.6460
#
#
#
# Elastic Compliance Matrix: (Units=1/GPa)
#
#
# Indices 1 2 3 4 5 6 
#
# 1 0.010531 -0.000077 -0.002721 0.004050 0.004873 -0.007188
# 2 -0.000077 0.008267 -0.003047 0.001633 0.001676 -0.003999
# 3 -0.002721 -0.003047 0.016322 -0.010895 0.005189 0.007522
# 4 0.004050 0.001633 -0.010895 0.041767 -0.006472 -0.000796
# 5 0.004873 0.001676 0.005189 -0.006472 0.031894 -0.007660
# 6 -0.007188 -0.003999 0.007522 -0.000796 -0.007660 0.041491
#
#
# Mechanical properties :
#
#
# Convention : Reuss Voigt Hill
#
# Bulk Modulus (GPa) = 42.68416 54.54613 48.61515
# Shear Modulus (GPa) = 29.45131 40.11600 34.78365
#
# Velocity S-wave (km/s) = 3.60532 4.20775 3.91813
# Velocity P-wave (km/s) = 6.01413 6.90513 6.47497
#
# Compressibility (1/GPa) = 0.02342789
#
# Stress axis : x y z
#
# Youngs Moduli (GPa) = 94.95931 120.96153 61.26854
#
# Poissons Ratio (x) = 0.00934 0.16673
# Poissons Ratio (y) = 0.00733 0.18670
# Poissons Ratio (z) = 0.25842 0.36860
#
# Static dielectric constant tensor:
#      x y z
#    x 4.388900 0.266840 -0.189800 
#    y 0.266840 4.035320 0.135010 
#    z -0.189800 0.135010 4.808840 
# 
# 
# High freq. dielectric constant tensor:
#      x y z
#    x 1.910890 0.026340 -0.012800 
#    y 0.026340 1.877770 0.032700 
#    z -0.012800 0.032700 1.903890 
# 
# From -- ./inp_files/28691.got.cif
#   From: 2010.06.25/outbox.cif.g09.slc.cpg/sg2_15_cif.got.tgz:28691.got - 2010.06.27 13:26:56.
