data_PCOD8033844
_publ_section_title
;
Structure prediction by ZEFSAII (Michael W. Deem and Ramdas Pophale) SiO2 
 PCOD8033844
Probable space group: P -1
;
_chemical_formula_sum "Si O2"
_cell_formula_units_Z 14
_cell_length_a 9.361094
_cell_length_b 21.632131
_cell_length_c 20.503509
_cell_angle_alpha 19.701345
_cell_angle_beta 151.450104
_cell_angle_gamma 150.552706
_cell_volume 643.726053
_symmetry_space_group_name_H-M "P -1"
_symmetry_group_IT_number 2
_symmetry_cell_setting 'triclinic'
loop_
_space_group_symop_operation_xyz
x,y,z
-x,-y,-z
loop_
_atom_site_type_symbol
_atom_site_label
_atom_site_fract_x
_atom_site_fract_y
_atom_site_fract_z
Si Si1 0.895141 0.032801 0.591085
Si Si2 0.853957 0.492787 0.640231
Si Si3 0.604390 0.315298 0.246577
Si Si4 0.824932 0.910822 0.952637
Si Si5 0.137683 0.926912 0.928229
Si Si6 0.802047 0.485466 0.370882
Si Si7 0.707284 0.900540 0.437601
O O1 0.688574 0.186618 0.349183
O O2 0.193167 0.096182 0.601403
O O3 0.680464 0.824852 0.688489
O O4 0.996982 0.016093 0.723231
O O5 0.500000 0.500000 0.500000
O O6 0.078452 0.643607 0.626888
O O7 0.957793 0.547866 0.553604
O O8 0.934878 0.298732 0.884677
O O9 0.500000 0.500000 0.000000
O O10 0.023190 0.990521 0.888277
O O11 0.508102 0.964610 0.770420
O O12 0.718711 0.683137 0.133399
O O13 0.000000 0.000000 0.000000
O O14 0.500000 0.000000 0.000000
O O15 0.479616 0.318249 0.404647
O O16 0.000000 0.500000 0.500000
O O17 0.000000 0.000000 0.500000
#
# Coordination Sequence:
#
# PCOD8033844 Si02
#       7
#     2   2   2   2   2   2   2
#     4  11  26  43  72 101 138 180 234 285 341 425
#     4  11  25  42  70 102 134 179 228 289 345 404
#     4  11  24  45  69 101 138 177 227 285 350 404
#     4  11  25  46  71 100 142 186 229 292 352 414
#     4  11  24  42  69 105 136 175 240 285 340 416
#     4  11  26  45  70 102 139 180 240 282 342 429
#     4  12  28  46  71 102 145 189 228 287 359 414
#
# _framework density 21.748380999999998
#
# number of rings (size 3 to 8) (size 9 to 14) (size 15 to 20)
#    0.000    0.857    2.857    2.571   12.000    2.857 
#    0.000    0.000    0.000    0.000    0.000    0.000 
#    0.000    0.000    0.000    0.000    0.000    0.000 
#
# Total GULP energy -173511.121133 kJ/mol
# GULP energy per Si atom -12393.651510 kJ/mol
# Density = 2.169888 g / cm^3
# Si number density = 21.748381 Si / 1000 Ang^3
#
#
#
# Elastic Constant Matrix: (Units=GPa)
#
#
# Indices 1 2 3 4 5 6 
#
# 1 180.9576 64.6285 68.3500 1.6343 5.1575 17.9444
# 2 64.6285 173.2727 53.6292 2.1713 -1.4716 9.5344
# 3 68.3500 53.6292 147.1118 -6.5605 18.6122 9.6875
# 4 1.6343 2.1713 -6.5605 43.2099 2.1933 -1.7491
# 5 5.1575 -1.4716 18.6122 2.1933 33.1877 5.9772
# 6 17.9444 9.5344 9.6875 -1.7491 5.9772 39.1450
#
#
#
# Elastic Compliance Matrix: (Units=1/GPa)
#
#
# Indices 1 2 3 4 5 6 
#
# 1 0.007434 -0.001758 -0.002790 -0.000757 0.000822 -0.002449
# 2 -0.001758 0.007112 -0.001998 -0.000721 0.001892 -0.000753
# 3 -0.002790 -0.001998 0.009546 0.001930 -0.005187 0.000281
# 4 -0.000757 -0.000721 0.001930 0.023707 -0.002840 0.001538
# 5 0.000822 0.001892 -0.005187 -0.002840 0.034064 -0.004882
# 6 -0.002449 -0.000753 0.000281 0.001538 -0.004882 0.027597
#
#
# Mechanical properties :
#
#
# Convention : Reuss Voigt Hill
#
# Bulk Modulus (GPa) = 90.90391 97.17308 94.03849
# Shear Modulus (GPa) = 39.61455 44.09081 41.85268
#
# Velocity S-wave (km/s) = 4.27253 4.50746 4.39156
# Velocity P-wave (km/s) = 8.13806 8.47745 8.30949
#
# Compressibility (1/GPa) = 0.01100063
#
# Stress axis : x y z
#
# Youngs Moduli (GPa) = 134.51832 140.61012 104.76054
#
# Poissons Ratio (x) = 0.24722 0.29223
# Poissons Ratio (y) = 0.23651 0.20928
# Poissons Ratio (z) = 0.37524 0.28089
#
# Static dielectric constant tensor:
#      x y z
#    x 3.966970 0.250710 0.133200 
#    y 0.250710 4.040550 -0.360540 
#    z 0.133200 -0.360540 3.741580 
# 
# 
# High freq. dielectric constant tensor:
#      x y z
#    x 1.856440 0.002640 0.008480 
#    y 0.002640 1.873450 -0.009080 
#    z 0.008480 -0.009080 1.868560 
# 
# From -- ./inp_files/306561.got.cif
#   From: 2010.06.25/outbox.cif.g09.slc.cpg/sg2_154_cif.got.tgz:306561.got - 2010.06.27 13:26:56.
