data_PCOD8033198
_publ_section_title
;
Structure prediction by ZEFSAII (Michael W. Deem and Ramdas Pophale) SiO2 
 PCOD8033198
Probable space group: P -1
;
_chemical_formula_sum "Si O2"
_cell_formula_units_Z 16
_cell_length_a 14.147545
_cell_length_b 14.274296
_cell_length_c 9.535504
_cell_angle_alpha 93.975593
_cell_angle_beta 107.324735
_cell_angle_gamma 149.261319
_cell_volume 700.347796
_symmetry_space_group_name_H-M "P -1"
_symmetry_group_IT_number 2
_symmetry_cell_setting 'triclinic'
loop_
_space_group_symop_operation_xyz
x,y,z
-x,-y,-z
loop_
_atom_site_type_symbol
_atom_site_label
_atom_site_fract_x
_atom_site_fract_y
_atom_site_fract_z
Si Si1 0.454748 0.546642 0.381288
Si Si2 0.164873 0.461455 0.870559
Si Si3 0.502321 0.933452 0.119044
Si Si4 0.099854 0.001351 0.951631
Si Si5 0.372988 0.946283 0.311849
Si Si6 0.962418 0.228732 0.457667
Si Si7 0.496916 0.731014 0.632840
Si Si8 0.366483 0.238353 0.800400
O O1 0.500000 0.500000 0.500000
O O2 0.578685 0.750612 0.525755
O O3 0.601920 0.660065 0.306256
O O4 0.142761 0.281328 0.202301
O O5 0.921353 0.276522 0.836353
O O6 0.044853 0.327255 0.658349
O O7 0.359748 0.718082 0.973696
O O8 0.331930 0.522075 0.012542
O O9 0.358895 0.859585 0.173125
O O10 0.795100 0.167615 0.316593
O O11 0.500000 0.000000 0.000000
O O12 0.220661 0.144499 0.869524
O O13 0.318471 0.133480 0.141660
O O14 0.000000 0.000000 0.000000
O O15 0.500000 0.000000 0.500000
O O16 0.535250 0.184709 0.385410
O O17 0.217933 0.439721 0.501782
O O18 0.791840 0.986310 0.356725
#
# Coordination Sequence:
#
# PCOD8033198 Si02
#       8
#     2   2   2   2   2   2   2   2
#     4  12  27  50  75 111 147 193 247 309 376 449
#     4  11  23  45  69 102 145 189 247 299 366 431
#     4  11  26  41  67 104 142 194 248 300 359 434
#     4  12  26  51  75 114 146 191 251 308 382 450
#     4  12  26  44  70 106 149 197 246 301 371 440
#     4  11  23  45  73 105 145 196 247 302 375 431
#     4  12  26  47  74 104 153 192 250 315 365 446
#     4  11  26  46  79 108 148 194 244 305 375 452
#
# _framework density 22.845790999999998
#
# number of rings (size 3 to 8) (size 9 to 14) (size 15 to 20)
#    0.000    0.500    5.000    2.625    5.250    3.000 
#    0.000    0.000    0.000    0.000    0.000    0.000 
#    0.000    0.000    0.000    0.000    0.000    0.000 
#
# Total GULP energy -198282.118875 kJ/mol
# GULP energy per Si atom -12392.632430 kJ/mol
# Density = 2.279379 g / cm^3
# Si number density = 22.845791 Si / 1000 Ang^3
#
#
#
# Elastic Constant Matrix: (Units=GPa)
#
#
# Indices 1 2 3 4 5 6 
#
# 1 94.1117 22.6702 58.4241 -15.0783 11.7871 4.8077
# 2 22.6702 114.4138 67.8814 -22.3373 28.6769 13.7652
# 3 58.4241 67.8814 149.2233 -6.7963 -19.6593 1.4078
# 4 -15.0783 -22.3373 -6.7963 46.2724 1.9914 1.3157
# 5 11.7871 28.6769 -19.6593 1.9914 -3.1269 -1.3165
# 6 4.8077 13.7652 1.4078 1.3157 -1.3165 42.9639
#
#
#
# Elastic Compliance Matrix: (Units=1/GPa)
#
#
# Indices 1 2 3 4 5 6 
#
# 1 0.011046 -0.004118 -0.001006 0.000993 0.010656 0.000412
# 2 -0.004118 0.004592 0.001707 0.000437 0.016382 -0.000578
# 3 -0.001006 0.001707 0.004478 0.001816 -0.014678 -0.001086
# 4 0.000993 0.000437 0.001816 0.021975 0.010605 -0.000659
# 5 0.010656 0.016382 -0.014678 0.010605 -0.027359 -0.007123
# 6 0.000412 -0.000578 -0.001086 -0.000659 -0.007123 0.023252
#
#
# Mechanical properties :
#
#
# Convention : Reuss Voigt Hill
#
# Bulk Modulus (GPa) = 75.29372 72.85559 74.07465
# Shear Modulus (GPa) = 101.53288 31.14009 66.33649
#
# Velocity S-wave (km/s) = 6.67377 3.69596 5.39441
# Velocity P-wave (km/s) = 9.61325 7.08328 8.44356
#
# Compressibility (1/GPa) = 0.01328132
#
# Stress axis : x y z
#
# Youngs Moduli (GPa) = 90.53218 217.75875 223.31329
#
# Poissons Ratio (x) = 0.89676 0.22469
# Poissons Ratio (y) = 0.37282 -0.38118
# Poissons Ratio (z) = 0.09109 -0.37170
#
# Static dielectric constant tensor:
#      x y z
#    x 4.503700 0.378360 0.179770 
#    y 0.378360 4.231020 0.133290 
#    z 0.179770 0.133290 4.568960 
# 
# 
# High freq. dielectric constant tensor:
#      x y z
#    x 1.900880 0.009040 -0.006600 
#    y 0.009040 1.902040 0.002640 
#    z -0.006600 0.002640 1.928400 
# 
# From -- ./inp_files/315329.got.cif
#   From: 2010.06.25/outbox.cif.g09.slc.cpg/sg2_158_cif.got.tgz:315329.got - 2010.06.27 13:26:56.
