data_PCOD8033379
_publ_section_title
;
Structure prediction by ZEFSAII (Michael W. Deem and Ramdas Pophale) SiO2 
 PCOD8033379
Probable space group: P -1
;
_chemical_formula_sum "Si O2"
_cell_formula_units_Z 14
_cell_length_a 6.604057
_cell_length_b 8.127091
_cell_length_c 25.585215
_cell_angle_alpha 32.913197
_cell_angle_beta 108.522029
_cell_angle_gamma 121.415113
_cell_volume 615.122777
_symmetry_space_group_name_H-M "P -1"
_symmetry_group_IT_number 2
_symmetry_cell_setting 'triclinic'
loop_
_space_group_symop_operation_xyz
x,y,z
-x,-y,-z
loop_
_atom_site_type_symbol
_atom_site_label
_atom_site_fract_x
_atom_site_fract_y
_atom_site_fract_z
Si Si1 0.282113 0.034587 0.495461
Si Si2 0.255581 0.260448 0.977276
Si Si3 0.936163 0.134463 0.374103
Si Si4 0.794816 0.100123 0.178582
Si Si5 0.333698 0.702683 0.184122
Si Si6 0.324251 0.308000 0.184207
Si Si7 0.454445 0.178960 0.660204
O O1 0.088816 0.945413 0.456147
O O2 0.366541 0.418966 0.421408
O O3 0.500000 0.000000 0.500000
O O4 0.162474 0.775616 0.604295
O O5 0.222058 0.553006 0.926629
O O6 0.462976 0.413427 0.909050
O O7 0.327607 0.057204 0.079337
O O8 0.000000 0.000000 0.000000
O O9 0.111342 0.485857 0.263703
O O10 0.706023 0.867404 0.391979
O O11 0.063977 0.155570 0.173233
O O12 0.592542 0.793123 0.207735
O O13 0.737558 0.001494 0.260743
O O14 0.304319 0.494297 0.184739
O O15 0.376512 0.998644 0.286418
#
# Coordination Sequence:
#
# PCOD8033379 Si02
#       7
#     2   2   2   2   2   2   2
#     4  11  27  48  72 104 135 176 233 285 353 410
#     4  11  23  46  68 101 146 180 234 285 330 405
#     4  11  25  47  70 104 138 179 226 291 338 413
#     4  11  24  43  68 103 140 185 232 278 335 404
#     4  12  23  45  70 101 142 185 231 279 344 402
#     4  11  25  44  70 101 142 187 224 279 345 404
#     4  11  24  46  70 103 139 178 231 282 341 415
#
# _framework density 22.759682999999999
#
# number of rings (size 3 to 8) (size 9 to 14) (size 15 to 20)
#    0.000    0.857    4.286    2.143    2.000    4.571 
#    5.143    0.000    0.000    0.000    0.000    0.000 
#    0.000    0.000    0.000    0.000    0.000    0.000 
#
# Total GULP energy -173627.870461 kJ/mol
# GULP energy per Si atom -12401.990747 kJ/mol
# Density = 2.270788 g / cm^3
# Si number density = 22.759683 Si / 1000 Ang^3
#
#
#
# Elastic Constant Matrix: (Units=GPa)
#
#
# Indices 1 2 3 4 5 6 
#
# 1 160.7710 40.0674 53.7011 7.1923 -4.5224 25.8175
# 2 40.0674 95.0158 33.2072 9.6099 12.0707 31.9420
# 3 53.7011 33.2072 113.6670 8.5905 -4.0522 -3.0047
# 4 7.1923 9.6099 8.5905 36.5034 4.8050 2.8370
# 5 -4.5224 12.0707 -4.0522 4.8050 34.2580 2.0165
# 6 25.8175 31.9420 -3.0047 2.8370 2.0165 33.8104
#
#
#
# Elastic Compliance Matrix: (Units=1/GPa)
#
#
# Indices 1 2 3 4 5 6 
#
# 1 0.008862 0.000147 -0.004360 -0.000331 0.001080 -0.007330
# 2 0.000147 0.020250 -0.006622 -0.001437 -0.006560 -0.019320
# 3 -0.004360 -0.006622 0.013313 -0.001753 0.002946 0.010740
# 4 -0.000331 -0.001437 -0.001753 0.028801 -0.003741 -0.000739
# 5 0.001080 -0.006560 0.002946 -0.003741 0.032281 0.004023
# 6 -0.007330 -0.019320 0.010740 -0.000739 0.004023 0.054203
#
#
# Mechanical properties :
#
#
# Convention : Reuss Voigt Hill
#
# Bulk Modulus (GPa) = 48.17646 69.26725 58.72186
# Shear Modulus (GPa) = 26.83871 37.07959 31.95915
#
# Velocity S-wave (km/s) = 3.43770 4.04069 3.75133
# Velocity P-wave (km/s) = 6.08034 7.22979 6.67983
#
# Compressibility (1/GPa) = 0.02075702
#
# Stress axis : x y z
#
# Youngs Moduli (GPa) = 112.84125 49.38170 75.11239
#
# Poissons Ratio (x) = -0.00727 0.32749
# Poissons Ratio (y) = -0.01662 0.49737
# Poissons Ratio (z) = 0.49199 0.32699
#
# Static dielectric constant tensor:
#      x y z
#    x 4.223890 0.155690 0.038670 
#    y 0.155690 4.207840 -0.002230 
#    z 0.038670 -0.002230 4.497160 
# 
# 
# High freq. dielectric constant tensor:
#      x y z
#    x 1.904410 0.021880 -0.008580 
#    y 0.021880 1.903630 0.007020 
#    z -0.008580 0.007020 1.904010 
# 
# From -- ./inp_files/51787.got.cif
#   From: 2010.06.25/outbox.cif.g09.slc.cpg/sg2_26_cif.got.tgz:51787.got - 2010.06.27 13:26:56.
