data_PCOD8033591
_publ_section_title
;
Structure prediction by ZEFSAII (Michael W. Deem and Ramdas Pophale) SiO2 
 PCOD8033591
Probable space group: P -1
;
_chemical_formula_sum "Si O2"
_cell_formula_units_Z 16
_cell_length_a 8.874868
_cell_length_b 14.110535
_cell_length_c 8.749980
_cell_angle_alpha 101.518705
_cell_angle_beta 122.825097
_cell_angle_gamma 112.657692
_cell_volume 722.267778
_symmetry_space_group_name_H-M "P -1"
_symmetry_group_IT_number 2
_symmetry_cell_setting 'triclinic'
loop_
_space_group_symop_operation_xyz
x,y,z
-x,-y,-z
loop_
_atom_site_type_symbol
_atom_site_label
_atom_site_fract_x
_atom_site_fract_y
_atom_site_fract_z
Si Si1 0.217335 0.629298 0.121097
Si Si2 0.509526 0.551272 0.181582
Si Si3 0.690443 0.698756 0.882405
Si Si4 0.367760 0.729241 0.567355
Si Si5 0.972755 0.253496 0.457985
Si Si6 0.013453 0.913850 0.363198
Si Si7 0.901640 0.214275 0.062554
Si Si8 0.786059 0.985948 0.806104
O O1 0.398964 0.621102 0.134126
O O2 0.322944 0.696960 0.357075
O O3 0.159513 0.699656 0.002866
O O4 0.000000 0.500000 0.000000
O O5 0.358437 0.430157 0.158691
O O6 0.766804 0.644942 0.401673
O O7 0.500000 0.500000 0.000000
O O8 0.452572 0.663705 0.686286
O O9 0.855142 0.746374 0.843652
O O10 0.795934 0.798213 0.112662
O O11 0.141874 0.688958 0.514916
O O12 0.569149 0.869266 0.722729
O O13 0.866096 0.196951 0.217873
O O14 0.909153 0.148416 0.507095
O O15 0.000000 0.000000 0.500000
O O16 0.193716 0.006960 0.365770
O O17 0.740603 0.081945 0.860080
O O18 0.000000 0.000000 0.000000
#
# Coordination Sequence:
#
# PCOD8033591 Si02
#       8
#     2   2   2   2   2   2   2   2
#     4  12  27  47  74 102 142 191 245 294 356 425
#     4  12  26  46  74 102 147 188 239 299 357 420
#     4  11  24  47  75 102 145 190 235 294 358 428
#     4  12  27  47  73 108 142 189 238 295 360 427
#     4  12  28  44  69 108 147 185 240 293 357 427
#     4  11  24  44  74 106 143 184 240 296 359 426
#     4  11  25  47  72 106 144 186 242 293 359 427
#     4  11  23  47  77 103 145 188 236 295 363 428
#
# _framework density 22.152448
#
# number of rings (size 3 to 8) (size 9 to 14) (size 15 to 20)
#    0.000    0.500    5.000    3.750    5.250    4.000 
#    0.000    0.000    0.000    0.000    0.000    0.000 
#    0.000    0.000    0.000    0.000    0.000    0.000 
#
# Total GULP energy -198249.644232 kJ/mol
# GULP energy per Si atom -12390.602765 kJ/mol
# Density = 2.210203 g / cm^3
# Si number density = 22.152448 Si / 1000 Ang^3
#
#
#
# Elastic Constant Matrix: (Units=GPa)
#
#
# Indices 1 2 3 4 5 6 
#
# 1 140.8643 26.4521 47.2489 -11.8505 -9.3663 -20.6718
# 2 26.4521 97.2203 19.2625 -14.6434 1.7187 -1.2086
# 3 47.2489 19.2625 71.2485 -24.3037 -3.6998 6.3970
# 4 -11.8505 -14.6434 -24.3037 45.0082 9.9021 1.0830
# 5 -9.3663 1.7187 -3.6998 9.9021 46.1163 -7.3232
# 6 -20.6718 -1.2086 6.3970 1.0830 -7.3232 23.9365
#
#
#
# Elastic Compliance Matrix: (Units=1/GPa)
#
#
# Indices 1 2 3 4 5 6 
#
# 1 0.013760 -0.002106 -0.011437 -0.004890 0.005672 0.016790
# 2 -0.002106 0.011475 -0.000486 0.003382 -0.001914 -0.001848
# 3 -0.011437 -0.000486 0.027898 0.013731 -0.006169 -0.019866
# 4 -0.004890 0.003382 0.013731 0.031641 -0.008687 -0.011811
# 5 0.005672 -0.001914 -0.006169 -0.008687 0.026660 0.015000
# 6 0.016790 -0.001848 -0.019866 -0.011811 0.015000 0.066616
#
#
# Mechanical properties :
#
#
# Convention : Reuss Voigt Hill
#
# Bulk Modulus (GPa) = 39.87692 55.02890 47.45291
# Shear Modulus (GPa) = 23.31367 37.43684 30.37526
#
# Velocity S-wave (km/s) = 3.24762 4.11538 3.70698
# Velocity P-wave (km/s) = 5.66595 6.89033 6.30792
#
# Compressibility (1/GPa) = 0.02507716
#
# Stress axis : x y z
#
# Youngs Moduli (GPa) = 72.67255 87.14244 35.84498
#
# Poissons Ratio (x) = 0.18352 0.40995
# Poissons Ratio (y) = 0.15305 0.01740
# Poissons Ratio (z) = 0.83114 0.04231
#
# Static dielectric constant tensor:
#      x y z
#    x 4.103900 -0.222010 -0.083910 
#    y -0.222010 4.303630 -0.331880 
#    z -0.083910 -0.331880 4.133400 
# 
# 
# High freq. dielectric constant tensor:
#      x y z
#    x 1.876620 -0.004060 -0.009730 
#    y -0.004060 1.891350 -0.003200 
#    z -0.009730 -0.003200 1.871470 
# 
# From -- ./inp_files/208047.got.cif
#   From: 2010.06.25/outbox.cif.g09.slc.cpg/sg2_105_cif.got.tgz:208047.got - 2010.06.27 13:26:56.
