data_PCOD8033010
_publ_section_title
;
Structure prediction by ZEFSAII (Michael W. Deem and Ramdas Pophale) SiO2 
 PCOD8033010
Probable space group: P -1
;
_chemical_formula_sum "Si O2"
_cell_formula_units_Z 16
_cell_length_a 8.115226
_cell_length_b 17.354253
_cell_length_c 11.358051
_cell_angle_alpha 132.236774
_cell_angle_beta 143.861474
_cell_angle_gamma 50.727722
_cell_volume 683.380199
_symmetry_space_group_name_H-M "P -1"
_symmetry_group_IT_number 2
_symmetry_cell_setting 'triclinic'
loop_
_space_group_symop_operation_xyz
x,y,z
-x,-y,-z
loop_
_atom_site_type_symbol
_atom_site_label
_atom_site_fract_x
_atom_site_fract_y
_atom_site_fract_z
Si Si1 0.372171 0.259330 0.385324
Si Si2 0.785997 0.572018 0.362474
Si Si3 0.231394 0.488307 0.960800
Si Si4 0.007989 0.837858 0.377035
Si Si5 0.011695 0.897356 0.982858
Si Si6 0.832646 0.983387 0.205096
Si Si7 0.510392 0.722161 0.980455
Si Si8 0.357309 0.398399 0.289129
O O1 0.223315 0.310764 0.472063
O O2 0.283316 0.338541 0.303357
O O3 0.709174 0.245338 0.580818
O O4 0.284549 0.144450 0.213413
O O5 0.899758 0.554159 0.277660
O O6 0.000000 0.500000 0.500000
O O7 0.454887 0.563551 0.152853
O O8 0.934153 0.557870 0.911674
O O9 0.422778 0.393001 0.042922
O O10 0.879656 0.906688 0.263517
O O11 0.775050 0.774147 0.217360
O O12 0.082803 0.905698 0.599797
O O13 0.054137 0.935683 0.179447
O O14 0.241879 0.798368 0.965194
O O15 0.000000 0.000000 0.000000
O O16 0.500000 0.000000 0.000000
O O17 0.459088 0.695201 0.784974
O O18 0.500000 0.500000 0.500000
#
# Coordination Sequence:
#
# PCOD8033010 Si02
#       8
#     2   2   2   2   2   2   2   2
#     4  12  25  45  78 106 144 205 245 296 382 447
#     4  11  23  44  71 105 145 188 246 303 373 440
#     4  11  25  44  73 107 149 189 243 311 371 454
#     4  11  26  46  79 103 139 198 251 301 367 452
#     4  12  29  46  74 110 153 193 247 317 365 437
#     4  11  24  51  75 101 144 193 250 310 372 432
#     4  12  27  45  72 115 150 191 255 306 377 443
#     4  12  26  47  78 110 155 200 245 309 375 457
#
# _framework density 23.413029000000002
#
# number of rings (size 3 to 8) (size 9 to 14) (size 15 to 20)
#    0.000    0.500    2.500    4.875    8.750    1.500 
#    0.000    0.000    0.000    0.000    0.000    0.000 
#    0.000    0.000    0.000    0.000    0.000    0.000 
#
# Total GULP energy -198232.290006 kJ/mol
# GULP energy per Si atom -12389.518125 kJ/mol
# Density = 2.335974 g / cm^3
# Si number density = 23.413029 Si / 1000 Ang^3
#
#
#
# Elastic Constant Matrix: (Units=GPa)
#
#
# Indices 1 2 3 4 5 6 
#
# 1 94.5109 28.0706 36.4246 14.5974 -8.0317 -20.8879
# 2 28.0706 92.5659 24.9873 3.0140 -0.9049 -6.6897
# 3 36.4246 24.9873 113.4145 8.4217 -3.2452 -5.0577
# 4 14.5974 3.0140 8.4217 44.8580 -5.9668 6.6996
# 5 -8.0317 -0.9049 -3.2452 -5.9668 46.0773 10.4385
# 6 -20.8879 -6.6897 -5.0577 6.6996 10.4385 50.4780
#
#
#
# Elastic Compliance Matrix: (Units=1/GPa)
#
#
# Indices 1 2 3 4 5 6 
#
# 1 0.014919 -0.002985 -0.003497 -0.004854 0.000306 0.006009
# 2 -0.002985 0.012182 -0.001756 0.000393 -0.000407 0.000235
# 3 -0.003497 -0.001756 0.010348 -0.000579 0.000145 -0.000596
# 4 -0.004854 0.000393 -0.000579 0.025382 0.003806 -0.006170
# 5 0.000306 -0.000407 0.000145 0.003806 0.023444 -0.005266
# 6 0.006009 0.000235 -0.000596 -0.006170 -0.005266 0.024176
#
#
# Mechanical properties :
#
#
# Convention : Reuss Voigt Hill
#
# Bulk Modulus (GPa) = 47.67744 53.27294 50.47519
# Shear Modulus (GPa) = 37.33658 42.34992 39.84325
#
# Velocity S-wave (km/s) = 3.99769 4.25763 4.12971
# Velocity P-wave (km/s) = 6.45884 6.85368 6.65918
#
# Compressibility (1/GPa) = 0.02097428
#
# Stress axis : x y z
#
# Youngs Moduli (GPa) = 67.03030 82.08510 96.64149
#
# Poissons Ratio (x) = 0.24502 0.33791
# Poissons Ratio (y) = 0.20008 0.16967
# Poissons Ratio (z) = 0.23437 0.14412
#
# Static dielectric constant tensor:
#      x y z
#    x 4.456520 -0.266940 -0.221810 
#    y -0.266940 4.333810 0.228240 
#    z -0.221810 0.228240 4.362900 
# 
# 
# High freq. dielectric constant tensor:
#      x y z
#    x 1.932730 -0.017980 -0.004370 
#    y -0.017980 1.931710 0.010140 
#    z -0.004370 0.010140 1.938720 
# 
# From -- ./inp_files/46668.got.cif
#   From: 2010.06.25/outbox.cif.g09.slc.cpg/sg2_24_cif.got.tgz:46668.got - 2010.06.27 13:26:56.
