data_PCOD8033077
_publ_section_title
;
Structure prediction by ZEFSAII (Michael W. Deem and Ramdas Pophale) SiO2 
 PCOD8033077
Probable space group: P -1
;
_chemical_formula_sum "Si O2"
_cell_formula_units_Z 16
_cell_length_a 12.388379
_cell_length_b 21.753706
_cell_length_c 9.633388
_cell_angle_alpha 135.139737
_cell_angle_beta 143.921499
_cell_angle_gamma 27.844055
_cell_volume 713.912987
_symmetry_space_group_name_H-M "P -1"
_symmetry_group_IT_number 2
_symmetry_cell_setting 'triclinic'
loop_
_space_group_symop_operation_xyz
x,y,z
-x,-y,-z
loop_
_atom_site_type_symbol
_atom_site_label
_atom_site_fract_x
_atom_site_fract_y
_atom_site_fract_z
Si Si1 0.624722 0.483470 0.956889
Si Si2 0.934735 0.693685 0.251858
Si Si3 0.219970 0.313174 0.214138
Si Si4 0.334039 0.893360 0.439427
Si Si5 0.216019 0.774238 0.951724
Si Si6 0.375010 0.422871 0.417327
Si Si7 0.685765 0.854373 0.506903
Si Si8 0.150183 0.810078 0.634950
O O1 0.505143 0.619609 0.006223
O O2 0.549517 0.437830 0.691859
O O3 0.500000 0.500000 0.000000
O O4 0.956222 0.377158 0.133658
O O5 0.719000 0.775842 0.286875
O O6 0.158339 0.538957 0.268125
O O7 0.082673 0.733057 0.456536
O O8 0.780116 0.729043 0.005643
O O9 0.501286 0.180300 0.365445
O O10 0.224792 0.417090 0.369289
O O11 0.549256 0.850470 0.481685
O O12 0.201037 0.850501 0.180070
O O13 0.091555 0.049314 0.466736
O O14 0.185003 0.833953 0.866383
O O15 0.979714 0.786595 0.755294
O O16 0.571699 0.284488 0.317806
O O17 0.500000 0.000000 0.500000
#
# Coordination Sequence:
#
# PCOD8033077 Si02
#       8
#     2   2   2   2   2   2   2   2
#     4  12  25  46  71 101 147 185 234 296 356 419
#     4  11  23  47  72 104 139 186 241 289 349 421
#     4  12  29  43  70 111 141 191 232 290 365 417
#     4  12  27  46  69 108 149 184 236 289 355 425
#     4  11  24  43  73 102 138 185 235 293 345 416
#     4  12  25  47  73 103 142 186 243 295 351 418
#     4  11  23  44  73 106 134 184 238 287 350 416
#     4  11  23  46  74 101 139 191 237 290 350 417
#
# _framework density 22.411695000000002
#
# number of rings (size 3 to 8) (size 9 to 14) (size 15 to 20)
#    0.000    0.500    6.250    3.375    3.500    2.000 
#    0.000    0.000    0.000    0.000    0.000    0.000 
#    0.000    0.000    0.000    0.000    0.000    0.000 
#
# Total GULP energy -198469.401789 kJ/mol
# GULP energy per Si atom -12404.337612 kJ/mol
# Density = 2.236069 g / cm^3
# Si number density = 22.411695 Si / 1000 Ang^3
#
#
#
# Elastic Constant Matrix: (Units=GPa)
#
#
# Indices 1 2 3 4 5 6 
#
# 1 87.7199 53.9089 44.6488 3.8075 -7.6927 3.7780
# 2 53.9089 154.6042 56.4226 -17.0072 -17.0762 -2.6120
# 3 44.6488 56.4226 91.8419 -13.7139 -20.8038 4.3894
# 4 3.8075 -17.0072 -13.7139 29.1740 9.8910 -9.0789
# 5 -7.6927 -17.0762 -20.8038 9.8910 32.0584 -0.6662
# 6 3.7780 -2.6120 4.3894 -9.0789 -0.6662 36.9768
#
#
#
# Elastic Compliance Matrix: (Units=1/GPa)
#
#
# Indices 1 2 3 4 5 6 
#
# 1 0.018878 -0.005061 -0.007373 -0.010123 0.000092 -0.003895
# 2 -0.005061 0.010032 -0.002844 0.005941 0.000514 0.003031
# 3 -0.007373 -0.002844 0.018675 0.005629 0.007095 -0.000154
# 4 -0.010123 0.005941 0.005629 0.049227 -0.010536 0.012683
# 5 0.000092 0.000514 0.007095 -0.010536 0.039287 -0.002694
# 6 -0.003895 0.003031 -0.000154 0.012683 -0.002694 0.030740
#
#
# Mechanical properties :
#
#
# Convention : Reuss Voigt Hill
#
# Bulk Modulus (GPa) = 58.72386 71.56961 65.14673
# Shear Modulus (GPa) = 24.62166 31.58756 28.10461
#
# Velocity S-wave (km/s) = 3.31812 3.75830 3.54505
# Velocity P-wave (km/s) = 6.39837 7.12997 6.77405
#
# Compressibility (1/GPa) = 0.01702885
#
# Stress axis : x y z
#
# Youngs Moduli (GPa) = 52.97071 99.67670 53.54745
#
# Poissons Ratio (x) = 0.50448 0.39481
# Poissons Ratio (y) = 0.26809 0.15230
# Poissons Ratio (z) = 0.39055 0.28351
#
# Static dielectric constant tensor:
#      x y z
#    x 6.283710 -0.406000 0.861260 
#    y -0.406000 4.218290 -0.089350 
#    z 0.861260 -0.089350 4.516500 
# 
# 
# High freq. dielectric constant tensor:
#      x y z
#    x 1.886340 0.002570 0.004680 
#    y 0.002570 1.886950 -0.000940 
#    z 0.004680 -0.000940 1.885100 
# 
# From -- ./inp_files/282843.got.cif
#   From: 2010.06.25/outbox.cif.g09.slc.cpg/sg2_142_cif.got.tgz:282843.got - 2010.06.27 13:26:56.
