data_PCOD8033005
_publ_section_title
;
Structure prediction by ZEFSAII (Michael W. Deem and Ramdas Pophale) SiO2 
 PCOD8033005
Probable space group: P -1
;
_chemical_formula_sum "Si O2"
_cell_formula_units_Z 10
_cell_length_a 9.321194
_cell_length_b 6.370422
_cell_length_c 8.496826
_cell_angle_alpha 96.923252
_cell_angle_beta 122.424823
_cell_angle_gamma 87.933976
_cell_volume 422.529586
_symmetry_space_group_name_H-M "P -1"
_symmetry_group_IT_number 2
_symmetry_cell_setting 'triclinic'
loop_
_space_group_symop_operation_xyz
x,y,z
-x,-y,-z
loop_
_atom_site_type_symbol
_atom_site_label
_atom_site_fract_x
_atom_site_fract_y
_atom_site_fract_z
Si Si1 0.231357 0.019366 0.008304
Si Si2 0.186738 0.617677 0.528050
Si Si3 0.837127 0.773817 0.342675
Si Si4 0.569801 0.027654 0.369891
Si Si5 0.043932 0.330062 0.140330
O O1 0.426161 0.964557 0.151997
O O2 0.172041 0.161322 0.131418
O O3 0.222306 0.149802 0.854365
O O4 0.124964 0.799053 0.913103
O O5 0.203296 0.480499 0.685440
O O6 0.366103 0.729497 0.598972
O O7 0.131430 0.452824 0.345786
O O8 0.044037 0.798604 0.485072
O O9 0.733222 0.884918 0.429807
O O10 0.500000 0.000000 0.500000
O O11 0.000000 0.500000 0.000000
#
# Coordination Sequence:
#
# PCOD8033005 Si02
#       5
#     2   2   2   2   2
#     4  11  26  43  72 102 139 179 226 285 341 403
#     4  11  26  45  74  99 135 186 230 278 337 413
#     4  11  26  46  70 102 139 182 230 278 342 407
#     4  12  27  46  69 103 141 178 226 290 342 398
#     4  11  23  44  71 102 136 182 227 275 343 410
#
# _framework density 23.666981
#
# number of rings (size 3 to 8) (size 9 to 14) (size 15 to 20)
#    0.000    0.800    2.000    3.600   11.200    5.600 
#    0.000    0.000    0.000    0.000    0.000    0.000 
#    0.000    0.000    0.000    0.000    0.000    0.000 
#
# Total GULP energy -124008.857695 kJ/mol
# GULP energy per Si atom -12400.885769 kJ/mol
# Density = 2.361311 g / cm^3
# Si number density = 23.666981 Si / 1000 Ang^3
#
#
#
# Elastic Constant Matrix: (Units=GPa)
#
#
# Indices 1 2 3 4 5 6 
#
# 1 140.8530 50.2340 49.1954 -0.4377 -4.0332 18.5025
# 2 50.2340 98.7482 47.2434 -13.5308 2.2854 16.7320
# 3 49.1954 47.2434 105.6476 -16.1128 -3.6560 16.8220
# 4 -0.4377 -13.5308 -16.1128 49.8384 8.1064 -10.3686
# 5 -4.0332 2.2854 -3.6560 8.1064 34.9398 2.3097
# 6 18.5025 16.7320 16.8220 -10.3686 2.3097 55.1572
#
#
#
# Elastic Compliance Matrix: (Units=1/GPa)
#
#
# Indices 1 2 3 4 5 6 
#
# 1 0.009689 -0.003602 -0.002934 -0.002501 0.001747 -0.001806
# 2 -0.003602 0.014685 -0.004356 0.002657 -0.002361 -0.001320
# 3 -0.002934 -0.004356 0.013433 0.002731 0.000805 -0.001311
# 4 -0.002501 0.002657 0.002731 0.023400 -0.005860 0.003845
# 5 0.001747 -0.002361 0.000805 -0.005860 0.030586 -0.002497
# 6 -0.001806 -0.001320 -0.001311 0.003845 -0.002497 0.020363
#
#
# Mechanical properties :
#
#
# Convention : Reuss Voigt Hill
#
# Bulk Modulus (GPa) = 62.41397 70.95491 66.68444
# Shear Modulus (GPa) = 35.89858 41.22548 38.56203
#
# Velocity S-wave (km/s) = 3.89886 4.17813 4.04091
# Velocity P-wave (km/s) = 6.83353 7.30215 7.07172
#
# Compressibility (1/GPa) = 0.01602205
#
# Stress axis : x y z
#
# Youngs Moduli (GPa) = 103.21506 68.09449 74.44394
#
# Poissons Ratio (x) = 0.24527 0.21844
# Poissons Ratio (y) = 0.37178 0.32429
# Poissons Ratio (z) = 0.30286 0.29663
#
# Static dielectric constant tensor:
#      x y z
#    x 4.605050 0.091590 -0.102150 
#    y 0.091590 4.600750 -0.313470 
#    z -0.102150 -0.313470 4.255810 
# 
# 
# High freq. dielectric constant tensor:
#      x y z
#    x 1.951470 0.006890 -0.010880 
#    y 0.006890 1.954660 -0.011030 
#    z -0.010880 -0.011030 1.930200 
# 
# From -- ./inp_files/15931.got.cif
#   From: 2010.06.25/outbox.cif.g09.slc.cpg/sg2_8_cif.got.tgz:15931.got - 2010.06.27 13:26:56.
