data_PCOD8033644
_publ_section_title
;
Structure prediction by ZEFSAII (Michael W. Deem and Ramdas Pophale) SiO2 
 PCOD8033644
Probable space group: P -1
;
_chemical_formula_sum "Si O2"
_cell_formula_units_Z 16
_cell_length_a 14.148103
_cell_length_b 9.192525
_cell_length_c 6.784168
_cell_angle_alpha 122.417137
_cell_angle_beta 93.224429
_cell_angle_gamma 75.192173
_cell_volume 716.560476
_symmetry_space_group_name_H-M "P -1"
_symmetry_group_IT_number 2
_symmetry_cell_setting 'triclinic'
loop_
_space_group_symop_operation_xyz
x,y,z
-x,-y,-z
loop_
_atom_site_type_symbol
_atom_site_label
_atom_site_fract_x
_atom_site_fract_y
_atom_site_fract_z
Si Si1 0.298497 0.807135 0.922783
Si Si2 0.974448 0.119695 0.391146
Si Si3 0.589936 0.381186 0.553969
Si Si4 0.123711 0.109873 0.069359
Si Si5 0.091621 0.492608 0.146917
Si Si6 0.535803 0.057645 0.846521
Si Si7 0.715486 0.462034 0.978004
Si Si8 0.569893 0.757924 0.376140
O O1 0.245898 0.724213 0.032447
O O2 0.238745 0.014546 0.041629
O O3 0.407038 0.793775 0.005349
O O4 0.317527 0.712755 0.642239
O O5 0.923078 0.327748 0.592105
O O6 0.071492 0.117057 0.278757
O O7 0.000000 0.000000 0.500000
O O8 0.907064 0.028564 0.184466
O O9 0.500000 0.500000 0.500000
O O10 0.642437 0.476203 0.793070
O O11 0.538730 0.251991 0.574382
O O12 0.105676 0.313321 0.145751
O O13 0.190109 0.470660 0.015497
O O14 0.000000 0.500000 0.000000
O O15 0.606934 0.881059 0.625808
O O16 0.441605 0.143410 0.764007
O O17 0.500000 0.000000 0.000000
O O18 0.653327 0.575370 0.232701
#
# Coordination Sequence:
#
# PCOD8033644 Si02
#       8
#     2   2   2   2   2   2   2   2
#     4  12  25  44  70 104 146 190 241 300 360 432
#     4  11  23  51  77 101 142 183 238 310 374 432
#     4  12  23  43  72 102 145 192 235 292 358 428
#     4  11  27  45  76 108 139 189 245 299 374 438
#     4  12  27  50  76 106 148 194 243 310 374 436
#     4  11  24  41  65  95 145 185 235 290 361 421
#     4  12  27  45  69 105 146 186 252 294 358 435
#     4  11  24  42  66  99 137 192 235 290 352 433
#
# _framework density 22.328887999999999
#
# number of rings (size 3 to 8) (size 9 to 14) (size 15 to 20)
#    0.000    0.500    5.000    3.000    3.500    1.000 
#    6.750    0.000    0.000    0.000    0.000    0.000 
#    0.000    0.000    0.000    0.000    0.000    0.000 
#
# Total GULP energy -198256.023666 kJ/mol
# GULP energy per Si atom -12391.001479 kJ/mol
# Density = 2.227807 g / cm^3
# Si number density = 22.328888 Si / 1000 Ang^3
#
#
#
# Elastic Constant Matrix: (Units=GPa)
#
#
# Indices 1 2 3 4 5 6 
#
# 1 89.1803 36.6875 29.9489 -8.5640 -15.2266 9.0287
# 2 36.6875 157.3535 58.7642 -6.8112 -12.9110 1.1173
# 3 29.9489 58.7642 123.7415 0.4627 -10.9216 2.1029
# 4 -8.5640 -6.8112 0.4627 48.4922 6.5484 -3.4219
# 5 -15.2266 -12.9110 -10.9216 6.5484 32.0246 -0.9230
# 6 9.0287 1.1173 2.1029 -3.4219 -0.9230 39.0528
#
#
#
# Elastic Compliance Matrix: (Units=1/GPa)
#
#
# Indices 1 2 3 4 5 6 
#
# 1 0.013941 -0.002058 -0.001931 0.001346 0.004783 -0.002829
# 2 -0.002058 0.008184 -0.003306 0.000710 0.001063 0.000507
# 3 -0.001931 -0.003306 0.010254 -0.001107 0.001470 -0.000073
# 4 0.001346 0.000710 -0.001107 0.021594 -0.003823 0.001530
# 5 0.004783 0.001063 0.001470 -0.003823 0.035191 -0.000719
# 6 -0.002829 0.000507 -0.000073 0.001530 -0.000719 0.026367
#
#
# Mechanical properties :
#
#
# Convention : Reuss Voigt Hill
#
# Bulk Modulus (GPa) = 56.21848 69.00850 62.61349
# Shear Modulus (GPa) = 36.75091 40.23889 38.49490
#
# Velocity S-wave (km/s) = 4.06136 4.24972 4.15661
# Velocity P-wave (km/s) = 6.87204 7.41975 7.15114
#
# Compressibility (1/GPa) = 0.01778774
#
# Stress axis : x y z
#
# Youngs Moduli (GPa) = 71.73114 122.19104 97.52425
#
# Poissons Ratio (x) = 0.25150 0.18836
# Poissons Ratio (y) = 0.14764 0.32240
# Poissons Ratio (z) = 0.13854 0.40394
#
# Static dielectric constant tensor:
#      x y z
#    x 3.829350 0.079190 0.009740 
#    y 0.079190 4.161370 0.069020 
#    z 0.009740 0.069020 4.382550 
# 
# 
# High freq. dielectric constant tensor:
#      x y z
#    x 1.864460 0.005250 -0.003690 
#    y 0.005250 1.893140 -0.004120 
#    z -0.003690 -0.004120 1.900460 
# 
# From -- ./inp_files/90918.got.cif
#   From: 2010.06.25/outbox.cif.g09.slc.cpg/sg2_46_cif.got.tgz:90918.got - 2010.06.27 13:26:56.
