data_PCOD8033584
_publ_section_title
;
Structure prediction by ZEFSAII (Michael W. Deem and Ramdas Pophale) SiO2 
 PCOD8033584
Probable space group: P -1
;
_chemical_formula_sum "Si O2"
_cell_formula_units_Z 16
_cell_length_a 14.341379
_cell_length_b 20.362076
_cell_length_c 8.549573
_cell_angle_alpha 127.324455
_cell_angle_beta 51.410519
_cell_angle_gamma 159.537787
_cell_volume 680.008609
_symmetry_space_group_name_H-M "P -1"
_symmetry_group_IT_number 2
_symmetry_cell_setting 'triclinic'
loop_
_space_group_symop_operation_xyz
x,y,z
-x,-y,-z
loop_
_atom_site_type_symbol
_atom_site_label
_atom_site_fract_x
_atom_site_fract_y
_atom_site_fract_z
Si Si1 0.091999 0.808543 0.588644
Si Si2 0.527055 0.207539 0.210044
Si Si3 0.697129 0.508621 0.070600
Si Si4 0.060247 0.521025 0.289881
Si Si5 0.060236 0.172471 0.766836
Si Si6 0.108708 0.152378 0.044113
Si Si7 0.419674 0.575699 0.577575
Si Si8 0.428860 0.883536 0.247215
O O1 0.266228 0.868473 0.359914
O O2 0.049143 0.879879 0.726080
O O3 0.791566 0.581140 0.565826
O O4 0.273211 0.905391 0.694590
O O5 0.751358 0.328005 0.275877
O O6 0.599334 0.339154 0.244922
O O7 0.532427 0.136122 0.982612
O O8 0.214114 0.016504 0.319417
O O9 0.903178 0.706248 0.077494
O O10 0.429440 0.356044 0.026657
O O11 0.642271 0.500438 0.297074
O O12 0.805973 0.484335 0.894281
O O13 0.000000 0.500000 0.500000
O O14 0.251550 0.712990 0.299984
O O15 0.289257 0.270634 0.567376
O O16 0.036822 0.120085 0.890496
O O17 0.000000 0.000000 0.000000
#
# Coordination Sequence:
#
# PCOD8033584 Si02
#       8
#     2   2   2   2   2   2   2   2
#     4  11  24  42  81 105 142 193 250 303 373 439
#     4  12  25  50  76 107 151 201 248 307 375 442
#     4  12  27  47  75 109 156 195 251 310 374 438
#     4  12  28  45  75 110 151 192 248 312 378 445
#     4  12  28  46  77 109 149 202 253 307 367 450
#     4  12  26  48  74 109 152 194 252 309 375 441
#     4  12  25  50  76 112 150 200 253 308 373 441
#     4  11  23  47  75 107 145 196 248 300 378 445
#
# _framework density 23.529115000000001
#
# number of rings (size 3 to 8) (size 9 to 14) (size 15 to 20)
#    0.000    0.250    5.000    3.750    3.500    1.500 
#    0.000    0.000    0.000    0.000    0.000    0.000 
#    0.000    0.000    0.000    0.000    0.000    0.000 
#
# Total GULP energy -198249.052666 kJ/mol
# GULP energy per Si atom -12390.565792 kJ/mol
# Density = 2.347556 g / cm^3
# Si number density = 23.529115 Si / 1000 Ang^3
#
#
#
# Elastic Constant Matrix: (Units=GPa)
#
#
# Indices 1 2 3 4 5 6 
#
# 1 36.5495 -56.6354 5.6885 -35.0488 -54.2024 24.8389
# 2 -56.6354 -64.4180 -36.7135 -39.3098 -53.5944 45.2230
# 3 5.6885 -36.7135 113.1524 -25.2999 -44.2878 13.3595
# 4 -35.0488 -39.3098 -25.2999 25.7831 -13.0112 2.8737
# 5 -54.2024 -53.5944 -44.2878 -13.0112 28.8871 8.2978
# 6 24.8389 45.2230 13.3595 2.8737 8.2978 53.0869
#
#
#
# Elastic Compliance Matrix: (Units=1/GPa)
#
#
# Indices 1 2 3 4 5 6 
#
# 1 0.013687 -0.009891 -0.003461 0.000619 0.001551 0.002617
# 2 -0.009891 0.008594 -0.002700 -0.008311 -0.010522 0.000081
# 3 -0.003461 -0.002700 0.008759 0.000492 0.001738 0.001417
# 4 0.000619 -0.008311 0.000492 0.024709 -0.004089 0.005968
# 5 0.001551 -0.010522 0.001738 -0.004089 0.017302 0.005317
# 6 0.002617 0.000081 0.001417 0.005968 0.005317 0.016033
#
#
# Mechanical properties :
#
#
# Convention : Reuss Voigt Hill
#
# Bulk Modulus (GPa) = -938.15480 -10.00411 -474.07945
# Shear Modulus (GPa) = 41.37927 33.08104 37.23015
#
# Velocity S-wave (km/s) = 4.19816 3.75368 3.98213
# Velocity P-wave (km/s) = 19.39296 3.81128 13.44547
#
# Compressibility (1/GPa) = -0.00106592
#
# Stress axis : x y z
#
# Youngs Moduli (GPa) = 73.06403 116.35865 114.17441
#
# Poissons Ratio (x) = 1.15093 0.39516
# Poissons Ratio (y) = 0.72269 0.30831
# Poissons Ratio (z) = 0.25287 0.31421
#
# Static dielectric constant tensor:
#      x y z
#    x 4.415120 0.398320 -0.290140 
#    y 0.398320 4.544150 0.136820 
#    z -0.290140 0.136820 4.417140 
# 
# 
# High freq. dielectric constant tensor:
#      x y z
#    x 1.926950 0.024120 -0.026160 
#    y 0.024120 1.944060 0.014500 
#    z -0.026160 0.014500 1.948980 
# 
# From -- ./inp_files/319470.got.cif
#   From: 2010.06.25/outbox.cif.g09.slc.cpg/sg2_160_cif.got.tgz:319470.got - 2010.06.27 13:26:56.
