data_PCOD8033539
_publ_section_title
;
Structure prediction by ZEFSAII (Michael W. Deem and Ramdas Pophale) SiO2 
 PCOD8033539
Probable space group: P -1
;
_chemical_formula_sum "Si O2"
_cell_formula_units_Z 16
_cell_length_a 11.420786
_cell_length_b 13.120685
_cell_length_c 12.701183
_cell_angle_alpha 79.530841
_cell_angle_beta 123.614196
_cell_angle_gamma 145.925932
_cell_volume 714.802820
_symmetry_space_group_name_H-M "P -1"
_symmetry_group_IT_number 2
_symmetry_cell_setting 'triclinic'
loop_
_space_group_symop_operation_xyz
x,y,z
-x,-y,-z
loop_
_atom_site_type_symbol
_atom_site_label
_atom_site_fract_x
_atom_site_fract_y
_atom_site_fract_z
Si Si1 0.989345 0.103036 0.032550
Si Si2 0.441375 0.060908 0.887519
Si Si3 0.325893 0.664264 0.874511
Si Si4 0.299269 0.099918 0.417225
Si Si5 0.195237 0.257183 0.337940
Si Si6 0.030690 0.768834 0.189633
Si Si7 0.570597 0.985949 0.339661
Si Si8 0.064476 0.464582 0.445571
O O1 0.203238 0.256690 0.213433
O O2 0.089535 0.258181 0.972258
O O3 0.635396 0.888607 0.923905
O O4 0.000000 0.000000 0.000000
O O5 0.578076 0.132894 0.826102
O O6 0.622537 0.276455 0.987854
O O7 0.079119 0.849269 0.739674
O O8 0.500000 0.000000 0.000000
O O9 0.220016 0.476460 0.847012
O O10 0.078117 0.582831 0.723107
O O11 0.141433 0.102811 0.377523
O O12 0.576622 0.315717 0.437240
O O13 0.060350 0.875381 0.273885
O O14 0.411577 0.110219 0.572169
O O15 0.500000 0.500000 0.500000
O O16 0.357463 0.925883 0.308927
O O17 0.910131 0.255086 0.441430
O O18 0.000000 0.500000 0.500000
#
# Coordination Sequence:
#
# PCOD8033539 Si02
#       8
#     2   2   2   2   2   2   2   2
#     4  11  23  47  70  97 140 190 234 292 358 415
#     4  11  24  48  71  98 141 193 239 285 354 436
#     4  11  24  41  69 103 133 178 241 289 345 426
#     4  12  25  43  67 108 147 175 240 299 356 427
#     4  11  26  47  72 103 146 188 236 297 359 427
#     4  12  23  43  69 106 138 181 240 297 351 421
#     4  12  23  40  71 100 139 186 231 292 355 423
#     4  12  21  39  68 100 139 181 224 287 359 406
#
# _framework density 22.383796
#
# number of rings (size 3 to 8) (size 9 to 14) (size 15 to 20)
#    0.000    0.500    6.250    2.625    0.000    2.500 
#    2.250    0.000    0.000    0.000    0.000    0.000 
#    0.000    0.000    0.000    0.000    0.000    0.000 
#
# Total GULP energy -198420.951698 kJ/mol
# GULP energy per Si atom -12401.309481 kJ/mol
# Density = 2.233285 g / cm^3
# Si number density = 22.383796 Si / 1000 Ang^3
#
#
#
# Elastic Constant Matrix: (Units=GPa)
#
#
# Indices 1 2 3 4 5 6 
#
# 1 100.7378 17.2662 33.2127 -1.5721 -2.3067 -16.9413
# 2 17.2662 83.0946 27.0427 -7.0915 3.0854 -16.2055
# 3 33.2127 27.0427 115.0349 -5.9427 -7.8754 -9.6679
# 4 -1.5721 -7.0915 -5.9427 45.6861 -8.5350 -0.4574
# 5 -2.3067 3.0854 -7.8754 -8.5350 46.9277 -7.3626
# 6 -16.9413 -16.2055 -9.6679 -0.4574 -7.3626 30.8991
#
#
#
# Elastic Compliance Matrix: (Units=1/GPa)
#
#
# Indices 1 2 3 4 5 6 
#
# 1 0.011902 -0.000490 -0.002758 0.000234 0.001086 0.005668
# 2 -0.000490 0.014418 -0.002604 0.001941 -0.000037 0.006498
# 3 -0.002758 -0.002604 0.010390 0.001263 0.002151 0.000904
# 4 0.000234 0.001941 0.001263 0.023291 0.004808 0.003032
# 5 0.001086 -0.000037 0.002151 0.004808 0.023693 0.006966
# 6 0.005668 0.006498 0.000904 0.003032 0.006966 0.040866
#
#
# Mechanical properties :
#
#
# Convention : Reuss Voigt Hill
#
# Bulk Modulus (GPa) = 39.99249 50.43449 45.21349
# Shear Modulus (GPa) = 34.57799 39.45895 37.01847
#
# Velocity S-wave (km/s) = 3.93463 4.20317 4.07111
# Velocity P-wave (km/s) = 6.20864 6.79236 6.50705
#
# Compressibility (1/GPa) = 0.02500470
#
# Stress axis : x y z
#
# Youngs Moduli (GPa) = 84.02069 69.35723 96.24642
#
# Poissons Ratio (x) = 0.03402 0.26547
# Poissons Ratio (y) = 0.04121 0.25062
# Poissons Ratio (z) = 0.23174 0.18060
#
# Static dielectric constant tensor:
#      x y z
#    x 4.667640 0.078240 -0.013140 
#    y 0.078240 4.041770 -0.053690 
#    z -0.013140 -0.053690 4.386590 
# 
# 
# High freq. dielectric constant tensor:
#      x y z
#    x 1.889620 -0.012040 -0.008470 
#    y -0.012040 1.867220 -0.008660 
#    z -0.008470 -0.008660 1.890430 
# 
# From -- ./inp_files/433956.got.cif
#   From: 2010.06.25/outbox.cif.g09.slc.cpg/sg2_217_cif.got.tgz:433956.got - 2010.06.27 13:26:56.
