data_PCOD8033881
_publ_section_title
;
Structure prediction by ZEFSAII (Michael W. Deem and Ramdas Pophale) SiO2 
 PCOD8033881
Probable space group: P -1
;
_chemical_formula_sum "Si O2"
_cell_formula_units_Z 14
_cell_length_a 16.753055
_cell_length_b 8.840430
_cell_length_c 23.068460
_cell_angle_alpha 30.311189
_cell_angle_beta 22.479150
_cell_angle_gamma 41.846604
_cell_volume 634.156771
_symmetry_space_group_name_H-M "P -1"
_symmetry_group_IT_number 2
_symmetry_cell_setting 'triclinic'
loop_
_space_group_symop_operation_xyz
x,y,z
-x,-y,-z
loop_
_atom_site_type_symbol
_atom_site_label
_atom_site_fract_x
_atom_site_fract_y
_atom_site_fract_z
Si Si1 0.388437 0.373147 0.927710
Si Si2 0.123016 0.709524 0.070874
Si Si3 0.390365 0.392841 0.416643
Si Si4 0.803432 0.330746 0.729618
Si Si5 0.260337 0.378659 0.722355
Si Si6 0.207225 0.686586 0.764477
Si Si7 0.004840 0.359384 0.382993
O O1 0.506966 0.552383 0.733471
O O2 0.571872 0.367542 0.853432
O O3 0.239975 0.568207 0.989541
O O4 0.228005 0.039624 0.127415
O O5 0.879144 0.682301 0.222559
O O6 0.124196 0.539396 0.187241
O O7 0.241318 0.074557 0.875639
O O8 0.582519 0.428351 0.321697
O O9 0.244866 0.628182 0.449373
O O10 0.231047 0.046263 0.642204
O O11 0.000000 0.500000 0.500000
O O12 0.856260 0.477335 0.709215
O O13 0.500000 0.500000 0.500000
O O14 0.181780 0.626240 0.732762
O O15 0.000000 0.500000 0.000000
O O16 0.000000 0.000000 0.500000
#
# Coordination Sequence:
#
# PCOD8033881 Si02
#       7
#     2   2   2   2   2   2   2
#     4  11  25  44  72  97 135 186 237 283 342 420
#     4  11  26  44  67 107 139 178 237 285 346 422
#     4  11  25  43  68 106 136 178 243 283 345 426
#     4  11  25  46  69  98 137 184 235 282 346 417
#     4  11  24  44  70  98 142 183 226 287 356 407
#     4  11  24  42  71 102 136 184 231 292 348 408
#     4  12  27  46  71 104 150 185 233 296 355 424
#
# _framework density 22.076559
#
# number of rings (size 3 to 8) (size 9 to 14) (size 15 to 20)
#    0.000    0.857    1.429    4.286    8.000    9.714 
#    0.000    0.000    0.000    0.000    0.000    0.000 
#    0.000    0.000    0.000    0.000    0.000    0.000 
#
# Total GULP energy -173653.911051 kJ/mol
# GULP energy per Si atom -12403.850789 kJ/mol
# Density = 2.202631 g / cm^3
# Si number density = 22.076559 Si / 1000 Ang^3
#
#
#
# Elastic Constant Matrix: (Units=GPa)
#
#
# Indices 1 2 3 4 5 6 
#
# 1 98.2790 36.8480 45.2948 -13.1315 5.9025 7.6899
# 2 36.8480 127.1174 53.5089 0.5525 -8.1256 1.1196
# 3 45.2948 53.5089 165.0901 1.7650 1.3910 2.3174
# 4 -13.1315 0.5525 1.7650 29.9438 11.9499 9.2007
# 5 5.9025 -8.1256 1.3910 11.9499 37.9139 -3.8453
# 6 7.6899 1.1196 2.3174 9.2007 -3.8453 30.8595
#
#
#
# Elastic Compliance Matrix: (Units=1/GPa)
#
#
# Indices 1 2 3 4 5 6 
#
# 1 0.015952 -0.003831 -0.003086 0.013147 -0.008202 -0.008546
# 2 -0.003831 0.010225 -0.002291 -0.004332 0.004502 0.002608
# 3 -0.003086 -0.002291 0.007652 -0.002292 0.000535 0.001027
# 4 0.013147 -0.004332 -0.002292 0.055197 -0.022541 -0.022213
# 5 -0.008202 0.004502 0.000535 -0.022541 0.037039 0.013176
# 6 -0.008546 0.002608 0.001027 -0.022213 0.013176 0.042627
#
#
# Mechanical properties :
#
#
# Convention : Reuss Voigt Hill
#
# Bulk Modulus (GPa) = 64.88435 73.53223 69.20829
# Shear Modulus (GPa) = 26.00807 36.73242 31.37025
#
# Velocity S-wave (km/s) = 3.43605 4.08348 3.77367
# Velocity P-wave (km/s) = 6.72282 7.45742 7.09963
#
# Compressibility (1/GPa) = 0.01541204
#
# Stress axis : x y z
#
# Youngs Moduli (GPa) = 62.68846 97.79562 130.67864
#
# Poissons Ratio (x) = 0.37465 0.40333
# Poissons Ratio (y) = 0.24016 0.29944
# Poissons Ratio (z) = 0.19348 0.22409
#
# Static dielectric constant tensor:
#      x y z
#    x 4.163310 -0.035660 -0.039070 
#    y -0.035660 4.091910 -0.015820 
#    z -0.039070 -0.015820 4.133740 
# 
# 
# High freq. dielectric constant tensor:
#      x y z
#    x 1.879280 0.000690 -0.000890 
#    y 0.000690 1.875670 0.001090 
#    z -0.000890 0.001090 1.884730 
# 
# From -- ./inp_files/107350.got.cif
#   From: 2010.06.25/outbox.cif.g09.slc.cpg/sg2_54_cif.got.tgz:107350.got - 2010.06.27 13:26:56.
