data_PCOD8033859
_publ_section_title
;
Structure prediction by ZEFSAII (Michael W. Deem and Ramdas Pophale) SiO2 
 PCOD8033859
Probable space group: P -1
;
_chemical_formula_sum "Si O2"
_cell_formula_units_Z 14
_cell_length_a 8.977943
_cell_length_b 17.817406
_cell_length_c 15.186189
_cell_angle_alpha 158.783740
_cell_angle_beta 133.739519
_cell_angle_gamma 46.972998
_cell_volume 628.471248
_symmetry_space_group_name_H-M "P -1"
_symmetry_group_IT_number 2
_symmetry_cell_setting 'triclinic'
loop_
_space_group_symop_operation_xyz
x,y,z
-x,-y,-z
loop_
_atom_site_type_symbol
_atom_site_label
_atom_site_fract_x
_atom_site_fract_y
_atom_site_fract_z
Si Si1 0.854583 0.953058 0.771401
Si Si2 0.143754 0.274689 0.297674
Si Si3 0.651832 0.428638 0.905914
Si Si4 0.485642 0.550061 0.444834
Si Si5 0.488493 0.292925 0.001112
Si Si6 0.831429 0.969968 0.466656
Si Si7 0.999798 0.695209 0.386261
O O1 0.793443 0.834221 0.703200
O O2 0.932778 0.761510 0.529658
O O3 0.652333 0.106325 0.823519
O O4 0.028039 0.106639 0.016343
O O5 0.350106 0.294430 0.345042
O O6 0.000000 0.500000 0.500000
O O7 0.672403 0.179923 0.644065
O O8 0.500000 0.500000 0.000000
O O9 0.534555 0.503555 0.848769
O O10 0.876091 0.508307 0.098740
O O11 0.500000 0.500000 0.500000
O O12 0.248319 0.635086 0.415507
O O13 0.549244 0.346673 0.185145
O O14 0.268219 0.215001 0.821664
O O15 0.000000 0.000000 0.500000
O O16 0.935253 0.900709 0.526173
#
# Coordination Sequence:
#
# PCOD8033859 Si02
#       7
#     2   2   2   2   2   2   2
#     4  11  25  44  72 100 136 183 239 282 340 418
#     4  11  25  46  69  97 136 187 234 282 342 408
#     4  11  24  44  72 102 139 183 224 285 349 403
#     4  12  27  46  71 101 145 184 229 293 351 406
#     4  11  25  43  69 104 135 180 235 277 337 421
#     4  11  24  42  69  99 140 183 221 280 354 406
#     4  11  26  44  66 109 138 172 240 285 339 420
#
# _framework density 22.276277
#
# number of rings (size 3 to 8) (size 9 to 14) (size 15 to 20)
#    0.000    0.857    1.429    4.286    8.000    9.714 
#    0.000    0.000    0.000    0.000    0.000    0.000 
#    0.000    0.000    0.000    0.000    0.000    0.000 
#
# Total GULP energy -173544.798485 kJ/mol
# GULP energy per Si atom -12396.057035 kJ/mol
# Density = 2.222558 g / cm^3
# Si number density = 22.276277 Si / 1000 Ang^3
#
#
#
# Elastic Constant Matrix: (Units=GPa)
#
#
# Indices 1 2 3 4 5 6 
#
# 1 135.5833 38.6308 27.4180 -7.1244 16.1369 7.4547
# 2 38.6308 110.3997 33.9358 6.1048 17.6724 7.1841
# 3 27.4180 33.9358 84.5037 -0.3919 1.3331 14.8958
# 4 -7.1244 6.1048 -0.3919 38.4123 0.4577 -4.1790
# 5 16.1369 17.6724 1.3331 0.4577 40.4309 0.8106
# 6 7.4547 7.1841 14.8958 -4.1790 0.8106 38.9402
#
#
#
# Elastic Compliance Matrix: (Units=1/GPa)
#
#
# Indices 1 2 3 4 5 6 
#
# 1 0.008796 -0.002189 -0.001873 0.001957 -0.002508 -0.000301
# 2 -0.002189 0.011848 -0.003917 -0.002327 -0.004141 -0.000432
# 3 -0.001873 -0.003917 0.014798 -0.000103 0.002066 -0.004634
# 4 0.001957 -0.002327 -0.000103 0.027093 -0.000128 0.003004
# 5 -0.002508 -0.004141 0.002066 -0.000128 0.027480 -0.000132
# 6 -0.000301 -0.000432 -0.004634 0.003004 -0.000132 0.027915
#
#
# Mechanical properties :
#
#
# Convention : Reuss Voigt Hill
#
# Bulk Modulus (GPa) = 51.32550 58.93956 55.13253
# Shear Modulus (GPa) = 35.61657 38.92348 37.27003
#
# Velocity S-wave (km/s) = 4.00291 4.18461 4.09477
# Velocity P-wave (km/s) = 6.66744 7.06144 6.86727
#
# Compressibility (1/GPa) = 0.01948349
#
# Stress axis : x y z
#
# Youngs Moduli (GPa) = 113.68800 84.40476 67.57560
#
# Poissons Ratio (x) = 0.18479 0.12657
# Poissons Ratio (y) = 0.24889 0.26469
# Poissons Ratio (z) = 0.21294 0.33061
#
# Static dielectric constant tensor:
#      x y z
#    x 4.092300 -0.032120 0.099510 
#    y -0.032120 4.112030 -0.139200 
#    z 0.099510 -0.139200 4.003360 
# 
# 
# High freq. dielectric constant tensor:
#      x y z
#    x 1.889990 -0.003140 0.007320 
#    y -0.003140 1.884270 -0.002840 
#    z 0.007320 -0.002840 1.884580 
# 
# From -- ./inp_files/27819.got.cif
#   From: 2010.06.25/outbox.cif.g09.slc.cpg/sg2_14_cif.got.tgz:27819.got - 2010.06.27 13:26:56.
