data_PCOD8033779
_publ_section_title
;
Structure prediction by ZEFSAII (Michael W. Deem and Ramdas Pophale) SiO2 
 PCOD8033779
Probable space group: P -1
;
_chemical_formula_sum "Si O2"
_cell_formula_units_Z 16
_cell_length_a 9.212526
_cell_length_b 12.056178
_cell_length_c 9.473691
_cell_angle_alpha 119.760293
_cell_angle_beta 128.679522
_cell_angle_gamma 70.577122
_cell_volume 712.697008
_symmetry_space_group_name_H-M "P -1"
_symmetry_group_IT_number 2
_symmetry_cell_setting 'triclinic'
loop_
_space_group_symop_operation_xyz
x,y,z
-x,-y,-z
loop_
_atom_site_type_symbol
_atom_site_label
_atom_site_fract_x
_atom_site_fract_y
_atom_site_fract_z
Si Si1 0.843288 0.646878 0.739051
Si Si2 0.518733 0.793058 0.789530
Si Si3 0.604482 0.061768 0.953587
Si Si4 0.111094 0.728388 0.167657
Si Si5 0.958300 0.993170 0.303452
Si Si6 0.441708 0.862455 0.323772
Si Si7 0.148359 0.640673 0.438614
Si Si8 0.160296 0.220512 0.473334
O O1 0.676602 0.692731 0.770348
O O2 0.805578 0.503552 0.573850
O O3 0.866815 0.738190 0.678260
O O4 0.039533 0.645377 0.941059
O O5 0.321047 0.728390 0.625033
O O6 0.522284 0.922834 0.778399
O O7 0.549656 0.843727 0.002655
O O8 0.667126 0.122436 0.882593
O O9 0.764075 0.052596 0.165305
O O10 0.314755 0.785071 0.305121
O O11 0.108609 0.639570 0.247041
O O12 0.964350 0.846905 0.167863
O O13 0.115216 0.070976 0.366450
O O14 0.000000 0.000000 0.500000
O O15 0.623169 0.770152 0.349737
O O16 0.500000 0.000000 0.500000
O O17 0.968651 0.694683 0.447372
#
# Coordination Sequence:
#
# PCOD8033779 Si02
#       8
#     2   2   2   2   2   2   2   2
#     4  12  27  47  69  99 140 187 235 283 333 414
#     4  11  24  41  74  99 136 177 231 277 353 401
#     4  11  24  42  69 110 142 173 224 293 353 413
#     4  12  25  43  71 104 135 178 234 285 346 411
#     4  12  23  42  73 104 141 174 222 291 358 409
#     4  12  26  41  69 104 147 174 221 286 358 413
#     4  12  26  48  70  97 139 190 234 279 339 412
#     4  12  26  44  70 101 137 183 228 281 351 404
#
# _framework density 22.449933000000001
#
# number of rings (size 3 to 8) (size 9 to 14) (size 15 to 20)
#    0.000    0.250    5.000    4.125    5.250    1.000 
#    0.000    0.625    0.000    0.000    0.000    0.000 
#    0.000    0.000    0.000    0.000    0.000    0.000 
#
# Total GULP energy -198352.022736 kJ/mol
# GULP energy per Si atom -12397.001421 kJ/mol
# Density = 2.239884 g / cm^3
# Si number density = 22.449933 Si / 1000 Ang^3
#
#
#
# Elastic Constant Matrix: (Units=GPa)
#
#
# Indices 1 2 3 4 5 6 
#
# 1 122.9368 27.0093 31.5608 -5.5355 0.3564 -8.6844
# 2 27.0093 80.0325 28.0806 2.8817 -1.3960 4.9628
# 3 31.5608 28.0806 91.3352 -8.8801 4.6263 3.2185
# 4 -5.5355 2.8817 -8.8801 37.7533 6.7143 -7.6601
# 5 0.3564 -1.3960 4.6263 6.7143 30.1960 -4.8647
# 6 -8.6844 4.9628 3.2185 -7.6601 -4.8647 36.3856
#
#
#
# Elastic Compliance Matrix: (Units=1/GPa)
#
#
# Indices 1 2 3 4 5 6 
#
# 1 0.009660 -0.002640 -0.002498 0.001639 0.000309 0.003273
# 2 -0.002640 0.015132 -0.004050 -0.003360 0.001643 -0.002823
# 3 -0.002498 -0.004050 0.013592 0.003515 -0.003172 -0.000930
# 4 0.001639 -0.003360 0.003515 0.030183 -0.006453 0.006030
# 5 0.000309 0.001643 -0.003172 -0.006453 0.035681 0.003542
# 6 0.003273 -0.002823 -0.000930 0.006030 0.003542 0.030475
#
#
# Mechanical properties :
#
#
# Convention : Reuss Voigt Hill
#
# Bulk Modulus (GPa) = 49.98213 51.95622 50.96917
# Shear Modulus (GPa) = 31.29541 34.71056 33.00299
#
# Velocity S-wave (km/s) = 3.73769 3.93635 3.83831
# Velocity P-wave (km/s) = 6.39838 6.62218 6.51124
#
# Compressibility (1/GPa) = 0.02000715
#
# Stress axis : x y z
#
# Youngs Moduli (GPa) = 103.52297 66.08612 73.57122
#
# Poissons Ratio (x) = 0.17448 0.18377
# Poissons Ratio (y) = 0.27332 0.29799
# Poissons Ratio (z) = 0.25858 0.26767
#
# Static dielectric constant tensor:
#      x y z
#    x 4.218230 0.050040 -0.019990 
#    y 0.050040 4.014110 0.020780 
#    z -0.019990 0.020780 3.956400 
# 
# 
# High freq. dielectric constant tensor:
#      x y z
#    x 1.900890 0.003430 -0.002870 
#    y 0.003430 1.873770 -0.001330 
#    z -0.002870 -0.001330 1.880930 
# 
# From -- ./inp_files/190377.got.cif
#   From: 2010.06.25/outbox.cif.g09.slc.cpg/sg2_96_cif.got.tgz:190377.got - 2010.06.27 13:26:56.
