data_PCOD8033887
_publ_section_title
;
Structure prediction by ZEFSAII (Michael W. Deem and Ramdas Pophale) SiO2 
 PCOD8033887
Probable space group: P -1
;
_chemical_formula_sum "Si O2"
_cell_formula_units_Z 16
_cell_length_a 8.883370
_cell_length_b 12.826613
_cell_length_c 8.524860
_cell_angle_alpha 131.800948
_cell_angle_beta 95.484060
_cell_angle_gamma 81.453106
_cell_volume 716.059898
_symmetry_space_group_name_H-M "P -1"
_symmetry_group_IT_number 2
_symmetry_cell_setting 'triclinic'
loop_
_space_group_symop_operation_xyz
x,y,z
-x,-y,-z
loop_
_atom_site_type_symbol
_atom_site_label
_atom_site_fract_x
_atom_site_fract_y
_atom_site_fract_z
Si Si1 0.143315 0.913493 0.000279
Si Si2 0.375826 0.315346 0.753793
Si Si3 0.309816 0.597120 0.204548
Si Si4 0.342417 0.094192 0.058774
Si Si5 0.772107 0.914118 0.316400
Si Si6 0.204590 0.360977 0.469206
Si Si7 0.153414 0.639413 0.564188
Si Si8 0.886684 0.174992 0.742606
O O1 0.213633 0.783166 0.769512
O O2 0.109331 0.859081 0.110700
O O3 0.260205 0.027335 0.129155
O O4 0.000000 0.000000 0.000000
O O5 0.542517 0.316646 0.694122
O O6 0.354176 0.164701 0.681520
O O7 0.251160 0.350600 0.643641
O O8 0.355237 0.433838 0.005796
O O9 0.220172 0.603931 0.364953
O O10 0.191928 0.667353 0.133496
O O11 0.321398 0.258925 0.268545
O O12 0.269630 0.078571 0.864248
O O13 0.500000 0.000000 0.000000
O O14 0.936596 0.830748 0.293273
O O15 0.785895 0.072991 0.533662
O O16 0.218655 0.516953 0.565494
O O17 0.029696 0.330619 0.413046
#
# Coordination Sequence:
#
# PCOD8033887 Si02
#       8
#     2   2   2   2   2   2   2   2
#     4  12  23  44  68 102 139 174 227 281 334 404
#     4  11  26  44  65  99 142 175 224 278 346 412
#     4  11  26  44  66  99 137 181 222 280 343 406
#     4  12  27  43  68 104 141 180 222 277 346 409
#     4  11  24  44  70 100 134 178 226 278 335 403
#     4  11  24  45  70 101 133 180 232 282 335 405
#     4  11  24  44  73  97 133 180 234 282 333 399
#     4  11  24  42  72 100 133 176 228 279 334 396
#
# _framework density 22.344498999999999
#
# number of rings (size 3 to 8) (size 9 to 14) (size 15 to 20)
#    0.000    0.750    2.500    3.750    7.000    5.000 
#    0.000    0.000    0.000    0.000    0.000    0.000 
#    0.000    0.000    0.000    0.000    0.000    0.000 
#
# Total GULP energy -198309.268758 kJ/mol
# GULP energy per Si atom -12394.329297 kJ/mol
# Density = 2.229364 g / cm^3
# Si number density = 22.344499 Si / 1000 Ang^3
#
#
#
# Elastic Constant Matrix: (Units=GPa)
#
#
# Indices 1 2 3 4 5 6 
#
# 1 79.5622 23.7307 11.5257 11.0586 -10.8078 -3.0454
# 2 23.7307 104.1148 23.1877 -5.1247 -6.7463 4.4213
# 3 11.5257 23.1877 95.2064 -4.5010 -9.1268 -6.6214
# 4 11.0586 -5.1247 -4.5010 36.7258 0.6666 -6.2732
# 5 -10.8078 -6.7463 -9.1268 0.6666 33.6871 2.9303
# 6 -3.0454 4.4213 -6.6214 -6.2732 2.9303 35.7468
#
#
#
# Elastic Compliance Matrix: (Units=1/GPa)
#
#
# Indices 1 2 3 4 5 6 
#
# 1 0.014907 -0.003210 -0.000860 -0.005064 0.003981 0.000293
# 2 -0.003210 0.011057 -0.002272 0.001914 0.000686 -0.001782
# 3 -0.000860 -0.002272 0.011625 0.001753 0.002167 0.002491
# 4 -0.005064 0.001914 0.001753 0.030138 -0.001806 0.005094
# 5 0.003981 0.000686 0.002167 -0.001806 0.031921 -0.002278
# 6 0.000293 -0.001782 0.002491 0.005094 -0.002278 0.029762
#
#
# Mechanical properties :
#
#
# Convention : Reuss Voigt Hill
#
# Bulk Modulus (GPa) = 40.15390 43.97464 42.06427
# Shear Modulus (GPa) = 33.24583 35.92787 34.58685
#
# Velocity S-wave (km/s) = 3.86148 4.01422 3.93859
# Velocity P-wave (km/s) = 6.15555 6.41937 6.28884
#
# Compressibility (1/GPa) = 0.02490418
#
# Stress axis : x y z
#
# Youngs Moduli (GPa) = 67.08399 90.44264 86.02263
#
# Poissons Ratio (x) = 0.29030 0.07400
# Poissons Ratio (y) = 0.21532 0.19544
# Poissons Ratio (z) = 0.05771 0.20549
#
# Static dielectric constant tensor:
#      x y z
#    x 3.997270 -0.054320 0.023750 
#    y -0.054320 4.051560 0.164850 
#    z 0.023750 0.164850 4.055160 
# 
# 
# High freq. dielectric constant tensor:
#      x y z
#    x 1.881720 -0.000600 -0.005790 
#    y -0.000600 1.896340 0.003560 
#    z -0.005790 0.003560 1.881860 
# 
# From -- ./inp_files/184136.got.cif
#   From: 2010.06.25/outbox.cif.g09.slc.cpg/sg2_93_cif.got.tgz:184136.got - 2010.06.27 13:26:56.
