data_PCOD8033147
_publ_section_title
;
Structure prediction by ZEFSAII (Michael W. Deem and Ramdas Pophale) SiO2 
 PCOD8033147
Probable space group: P -1
;
_chemical_formula_sum "Si O2"
_cell_formula_units_Z 12
_cell_length_a 6.696970
_cell_length_b 11.845280
_cell_length_c 11.294490
_cell_angle_alpha 38.657289
_cell_angle_beta 125.479299
_cell_angle_gamma 117.636690
_cell_volume 455.656602
_symmetry_space_group_name_H-M "P -1"
_symmetry_group_IT_number 2
_symmetry_cell_setting 'triclinic'
loop_
_space_group_symop_operation_xyz
x,y,z
-x,-y,-z
loop_
_atom_site_type_symbol
_atom_site_label
_atom_site_fract_x
_atom_site_fract_y
_atom_site_fract_z
Si Si1 0.510492 0.907871 0.706918
Si Si2 0.266441 0.483847 0.692684
Si Si3 0.134521 0.283740 0.595632
Si Si4 0.948015 0.122505 0.079919
Si Si5 0.600676 0.206158 0.681878
Si Si6 0.227703 0.637352 0.968197
O O1 0.282540 0.764295 0.767137
O O2 0.770440 0.801283 0.902364
O O3 0.500000 0.000000 0.500000
O O4 0.486665 0.055220 0.680000
O O5 0.209422 0.303608 0.744936
O O6 0.245098 0.647003 0.456931
O O7 0.046793 0.553958 0.645758
O O8 0.532396 0.485228 0.841165
O O9 0.377795 0.308111 0.582355
O O10 0.014456 0.085066 0.697512
O O11 0.802598 0.232604 0.037233
O O12 0.786041 0.118249 0.910229
O O13 0.000000 0.500000 0.000000
#
# Coordination Sequence:
#
# PCOD8033147 Si02
#       6
#     2   2   2   2   2   2
#     4  12  30  52  81 117 161 218 272 329 402 483
#     4  11  26  44  76 127 154 199 267 339 399 464
#     4  11  23  44  79 116 159 200 263 332 398 471
#     4  12  26  48  83 117 155 217 268 332 402 484
#     4  12  24  47  81 121 157 208 270 331 405 477
#     4  12  30  54  80 115 166 215 270 330 402 485
#
# _framework density 26.335621
#
# number of rings (size 3 to 8) (size 9 to 14) (size 15 to 20)
#    0.000    0.333    5.000    2.500    7.000    2.667 
#    0.000    0.000    0.000    0.000    0.000    0.000 
#    0.000    0.000    0.000    0.000    0.000    0.000 
#
# Total GULP energy -148746.944134 kJ/mol
# GULP energy per Si atom -12395.578678 kJ/mol
# Density = 2.627568 g / cm^3
# Si number density = 26.335621 Si / 1000 Ang^3
#
#
#
# Elastic Constant Matrix: (Units=GPa)
#
#
# Indices 1 2 3 4 5 6 
#
# 1 149.9630 45.5332 57.3117 3.9220 20.0562 12.0125
# 2 45.5332 116.3727 57.9937 3.1597 -4.3901 11.3871
# 3 57.3117 57.9937 109.1675 10.1352 17.7235 -9.9889
# 4 3.9220 3.1597 10.1352 33.9076 2.8355 3.9123
# 5 20.0562 -4.3901 17.7235 2.8355 61.1467 -11.0940
# 6 12.0125 11.3871 -9.9889 3.9123 -11.0940 48.4773
#
#
#
# Elastic Compliance Matrix: (Units=1/GPa)
#
#
# Indices 1 2 3 4 5 6 
#
# 1 0.009261 -0.001348 -0.004126 0.000910 -0.002616 -0.003500
# 2 -0.001348 0.013121 -0.007162 0.001273 0.002730 -0.003702
# 3 -0.004126 -0.007162 0.016494 -0.004233 -0.002688 0.005830
# 4 0.000910 0.001273 -0.004233 0.031114 -0.001181 -0.004178
# 5 -0.002616 0.002730 -0.002688 -0.001181 0.018947 0.003884
# 6 -0.003500 -0.003702 0.005830 -0.004178 0.003884 0.024793
#
#
# Mechanical properties :
#
#
# Convention : Reuss Voigt Hill
#
# Bulk Modulus (GPa) = 73.51514 77.46447 75.48980
# Shear Modulus (GPa) = 34.83458 43.01729 38.92593
#
# Velocity S-wave (km/s) = 3.64086 4.04595 3.84874
# Velocity P-wave (km/s) = 6.75647 7.16271 6.96255
#
# Compressibility (1/GPa) = 0.01360264
#
# Stress axis : x y z
#
# Youngs Moduli (GPa) = 107.98160 76.21605 60.62869
#
# Poissons Ratio (x) = 0.10277 0.25013
# Poissons Ratio (y) = 0.14560 0.43424
# Poissons Ratio (z) = 0.44549 0.54588
#
# Static dielectric constant tensor:
#      x y z
#    x 5.267330 -0.054460 0.127400 
#    y -0.054460 4.672450 -0.268590 
#    z 0.127400 -0.268590 4.599260 
# 
# 
# High freq. dielectric constant tensor:
#      x y z
#    x 2.086510 0.002690 0.013700 
#    y 0.002690 2.054340 -0.015580 
#    z 0.013700 -0.015580 2.044440 
# 
# From -- ./inp_files/362618.got.cif
#   From: 2010.06.25/outbox.cif.g09.slc.cpg/sg2_182_cif.got.tgz:362618.got - 2010.06.27 13:26:56.
