data_PCOD8033301
_publ_section_title
;
Structure prediction by ZEFSAII (Michael W. Deem and Ramdas Pophale) SiO2 
 PCOD8033301
Probable space group: P -1
;
_chemical_formula_sum "Si O2"
_cell_formula_units_Z 16
_cell_length_a 9.177434
_cell_length_b 6.854119
_cell_length_c 18.537027
_cell_angle_alpha 125.949294
_cell_angle_beta 124.363750
_cell_angle_gamma 83.861873
_cell_volume 733.940013
_symmetry_space_group_name_H-M "P -1"
_symmetry_group_IT_number 2
_symmetry_cell_setting 'triclinic'
loop_
_space_group_symop_operation_xyz
x,y,z
-x,-y,-z
loop_
_atom_site_type_symbol
_atom_site_label
_atom_site_fract_x
_atom_site_fract_y
_atom_site_fract_z
Si Si1 0.830090 0.080782 0.067654
Si Si2 0.109114 0.468129 0.453317
Si Si3 0.466197 0.377430 0.595108
Si Si4 0.983415 0.676822 0.212057
Si Si5 0.776579 0.031760 0.202925
Si Si6 0.255389 0.821439 0.448244
Si Si7 0.893836 0.213949 0.884566
Si Si8 0.419668 0.110091 0.179000
O O1 0.724735 0.049637 0.108405
O O2 0.915512 0.372660 0.130058
O O3 0.998608 0.969929 0.095548
O O4 0.682841 0.923734 0.933469
O O5 0.300710 0.420291 0.513026
O O6 0.158128 0.727996 0.477309
O O7 0.000000 0.500000 0.500000
O O8 0.979696 0.240203 0.318738
O O9 0.628717 0.362499 0.583350
O O10 0.555060 0.605200 0.725550
O O11 0.389562 0.112084 0.560063
O O12 0.094972 0.808273 0.342531
O O13 0.121335 0.786225 0.206283
O O14 0.797519 0.757486 0.167910
O O15 0.621323 0.078130 0.220325
O O16 0.688420 0.102636 0.838329
O O17 0.000000 0.500000 0.000000
#
# Coordination Sequence:
#
# PCOD8033301 Si02
#       8
#     2   2   2   2   2   2   2   2
#     4  11  24  47  72  98 143 186 230 282 350 413
#     4  12  24  48  69  99 144 182 233 285 347 411
#     4  11  26  44  71 106 136 181 234 292 342 407
#     4  11  23  45  73  98 137 190 229 278 355 413
#     4  11  25  46  69 103 141 189 228 288 345 413
#     4  11  25  46  73 100 137 186 234 281 354 416
#     4  11  25  44  71 104 137 179 233 292 342 406
#     4  12  25  46  70 106 143 177 238 290 342 418
#
# _framework density 21.800149000000001
#
# number of rings (size 3 to 8) (size 9 to 14) (size 15 to 20)
#    0.000    0.750    5.000    1.875    3.500    3.000 
#    4.500    0.000    0.000    0.000    0.000    0.000 
#    0.000    0.000    0.000    0.000    0.000    0.000 
#
# Total GULP energy -198486.973205 kJ/mol
# GULP energy per Si atom -12405.435825 kJ/mol
# Density = 2.175053 g / cm^3
# Si number density = 21.800149 Si / 1000 Ang^3
#
#
#
# Elastic Constant Matrix: (Units=GPa)
#
#
# Indices 1 2 3 4 5 6 
#
# 1 113.6116 61.6624 42.0729 -4.1123 -8.9658 17.4031
# 2 61.6624 145.0408 55.5785 6.1437 -8.0526 13.6868
# 3 42.0729 55.5785 126.8459 13.0004 -4.6454 12.9571
# 4 -4.1123 6.1437 13.0004 43.4797 0.2879 -1.9111
# 5 -8.9658 -8.0526 -4.6454 0.2879 32.0482 -3.2019
# 6 17.4031 13.6868 12.9571 -1.9111 -3.2019 27.0701
#
#
#
# Elastic Compliance Matrix: (Units=1/GPa)
#
#
# Indices 1 2 3 4 5 6 
#
# 1 0.012791 -0.004188 -0.002085 0.002205 0.001730 -0.004747
# 2 -0.004188 0.009897 -0.002710 -0.001033 0.000833 -0.000989
# 3 -0.002085 -0.002710 0.010321 -0.003007 0.000015 -0.002440
# 4 0.002205 -0.001033 -0.003007 0.024353 -0.000072 0.002255
# 5 0.001730 0.000833 0.000015 -0.000072 0.032124 0.002254
# 6 -0.004747 -0.000989 -0.002440 0.002255 0.002254 0.042087
#
#
# Mechanical properties :
#
#
# Convention : Reuss Voigt Hill
#
# Bulk Modulus (GPa) = 66.48137 78.23620 72.35878
# Shear Modulus (GPa) = 32.35161 35.59857 33.97509
#
# Velocity S-wave (km/s) = 3.85646 4.04536 3.95204
# Velocity P-wave (km/s) = 7.09872 7.60170 7.35451
#
# Compressibility (1/GPa) = 0.01504181
#
# Stress axis : x y z
#
# Youngs Moduli (GPa) = 78.18171 101.04199 96.89436
#
# Poissons Ratio (x) = 0.42319 0.20203
# Poissons Ratio (y) = 0.32744 0.26257
# Poissons Ratio (z) = 0.16302 0.27381
#
# Static dielectric constant tensor:
#      x y z
#    x 3.948030 0.024750 -0.041590 
#    y 0.024750 4.051070 0.031280 
#    z -0.041590 0.031280 4.027010 
# 
# 
# High freq. dielectric constant tensor:
#      x y z
#    x 1.856710 0.000660 -0.004400 
#    y 0.000660 1.866220 0.001610 
#    z -0.004400 0.001610 1.864310 
# 
# From -- ./inp_files/476036.got.cif
#   From: 2010.06.25/outbox.cif.g09.slc.cpg/sg2_239_cif.got.tgz:476036.got - 2010.06.27 13:26:56.
