data_PCOD8033118
_publ_section_title
;
Structure prediction by ZEFSAII (Michael W. Deem and Ramdas Pophale) SiO2 
 PCOD8033118
Probable space group: P -1
;
_chemical_formula_sum "Si O2"
_cell_formula_units_Z 16
_cell_length_a 9.230945
_cell_length_b 9.211610
_cell_length_c 20.929731
_cell_angle_alpha 151.205868
_cell_angle_beta 121.078054
_cell_angle_gamma 60.243297
_cell_volume 729.997779
_symmetry_space_group_name_H-M "P -1"
_symmetry_group_IT_number 2
_symmetry_cell_setting 'triclinic'
loop_
_space_group_symop_operation_xyz
x,y,z
-x,-y,-z
loop_
_atom_site_type_symbol
_atom_site_label
_atom_site_fract_x
_atom_site_fract_y
_atom_site_fract_z
Si Si1 0.073296 0.822724 0.145692
Si Si2 0.137588 0.769138 0.412650
Si Si3 0.473586 0.698906 0.214033
Si Si4 0.223596 0.807305 0.704384
Si Si5 0.646635 0.243919 0.422531
Si Si6 0.522629 0.217455 0.943376
Si Si7 0.646788 0.792587 0.422488
Si Si8 0.890097 0.898821 0.877456
O O1 0.268236 0.787427 0.202182
O O2 0.057045 0.969398 0.127730
O O3 0.959989 0.039536 0.253703
O O4 0.000000 0.500000 0.000000
O O5 0.262395 0.680112 0.463499
O O6 0.072763 0.465623 0.252615
O O7 0.213760 0.970942 0.454325
O O8 0.000000 0.000000 0.500000
O O9 0.569690 0.690351 0.299412
O O10 0.563321 0.928338 0.276956
O O11 0.522820 0.359438 0.068827
O O12 0.228433 0.730141 0.599775
O O13 0.276083 0.496975 0.632992
O O14 0.362555 0.032764 0.834875
O O15 0.500000 0.500000 0.500000
O O16 0.691874 0.997558 0.882978
O O17 0.500000 0.500000 0.000000
O O18 0.500000 0.000000 0.500000
O O19 0.000000 0.000000 0.000000
#
# Coordination Sequence:
#
# PCOD8033118 Si02
#       8
#     2   2   2   2   2   2   2   2
#     4  12  25  44  64 109 143 174 231 295 351 402
#     4  11  26  48  69 100 138 181 233 282 342 422
#     4  11  24  44  70  94 141 189 231 285 344 426
#     4  12  24  42  73 107 139 180 229 295 351 403
#     4  11  23  44  74  96 133 189 239 275 343 425
#     4  12  22  44  71 100 137 188 238 277 348 422
#     4  11  26  45  68  99 138 177 231 290 351 404
#     4  12  28  46  74 101 140 189 236 282 346 427
#
# _framework density 21.917874000000001
#
# number of rings (size 3 to 8) (size 9 to 14) (size 15 to 20)
#    0.000    0.500    3.750    4.500    5.250    3.500 
#    0.000    3.750    0.000    0.000    0.000    0.000 
#    0.000    0.000    0.000    0.000    0.000    0.000 
#
# Total GULP energy -198241.322621 kJ/mol
# GULP energy per Si atom -12390.082664 kJ/mol
# Density = 2.186799 g / cm^3
# Si number density = 21.917874 Si / 1000 Ang^3
#
#
#
# Elastic Constant Matrix: (Units=GPa)
#
#
# Indices 1 2 3 4 5 6 
#
# 1 122.7482 -4.1906 18.6695 27.2836 -6.1404 3.2158
# 2 -4.1906 -10.1101 -14.7801 53.3590 37.5455 1.3609
# 3 18.6695 -14.7801 114.0780 37.1304 16.2838 5.9812
# 4 27.2836 53.3590 37.1304 24.4356 -16.7283 2.3214
# 5 -6.1404 37.5455 16.2838 -16.7283 40.8260 12.4874
# 6 3.2158 1.3609 5.9812 2.3214 12.4874 40.3208
#
#
#
# Elastic Compliance Matrix: (Units=1/GPa)
#
#
# Indices 1 2 3 4 5 6 
#
# 1 0.008938 -0.001684 -0.001370 -0.002061 0.002980 -0.001257
# 2 -0.001684 0.000555 -0.004640 0.012632 0.006892 -0.002058
# 3 -0.001370 -0.004640 0.008155 0.000341 0.001373 -0.001389
# 4 -0.002061 0.012632 0.000341 0.008690 -0.009117 0.002011
# 5 0.002980 0.006892 0.001373 -0.009117 0.015870 -0.005064
# 6 -0.001257 -0.002058 -0.001389 0.002011 -0.005064 0.026629
#
#
# Mechanical properties :
#
#
# Convention : Reuss Voigt Hill
#
# Bulk Modulus (GPa) = 442.41410 25.12374 233.76892
# Shear Modulus (GPa) = 58.83917 36.25097 47.54507
#
# Velocity S-wave (km/s) = 5.18687 4.07128 4.66256
# Velocity P-wave (km/s) = 15.43245 5.79552 11.65651
#
# Compressibility (1/GPa) = 0.00226033
#
# Stress axis : x y z
#
# Youngs Moduli (GPa) = 111.88645 1800.86274 122.62974
#
# Poissons Ratio (x) = 3.03339 0.16794
# Poissons Ratio (y) = 0.18846 0.56897
# Poissons Ratio (z) = 0.15323 8.35547
#
# Static dielectric constant tensor:
#      x y z
#    x 4.613150 0.128480 -0.071260 
#    y 0.128480 3.917440 0.190050 
#    z -0.071260 0.190050 4.408560 
# 
# 
# High freq. dielectric constant tensor:
#      x y z
#    x 1.880380 -0.002150 -0.006000 
#    y -0.002150 1.864480 0.004970 
#    z -0.006000 0.004970 1.884810 
# 
# From -- ./inp_files/224399.got.cif
#   From: 2010.06.25/outbox.cif.g09.slc.cpg/sg2_113_cif.got.tgz:224399.got - 2010.06.27 13:26:56.
