data_PCOD8033011
_publ_section_title
;
Structure prediction by ZEFSAII (Michael W. Deem and Ramdas Pophale) SiO2 
 PCOD8033011
Probable space group: P -1
;
_chemical_formula_sum "Si O2"
_cell_formula_units_Z 12
_cell_length_a 14.255896
_cell_length_b 13.888733
_cell_length_c 10.804407
_cell_angle_alpha 30.829535
_cell_angle_beta 150.912853
_cell_angle_gamma 150.528536
_cell_volume 466.832288
_symmetry_space_group_name_H-M "P -1"
_symmetry_group_IT_number 2
_symmetry_cell_setting 'triclinic'
loop_
_space_group_symop_operation_xyz
x,y,z
-x,-y,-z
loop_
_atom_site_type_symbol
_atom_site_label
_atom_site_fract_x
_atom_site_fract_y
_atom_site_fract_z
Si Si1 0.782495 0.402160 0.716354
Si Si2 0.560774 0.892266 0.525638
Si Si3 0.959753 0.169368 0.341205
Si Si4 0.490913 0.262433 0.099906
Si Si5 0.004431 0.032505 0.791858
Si Si6 0.947721 0.582298 0.222023
O O1 0.539365 0.280963 0.509672
O O2 0.818705 0.603925 0.620866
O O3 0.968664 0.487547 0.727059
O O4 0.795570 0.225625 0.015295
O O5 0.442813 0.762548 0.656454
O O6 0.497389 0.078969 0.224932
O O7 0.828344 0.992956 0.742196
O O8 0.867561 0.049966 0.497699
O O9 0.000000 0.000000 0.500000
O O10 0.681012 0.487080 0.016917
O O11 0.247302 0.245837 0.839984
O O12 0.060005 0.838434 0.063909
O O13 0.000000 0.500000 0.500000
#
# Coordination Sequence:
#
# PCOD8033011 Si02
#       6
#     2   2   2   2   2   2
#     4  11  24  47  77 109 148 198 248 307 371 430
#     4  11  23  45  71 107 147 196 243 306 369 443
#     4  11  24  48  75 105 151 194 255 307 360 447
#     4  11  23  44  71 105 157 190 239 308 367 441
#     4  12  26  44  72 110 145 197 253 291 375 446
#     4  12  23  45  75 108 151 192 241 307 369 439
#
# _framework density 25.705162000000001
#
# number of rings (size 3 to 8) (size 9 to 14) (size 15 to 20)
#    0.000    0.667    5.000    2.500    2.333    2.667 
#    0.000    5.000    0.000    0.000    0.000    0.000 
#    0.000    0.000    0.000    0.000    0.000    0.000 
#
# Total GULP energy -148706.256253 kJ/mol
# GULP energy per Si atom -12392.188021 kJ/mol
# Density = 2.564666 g / cm^3
# Si number density = 25.705162 Si / 1000 Ang^3
#
#
#
# Elastic Constant Matrix: (Units=GPa)
#
#
# Indices 1 2 3 4 5 6 
#
# 1 47.1187 25.1311 25.8642 -3.1290 4.7518 -2.2865
# 2 25.1311 129.1922 29.5560 17.0510 17.3621 0.7693
# 3 25.8642 29.5560 96.2606 -5.5623 -7.5477 -1.2647
# 4 -3.1290 17.0510 -5.5623 38.5302 7.6406 10.7467
# 5 4.7518 17.3621 -7.5477 7.6406 43.5627 0.2198
# 6 -2.2865 0.7693 -1.2647 10.7467 0.2198 59.7225
#
#
#
# Elastic Compliance Matrix: (Units=1/GPa)
#
#
# Indices 1 2 3 4 5 6 
#
# 1 0.027275 -0.003962 -0.006142 0.003604 -0.003094 0.000328
# 2 -0.003962 0.010150 -0.002570 -0.004687 -0.003239 0.000518
# 3 -0.006142 -0.002570 0.013220 0.001900 0.003653 -0.000277
# 4 0.003604 -0.004687 0.001900 0.030776 -0.003567 -0.005286
# 5 -0.003094 -0.003239 0.003653 -0.003567 0.025840 0.000547
# 6 0.000328 0.000518 -0.000277 -0.005286 0.000547 0.017693
#
#
# Mechanical properties :
#
#
# Convention : Reuss Voigt Hill
#
# Bulk Modulus (GPa) = 39.53023 48.18601 43.85812
# Shear Modulus (GPa) = 31.49904 41.16442 36.33173
#
# Velocity S-wave (km/s) = 3.50437 4.00610 3.76360
# Velocity P-wave (km/s) = 5.63789 6.33915 5.99877
#
# Compressibility (1/GPa) = 0.02529710
#
# Stress axis : x y z
#
# Youngs Moduli (GPa) = 36.66357 98.52400 75.64113
#
# Poissons Ratio (x) = 0.39039 0.46458
# Poissons Ratio (y) = 0.14527 0.19438
# Poissons Ratio (z) = 0.22519 0.25318
#
# Static dielectric constant tensor:
#      x y z
#    x 4.776990 0.093530 -0.368290 
#    y 0.093530 4.732870 -0.131620 
#    z -0.368290 -0.131620 4.729770 
# 
# 
# High freq. dielectric constant tensor:
#      x y z
#    x 2.011080 -0.001140 -0.009570 
#    y -0.001140 2.034320 -0.007640 
#    z -0.009570 -0.007640 2.031230 
# 
# From -- ./inp_files/454422.got.cif
#   From: 2010.06.25/outbox.cif.g09.slc.cpg/sg2_228_cif.got.tgz:454422.got - 2010.06.27 13:26:56.
