data_PCOD8033873
_publ_section_title
;
Structure prediction by ZEFSAII (Michael W. Deem and Ramdas Pophale) SiO2 
 PCOD8033873
Probable space group: P -1
;
_chemical_formula_sum "Si O2"
_cell_formula_units_Z 16
_cell_length_a 6.817841
_cell_length_b 17.645529
_cell_length_c 9.836151
_cell_angle_alpha 82.869564
_cell_angle_beta 138.260761
_cell_angle_gamma 90.575404
_cell_volume 775.568842
_symmetry_space_group_name_H-M "P -1"
_symmetry_group_IT_number 2
_symmetry_cell_setting 'triclinic'
loop_
_space_group_symop_operation_xyz
x,y,z
-x,-y,-z
loop_
_atom_site_type_symbol
_atom_site_label
_atom_site_fract_x
_atom_site_fract_y
_atom_site_fract_z
Si Si1 0.784780 0.204316 0.574183
Si Si2 0.291114 0.964359 0.502903
Si Si3 0.662003 0.054264 0.167924
Si Si4 0.257520 0.692761 0.725650
Si Si5 0.637600 0.538687 0.937509
Si Si6 0.428625 0.288041 0.607181
Si Si7 0.446793 0.221121 0.922555
Si Si8 0.303481 0.554396 0.282763
O O1 0.805316 0.112933 0.593296
O O2 0.711956 0.239890 0.380572
O O3 0.529612 0.235931 0.540839
O O4 0.102038 0.224956 0.784089
O O5 0.457084 0.948144 0.737764
O O6 0.500000 0.000000 0.500000
O O7 0.010420 0.028047 0.360216
O O8 0.624064 0.139577 0.070108
O O9 0.500000 0.000000 0.000000
O O10 0.421055 0.614298 0.764027
O O11 0.920032 0.682289 0.589816
O O12 0.421092 0.711252 0.944250
O O13 0.653044 0.478152 0.838105
O O14 0.500000 0.500000 0.000000
O O15 0.958649 0.559779 0.143185
O O16 0.493464 0.234723 0.784391
O O17 0.607882 0.360507 0.687060
O O18 0.500000 0.500000 0.500000
#
# Coordination Sequence:
#
# PCOD8033873 Si02
#       8
#     2   2   2   2   2   2   2   2
#     4  11  24  43  62  95 131 170 212 268 320 382
#     4  11  26  41  67  96 128 169 219 266 323 382
#     4  11  24  45  66  92 132 168 215 271 321 380
#     4  11  24  43  64  93 129 173 209 266 322 379
#     4  11  24  42  70  95 130 169 218 257 321 382
#     4  11  26  40  66  97 131 167 218 261 323 381
#     4  11  24  43  65  92 131 172 215 265 326 380
#     4  11  24  44  66 100 131 168 212 270 312 381
#
# _framework density 20.630019000000001
#
# number of rings (size 3 to 8) (size 9 to 14) (size 15 to 20)
#    0.000    1.000    2.500    3.000    3.500    9.500 
#    0.000    0.000    0.000    0.000    0.000    0.000 
#    0.000    0.000    0.000    0.000    0.000    0.000 
#
# Total GULP energy -198507.192442 kJ/mol
# GULP energy per Si atom -12406.699528 kJ/mol
# Density = 2.058306 g / cm^3
# Si number density = 20.630019 Si / 1000 Ang^3
#
#
#
# Elastic Constant Matrix: (Units=GPa)
#
#
# Indices 1 2 3 4 5 6 
#
# 1 142.5981 40.0142 51.2493 0.1668 2.4154 8.6001
# 2 40.0142 92.2820 29.1653 -7.0724 -0.1273 3.7352
# 3 51.2493 29.1653 109.5633 1.5954 4.0394 6.4294
# 4 0.1668 -7.0724 1.5954 43.1844 -6.0848 -0.6879
# 5 2.4154 -0.1273 4.0394 -6.0848 26.1244 -4.5772
# 6 8.6001 3.7352 6.4294 -0.6879 -4.5772 36.4906
#
#
#
# Elastic Compliance Matrix: (Units=1/GPa)
#
#
# Indices 1 2 3 4 5 6 
#
# 1 0.009133 -0.002871 -0.003395 -0.000498 -0.000687 -0.001356
# 2 -0.002871 0.012958 -0.002182 0.002383 0.001209 -0.000069
# 3 -0.003395 -0.002182 0.011457 -0.001060 -0.001935 -0.001258
# 4 -0.000498 0.002383 -0.001060 0.024475 0.006149 0.001293
# 5 -0.000687 0.001209 -0.001935 0.006149 0.041069 0.005647
# 6 -0.001356 -0.000069 -0.001258 0.001293 0.005647 0.028685
#
#
# Mechanical properties :
#
#
# Convention : Reuss Voigt Hill
#
# Bulk Modulus (GPa) = 60.05672 65.03347 62.54509
# Shear Modulus (GPa) = 33.28397 36.09420 34.68908
#
# Velocity S-wave (km/s) = 4.02104 4.18736 4.10504
# Velocity P-wave (km/s) = 7.12270 7.41423 7.26993
#
# Compressibility (1/GPa) = 0.01665093
#
# Stress axis : x y z
#
# Youngs Moduli (GPa) = 109.49670 77.17322 87.28488
#
# Poissons Ratio (x) = 0.22158 0.29637
# Poissons Ratio (y) = 0.31438 0.19042
# Poissons Ratio (z) = 0.37179 0.16836
#
# Static dielectric constant tensor:
#      x y z
#    x 3.768260 0.118020 0.016270 
#    y 0.118020 3.411560 -0.118670 
#    z 0.016270 -0.118670 3.934480 
# 
# 
# High freq. dielectric constant tensor:
#      x y z
#    x 1.814210 -0.000620 -0.002550 
#    y -0.000620 1.820770 -0.002670 
#    z -0.002550 -0.002670 1.818710 
# 
# From -- ./inp_files/13128.got.cif
#   From: 2010.06.25/outbox.cif.g09.slc.cpg/sg2_7_cif.got.tgz:13128.got - 2010.06.27 13:26:56.
