data_PCOD8033332
_publ_section_title
;
Structure prediction by ZEFSAII (Michael W. Deem and Ramdas Pophale) SiO2 
 PCOD8033332
Probable space group: P -1
;
_chemical_formula_sum "Si O2"
_cell_formula_units_Z 14
_cell_length_a 21.003802
_cell_length_b 12.015290
_cell_length_c 15.300132
_cell_angle_alpha 36.569125
_cell_angle_beta 160.276377
_cell_angle_gamma 152.564975
_cell_volume 587.279295
_symmetry_space_group_name_H-M "P -1"
_symmetry_group_IT_number 2
_symmetry_cell_setting 'triclinic'
loop_
_space_group_symop_operation_xyz
x,y,z
-x,-y,-z
loop_
_atom_site_type_symbol
_atom_site_label
_atom_site_fract_x
_atom_site_fract_y
_atom_site_fract_z
Si Si1 0.271134 0.313793 0.384890
Si Si2 0.447187 0.620587 0.983582
Si Si3 0.687305 0.151928 0.456838
Si Si4 0.410522 0.669988 0.488813
Si Si5 0.839562 0.579620 0.500041
Si Si6 0.663401 0.932596 0.229340
Si Si7 0.917463 0.862550 0.106815
O O1 0.500000 0.500000 0.500000
O O2 0.263284 0.478843 0.338556
O O3 0.284797 0.129746 0.571941
O O4 0.025409 0.122519 0.127276
O O5 0.438455 0.819305 0.804343
O O6 0.176190 0.344930 0.808992
O O7 0.636491 0.600998 0.192484
O O8 0.526347 0.694062 0.141106
O O9 0.844621 0.405504 0.553160
O O10 0.864705 0.097165 0.691602
O O11 0.462827 0.918701 0.371454
O O12 0.219570 0.535252 0.407357
O O13 0.682403 0.760437 0.806385
O O14 0.102509 0.850947 0.662442
O O15 0.500000 0.000000 0.000000
#
# Coordination Sequence:
#
# PCOD8033332 Si02
#       7
#     2   2   2   2   2   2   2
#     4  12  25  44  74 106 143 184 242 292 366 414
#     4  11  24  45  69 102 147 190 239 297 356 420
#     4  12  23  43  71 106 143 187 249 284 359 432
#     4  11  26  48  70 108 150 188 236 303 361 425
#     4  11  25  46  72 100 149 192 233 299 361 426
#     4  12  25  46  75 106 142 184 247 299 352 432
#     4  11  23  45  75 102 142 192 239 299 355 418
#
# _framework density 23.838742
#
# number of rings (size 3 to 8) (size 9 to 14) (size 15 to 20)
#    0.000    0.571    4.286    4.714    0.000    1.143 
#    0.000    2.143    0.000    0.000    0.000    0.000 
#    0.000    0.000    0.000    0.000    0.000    0.000 
#
# Total GULP energy -173570.318638 kJ/mol
# GULP energy per Si atom -12397.879903 kJ/mol
# Density = 2.378448 g / cm^3
# Si number density = 23.838742 Si / 1000 Ang^3
#
#
#
# Elastic Constant Matrix: (Units=GPa)
#
#
# Indices 1 2 3 4 5 6 
#
# 1 99.7863 41.5775 38.5914 12.7967 -7.2297 17.5253
# 2 41.5775 149.4317 40.3968 18.6571 -6.7311 17.4367
# 3 38.5914 40.3968 38.9105 13.1517 2.1654 2.8858
# 4 12.7967 18.6571 13.1517 38.5279 0.3995 -5.9078
# 5 -7.2297 -6.7311 2.1654 0.3995 26.9925 9.4744
# 6 17.5253 17.4367 2.8858 -5.9078 9.4744 65.9905
#
#
#
# Elastic Compliance Matrix: (Units=1/GPa)
#
#
# Indices 1 2 3 4 5 6 
#
# 1 0.019033 0.001351 -0.019950 -0.001174 0.009144 -0.005957
# 2 0.001351 0.010281 -0.011308 -0.002158 0.005095 -0.003506
# 3 -0.019950 -0.011308 0.059943 -0.007089 -0.015409 0.007242
# 4 -0.001174 -0.002158 -0.007089 0.030483 -0.002223 0.004240
# 5 0.009144 0.005095 -0.015409 -0.002223 0.045486 -0.009830
# 6 -0.005957 -0.003506 0.007242 0.004240 -0.009830 0.019136
#
#
# Mechanical properties :
#
#
# Convention : Reuss Voigt Hill
#
# Bulk Modulus (GPa) = 33.96353 58.80665 46.38509
# Shear Modulus (GPa) = 19.68575 37.47306 28.57940
#
# Velocity S-wave (km/s) = 2.87677 3.96907 3.46622
# Velocity P-wave (km/s) = 5.03116 6.76216 5.95984
#
# Compressibility (1/GPa) = 0.02944335
#
# Stress axis : x y z
#
# Youngs Moduli (GPa) = 52.53978 97.26662 16.68260
#
# Poissons Ratio (x) = -0.13141 0.33282
# Poissons Ratio (y) = -0.07098 0.18865
# Poissons Ratio (z) = 1.04816 1.09989
#
# Static dielectric constant tensor:
#      x y z
#    x 4.702000 -0.133400 -0.181290 
#    y -0.133400 4.388340 -0.053740 
#    z -0.181290 -0.053740 3.991050 
# 
# 
# High freq. dielectric constant tensor:
#      x y z
#    x 1.955060 0.008860 -0.010450 
#    y 0.008860 1.975990 0.003830 
#    z -0.010450 0.003830 1.917040 
# 
# From -- ./inp_files/243799.got.cif
#   From: 2010.06.25/outbox.cif.g09.slc.cpg/sg2_122_cif.got.tgz:243799.got - 2010.06.27 13:26:56.
