data_PCOD8033331
_publ_section_title
;
Structure prediction by ZEFSAII (Michael W. Deem and Ramdas Pophale) SiO2 
 PCOD8033331
Probable space group: P -1
;
_chemical_formula_sum "Si O2"
_cell_formula_units_Z 16
_cell_length_a 8.857072
_cell_length_b 14.398187
_cell_length_c 14.917714
_cell_angle_alpha 30.089549
_cell_angle_beta 64.960773
_cell_angle_gamma 82.544973
_cell_volume 737.818959
_symmetry_space_group_name_H-M "P -1"
_symmetry_group_IT_number 2
_symmetry_cell_setting 'triclinic'
loop_
_space_group_symop_operation_xyz
x,y,z
-x,-y,-z
loop_
_atom_site_type_symbol
_atom_site_label
_atom_site_fract_x
_atom_site_fract_y
_atom_site_fract_z
Si Si1 0.203249 0.004902 0.185444
Si Si2 0.007690 0.522160 0.584821
Si Si3 0.056607 0.140789 0.457135
Si Si4 0.987468 0.874410 0.018364
Si Si5 0.572274 0.304758 0.940083
Si Si6 0.473643 0.331728 0.271929
Si Si7 0.314457 0.940813 0.759621
Si Si8 0.131620 0.552877 0.009770
O O1 0.158226 0.768244 0.368282
O O2 0.080964 0.995772 0.311463
O O3 0.434030 0.151979 0.022881
O O4 0.161928 0.118040 0.018898
O O5 0.081344 0.373910 0.734556
O O6 0.793592 0.456121 0.726618
O O7 0.000000 0.500000 0.500000
O O8 0.277809 0.215373 0.360702
O O9 0.034616 0.348755 0.272303
O O10 0.000000 0.000000 0.500000
O O11 0.201795 0.992075 0.821389
O O12 0.000000 0.000000 0.000000
O O13 0.491247 0.454457 0.866607
O O14 0.558994 0.151641 0.152774
O O15 0.654451 0.400114 0.105279
O O16 0.466280 0.163553 0.487216
O O17 0.154119 0.762178 0.879910
O O18 0.000000 0.500000 0.000000
#
# Coordination Sequence:
#
# PCOD8033331 Si02
#       8
#     2   2   2   2   2   2   2   2
#     4  12  25  46  74 104 141 187 237 288 356 424
#     4  11  23  47  74 100 144 183 232 300 357 409
#     4  12  24  43  71 100 144 192 234 286 355 422
#     4  11  23  45  75 102 136 184 235 294 354 418
#     4  11  26  44  70 105 140 186 236 288 351 426
#     4  12  24  46  70  98 148 188 235 291 356 414
#     4  11  24  45  67  98 143 182 232 294 350 415
#     4  12  27  42  67 106 142 186 245 290 350 431
#
# _framework density 21.685537
#
# number of rings (size 3 to 8) (size 9 to 14) (size 15 to 20)
#    0.000    0.500    5.000    3.000    5.250    1.500 
#    0.000    0.625    0.000    0.000    0.000    0.000 
#    0.000    0.000    0.000    0.000    0.000    0.000 
#
# Total GULP energy -198497.943291 kJ/mol
# GULP energy per Si atom -12406.121456 kJ/mol
# Density = 2.163618 g / cm^3
# Si number density = 21.685537 Si / 1000 Ang^3
#
#
#
# Elastic Constant Matrix: (Units=GPa)
#
#
# Indices 1 2 3 4 5 6 
#
# 1 100.9006 31.0522 41.2978 -12.2891 15.8923 20.7515
# 2 31.0522 134.9617 31.6271 -13.0745 4.0000 8.0950
# 3 41.2978 31.6271 92.0264 -15.7997 24.7251 8.5680
# 4 -12.2891 -13.0745 -15.7997 38.6971 7.2106 3.1114
# 5 15.8923 4.0000 24.7251 7.2106 42.7334 -0.6079
# 6 20.7515 8.0950 8.5680 3.1114 -0.6079 38.7477
#
#
#
# Elastic Compliance Matrix: (Units=1/GPa)
#
#
# Indices 1 2 3 4 5 6 
#
# 1 0.014358 -0.001565 -0.003549 0.003865 -0.003890 -0.006949
# 2 -0.001565 0.008407 -0.002105 0.001384 0.000772 -0.000552
# 3 -0.003549 -0.002105 0.017223 0.007175 -0.009690 -0.002196
# 4 0.003865 0.001384 0.007175 0.033138 -0.011407 -0.006786
# 5 -0.003890 0.000772 -0.009690 -0.011407 0.032385 0.005489
# 6 -0.006949 -0.000552 -0.002196 -0.006786 0.005489 0.030761
#
#
# Mechanical properties :
#
#
# Convention : Reuss Voigt Hill
#
# Bulk Modulus (GPa) = 39.14218 59.53811 49.34015
# Shear Modulus (GPa) = 31.40170 38.96309 35.18240
#
# Velocity S-wave (km/s) = 3.80945 4.24339 4.03226
# Velocity P-wave (km/s) = 6.11869 7.17797 6.66939
#
# Compressibility (1/GPa) = 0.02554789
#
# Stress axis : x y z
#
# Youngs Moduli (GPa) = 69.64825 118.94403 58.06353
#
# Poissons Ratio (x) = 0.18616 0.20610
# Poissons Ratio (y) = 0.10901 0.12224
# Poissons Ratio (z) = 0.24721 0.25041
#
# Static dielectric constant tensor:
#      x y z
#    x 3.927960 0.078500 0.289560 
#    y 0.078500 3.953210 -0.067440 
#    z 0.289560 -0.067440 4.111420 
# 
# 
# High freq. dielectric constant tensor:
#      x y z
#    x 1.850880 0.004720 0.020820 
#    y 0.004720 1.861450 -0.003000 
#    z 0.020820 -0.003000 1.858540 
# 
# From -- ./inp_files/218516.got.cif
#   From: 2010.06.25/outbox.cif.g09.slc.cpg/sg2_110_cif.got.tgz:218516.got - 2010.06.27 13:26:56.
