data_PCOD8033626
_publ_section_title
;
Structure prediction by ZEFSAII (Michael W. Deem and Ramdas Pophale) SiO2 
 PCOD8033626
Probable space group: P -1
;
_chemical_formula_sum "Si O2"
_cell_formula_units_Z 16
_cell_length_a 9.076803
_cell_length_b 23.305144
_cell_length_c 19.956330
_cell_angle_alpha 20.263551
_cell_angle_beta 149.252610
_cell_angle_gamma 149.098674
_cell_volume 714.767488
_symmetry_space_group_name_H-M "P -1"
_symmetry_group_IT_number 2
_symmetry_cell_setting 'triclinic'
loop_
_space_group_symop_operation_xyz
x,y,z
-x,-y,-z
loop_
_atom_site_type_symbol
_atom_site_label
_atom_site_fract_x
_atom_site_fract_y
_atom_site_fract_z
Si Si1 0.736456 0.839824 0.422919
Si Si2 0.832371 0.136494 0.230212
Si Si3 0.305074 0.015771 0.256560
Si Si4 0.810071 0.334810 0.880242
Si Si5 0.405960 0.313153 0.072500
Si Si6 0.635523 0.981676 0.001843
Si Si7 0.885257 0.288842 0.391382
Si Si8 0.243210 0.395853 0.197759
O O1 0.449560 0.889253 0.226555
O O2 0.640704 0.659402 0.625301
O O3 0.954347 0.826817 0.461868
O O4 0.922875 0.997819 0.369956
O O5 0.520635 0.043474 0.246951
O O6 0.097892 0.214513 0.301170
O O7 0.798714 0.295701 0.997917
O O8 0.443947 0.155583 0.215445
O O9 0.269722 0.825349 0.480888
O O10 0.992907 0.036054 0.084989
O O11 0.867265 0.540301 0.670243
O O12 0.071145 0.272872 0.013634
O O13 0.496635 0.220351 0.850673
O O14 0.638850 0.347028 0.188291
O O15 0.478768 0.485087 0.866289
O O16 0.500000 0.000000 0.000000
O O17 0.000000 0.500000 0.000000
#
# Coordination Sequence:
#
# PCOD8033626 Si02
#       8
#     2   2   2   2   2   2   2   2
#     4  11  24  42  69  96 134 182 222 270 338 397
#     4  11  24  43  68 102 138 177 218 281 342 396
#     4  12  25  43  72  97 136 180 228 274 335 394
#     4  11  25  44  72  98 137 180 223 275 337 400
#     4  12  24  42  70 101 140 174 218 282 344 401
#     4  11  23  49  69  93 136 183 228 273 324 405
#     4  12  24  43  68 106 132 175 228 277 339 402
#     4  12  22  41  68 104 140 168 218 284 343 397
#
# _framework density 22.384903000000001
#
# number of rings (size 3 to 8) (size 9 to 14) (size 15 to 20)
#    0.000    0.500    6.250    1.875    1.750    4.500 
#    0.000    0.625    2.750    0.000    0.000    0.000 
#    0.000    0.000    0.000    0.000    0.000    0.000 
#
# Total GULP energy -198462.535585 kJ/mol
# GULP energy per Si atom -12403.908474 kJ/mol
# Density = 2.233395 g / cm^3
# Si number density = 22.384903 Si / 1000 Ang^3
#
#
#
# Elastic Constant Matrix: (Units=GPa)
#
#
# Indices 1 2 3 4 5 6 
#
# 1 102.8962 22.9717 29.6250 -17.4676 -11.1584 9.3268
# 2 22.9717 85.5333 32.2515 -10.3247 -8.1415 -0.8472
# 3 29.6250 32.2515 107.7749 -19.2704 -24.2255 -2.3388
# 4 -17.4676 -10.3247 -19.2704 29.4858 -0.8832 -3.5359
# 5 -11.1584 -8.1415 -24.2255 -0.8832 50.4219 -9.7549
# 6 9.3268 -0.8472 -2.3388 -3.5359 -9.7549 36.0664
#
#
#
# Elastic Compliance Matrix: (Units=1/GPa)
#
#
# Indices 1 2 3 4 5 6 
#
# 1 0.011790 -0.001879 -0.001559 0.005058 0.001185 -0.002378
# 2 -0.001879 0.013640 -0.003123 0.001746 0.000493 0.000908
# 3 -0.001559 -0.003123 0.013512 0.007451 0.006487 0.003691
# 4 0.005058 0.001746 0.007451 0.043228 0.006760 0.005283
# 5 0.001185 0.000493 0.006487 0.006760 0.024863 0.007513
# 6 -0.002378 0.000908 0.003691 0.005283 0.007513 0.031152
#
#
# Mechanical properties :
#
#
# Convention : Reuss Voigt Hill
#
# Bulk Modulus (GPa) = 38.72922 51.76676 45.24799
# Shear Modulus (GPa) = 31.26698 37.28522 34.27610
#
# Velocity S-wave (km/s) = 3.74142 4.08565 3.91732
# Velocity P-wave (km/s) = 6.00028 6.74038 6.38107
#
# Compressibility (1/GPa) = 0.02582029
#
# Stress axis : x y z
#
# Youngs Moduli (GPa) = 84.82121 73.31378 74.00695
#
# Poissons Ratio (x) = 0.13772 0.11541
# Poissons Ratio (y) = 0.15934 0.23110
# Poissons Ratio (z) = 0.13227 0.22894
#
# Static dielectric constant tensor:
#      x y z
#    x 4.213530 -0.069690 -0.208530 
#    y -0.069690 3.999670 -0.110760 
#    z -0.208530 -0.110760 4.072540 
# 
# 
# High freq. dielectric constant tensor:
#      x y z
#    x 1.895500 -0.006900 -0.012130 
#    y -0.006900 1.867240 -0.019160 
#    z -0.012130 -0.019160 1.882070 
# 
# From -- ./inp_files/355333.got.cif
#   From: 2010.06.25/outbox.cif.g09.slc.cpg/sg2_178_cif.got.tgz:355333.got - 2010.06.27 13:26:56.
