data_PCOD8033347
_publ_section_title
;
Structure prediction by ZEFSAII (Michael W. Deem and Ramdas Pophale) SiO2 
 PCOD8033347
Probable space group: P -1
;
_chemical_formula_sum "Si O2"
_cell_formula_units_Z 12
_cell_length_a 8.491361
_cell_length_b 8.077241
_cell_length_c 8.837861
_cell_angle_alpha 71.980420
_cell_angle_beta 51.611457
_cell_angle_gamma 75.919651
_cell_volume 450.748478
_symmetry_space_group_name_H-M "P -1"
_symmetry_group_IT_number 2
_symmetry_cell_setting 'triclinic'
loop_
_space_group_symop_operation_xyz
x,y,z
-x,-y,-z
loop_
_atom_site_type_symbol
_atom_site_label
_atom_site_fract_x
_atom_site_fract_y
_atom_site_fract_z
Si Si1 0.276292 0.432603 0.001273
Si Si2 0.706254 0.118172 0.511670
Si Si3 0.730398 0.740983 0.265381
Si Si4 0.517308 0.874626 0.882986
Si Si5 0.098344 0.565743 0.575656
Si Si6 0.835097 0.171095 0.090365
O O1 0.447701 0.332058 0.035366
O O2 0.060949 0.397491 0.206845
O O3 0.296354 0.341903 0.856101
O O4 0.281058 0.637564 0.914115
O O5 0.472333 0.151829 0.594399
O O6 0.780051 0.259068 0.551104
O O7 0.834773 0.109494 0.283136
O O8 0.709424 0.931165 0.650351
O O9 0.746772 0.592158 0.424348
O O10 0.936127 0.848863 0.108364
O O11 0.308702 0.932588 0.903736
O O12 0.500000 0.000000 0.000000
O O13 0.000000 0.500000 0.500000
#
# Coordination Sequence:
#
# PCOD8033347 Si02
#       6
#     2   2   2   2   2   2
#     4  11  23  49  72 101 143 189 236 295 349 423
#     4  12  25  46  73 103 148 186 236 290 361 425
#     4  11  23  45  76 102 139 189 240 294 346 420
#     4  12  28  44  69 112 146 186 231 300 362 414
#     4  11  25  43  75 113 136 185 247 292 350 423
#     4  11  25  49  73 100 140 195 246 281 352 429
#
# _framework density 26.622387
#
# number of rings (size 3 to 8) (size 9 to 14) (size 15 to 20)
#    0.000    0.667    5.000    2.500    7.000    1.333 
#    0.000    0.000    0.000    0.000    0.000    0.000 
#    0.000    0.000    0.000    0.000    0.000    0.000 
#
# Total GULP energy -148719.095927 kJ/mol
# GULP energy per Si atom -12393.257994 kJ/mol
# Density = 2.656179 g / cm^3
# Si number density = 26.622387 Si / 1000 Ang^3
#
#
#
# Elastic Constant Matrix: (Units=GPa)
#
#
# Indices 1 2 3 4 5 6 
#
# 1 110.7263 25.3370 23.6969 -3.2004 15.7052 13.4320
# 2 25.3370 71.4872 41.6416 0.4649 8.2499 -2.9496
# 3 23.6969 41.6416 104.6435 -7.1037 13.9904 3.6801
# 4 -3.2004 0.4649 -7.1037 36.1184 -7.4208 -4.1502
# 5 15.7052 8.2499 13.9904 -7.4208 43.6082 -4.0640
# 6 13.4320 -2.9496 3.6801 -4.1502 -4.0640 38.9179
#
#
#
# Elastic Compliance Matrix: (Units=1/GPa)
#
#
# Indices 1 2 3 4 5 6 
#
# 1 0.010942 -0.003326 -0.000541 -0.000339 -0.003605 -0.004390
# 2 -0.003326 0.019530 -0.007217 -0.001642 -0.000171 0.003118
# 3 -0.000541 -0.007217 0.013068 0.001921 -0.002459 -0.001648
# 4 -0.000339 -0.001642 0.001921 0.029519 0.005166 0.003498
# 5 -0.003605 -0.000171 -0.002459 0.005166 0.026374 0.004769
# 6 -0.004390 0.003118 -0.001648 0.003498 0.004769 0.028473
#
#
# Mechanical properties :
#
#
# Convention : Reuss Voigt Hill
#
# Bulk Modulus (GPa) = 46.78974 52.02310 49.40642
# Shear Modulus (GPa) = 31.80681 36.80764 34.30723
#
# Velocity S-wave (km/s) = 3.46025 3.72234 3.59369
# Velocity P-wave (km/s) = 5.79465 6.16912 5.98481
#
# Compressibility (1/GPa) = 0.02137221
#
# Stress axis : x y z
#
# Youngs Moduli (GPa) = 91.38948 51.20260 76.52406
#
# Poissons Ratio (x) = 0.17030 0.04140
# Poissons Ratio (y) = 0.30396 0.55227
# Poissons Ratio (z) = 0.04945 0.36953
#
# Static dielectric constant tensor:
#      x y z
#    x 4.911140 -0.626720 0.741620 
#    y -0.626720 4.441020 0.838590 
#    z 0.741620 0.838590 2.437670 
# 
# 
# High freq. dielectric constant tensor:
#      x y z
#    x 2.076080 -0.002030 0.004080 
#    y -0.002030 2.089160 -0.015670 
#    z 0.004080 -0.015670 2.072000 
# 
# From -- ./inp_files/146035.got.cif
#   From: 2010.06.25/outbox.cif.g09.slc.cpg/sg2_74_cif.got.tgz:146035.got - 2010.06.27 13:26:56.
