data_PCOD8033636
_publ_section_title
;
Structure prediction by ZEFSAII (Michael W. Deem and Ramdas Pophale) SiO2 
 PCOD8033636
Probable space group: P -1
;
_chemical_formula_sum "Si O2"
_cell_formula_units_Z 12
_cell_length_a 10.193526
_cell_length_b 8.707116
_cell_length_c 9.679036
_cell_angle_alpha 134.462887
_cell_angle_beta 72.036200
_cell_angle_gamma 78.926482
_cell_volume 466.105068
_symmetry_space_group_name_H-M "P -1"
_symmetry_group_IT_number 2
_symmetry_cell_setting 'triclinic'
loop_
_space_group_symop_operation_xyz
x,y,z
-x,-y,-z
loop_
_atom_site_type_symbol
_atom_site_label
_atom_site_fract_x
_atom_site_fract_y
_atom_site_fract_z
Si Si1 0.375065 0.927324 0.099633
Si Si2 0.849308 0.602994 0.719214
Si Si3 0.472802 0.214920 0.754319
Si Si4 0.922243 0.909225 0.079697
Si Si5 0.869393 0.184023 0.781619
Si Si6 0.662630 0.363469 0.616964
O O1 0.486136 0.911714 0.184995
O O2 0.200382 0.978910 0.242313
O O3 0.328040 0.155800 0.148566
O O4 0.487595 0.643659 0.803106
O O5 0.817840 0.381560 0.624538
O O6 0.000000 0.500000 0.500000
O O7 0.898826 0.689404 0.893566
O O8 0.617770 0.260674 0.701165
O O9 0.500000 0.000000 0.500000
O O10 0.283486 0.499832 0.002504
O O11 0.029829 0.794584 0.112590
O O12 0.728167 0.167037 0.341449
O O13 0.000000 0.000000 0.000000
O O14 0.000000 0.000000 0.500000
#
# Coordination Sequence:
#
# PCOD8033636 Si02
#       6
#     2   2   2   2   2   2
#     4  11  24  47  73 105 149 192 247 313 371 440
#     4  12  26  45  76 109 151 194 245 310 374 441
#     4  11  27  47  76 109 146 201 253 309 375 446
#     4  12  24  46  75 111 146 198 251 300 377 451
#     4  11  23  49  78 105 152 200 252 312 371 449
#     4  11  25  49  72 106 150 193 249 305 372 441
#
# _framework density 25.745267999999999
#
# number of rings (size 3 to 8) (size 9 to 14) (size 15 to 20)
#    0.000    0.667    3.333    4.500    4.667    0.667 
#    0.000    1.667    0.000    0.000    0.000    0.000 
#    0.000    0.000    0.000    0.000    0.000    0.000 
#
# Total GULP energy -148777.314377 kJ/mol
# GULP energy per Si atom -12398.109531 kJ/mol
# Density = 2.568667 g / cm^3
# Si number density = 25.745268 Si / 1000 Ang^3
#
#
#
# Elastic Constant Matrix: (Units=GPa)
#
#
# Indices 1 2 3 4 5 6 
#
# 1 126.6824 44.8929 61.4869 -6.8978 19.2115 -3.1824
# 2 44.8929 103.9246 36.3650 -14.6469 12.4761 -11.4793
# 3 61.4869 36.3650 206.6805 -11.5553 1.5773 -4.4560
# 4 -6.8978 -14.6469 -11.5553 32.9768 3.6608 5.0784
# 5 19.2115 12.4761 1.5773 3.6608 56.3069 -8.3667
# 6 -3.1824 -11.4793 -4.4560 5.0784 -8.3667 53.1973
#
#
#
# Elastic Compliance Matrix: (Units=1/GPa)
#
#
# Indices 1 2 3 4 5 6 
#
# 1 0.010827 -0.003462 -0.002591 0.000277 -0.002993 -0.000814
# 2 -0.003462 0.012419 -0.000860 0.004399 -0.001575 0.001733
# 3 -0.002591 -0.000860 0.005813 0.000987 0.000876 0.000190
# 4 0.000277 0.004399 0.000987 0.033511 -0.003681 -0.002730
# 5 -0.002993 -0.001575 0.000876 -0.003681 0.019793 0.003019
# 6 -0.000814 0.001733 0.000190 -0.002730 0.003019 0.019875
#
#
# Mechanical properties :
#
#
# Convention : Reuss Voigt Hill
#
# Bulk Modulus (GPa) = 65.64528 80.30857 72.97693
# Shear Modulus (GPa) = 41.27435 48.13238 44.70337
#
# Velocity S-wave (km/s) = 4.00832 4.32853 4.17150
# Velocity P-wave (km/s) = 6.85387 7.49952 7.18395
#
# Compressibility (1/GPa) = 0.01523339
#
# Stress axis : x y z
#
# Youngs Moduli (GPa) = 92.36467 80.52123 172.02554
#
# Poissons Ratio (x) = 0.27874 0.44573
# Poissons Ratio (y) = 0.31974 0.14793
# Poissons Ratio (z) = 0.23932 0.06924
#
# Static dielectric constant tensor:
#      x y z
#    x 4.872440 0.095320 -0.264430 
#    y 0.095320 4.913550 0.090880 
#    z -0.264430 0.090880 5.086700 
# 
# 
# High freq. dielectric constant tensor:
#      x y z
#    x 2.037340 0.006490 -0.022430 
#    y 0.006490 2.031190 -0.007720 
#    z -0.022430 -0.007720 2.054720 
# 
# From -- ./inp_files/232889.got.cif
#   From: 2010.06.25/outbox.cif.g09.slc.cpg/sg2_117_cif.got.tgz:232889.got - 2010.06.27 13:26:56.
