data_PCOD8033045
_publ_section_title
;
Structure prediction by ZEFSAII (Michael W. Deem and Ramdas Pophale) SiO2 
 PCOD8033045
Probable space group: P -1
;
_chemical_formula_sum "Si O2"
_cell_formula_units_Z 12
_cell_length_a 8.870681
_cell_length_b 14.822444
_cell_length_c 12.280136
_cell_angle_alpha 27.757716
_cell_angle_beta 129.484962
_cell_angle_gamma 134.090244
_cell_volume 539.138669
_symmetry_space_group_name_H-M "P -1"
_symmetry_group_IT_number 2
_symmetry_cell_setting 'triclinic'
loop_
_space_group_symop_operation_xyz
x,y,z
-x,-y,-z
loop_
_atom_site_type_symbol
_atom_site_label
_atom_site_fract_x
_atom_site_fract_y
_atom_site_fract_z
Si Si1 0.345459 0.007675 0.822009
Si Si2 0.798879 0.286666 0.137032
Si Si3 0.685981 0.394469 0.475813
Si Si4 0.569813 0.635122 0.990871
Si Si5 0.082514 0.950624 0.367185
Si Si6 0.997263 0.214288 0.718862
O O1 0.287779 0.819408 0.907392
O O2 0.456048 0.234288 0.575099
O O3 0.125951 0.996186 0.782447
O O4 0.500000 0.000000 0.000000
O O5 0.612790 0.338084 0.050284
O O6 0.868021 0.128813 0.409811
O O7 0.000000 0.500000 0.000000
O O8 0.835097 0.263654 0.670661
O O9 0.780269 0.589674 0.393112
O O10 0.687278 0.509771 0.241607
O O11 0.721223 0.853827 0.785722
O O12 0.500000 0.500000 0.000000
O O13 0.066391 0.794641 0.427013
O O14 0.000000 0.000000 0.000000
#
# Coordination Sequence:
#
# PCOD8033045 Si02
#       6
#     2   2   2   2   2   2
#     4  12  28  45  71 107 148 193 243 301 364 430
#     4  12  27  48  72 105 151 194 243 301 365 434
#     4  11  25  43  71 103 147 181 243 297 361 424
#     4  12  24  44  75 104 139 191 246 299 364 433
#     4  12  25  45  73 102 148 188 248 297 364 432
#     4  11  23  44  72 106 140 190 237 299 359 432
#
# _framework density 22.257724
#
# number of rings (size 3 to 8) (size 9 to 14) (size 15 to 20)
#    0.000    0.333    1.667    7.000    7.000    0.667 
#    0.000    0.000    0.000    0.000    0.000    0.000 
#    0.000    0.000    0.000    0.000    0.000    0.000 
#
# Total GULP energy -148720.773976 kJ/mol
# GULP energy per Si atom -12393.397831 kJ/mol
# Density = 2.220706 g / cm^3
# Si number density = 22.257724 Si / 1000 Ang^3
#
#
#
# Elastic Constant Matrix: (Units=GPa)
#
#
# Indices 1 2 3 4 5 6 
#
# 1 109.4027 61.9198 39.5200 -22.2466 0.9108 7.0664
# 2 61.9198 200.7735 60.2588 -17.5213 -10.2999 -22.4178
# 3 39.5200 60.2588 129.2200 -2.8502 -1.3287 -1.0696
# 4 -22.2466 -17.5213 -2.8502 54.8651 6.9350 -7.1114
# 5 0.9108 -10.2999 -1.3287 6.9350 37.8621 -0.8604
# 6 7.0664 -22.4178 -1.0696 -7.1114 -0.8604 45.9857
#
#
#
# Elastic Compliance Matrix: (Units=1/GPa)
#
#
# Indices 1 2 3 4 5 6 
#
# 1 0.012919 -0.003405 -0.002325 0.003889 -0.002102 -0.003137
# 2 -0.003405 0.007412 -0.002334 0.001183 0.001897 0.004301
# 3 -0.002325 -0.002334 0.009503 -0.001289 -0.000027 -0.000759
# 4 0.003889 0.001183 -0.001289 0.020973 -0.003587 0.003125
# 5 -0.002102 0.001897 -0.000027 -0.003587 0.027662 0.001210
# 6 -0.003137 0.004301 -0.000759 0.003125 0.001210 0.024813
#
#
# Mechanical properties :
#
#
# Convention : Reuss Voigt Hill
#
# Bulk Modulus (GPa) = 72.96018 84.75480 78.85749
# Shear Modulus (GPa) = 40.32978 46.25575 43.29277
#
# Velocity S-wave (km/s) = 4.26131 4.56366 4.41508
# Velocity P-wave (km/s) = 7.55398 8.11978 7.84198
#
# Compressibility (1/GPa) = 0.01370611
#
# Stress axis : x y z
#
# Youngs Moduli (GPa) = 77.40792 134.91362 105.22869
#
# Poissons Ratio (x) = 0.45940 0.24464
# Poissons Ratio (y) = 0.26359 0.24559
# Poissons Ratio (z) = 0.17996 0.31487
#
# Static dielectric constant tensor:
#      x y z
#    x 4.038790 -0.088320 -0.081260 
#    y -0.088320 4.609150 -0.045570 
#    z -0.081260 -0.045570 4.128660 
# 
# 
# High freq. dielectric constant tensor:
#      x y z
#    x 1.880570 -0.000510 -0.001800 
#    y -0.000510 1.907420 -0.004730 
#    z -0.001800 -0.004730 1.886740 
# 
# From -- ./inp_files/26102.got.cif
#   From: 2010.06.25/outbox.cif.g09.slc.cpg/sg2_14_cif.got.tgz:26102.got - 2010.06.27 13:26:56.
