data_PCOD8033171
_publ_section_title
;
Structure prediction by ZEFSAII (Michael W. Deem and Ramdas Pophale) SiO2 
 PCOD8033171
Probable space group: P -1
;
_chemical_formula_sum "Si O2"
_cell_formula_units_Z 16
_cell_length_a 15.888431
_cell_length_b 9.629335
_cell_length_c 18.979329
_cell_angle_alpha 27.815225
_cell_angle_beta 142.346712
_cell_angle_gamma 145.261545
_cell_volume 748.733936
_symmetry_space_group_name_H-M "P -1"
_symmetry_group_IT_number 2
_symmetry_cell_setting 'triclinic'
loop_
_space_group_symop_operation_xyz
x,y,z
-x,-y,-z
loop_
_atom_site_type_symbol
_atom_site_label
_atom_site_fract_x
_atom_site_fract_y
_atom_site_fract_z
Si Si1 0.777833 0.773619 0.347568
Si Si2 0.658408 0.222868 0.145946
Si Si3 0.141102 0.658636 0.072286
Si Si4 0.865275 0.888220 0.593378
Si Si5 0.608637 0.093968 0.324205
Si Si6 0.148808 0.046491 0.038774
Si Si7 0.302928 0.650351 0.386503
Si Si8 0.616366 0.728761 0.116109
O O1 0.716163 0.440005 0.502845
O O2 0.669366 0.676379 0.251465
O O3 0.760429 0.065466 0.247512
O O4 0.953652 0.887625 0.391484
O O5 0.569985 0.020825 0.247673
O O6 0.765139 0.572297 0.093807
O O7 0.548876 0.266429 0.994723
O O8 0.179165 0.365313 0.257410
O O9 0.100570 0.834470 0.031335
O O10 0.000000 0.500000 0.000000
O O11 0.278373 0.914979 0.003974
O O12 0.805947 0.687719 0.572013
O O13 0.775187 0.113636 0.444220
O O14 0.610527 0.440843 0.190309
O O15 0.478746 0.788324 0.416696
O O16 0.251008 0.937294 0.206807
O O17 0.000000 0.000000 0.000000
#
# Coordination Sequence:
#
# PCOD8033171 Si02
#       8
#     2   2   2   2   2   2   2   2
#     4  12  27  44  68 100 144 176 223 279 348 396
#     4  12  23  46  71  97 134 181 230 282 326 406
#     4  11  23  45  68 100 138 171 228 278 340 399
#     4  11  24  44  72 100 132 180 225 281 332 408
#     4  12  25  45  72  99 134 177 233 274 336 404
#     4  11  24  42  72 100 132 178 232 280 328 399
#     4  11  24  44  67 103 133 177 227 277 336 406
#     4  12  26  46  66 102 136 182 222 285 340 397
#
# _framework density 21.369408
#
# number of rings (size 3 to 8) (size 9 to 14) (size 15 to 20)
#    0.000    0.500    5.000    4.500    3.500    1.000 
#    2.250    0.000    0.000    0.000    0.000    0.000 
#    0.000    0.000    0.000    0.000    0.000    0.000 
#
# Total GULP energy -198433.481908 kJ/mol
# GULP energy per Si atom -12402.092619 kJ/mol
# Density = 2.132077 g / cm^3
# Si number density = 21.369408 Si / 1000 Ang^3
#
#
#
# Elastic Constant Matrix: (Units=GPa)
#
#
# Indices 1 2 3 4 5 6 
#
# 1 88.2682 28.8039 41.9979 11.9115 -6.6857 11.5624
# 2 28.8039 85.6638 24.4063 16.5117 -4.1092 8.4197
# 3 41.9979 24.4063 88.6233 17.5504 1.3842 -1.6895
# 4 11.9115 16.5117 17.5504 35.9849 -1.7476 -4.4979
# 5 -6.6857 -4.1092 1.3842 -1.7476 49.1706 2.5783
# 6 11.5624 8.4197 -1.6895 -4.4979 2.5783 33.4948
#
#
#
# Elastic Compliance Matrix: (Units=1/GPa)
#
#
# Indices 1 2 3 4 5 6 
#
# 1 0.016694 -0.002623 -0.007043 -0.001498 0.002503 -0.005853
# 2 -0.002623 0.014485 -0.001776 -0.005319 0.000904 -0.003609
# 3 -0.007043 -0.001776 0.016068 -0.004377 -0.001884 0.003245
# 4 -0.001498 -0.005319 -0.004377 0.033643 0.000350 0.006124
# 5 0.002503 0.000904 -0.001884 0.000350 0.020963 -0.002753
# 6 -0.005853 -0.003609 0.003245 0.006124 -0.002753 0.033981
#
#
# Mechanical properties :
#
#
# Convention : Reuss Voigt Hill
#
# Bulk Modulus (GPa) = 41.04338 50.33016 45.68677
# Shear Modulus (GPa) = 29.96906 34.88656 32.42781
#
# Velocity S-wave (km/s) = 3.74896 4.04486 3.89972
# Velocity P-wave (km/s) = 6.16344 6.73930 6.45779
#
# Compressibility (1/GPa) = 0.02436446
#
# Stress axis : x y z
#
# Youngs Moduli (GPa) = 59.90044 69.03818 62.23409
#
# Poissons Ratio (x) = 0.18107 0.43832
# Poissons Ratio (y) = 0.15711 0.11050
# Poissons Ratio (z) = 0.42189 0.12258
#
# Static dielectric constant tensor:
#      x y z
#    x 6.273160 1.122680 -1.954820 
#    y 1.122680 2.075130 -2.336120 
#    z -1.954820 -2.336120 4.412090 
# 
# 
# High freq. dielectric constant tensor:
#      x y z
#    x 1.834180 0.011440 -0.004780 
#    y 0.011440 1.832800 0.001540 
#    z -0.004780 0.001540 1.857550 
# 
# From -- ./inp_files/185123.got.cif
#   From: 2010.06.25/outbox.cif.g09.slc.cpg/sg2_93_cif.got.tgz:185123.got - 2010.06.27 13:26:56.
