data_PCOD8033344
_publ_section_title
;
Structure prediction by ZEFSAII (Michael W. Deem and Ramdas Pophale) SiO2 
 PCOD8033344
Probable space group: P -1
;
_chemical_formula_sum "Si O2"
_cell_formula_units_Z 16
_cell_length_a 7.969555
_cell_length_b 20.215402
_cell_length_c 20.784034
_cell_angle_alpha 160.726591
_cell_angle_beta 131.349180
_cell_angle_gamma 40.918321
_cell_volume 702.127083
_symmetry_space_group_name_H-M "P -1"
_symmetry_group_IT_number 2
_symmetry_cell_setting 'triclinic'
loop_
_space_group_symop_operation_xyz
x,y,z
-x,-y,-z
loop_
_atom_site_type_symbol
_atom_site_label
_atom_site_fract_x
_atom_site_fract_y
_atom_site_fract_z
Si Si1 0.494201 0.430660 0.161531
Si Si2 0.002095 0.971222 0.717791
Si Si3 0.614415 0.706596 0.600796
Si Si4 0.364361 0.844089 0.426131
Si Si5 0.055323 0.746564 0.797284
Si Si6 0.624086 0.959426 0.708714
Si Si7 0.714959 0.506856 0.103856
Si Si8 0.986577 0.763896 0.393919
O O1 0.376077 0.607486 0.233670
O O2 0.793621 0.342010 0.176902
O O3 0.304041 0.585588 0.315213
O O4 0.468732 0.212348 0.936093
O O5 0.318983 0.831212 0.667173
O O6 0.892365 0.902967 0.565363
O O7 0.897119 0.907503 0.696789
O O8 0.891151 0.251807 0.948391
O O9 0.757971 0.423417 0.369826
O O10 0.663599 0.776983 0.606498
O O11 0.777776 0.760823 0.743812
O O12 0.432138 0.963373 0.609711
O O13 0.588859 0.732837 0.326713
O O14 0.089139 0.042354 0.504670
O O15 0.000000 0.000000 0.000000
O O16 0.890249 0.587695 0.185055
O O17 0.500000 0.500000 0.000000
#
# Coordination Sequence:
#
# PCOD8033344 Si02
#       8
#     2   2   2   2   2   2   2   2
#     4  12  25  44  70 101 136 183 235 287 347 415
#     4  12  24  44  73 104 138 187 236 280 344 419
#     4  11  25  45  73 103 137 181 229 290 354 414
#     4  12  24  42  65 100 144 181 231 286 338 406
#     4  11  23  45  75  97 140 182 221 292 365 404
#     4  12  24  44  71 101 141 183 231 290 341 405
#     4  12  24  41  65  97 140 187 232 278 343 406
#     4  12  25  42  68  98 142 189 232 278 341 417
#
# _framework density 22.787897999999998
#
# number of rings (size 3 to 8) (size 9 to 14) (size 15 to 20)
#    0.000    0.250    7.500    2.250    0.000    0.500 
#    0.000    3.125    2.750    0.000    0.000    0.000 
#    0.000    0.000    0.000    0.000    0.000    0.000 
#
# Total GULP energy -198257.437914 kJ/mol
# GULP energy per Si atom -12391.089870 kJ/mol
# Density = 2.273603 g / cm^3
# Si number density = 22.787898 Si / 1000 Ang^3
#
#
#
# Elastic Constant Matrix: (Units=GPa)
#
#
# Indices 1 2 3 4 5 6 
#
# 1 55.5040 29.5885 12.0732 18.0647 4.4681 6.8409
# 2 29.5885 103.9087 44.2013 3.2585 -2.0331 -16.6283
# 3 12.0732 44.2013 131.9235 2.3563 4.5273 -7.2419
# 4 18.0647 3.2585 2.3563 33.5608 -1.8235 -3.5227
# 5 4.4681 -2.0331 4.5273 -1.8235 38.4582 -1.2372
# 6 6.8409 -16.6283 -7.2419 -3.5227 -1.2372 32.0581
#
#
#
# Elastic Compliance Matrix: (Units=1/GPa)
#
#
# Indices 1 2 3 4 5 6 
#
# 1 0.032069 -0.011276 0.000551 -0.018067 -0.005719 -0.014774
# 2 -0.011276 0.016116 -0.004004 0.006082 0.003264 0.010655
# 3 0.000551 -0.004004 0.008913 -0.000640 -0.001365 -0.000304
# 4 -0.018067 0.006082 -0.000640 0.040442 0.004783 0.011494
# 5 -0.005719 0.003264 -0.001365 0.004783 0.027361 0.004187
# 6 -0.014774 0.010655 -0.000304 0.011494 0.004187 0.041229
#
#
# Mechanical properties :
#
#
# Convention : Reuss Voigt Hill
#
# Bulk Modulus (GPa) = 36.17745 51.45137 43.81441
# Shear Modulus (GPa) = 24.41396 34.51365 29.46381
#
# Velocity S-wave (km/s) = 3.27671 3.89596 3.59967
# Velocity P-wave (km/s) = 5.49781 6.54716 6.04530
#
# Compressibility (1/GPa) = 0.02764153
#
# Stress axis : x y z
#
# Youngs Moduli (GPa) = 31.18247 62.05010 112.19948
#
# Poissons Ratio (x) = 0.69966 -0.06183
# Poissons Ratio (y) = 0.35161 0.44919
# Poissons Ratio (z) = -0.01718 0.24842
#
# Static dielectric constant tensor:
#      x y z
#    x 4.126210 -0.080120 -0.102700 
#    y -0.080120 4.144510 0.082590 
#    z -0.102700 0.082590 4.405160 
# 
# 
# High freq. dielectric constant tensor:
#      x y z
#    x 1.882580 -0.012990 0.004810 
#    y -0.012990 1.891610 0.002140 
#    z 0.004810 0.002140 1.926700 
# 
# From -- ./inp_files/591722.got.cif
#   From: 2010.06.25/outbox.cif.g09.slc.cpg/sg2_296_cif.got.tgz:591722.got - 2010.06.27 13:26:56.
