data_PCOD8033151
_publ_section_title
;
Structure prediction by ZEFSAII (Michael W. Deem and Ramdas Pophale) SiO2 
 PCOD8033151
Probable space group: P -1
;
_chemical_formula_sum "Si O2"
_cell_formula_units_Z 16
_cell_length_a 9.568546
_cell_length_b 13.638341
_cell_length_c 6.653178
_cell_angle_alpha 97.490025
_cell_angle_beta 99.998843
_cell_angle_gamma 111.153501
_cell_volume 779.623817
_symmetry_space_group_name_H-M "P -1"
_symmetry_group_IT_number 2
_symmetry_cell_setting 'triclinic'
loop_
_space_group_symop_operation_xyz
x,y,z
-x,-y,-z
loop_
_atom_site_type_symbol
_atom_site_label
_atom_site_fract_x
_atom_site_fract_y
_atom_site_fract_z
Si Si1 0.463558 0.752212 0.315625
Si Si2 0.968022 0.121305 0.337290
Si Si3 0.214614 0.121970 0.714902
Si Si4 0.137178 0.259373 0.059897
Si Si5 0.200751 0.735248 0.523975
Si Si6 0.439378 0.379072 0.385016
Si Si7 0.046431 0.425972 0.844627
Si Si8 0.684478 0.370744 0.144366
O O1 0.606764 0.853544 0.288132
O O2 0.356506 0.789438 0.444175
O O3 0.544208 0.686032 0.437329
O O4 0.352689 0.676210 0.099737
O O5 0.876842 0.179264 0.455299
O O6 0.122081 0.133423 0.498953
O O7 0.007920 0.169667 0.137245
O O8 0.857104 0.997639 0.247704
O O9 0.212619 0.203385 0.909548
O O10 0.262232 0.338722 0.264958
O O11 0.059861 0.327348 0.940016
O O12 0.238866 0.701185 0.742387
O O13 0.084871 0.624111 0.367866
O O14 0.500000 0.500000 0.500000
O O15 0.530448 0.362800 0.212786
O O16 0.205247 0.502634 0.799057
O O17 0.000000 0.500000 0.000000
#
# Coordination Sequence:
#
# PCOD8033151 Si02
#       8
#     2   2   2   2   2   2   2   2
#     4  11  23  45  63  96 134 168 218 267 326 389
#     4  11  25  45  70  96 126 171 224 276 331 375
#     4  11  24  46  71  94 127 172 220 281 327 380
#     4  12  24  42  68  99 131 170 219 270 325 389
#     4  11  25  43  65  97 133 175 217 268 320 391
#     4  11  25  37  63  97 132 172 211 264 325 391
#     4  12  24  40  64  96 134 177 212 258 321 395
#     4  11  24  41  64  91 137 175 212 262 321 390
#
# _framework density 20.522718000000001
#
# number of rings (size 3 to 8) (size 9 to 14) (size 15 to 20)
#    0.000    0.750    5.000    2.250    5.250    1.500 
#    0.000    0.625    0.000    0.000    0.000    0.000 
#    0.000    0.000    0.000    0.000    0.000    0.000 
#
# Total GULP energy -198488.595105 kJ/mol
# GULP energy per Si atom -12405.537194 kJ/mol
# Density = 2.047601 g / cm^3
# Si number density = 20.522718 Si / 1000 Ang^3
#
#
#
# Elastic Constant Matrix: (Units=GPa)
#
#
# Indices 1 2 3 4 5 6 
#
# 1 82.8902 38.9195 17.9256 -6.1908 0.7944 15.7721
# 2 38.9195 107.0328 21.1363 -3.8749 -8.0636 16.2593
# 3 17.9256 21.1363 80.9894 -2.7960 -3.2749 9.3753
# 4 -6.1908 -3.8749 -2.7960 34.1687 5.3426 -3.0903
# 5 0.7944 -8.0636 -3.2749 5.3426 22.7287 2.8164
# 6 15.7721 16.2593 9.3753 -3.0903 2.8164 35.5977
#
#
#
# Elastic Compliance Matrix: (Units=1/GPa)
#
#
# Indices 1 2 3 4 5 6 
#
# 1 0.015657 -0.004872 -0.001776 0.002193 -0.002570 -0.003850
# 2 -0.004872 0.012297 -0.001552 -0.000699 0.004907 -0.003498
# 3 -0.001776 -0.001552 0.013470 0.000144 0.001688 -0.002173
# 4 0.002193 -0.000699 0.000144 0.031075 -0.007935 0.002635
# 5 -0.002570 0.004907 0.001688 -0.007935 0.048691 -0.006088
# 6 -0.003850 -0.003498 -0.002173 0.002635 -0.006088 0.032678
#
#
# Mechanical properties :
#
#
# Convention : Reuss Voigt Hill
#
# Bulk Modulus (GPa) = 39.96162 47.43057 43.69610
# Shear Modulus (GPa) = 27.99418 31.36110 29.67764
#
# Velocity S-wave (km/s) = 3.69732 3.91335 3.80687
# Velocity P-wave (km/s) = 6.14338 6.60156 6.37658
#
# Compressibility (1/GPa) = 0.02502401
#
# Stress axis : x y z
#
# Youngs Moduli (GPa) = 63.87033 81.32346 74.23816
#
# Poissons Ratio (x) = 0.39618 0.13188
# Poissons Ratio (y) = 0.31115 0.11519
# Poissons Ratio (z) = 0.11346 0.12618
#
# Static dielectric constant tensor:
#      x y z
#    x 2.720740 0.029820 0.385050 
#    y 0.029820 3.825440 0.001740 
#    z 0.385050 0.001740 3.657980 
# 
# 
# High freq. dielectric constant tensor:
#      x y z
#    x 1.811020 0.010960 0.000130 
#    y 0.010960 1.798010 -0.005730 
#    z 0.000130 -0.005730 1.813120 
# 
# From -- ./inp_files/39461.got.cif
#   From: 2010.06.25/outbox.cif.g09.slc.cpg/sg2_20_cif.got.tgz:39461.got - 2010.06.27 13:26:56.
