data_PCOD8033389
_publ_section_title
;
Structure prediction by ZEFSAII (Michael W. Deem and Ramdas Pophale) SiO2 
 PCOD8033389
Probable space group: P -1
;
_chemical_formula_sum "Si O2"
_cell_formula_units_Z 14
_cell_length_a 10.015774
_cell_length_b 6.892272
_cell_length_c 18.108786
_cell_angle_alpha 131.564827
_cell_angle_beta 134.150789
_cell_angle_gamma 47.358489
_cell_volume 614.777799
_symmetry_space_group_name_H-M "P -1"
_symmetry_group_IT_number 2
_symmetry_cell_setting 'triclinic'
loop_
_space_group_symop_operation_xyz
x,y,z
-x,-y,-z
loop_
_atom_site_type_symbol
_atom_site_label
_atom_site_fract_x
_atom_site_fract_y
_atom_site_fract_z
Si Si1 0.881421 0.865074 0.970747
Si Si2 0.963377 0.236234 0.841377
Si Si3 0.469572 0.282397 0.877207
Si Si4 0.690648 0.581222 0.589898
Si Si5 0.090980 0.133353 0.706069
Si Si6 0.560883 0.212801 0.730674
Si Si7 0.793368 0.488525 0.441882
O O1 0.988495 0.530196 0.916161
O O2 0.645533 0.976810 0.886768
O O3 0.901445 0.943023 0.083689
O O4 0.000000 0.000000 0.000000
O O5 0.729463 0.301004 0.781725
O O6 0.045673 0.063098 0.754295
O O7 0.249846 0.279364 0.802475
O O8 0.496805 0.361639 0.823313
O O9 0.500000 0.500000 0.000000
O O10 0.500000 0.500000 0.500000
O O11 0.734844 0.629833 0.534841
O O12 0.883684 0.337804 0.639806
O O13 0.641966 0.874695 0.687824
O O14 0.186964 0.833868 0.625680
O O15 0.370005 0.322751 0.631593
O O16 0.000000 0.500000 0.500000
#
# Coordination Sequence:
#
# PCOD8033389 Si02
#       7
#     2   2   2   2   2   2   2
#     4  11  23  46  68  98 143 192 238 282 343 416
#     4  11  25  42  73  99 137 190 239 281 341 432
#     4  12  27  42  70 102 151 187 230 293 353 414
#     4  12  25  47  75 100 140 190 237 295 363 430
#     4  12  26  44  70 108 143 183 236 294 365 423
#     4  12  25  45  72 104 139 190 242 285 356 438
#     4  12  25  45  70 104 140 177 237 309 364 411
#
# _framework density 22.772455999999998
#
# number of rings (size 3 to 8) (size 9 to 14) (size 15 to 20)
#    0.000    0.286    1.429    7.714    6.000    0.571 
#    0.000    0.000    0.000    0.000    0.000    0.000 
#    0.000    0.000    0.000    0.000    0.000    0.000 
#
# Total GULP energy -173709.910791 kJ/mol
# GULP energy per Si atom -12407.850771 kJ/mol
# Density = 2.272063 g / cm^3
# Si number density = 22.772456 Si / 1000 Ang^3
#
#
#
# Elastic Constant Matrix: (Units=GPa)
#
#
# Indices 1 2 3 4 5 6 
#
# 1 154.6478 12.2065 54.7079 -7.5305 4.3853 14.0484
# 2 12.2065 95.9342 25.3307 -12.8280 -1.5468 2.4064
# 3 54.7079 25.3307 111.7006 -11.3899 2.2581 4.2857
# 4 -7.5305 -12.8280 -11.3899 58.2763 0.5613 5.2535
# 5 4.3853 -1.5468 2.2581 0.5613 58.7517 -2.6594
# 6 14.0484 2.4064 4.2857 5.2535 -2.6594 32.4692
#
#
#
# Elastic Compliance Matrix: (Units=1/GPa)
#
#
# Indices 1 2 3 4 5 6 
#
# 1 0.008144 0.000126 -0.003819 0.000626 -0.000608 -0.003180
# 2 0.000126 0.011351 -0.002391 0.002125 0.000320 -0.000898
# 3 -0.003819 -0.002391 0.011490 0.001219 -0.000227 0.000097
# 4 0.000626 0.002125 0.001219 0.018273 -0.000374 -0.003577
# 5 -0.000608 0.000320 -0.000227 -0.000374 0.017165 0.001736
# 6 -0.003180 -0.000898 0.000097 -0.003577 0.001736 0.032949
#
#
# Mechanical properties :
#
#
# Convention : Reuss Voigt Hill
#
# Bulk Modulus (GPa) = 53.14387 60.75254 56.94821
# Shear Modulus (GPa) = 42.44000 47.90195 45.17098
#
# Velocity S-wave (km/s) = 4.32169 4.59137 4.45857
# Velocity P-wave (km/s) = 6.94912 7.40565 7.18101
#
# Compressibility (1/GPa) = 0.01881685
#
# Stress axis : x y z
#
# Youngs Moduli (GPa) = 122.78956 88.09780 87.02896
#
# Poissons Ratio (x) = -0.01109 0.33237
# Poissons Ratio (y) = -0.01546 0.20809
# Poissons Ratio (z) = 0.46895 0.21065
#
# Static dielectric constant tensor:
#      x y z
#    x 4.258320 -0.118650 -0.091110 
#    y -0.118650 4.237590 -0.168760 
#    z -0.091110 -0.168760 4.424020 
# 
# 
# High freq. dielectric constant tensor:
#      x y z
#    x 1.912530 0.001730 -0.001720 
#    y 0.001730 1.900480 -0.008950 
#    z -0.001720 -0.008950 1.918460 
# 
# From -- ./inp_files/107675.got.cif
#   From: 2010.06.25/outbox.cif.g09.slc.cpg/sg2_54_cif.got.tgz:107675.got - 2010.06.27 13:26:56.
