data_PCOD8033070
_publ_section_title
;
Structure prediction by ZEFSAII (Michael W. Deem and Ramdas Pophale) SiO2 
 PCOD8033070
Probable space group: P -1
;
_chemical_formula_sum "Si O2"
_cell_formula_units_Z 16
_cell_length_a 9.368384
_cell_length_b 15.626636
_cell_length_c 8.841772
_cell_angle_alpha 111.229417
_cell_angle_beta 95.975834
_cell_angle_gamma 135.856561
_cell_volume 695.843224
_symmetry_space_group_name_H-M "P -1"
_symmetry_group_IT_number 2
_symmetry_cell_setting 'triclinic'
loop_
_space_group_symop_operation_xyz
x,y,z
-x,-y,-z
loop_
_atom_site_type_symbol
_atom_site_label
_atom_site_fract_x
_atom_site_fract_y
_atom_site_fract_z
Si Si1 0.947841 0.239356 0.343880
Si Si2 0.341809 0.295870 0.390523
Si Si3 0.163227 0.043841 0.419149
Si Si4 0.689187 0.426573 0.254572
Si Si5 0.443954 0.045848 0.647319
Si Si6 0.360817 0.513124 0.194210
Si Si7 0.311528 0.296900 0.906588
Si Si8 0.146027 0.685196 0.897021
O O1 0.828197 0.223420 0.171739
O O2 0.102338 0.232734 0.294533
O O3 0.100528 0.393591 0.555044
O O4 0.750389 0.094374 0.343619
O O5 0.450669 0.308952 0.260545
O O6 0.548253 0.465906 0.611482
O O7 0.302250 0.185665 0.417459
O O8 0.954011 0.882606 0.191711
O O9 0.356844 0.083065 0.556065
O O10 0.000000 0.000000 0.500000
O O11 0.800071 0.382664 0.224338
O O12 0.566786 0.389156 0.059406
O O13 0.500000 0.000000 0.500000
O O14 0.676556 0.200864 0.870175
O O15 0.615850 0.681769 0.249198
O O16 0.131448 0.463583 0.158184
O O17 0.271373 0.380941 0.002359
#
# Coordination Sequence:
#
# PCOD8033070 Si02
#       8
#     2   2   2   2   2   2   2   2
#     4  12  25  50  73 104 148 188 240 293 354 429
#     4  12  25  47  77 101 142 190 240 298 348 419
#     4  12  24  47  72 106 142 180 242 298 347 414
#     4  12  27  45  71 113 142 187 237 296 363 418
#     4  12  29  49  74 105 146 195 232 289 365 429
#     4  11  23  44  73 102 139 188 240 292 349 425
#     4  11  24  44  73 106 138 183 244 296 353 415
#     4  12  28  47  69 109 149 189 233 291 363 429
#
# _framework density 22.993683000000001
#
# number of rings (size 3 to 8) (size 9 to 14) (size 15 to 20)
#    0.000    0.250    5.000    3.375    5.250    1.000 
#    2.250    0.000    0.000    0.000    0.000    0.000 
#    0.000    0.000    0.000    0.000    0.000    0.000 
#
# Total GULP energy -198269.441052 kJ/mol
# GULP energy per Si atom -12391.840066 kJ/mol
# Density = 2.294135 g / cm^3
# Si number density = 22.993683 Si / 1000 Ang^3
#
#
#
# Elastic Constant Matrix: (Units=GPa)
#
#
# Indices 1 2 3 4 5 6 
#
# 1 175.6771 27.4488 29.7478 -13.6917 -5.6588 6.6131
# 2 27.4488 57.1946 -4.5811 0.5877 -7.3453 2.5221
# 3 29.7478 -4.5811 90.8043 3.7788 5.3907 -0.8266
# 4 -13.6917 0.5877 3.7788 23.3013 5.5038 5.6157
# 5 -5.6588 -7.3453 5.3907 5.5038 40.0150 -13.2163
# 6 6.6131 2.5221 -0.8266 5.6157 -13.2163 41.3275
#
#
#
# Elastic Compliance Matrix: (Units=1/GPa)
#
#
# Indices 1 2 3 4 5 6 
#
# 1 0.007216 -0.003741 -0.002755 0.005407 -0.000677 -0.001933
# 2 -0.003741 0.019936 0.002192 -0.004256 0.003826 0.001228
# 3 -0.002755 0.002192 0.012236 -0.003634 -0.000884 0.000763
# 4 0.005407 -0.004256 -0.003634 0.051880 -0.010304 -0.011023
# 5 -0.000677 0.003826 -0.000884 -0.010304 0.030802 0.011108
# 6 -0.001933 0.001228 0.000763 -0.011023 0.011108 0.029497
#
#
# Mechanical properties :
#
#
# Convention : Reuss Voigt Hill
#
# Bulk Modulus (GPa) = 32.48720 47.65634 40.07177
# Shear Modulus (GPa) = 29.33688 38.99944 34.16816
#
# Velocity S-wave (km/s) = 3.57580 4.12283 3.85902
# Velocity P-wave (km/s) = 5.58640 6.59049 6.10911
#
# Compressibility (1/GPa) = 0.03078136
#
# Stress axis : x y z
#
# Youngs Moduli (GPa) = 138.58905 50.16041 81.72290
#
# Poissons Ratio (x) = 0.18764 0.22514
# Poissons Ratio (y) = 0.51844 -0.17917
# Poissons Ratio (z) = 0.38181 -0.10997
#
# Static dielectric constant tensor:
#      x y z
#    x 4.238210 0.121570 -0.007290 
#    y 0.121570 3.262320 -0.594920 
#    z -0.007290 -0.594920 4.096400 
# 
# 
# High freq. dielectric constant tensor:
#      x y z
#    x 1.918520 0.003830 -0.002890 
#    y 0.003830 1.914160 -0.006490 
#    z -0.002890 -0.006490 1.927480 
# 
# From -- ./inp_files/208413.got.cif
#   From: 2010.06.25/outbox.cif.g09.slc.cpg/sg2_105_cif.got.tgz:208413.got - 2010.06.27 13:26:56.
