data_PCOD8033908
_publ_section_title
;
Structure prediction by ZEFSAII (Michael W. Deem and Ramdas Pophale) SiO2 
 PCOD8033908
Probable space group: P -1
;
_chemical_formula_sum "Si O2"
_cell_formula_units_Z 16
_cell_length_a 8.946207
_cell_length_b 8.466189
_cell_length_c 12.953136
_cell_angle_alpha 96.287302
_cell_angle_beta 79.340603
_cell_angle_gamma 132.192465
_cell_volume 714.182177
_symmetry_space_group_name_H-M "P -1"
_symmetry_group_IT_number 2
_symmetry_cell_setting 'triclinic'
loop_
_space_group_symop_operation_xyz
x,y,z
-x,-y,-z
loop_
_atom_site_type_symbol
_atom_site_label
_atom_site_fract_x
_atom_site_fract_y
_atom_site_fract_z
Si Si1 0.132339 0.693907 0.287617
Si Si2 0.972691 0.793550 0.493986
Si Si3 0.041845 0.612338 0.896796
Si Si4 0.558207 0.132817 0.221777
Si Si5 0.353382 0.568954 0.354637
Si Si6 0.188285 0.243448 0.015720
Si Si7 0.344904 0.968958 0.594857
Si Si8 0.497595 0.426307 0.160440
O O1 0.017344 0.749542 0.372676
O O2 0.194697 0.597390 0.349680
O O3 0.988713 0.533517 0.203037
O O4 0.335459 0.903514 0.221743
O O5 0.743165 0.592430 0.546906
O O6 0.122922 0.828213 0.564232
O O7 0.000000 0.000000 0.500000
O O8 0.282621 0.828365 0.879992
O O9 0.894164 0.658974 0.907331
O O10 0.000000 0.500000 0.000000
O O11 0.545558 0.313219 0.221110
O O12 0.662973 0.159591 0.318909
O O13 0.573232 0.797769 0.370579
O O14 0.385680 0.480150 0.246196
O O15 0.347805 0.269861 0.074509
O O16 0.294679 0.361488 0.901821
O O17 0.000000 0.000000 0.000000
O O18 0.500000 0.000000 0.500000
#
# Coordination Sequence:
#
# PCOD8033908 Si02
#       8
#     2   2   2   2   2   2   2   2
#     4  11  25  45  71 102 141 187 229 290 355 413
#     4  12  26  46  71 106 140 185 235 290 351 420
#     4  12  26  46  70 106 136 188 236 287 353 427
#     4  11  25  43  73  99 142 181 236 286 353 415
#     4  11  24  42  73  97 142 181 232 289 349 413
#     4  11  27  46  70  99 143 184 241 298 355 413
#     4  11  25  45  69 101 139 185 233 283 354 417
#     4  11  25  47  67 105 139 186 238 294 354 419
#
# _framework density 22.403247
#
# number of rings (size 3 to 8) (size 9 to 14) (size 15 to 20)
#    0.000    0.750    5.000    1.875    7.000    2.000 
#    0.000    0.000    0.000    0.000    0.000    0.000 
#    0.000    0.000    0.000    0.000    0.000    0.000 
#
# Total GULP energy -198420.069884 kJ/mol
# GULP energy per Si atom -12401.254368 kJ/mol
# Density = 2.235226 g / cm^3
# Si number density = 22.403247 Si / 1000 Ang^3
#
#
#
# Elastic Constant Matrix: (Units=GPa)
#
#
# Indices 1 2 3 4 5 6 
#
# 1 88.3980 40.5933 39.8578 -7.6507 -9.5540 -12.6171
# 2 40.5933 123.1961 74.2366 -22.1325 3.5032 5.4375
# 3 39.8578 74.2366 127.4302 -17.3963 -17.5108 -3.4075
# 4 -7.6507 -22.1325 -17.3963 44.3039 4.6429 -0.4162
# 5 -9.5540 3.5032 -17.5108 4.6429 43.8768 -4.7433
# 6 -12.6171 5.4375 -3.4075 -0.4162 -4.7433 36.8103
#
#
#
# Elastic Compliance Matrix: (Units=1/GPa)
#
#
# Indices 1 2 3 4 5 6 
#
# 1 0.015398 -0.004692 -0.001461 -0.000607 0.003893 0.006330
# 2 -0.004692 0.015858 -0.008212 0.004531 -0.006641 -0.005516
# 3 -0.001461 -0.008212 0.014093 0.000555 0.006208 0.002823
# 4 -0.000607 0.004531 0.000555 0.025259 -0.003046 -0.000933
# 5 0.003893 -0.006641 0.006208 -0.003046 0.027663 0.006420
# 6 0.006330 -0.005516 0.002823 -0.000933 0.006420 0.031229
#
#
# Mechanical properties :
#
#
# Convention : Reuss Voigt Hill
#
# Bulk Modulus (GPa) = 60.17785 72.04441 66.11113
# Shear Modulus (GPa) = 30.53055 37.28730 33.90892
#
# Velocity S-wave (km/s) = 3.69558 4.08410 3.89469
# Velocity P-wave (km/s) = 6.71783 7.38022 7.05680
#
# Compressibility (1/GPa) = 0.01661741
#
# Stress axis : x y z
#
# Youngs Moduli (GPa) = 64.94435 63.05876 70.95694
#
# Poissons Ratio (x) = 0.29589 0.10369
# Poissons Ratio (y) = 0.30473 0.58272
# Poissons Ratio (z) = 0.09490 0.51786
#
# Static dielectric constant tensor:
#      x y z
#    x 3.105780 -0.324770 -0.040120 
#    y -0.324770 4.492850 0.256130 
#    z -0.040120 0.256130 4.321330 
# 
# 
# High freq. dielectric constant tensor:
#      x y z
#    x 1.884210 0.004570 -0.007350 
#    y 0.004570 1.888810 -0.016640 
#    z -0.007350 -0.016640 1.889060 
# 
# From -- ./inp_files/382285.got.cif
#   From: 2010.06.25/outbox.cif.g09.slc.cpg/sg2_192_cif.got.tgz:382285.got - 2010.06.27 13:26:56.
