data_PCOD8033321
_publ_section_title
;
Structure prediction by ZEFSAII (Michael W. Deem and Ramdas Pophale) SiO2 
 PCOD8033321
Probable space group: P -1
;
_chemical_formula_sum "Si O2"
_cell_formula_units_Z 16
_cell_length_a 15.759985
_cell_length_b 9.197006
_cell_length_c 10.508008
_cell_angle_alpha 80.050692
_cell_angle_beta 57.803803
_cell_angle_gamma 128.850758
_cell_volume 641.245751
_symmetry_space_group_name_H-M "P -1"
_symmetry_group_IT_number 2
_symmetry_cell_setting 'triclinic'
loop_
_space_group_symop_operation_xyz
x,y,z
-x,-y,-z
loop_
_atom_site_type_symbol
_atom_site_label
_atom_site_fract_x
_atom_site_fract_y
_atom_site_fract_z
Si Si1 0.275756 0.754048 0.742326
Si Si2 0.791604 0.321630 0.912318
Si Si3 0.879480 0.710904 0.196794
Si Si4 0.196374 0.903315 0.589675
Si Si5 0.599158 0.009307 0.803403
Si Si6 0.381785 0.248755 0.032363
Si Si7 0.418366 0.453029 0.438568
Si Si8 0.994280 0.684131 0.351023
O O1 0.161331 0.452833 0.862099
O O2 0.172124 0.744701 0.738356
O O3 0.500000 0.000000 0.500000
O O4 0.274757 0.815815 0.875189
O O5 0.864845 0.279217 0.777302
O O6 0.988195 0.673222 0.720500
O O7 0.608979 0.169739 0.011538
O O8 0.680844 0.516052 0.455382
O O9 0.991692 0.762851 0.207206
O O10 0.000000 0.000000 0.000000
O O11 0.361281 0.046579 0.340408
O O12 0.255004 0.129400 0.572683
O O13 0.780148 0.359399 0.624205
O O14 0.563596 0.853437 0.972505
O O15 0.428416 0.339006 0.832285
O O16 0.500000 0.500000 0.000000
O O17 0.139505 0.965045 0.286587
O O18 0.500000 0.500000 0.500000
#
# Coordination Sequence:
#
# PCOD8033321 Si02
#       8
#     2   2   2   2   2   2   2   2
#     4  12  22  40  73 108 154 199 258 313 380 454
#     4  11  24  42  79 108 149 202 266 319 386 453
#     4  12  26  45  70 115 160 198 253 325 389 459
#     4  11  23  45  74 111 149 206 258 319 382 467
#     4  11  24  51  76 109 149 200 267 322 380 465
#     4  12  28  50  79 111 158 205 256 324 397 467
#     4  12  28  48  79 114 162 206 256 318 405 465
#     4  11  27  49  76 108 150 204 264 320 384 468
#
# _framework density 24.951432
#
# number of rings (size 3 to 8) (size 9 to 14) (size 15 to 20)
#    0.000    0.500    5.000    3.000    7.000    2.500 
#    4.500    1.250    0.000    0.000    0.000    0.000 
#    0.000    0.000    0.000    0.000    0.000    0.000 
#
# Total GULP energy -198228.202881 kJ/mol
# GULP energy per Si atom -12389.262680 kJ/mol
# Density = 2.489464 g / cm^3
# Si number density = 24.951432 Si / 1000 Ang^3
#
#
#
# Elastic Constant Matrix: (Units=GPa)
#
#
# Indices 1 2 3 4 5 6 
#
# 1 147.4559 37.7445 65.5429 -28.5440 -7.0889 17.1829
# 2 37.7445 99.9277 38.2246 -25.0592 -4.5152 18.6184
# 3 65.5429 38.2246 121.3656 -10.7666 5.1498 12.1398
# 4 -28.5440 -25.0592 -10.7666 54.4213 3.2428 -3.5868
# 5 -7.0889 -4.5152 5.1498 3.2428 57.9058 -3.0748
# 6 17.1829 18.6184 12.1398 -3.5868 -3.0748 33.4705
#
#
#
# Elastic Compliance Matrix: (Units=1/GPa)
#
#
# Indices 1 2 3 4 5 6 
#
# 1 0.010156 -0.000471 -0.004774 0.003913 0.001270 -0.002684
# 2 -0.000471 0.013716 -0.003081 0.005044 0.000703 -0.005665
# 3 -0.004774 -0.003081 0.011774 -0.001514 -0.001810 -0.000434
# 4 0.003913 0.005044 -0.001514 0.022345 -0.000345 -0.001902
# 5 0.001270 0.000703 -0.001810 -0.000345 0.017724 0.001205
# 6 -0.002684 -0.005665 -0.000434 -0.001902 0.001205 0.034471
#
#
# Mechanical properties :
#
#
# Convention : Reuss Voigt Hill
#
# Bulk Modulus (GPa) = 52.65221 72.41923 62.53572
# Shear Modulus (GPa) = 37.54597 44.30868 40.92732
#
# Velocity S-wave (km/s) = 3.88333 4.21859 4.05443
# Velocity P-wave (km/s) = 6.42299 7.26745 6.85823
#
# Compressibility (1/GPa) = 0.01899256
#
# Stress axis : x y z
#
# Youngs Moduli (GPa) = 98.46735 72.90802 84.93066
#
# Poissons Ratio (x) = 0.03434 0.40550
# Poissons Ratio (y) = 0.04638 0.26169
# Poissons Ratio (z) = 0.47013 0.22464
#
# Static dielectric constant tensor:
#      x y z
#    x 4.667980 0.188880 -0.002280 
#    y 0.188880 5.117850 -0.186230 
#    z -0.002280 -0.186230 4.823790 
# 
# 
# High freq. dielectric constant tensor:
#      x y z
#    x 2.000710 0.018400 -0.000140 
#    y 0.018400 2.005330 -0.005070 
#    z -0.000140 -0.005070 2.006430 
# 
# From -- ./inp_files/447135.got.cif
#   From: 2010.06.25/outbox.cif.g09.slc.cpg/sg2_224_cif.got.tgz:447135.got - 2010.06.27 13:26:56.
