data_PCOD8033422
_publ_section_title
;
Structure prediction by ZEFSAII (Michael W. Deem and Ramdas Pophale) SiO2 
 PCOD8033422
Probable space group: P -1
;
_chemical_formula_sum "Si O2"
_cell_formula_units_Z 16
_cell_length_a 21.353814
_cell_length_b 9.106142
_cell_length_c 11.932709
_cell_angle_alpha 45.174812
_cell_angle_beta 142.798343
_cell_angle_gamma 149.333436
_cell_volume 714.066626
_symmetry_space_group_name_H-M "P -1"
_symmetry_group_IT_number 2
_symmetry_cell_setting 'triclinic'
loop_
_space_group_symop_operation_xyz
x,y,z
-x,-y,-z
loop_
_atom_site_type_symbol
_atom_site_label
_atom_site_fract_x
_atom_site_fract_y
_atom_site_fract_z
Si Si1 0.512649 0.736272 0.953135
Si Si2 0.913095 0.559794 0.893386
Si Si3 0.407468 0.854160 0.333522
Si Si4 0.248316 0.927083 0.719264
Si Si5 0.113026 0.006062 0.108830
Si Si6 0.642991 0.673600 0.540141
Si Si7 0.016364 0.952639 0.420677
Si Si8 0.751399 0.526837 0.131380
O O1 0.406193 0.639781 0.956093
O O2 0.493534 0.895113 0.751833
O O3 0.500000 0.500000 0.000000
O O4 0.672238 0.962033 0.108733
O O5 0.747745 0.249012 0.826955
O O6 0.918142 0.777407 0.710393
O O7 0.998591 0.685368 0.066293
O O8 0.000000 0.500000 0.000000
O O9 0.360975 0.561458 0.387798
O O10 0.500000 0.000000 0.500000
O O11 0.352421 0.165449 0.643926
O O12 0.106724 0.869065 0.570411
O O13 0.220748 0.651794 0.794615
O O14 0.215269 0.246013 0.031090
O O15 0.217418 0.074179 0.320502
O O16 0.000000 0.000000 0.000000
O O17 0.500000 0.500000 0.500000
O O18 0.000000 0.000000 0.500000
O O19 0.854065 0.676654 0.304023
#
# Coordination Sequence:
#
# PCOD8033422 Si02
#       8
#     2   2   2   2   2   2   2   2
#     4  12  27  45  71 100 143 186 227 285 345 413
#     4  11  27  45  71 102 135 184 234 283 350 411
#     4  12  27  47  70 101 140 180 236 286 343 415
#     4  12  24  45  68 103 140 177 231 283 343 414
#     4  11  23  46  70  98 140 178 233 285 337 413
#     4  12  24  43  71 102 137 181 227 285 342 408
#     4  11  25  44  70 100 139 176 228 288 343 412
#     4  11  25  44  68 103 135 186 230 278 351 406
#
# _framework density 22.406873000000001
#
# number of rings (size 3 to 8) (size 9 to 14) (size 15 to 20)
#    0.000    0.500    2.500    5.250    8.750    1.000 
#    0.000    0.000    0.000    0.000    0.000    0.000 
#    0.000    0.000    0.000    0.000    0.000    0.000 
#
# Total GULP energy -198270.994765 kJ/mol
# GULP energy per Si atom -12391.937173 kJ/mol
# Density = 2.235587 g / cm^3
# Si number density = 22.406873 Si / 1000 Ang^3
#
#
#
# Elastic Constant Matrix: (Units=GPa)
#
#
# Indices 1 2 3 4 5 6 
#
# 1 109.0787 13.4399 21.4346 18.1242 4.7392 -12.4384
# 2 13.4399 76.2413 25.8937 23.9246 -11.7652 -13.3524
# 3 21.4346 25.8937 99.6202 24.0186 -15.0128 -11.2099
# 4 18.1242 23.9246 24.0186 36.5118 -1.5433 -6.0957
# 5 4.7392 -11.7652 -15.0128 -1.5433 50.9886 4.2996
# 6 -12.4384 -13.3524 -11.2099 -6.0957 4.2996 51.6754
#
#
#
# Elastic Compliance Matrix: (Units=1/GPa)
#
#
# Indices 1 2 3 4 5 6 
#
# 1 0.010380 -0.000055 -0.001284 -0.004030 -0.001635 0.001867
# 2 -0.000055 0.017738 -0.001375 -0.010088 0.003150 0.002820
# 3 -0.001284 -0.001375 0.012887 -0.006620 0.003305 0.001075
# 4 -0.004030 -0.010088 -0.006620 0.040233 -0.002681 -0.000044
# 5 -0.001635 0.003150 0.003305 -0.002681 0.021465 -0.000965
# 6 0.001867 0.002820 0.001075 -0.000044 -0.000965 0.020838
#
#
# Mechanical properties :
#
#
# Convention : Reuss Voigt Hill
#
# Bulk Modulus (GPa) = 28.10651 45.16407 36.63529
# Shear Modulus (GPa) = 35.50455 42.77995 39.14225
#
# Velocity S-wave (km/s) = 3.98494 4.37422 4.18411
# Velocity P-wave (km/s) = 5.80896 6.76105 6.30301
#
# Compressibility (1/GPa) = 0.03557894
#
# Stress axis : x y z
#
# Youngs Moduli (GPa) = 96.33750 56.37520 77.59789
#
# Poissons Ratio (x) = 0.00308 0.09964
# Poissons Ratio (y) = 0.00526 0.10667
# Poissons Ratio (z) = 0.12370 0.07749
#
# Static dielectric constant tensor:
#      x y z
#    x 4.056850 -0.012360 -0.066590 
#    y -0.012360 4.077430 0.173110 
#    z -0.066590 0.173110 4.159490 
# 
# 
# High freq. dielectric constant tensor:
#      x y z
#    x 1.904580 -0.002040 -0.003880 
#    y -0.002040 1.887810 0.012370 
#    z -0.003880 0.012370 1.892240 
# 
# From -- ./inp_files/184359.got.cif
#   From: 2010.06.25/outbox.cif.g09.slc.cpg/sg2_93_cif.got.tgz:184359.got - 2010.06.27 13:26:56.
