data_PCOD8033974
_publ_section_title
;
Structure prediction by ZEFSAII (Michael W. Deem and Ramdas Pophale) SiO2 
 PCOD8033974
Probable space group: P -1
;
_chemical_formula_sum "Si O2"
_cell_formula_units_Z 16
_cell_length_a 5.529746
_cell_length_b 6.051671
_cell_length_c 27.626826
_cell_angle_alpha 47.556429
_cell_angle_beta 95.301612
_cell_angle_gamma 103.303399
_cell_volume 661.376282
_symmetry_space_group_name_H-M "P -1"
_symmetry_group_IT_number 2
_symmetry_cell_setting 'triclinic'
loop_
_space_group_symop_operation_xyz
x,y,z
-x,-y,-z
loop_
_atom_site_type_symbol
_atom_site_label
_atom_site_fract_x
_atom_site_fract_y
_atom_site_fract_z
Si Si1 0.151933 0.747404 0.026955
Si Si2 0.763778 0.544440 0.203039
Si Si3 0.560138 0.783292 0.675334
Si Si4 0.538274 0.599194 0.870246
Si Si5 0.282734 0.814123 0.915230
Si Si6 0.905156 0.368602 0.633478
Si Si7 0.547260 0.278085 0.423124
Si Si8 0.807307 0.254982 0.753541
O O1 0.331027 0.692463 0.082874
O O2 0.988952 0.406236 0.064369
O O3 0.321329 0.871211 0.964823
O O4 0.000000 0.000000 0.000000
O O5 0.625075 0.256307 0.276230
O O6 0.716525 0.466094 0.156807
O O7 0.051043 0.615296 0.213293
O O8 0.679871 0.866876 0.161211
O O9 0.453792 0.866562 0.609603
O O10 0.590729 0.436420 0.718779
O O11 0.809932 0.037506 0.655005
O O12 0.482562 0.650683 0.918133
O O13 0.718342 0.890583 0.806357
O O14 0.676456 0.543905 0.598591
O O15 0.973953 0.330185 0.696826
O O16 0.169886 0.523795 0.590320
O O17 0.500000 0.000000 0.500000
#
# Coordination Sequence:
#
# PCOD8033974 Si02
#       8
#     2   2   2   2   2   2   2   2
#     4  11  26  47  68  98 135 186 235 297 362 444
#     4  12  24  41  71 104 132 184 233 296 367 439
#     4  11  25  42  72 106 144 188 239 302 361 428
#     4  12  25  44  73  99 134 185 234 297 372 435
#     4  11  25  45  68  99 138 177 236 299 360 443
#     4  11  25  45  74 109 148 194 245 304 360 433
#     4  11  26  47  73 108 155 200 247 297 356 434
#     4  11  24  43  68 104 142 178 236 299 364 433
#
# _framework density 24.191979
#
# number of rings (size 3 to 8) (size 9 to 14) (size 15 to 20)
#    0.000    0.750    5.000    1.500    1.750    8.000 
#    0.000    0.000    0.000    0.000    0.000    0.000 
#    0.000    0.000    0.000    0.000    0.000    0.000 
#
# Total GULP energy -198243.463543 kJ/mol
# GULP energy per Si atom -12390.216471 kJ/mol
# Density = 2.413692 g / cm^3
# Si number density = 24.191979 Si / 1000 Ang^3
#
#
#
# Elastic Constant Matrix: (Units=GPa)
#
#
# Indices 1 2 3 4 5 6 
#
# 1 100.2787 22.3855 46.6780 -7.2393 1.7394 7.2997
# 2 22.3855 92.3148 50.3136 -0.1457 3.2457 8.3329
# 3 46.6780 50.3136 161.1085 1.9624 3.9910 3.4310
# 4 -7.2393 -0.1457 1.9624 32.7427 8.7090 -5.4924
# 5 1.7394 3.2457 3.9910 8.7090 36.7182 -4.3587
# 6 7.2997 8.3329 3.4310 -5.4924 -4.3587 43.4498
#
#
#
# Elastic Compliance Matrix: (Units=1/GPa)
#
#
# Indices 1 2 3 4 5 6 
#
# 1 0.011980 -0.001044 -0.003128 0.002872 -0.000971 -0.001300
# 2 -0.001044 0.013394 -0.003809 -0.000054 -0.000968 -0.002196
# 3 -0.003128 -0.003809 0.008309 -0.001104 -0.000103 0.000450
# 4 0.002872 -0.000054 -0.001104 0.033802 -0.007658 0.003120
# 5 -0.000971 -0.000968 -0.000103 -0.007658 0.029472 0.002345
# 6 -0.001300 -0.002196 0.000450 0.003120 0.002345 0.024249
#
#
# Mechanical properties :
#
#
# Convention : Reuss Voigt Hill
#
# Bulk Modulus (GPa) = 56.43093 65.82848 61.12971
# Shear Modulus (GPa) = 34.94647 38.20380 36.57513
#
# Velocity S-wave (km/s) = 3.80484 3.97822 3.89250
# Velocity P-wave (km/s) = 6.53295 6.95497 6.74726
#
# Compressibility (1/GPa) = 0.01772078
#
# Stress axis : x y z
#
# Youngs Moduli (GPa) = 83.47110 74.66106 120.34782
#
# Poissons Ratio (x) = 0.07796 0.37647
# Poissons Ratio (y) = 0.08716 0.45839
# Poissons Ratio (z) = 0.26111 0.28438
#
# Static dielectric constant tensor:
#      x y z
#    x 4.098750 0.174630 0.003680 
#    y 0.174630 4.322750 0.024590 
#    z 0.003680 0.024590 4.592210 
# 
# 
# High freq. dielectric constant tensor:
#      x y z
#    x 1.946460 0.016390 -0.002420 
#    y 0.016390 1.959070 -0.005800 
#    z -0.002420 -0.005800 1.971950 
# 
# From -- ./inp_files/12749.got.cif
#   From: 2010.06.25/outbox.cif.g09.slc.cpg/sg2_7_cif.got.tgz:12749.got - 2010.06.27 13:26:56.
