data_PCOD8033717
_publ_section_title
;
Structure prediction by ZEFSAII (Michael W. Deem and Ramdas Pophale) SiO2 
 PCOD8033717
Probable space group: P -1
;
_chemical_formula_sum "Si O2"
_cell_formula_units_Z 16
_cell_length_a 11.681144
_cell_length_b 14.575222
_cell_length_c 12.604860
_cell_angle_alpha 57.621582
_cell_angle_beta 101.805656
_cell_angle_gamma 148.979725
_cell_volume 757.931865
_symmetry_space_group_name_H-M "P -1"
_symmetry_group_IT_number 2
_symmetry_cell_setting 'triclinic'
loop_
_space_group_symop_operation_xyz
x,y,z
-x,-y,-z
loop_
_atom_site_type_symbol
_atom_site_label
_atom_site_fract_x
_atom_site_fract_y
_atom_site_fract_z
Si Si1 0.122292 0.986866 0.914757
Si Si2 0.993318 0.618994 0.402180
Si Si3 0.080866 0.241106 0.194393
Si Si4 0.587622 0.579384 0.197261
Si Si5 0.578077 0.787778 0.528725
Si Si6 0.638550 0.019700 0.946357
Si Si7 0.221685 0.598918 0.956804
Si Si8 0.428151 0.047910 0.389470
O O1 0.018956 0.921585 0.817160
O O2 0.344477 0.267357 0.803007
O O3 0.870828 0.777697 0.077947
O O4 0.257427 0.981396 0.949585
O O5 0.000000 0.500000 0.500000
O O6 0.679489 0.395390 0.480159
O O7 0.117907 0.735867 0.235419
O O8 0.155588 0.812150 0.410416
O O9 0.382490 0.455214 0.148862
O O10 0.093921 0.372899 0.068737
O O11 0.865520 0.054938 0.363357
O O12 0.440844 0.356319 0.365439
O O13 0.595255 0.869010 0.590165
O O14 0.437685 0.785887 0.976197
O O15 0.500000 0.000000 0.000000
O O16 0.325172 0.718211 0.786689
O O17 0.000000 0.500000 0.000000
O O18 0.500000 0.000000 0.500000
#
# Coordination Sequence:
#
# PCOD8033717 Si02
#       8
#     2   2   2   2   2   2   2   2
#     4  11  24  45  73  99 133 179 227 284 338 396
#     4  11  25  42  66 100 138 178 223 269 339 416
#     4  12  26  43  69 102 132 180 232 277 339 404
#     4  11  25  48  69  96 138 178 234 280 335 404
#     4  12  26  44  68  97 141 181 224 279 342 405
#     4  11  24  42  70 102 136 174 220 283 343 394
#     4  11  24  41  66 103 139 172 231 279 334 414
#     4  11  24  43  68  99 136 181 221 277 347 398
#
# _framework density 21.110075999999999
#
# number of rings (size 3 to 8) (size 9 to 14) (size 15 to 20)
#    0.000    0.750    3.750    3.000    5.250    3.500 
#    0.000    0.000    0.000    0.000    0.000    0.000 
#    0.000    0.000    0.000    0.000    0.000    0.000 
#
# Total GULP energy -198414.550850 kJ/mol
# GULP energy per Si atom -12400.909428 kJ/mol
# Density = 2.106203 g / cm^3
# Si number density = 21.110076 Si / 1000 Ang^3
#
#
#
# Elastic Constant Matrix: (Units=GPa)
#
#
# Indices 1 2 3 4 5 6 
#
# 1 122.9512 47.3604 38.0769 -1.7344 23.9990 -4.1395
# 2 47.3604 127.8778 33.5066 9.4313 8.2366 -15.7600
# 3 38.0769 33.5066 106.8773 -4.3398 15.9178 -14.8069
# 4 -1.7344 9.4313 -4.3398 28.8451 -2.0738 -4.5782
# 5 23.9990 8.2366 15.9178 -2.0738 34.4007 -0.5350
# 6 -4.1395 -15.7600 -14.8069 -4.5782 -0.5350 34.3036
#
#
#
# Elastic Compliance Matrix: (Units=1/GPa)
#
#
# Indices 1 2 3 4 5 6 
#
# 1 0.011269 -0.003421 -0.002169 0.000859 -0.006005 -0.001127
# 2 -0.003421 0.010123 -0.001757 -0.003250 0.000627 0.003056
# 3 -0.002169 -0.001757 0.011892 0.002687 -0.003339 0.004371
# 4 0.000859 -0.003250 0.002687 0.037027 0.001241 0.004731
# 5 -0.006005 0.000627 -0.003339 0.001241 0.034709 -0.001171
# 6 -0.001127 0.003056 0.004371 0.004731 -0.001171 0.032919
#
#
# Mechanical properties :
#
#
# Convention : Reuss Voigt Hill
#
# Bulk Modulus (GPa) = 53.79201 66.17714 59.98457
# Shear Modulus (GPa) = 31.48020 35.42736 33.45378
#
# Velocity S-wave (km/s) = 3.86585 4.10105 3.98519
# Velocity P-wave (km/s) = 6.74265 7.33768 7.04645
#
# Compressibility (1/GPa) = 0.01859012
#
# Stress axis : x y z
#
# Youngs Moduli (GPa) = 88.73938 98.78426 84.08951
#
# Poissons Ratio (x) = 0.33790 0.18242
# Poissons Ratio (y) = 0.30354 0.14775
# Poissons Ratio (z) = 0.19251 0.17357
#
# Static dielectric constant tensor:
#      x y z
#    x 3.780030 -0.148820 0.102910 
#    y -0.148820 3.947110 0.166440 
#    z 0.102910 0.166440 3.767380 
# 
# 
# High freq. dielectric constant tensor:
#      x y z
#    x 1.833200 -0.001320 0.007360 
#    y -0.001320 1.850680 -0.003790 
#    z 0.007360 -0.003790 1.828190 
# 
# From -- ./inp_files/273691.got.cif
#   From: 2010.06.25/outbox.cif.g09.slc.cpg/sg2_137_cif.got.tgz:273691.got - 2010.06.27 13:26:56.
