data_PCOD8033847
_publ_section_title
;
Structure prediction by ZEFSAII (Michael W. Deem and Ramdas Pophale) SiO2 
 PCOD8033847
Probable space group: P -1
;
_chemical_formula_sum "Si O2"
_cell_formula_units_Z 16
_cell_length_a 6.606948
_cell_length_b 17.810560
_cell_length_c 9.697050
_cell_angle_alpha 80.886030
_cell_angle_beta 43.809999
_cell_angle_gamma 88.347446
_cell_volume 773.843924
_symmetry_space_group_name_H-M "P -1"
_symmetry_group_IT_number 2
_symmetry_cell_setting 'triclinic'
loop_
_space_group_symop_operation_xyz
x,y,z
-x,-y,-z
loop_
_atom_site_type_symbol
_atom_site_label
_atom_site_fract_x
_atom_site_fract_y
_atom_site_fract_z
Si Si1 0.774840 0.947667 0.031633
Si Si2 0.566954 0.301601 0.840503
Si Si3 0.758084 0.958095 0.728941
Si Si4 0.189975 0.215207 0.830158
Si Si5 0.517021 0.206939 0.157644
Si Si6 0.306534 0.451073 0.999964
Si Si7 0.356911 0.547560 0.671837
Si Si8 0.236752 0.296852 0.502994
O O1 0.704608 0.865916 0.163707
O O2 0.474380 0.982839 0.156933
O O3 0.892752 0.940653 0.818411
O O4 0.000000 0.000000 0.000000
O O5 0.392466 0.281731 0.791277
O O6 0.443824 0.372735 0.949024
O O7 0.912786 0.321147 0.632191
O O8 0.506703 0.231247 0.996411
O O9 0.620436 0.881074 0.741877
O O10 0.000000 0.000000 0.500000
O O11 0.231934 0.232595 0.642738
O O12 0.852781 0.215654 0.043264
O O13 0.338052 0.259945 0.323890
O O14 0.331571 0.494299 0.831816
O O15 0.500000 0.500000 0.000000
O O16 0.967336 0.435670 0.220639
O O17 0.500000 0.500000 0.500000
O O18 0.549698 0.627795 0.583754
#
# Coordination Sequence:
#
# PCOD8033847 Si02
#       8
#     2   2   2   2   2   2   2   2
#     4  11  24  45  66  91 130 169 212 264 319 374
#     4  11  24  43  64  93 128 171 210 258 324 376
#     4  11  26  41  67  95 127 166 216 266 314 379
#     4  11  24  43  64  91 129 173 207 262 322 376
#     4  11  24  43  61  94 133 164 212 267 316 375
#     4  11  24  42  69  93 129 171 210 260 320 376
#     4  11  24  44  65  98 131 165 214 266 311 376
#     4  11  26  40  66  97 130 165 215 265 312 381
#
# _framework density 20.676003000000001
#
# number of rings (size 3 to 8) (size 9 to 14) (size 15 to 20)
#    0.000    1.000    2.500    3.000    3.500   11.500 
#    0.000    0.000    0.000    0.000    0.000    0.000 
#    0.000    0.000    0.000    0.000    0.000    0.000 
#
# Total GULP energy -198473.155410 kJ/mol
# GULP energy per Si atom -12404.572213 kJ/mol
# Density = 2.062894 g / cm^3
# Si number density = 20.676003 Si / 1000 Ang^3
#
#
#
# Elastic Constant Matrix: (Units=GPa)
#
#
# Indices 1 2 3 4 5 6 
#
# 1 111.0859 25.5660 42.4372 1.5417 -18.5581 14.8704
# 2 25.5660 103.6326 36.7824 3.0110 -16.9759 4.6191
# 3 42.4372 36.7824 120.2029 1.5432 -18.0430 10.0928
# 4 1.5417 3.0110 1.5432 39.5315 1.0172 0.5230
# 5 -18.5581 -16.9759 -18.0430 1.0172 35.7821 -0.9879
# 6 14.8704 4.6191 10.0928 0.5230 -0.9879 42.0075
#
#
#
# Elastic Compliance Matrix: (Units=1/GPa)
#
#
# Indices 1 2 3 4 5 6 
#
# 1 0.011407 -0.001007 -0.002863 -0.000316 0.003917 -0.003143
# 2 -0.001007 0.011437 -0.002574 -0.000822 0.003624 -0.000187
# 3 -0.002863 -0.002574 0.010612 -0.000158 0.002617 -0.001190
# 4 -0.000316 -0.000822 -0.000158 0.025414 -0.001359 -0.000108
# 5 0.003917 0.003624 0.002617 -0.001359 0.033011 -0.001620
# 6 -0.003143 -0.000187 -0.001190 -0.000108 -0.001620 0.025188
#
#
# Mechanical properties :
#
#
# Convention : Reuss Voigt Hill
#
# Bulk Modulus (GPa) = 48.61798 60.49917 54.55857
# Shear Modulus (GPa) = 36.54590 38.80662 37.67626
#
# Velocity S-wave (km/s) = 4.20879 4.33701 4.27338
# Velocity P-wave (km/s) = 6.86904 7.37588 7.12697
#
# Compressibility (1/GPa) = 0.02056852
#
# Stress axis : x y z
#
# Youngs Moduli (GPa) = 87.66463 87.43232 94.22866
#
# Poissons Ratio (x) = 0.08804 0.26979
# Poissons Ratio (y) = 0.08828 0.24255
# Poissons Ratio (z) = 0.25100 0.22506
#
# Static dielectric constant tensor:
#      x y z
#    x 4.004230 -0.033110 0.013120 
#    y -0.033110 3.630450 -0.007270 
#    z 0.013120 -0.007270 3.866510 
# 
# 
# High freq. dielectric constant tensor:
#      x y z
#    x 1.824220 0.000470 0.001110 
#    y 0.000470 1.823130 -0.002910 
#    z 0.001110 -0.002910 1.813970 
# 
# From -- ./inp_files/11355.got.cif
#   From: 2010.06.25/outbox.cif.g09.slc.cpg/sg2_6_cif.got.tgz:11355.got - 2010.06.27 13:26:56.
