data_PCOD8033791
_publ_section_title
;
Structure prediction by ZEFSAII (Michael W. Deem and Ramdas Pophale) SiO2 
 PCOD8033791
Probable space group: P -1
;
_chemical_formula_sum "Si O2"
_cell_formula_units_Z 14
_cell_length_a 9.705799
_cell_length_b 11.232468
_cell_length_c 9.032404
_cell_angle_alpha 61.415985
_cell_angle_beta 46.410296
_cell_angle_gamma 63.122203
_cell_volume 614.623954
_symmetry_space_group_name_H-M "P -1"
_symmetry_group_IT_number 2
_symmetry_cell_setting 'triclinic'
loop_
_space_group_symop_operation_xyz
x,y,z
-x,-y,-z
loop_
_atom_site_type_symbol
_atom_site_label
_atom_site_fract_x
_atom_site_fract_y
_atom_site_fract_z
Si Si1 0.120070 0.083658 0.965432
Si Si2 0.302535 0.564592 0.946502
Si Si3 0.271609 0.568792 0.634450
Si Si4 0.533590 0.978973 0.660968
Si Si5 0.872610 0.117900 0.422301
Si Si6 0.638994 0.672071 0.750053
Si Si7 0.905781 0.632411 0.320553
O O1 0.183320 0.213361 0.758912
O O2 0.332572 0.992975 0.893718
O O3 0.998893 0.130178 0.174971
O O4 0.000000 0.000000 0.000000
O O5 0.212219 0.559837 0.854776
O O6 0.462261 0.662298 0.773296
O O7 0.392408 0.410619 0.028470
O O8 0.135585 0.624426 0.151488
O O9 0.500000 0.500000 0.500000
O O10 0.196621 0.729436 0.543885
O O11 0.153457 0.481809 0.674169
O O12 0.646805 0.825250 0.701923
O O13 0.500000 0.000000 0.500000
O O14 0.667567 0.079953 0.559622
O O15 0.000000 0.000000 0.500000
O O16 0.837971 0.611229 0.551211
#
# Coordination Sequence:
#
# PCOD8033791 Si02
#       7
#     2   2   2   2   2   2   2
#     4  12  24  44  75 103 134 188 239 286 351 423
#     4  11  24  42  66 101 133 173 227 287 340 406
#     4  12  25  46  71  98 142 187 232 281 353 423
#     4  12  23  44  75  99 140 187 236 287 353 424
#     4  12  29  48  69 107 148 184 237 298 354 422
#     4  11  24  42  68 104 134 168 233 294 336 404
#     4  12  23  42  71  97 133 182 226 277 347 412
#
# _framework density 22.778158000000001
#
# number of rings (size 3 to 8) (size 9 to 14) (size 15 to 20)
#    0.000    0.286    5.714    3.429    2.000    1.714 
#    2.571    0.000    0.000    0.000    0.000    0.000 
#    0.000    0.000    0.000    0.000    0.000    0.000 
#
# Total GULP energy -173569.687317 kJ/mol
# GULP energy per Si atom -12397.834808 kJ/mol
# Density = 2.272631 g / cm^3
# Si number density = 22.778158 Si / 1000 Ang^3
#
#
#
# Elastic Constant Matrix: (Units=GPa)
#
#
# Indices 1 2 3 4 5 6 
#
# 1 63.9699 30.3740 14.3400 -5.8991 -12.3435 3.1689
# 2 30.3740 146.7149 31.7534 -7.0103 -6.4622 6.4457
# 3 14.3400 31.7534 96.4590 9.5402 -20.5046 0.7695
# 4 -5.8991 -7.0103 9.5402 46.7613 -15.0720 -9.8747
# 5 -12.3435 -6.4622 -20.5046 -15.0720 39.2336 -1.3738
# 6 3.1689 6.4457 0.7695 -9.8747 -1.3738 38.6923
#
#
#
# Elastic Compliance Matrix: (Units=1/GPa)
#
#
# Indices 1 2 3 4 5 6 
#
# 1 0.019040 -0.003294 -0.000745 0.004298 0.006721 0.000340
# 2 -0.003294 0.008065 -0.002383 0.000902 -0.000636 -0.000819
# 3 -0.000745 -0.002383 0.012544 -0.001233 0.005458 0.000088
# 4 0.004298 0.000902 -0.001233 0.027552 0.011685 0.006969
# 5 0.006721 -0.000636 0.005458 0.011685 0.034969 0.003671
# 6 0.000340 -0.000819 0.000088 0.006969 0.003671 0.027861
#
#
# Mechanical properties :
#
#
# Convention : Reuss Voigt Hill
#
# Bulk Modulus (GPa) = 37.30764 51.11986 44.21375
# Shear Modulus (GPa) = 32.93619 40.31587 36.62603
#
# Velocity S-wave (km/s) = 3.80670 4.21162 4.01427
# Velocity P-wave (km/s) = 5.97792 6.79276 6.39832
#
# Compressibility (1/GPa) = 0.02680416
#
# Stress axis : x y z
#
# Youngs Moduli (GPa) = 52.52116 123.99738 79.72043
#
# Poissons Ratio (x) = 0.40845 0.05941
# Poissons Ratio (y) = 0.17300 0.18997
# Poissons Ratio (z) = 0.03914 0.29547
#
# Static dielectric constant tensor:
#      x y z
#    x 4.019380 -0.118600 -0.203750 
#    y -0.118600 4.438120 -0.021960 
#    z -0.203750 -0.021960 4.398470 
# 
# 
# High freq. dielectric constant tensor:
#      x y z
#    x 1.885570 -0.007170 -0.018250 
#    y -0.007170 1.918420 -0.000940 
#    z -0.018250 -0.000940 1.908490 
# 
# From -- ./inp_files/184623.got.cif
#   From: 2010.06.25/outbox.cif.g09.slc.cpg/sg2_93_cif.got.tgz:184623.got - 2010.06.27 13:26:56.
