data_PCOD8033021
_publ_section_title
;
Structure prediction by ZEFSAII (Michael W. Deem and Ramdas Pophale) SiO2 
 PCOD8033021
Probable space group: P -1
;
_chemical_formula_sum "Si O2"
_cell_formula_units_Z 12
_cell_length_a 12.318110
_cell_length_b 15.033748
_cell_length_c 8.458972
_cell_angle_alpha 136.084819
_cell_angle_beta 127.803629
_cell_angle_gamma 29.344983
_cell_volume 531.945253
_symmetry_space_group_name_H-M "P -1"
_symmetry_group_IT_number 2
_symmetry_cell_setting 'triclinic'
loop_
_space_group_symop_operation_xyz
x,y,z
-x,-y,-z
loop_
_atom_site_type_symbol
_atom_site_label
_atom_site_fract_x
_atom_site_fract_y
_atom_site_fract_z
Si Si1 0.280083 0.216509 0.012070
Si Si2 0.542671 0.839956 0.237675
Si Si3 0.740544 0.488782 0.567155
Si Si4 0.633046 0.320754 0.763012
Si Si5 0.871583 0.978071 0.780762
Si Si6 0.830655 0.408341 0.898459
O O1 0.332515 0.210030 0.871404
O O2 0.086381 0.254584 0.900848
O O3 0.210681 0.396557 0.271959
O O4 0.500000 0.000000 0.000000
O O5 0.500000 0.000000 0.500000
O O6 0.302306 0.947975 0.149802
O O7 0.708408 0.606660 0.153611
O O8 0.523880 0.608015 0.428741
O O9 0.699206 0.494047 0.723422
O O10 0.958899 0.257695 0.408724
O O11 0.822694 0.276022 0.805901
O O12 0.747404 0.114220 0.683402
O O13 0.500000 0.500000 0.000000
O O14 0.000000 0.000000 0.000000
#
# Coordination Sequence:
#
# PCOD8033021 Si02
#       6
#     2   2   2   2   2   2
#     4  11  27  45  71 104 137 186 236 283 348 413
#     4  11  23  44  71  96 139 180 230 287 343 405
#     4  11  25  47  72 103 142 183 230 289 348 406
#     4  12  25  45  72 106 138 183 236 280 348 420
#     4  12  25  44  72 105 142 181 228 289 348 406
#     4  11  24  48  69 101 145 180 231 290 345 411
#
# _framework density 22.558713000000001
#
# number of rings (size 3 to 8) (size 9 to 14) (size 15 to 20)
#    0.000    0.667    3.333    4.500    7.000    2.000 
#    0.000    2.500    0.000    0.000    0.000    0.000 
#    0.000    0.000    0.000    0.000    0.000    0.000 
#
# Total GULP energy -148754.249955 kJ/mol
# GULP energy per Si atom -12396.187496 kJ/mol
# Density = 2.250737 g / cm^3
# Si number density = 22.558713 Si / 1000 Ang^3
#
#
#
# Elastic Constant Matrix: (Units=GPa)
#
#
# Indices 1 2 3 4 5 6 
#
# 1 135.3328 45.7538 35.7523 -9.3728 19.2795 -38.8761
# 2 45.7538 145.7866 53.6600 6.0688 9.0741 -11.4695
# 3 35.7523 53.6600 116.3598 2.4291 2.7542 -17.6211
# 4 -9.3728 6.0688 2.4291 45.2455 -7.0643 2.3031
# 5 19.2795 9.0741 2.7542 -7.0643 22.7800 -1.9101
# 6 -38.8761 -11.4695 -17.6211 2.3031 -1.9101 38.6130
#
#
#
# Elastic Compliance Matrix: (Units=1/GPa)
#
#
# Indices 1 2 3 4 5 6 
#
# 1 0.013065 -0.002327 -0.001017 0.001131 -0.008693 0.011501
# 2 -0.002327 0.008976 -0.003539 -0.001715 -0.001817 -0.001280
# 3 -0.001017 -0.003539 0.010974 -0.000306 0.001101 0.003005
# 4 0.001131 -0.001715 -0.000306 0.023715 0.007069 -0.000576
# 5 -0.008693 -0.001817 0.001101 0.007069 0.053488 -0.006565
# 6 0.011501 -0.001280 0.003005 -0.000576 -0.006565 0.038179
#
#
# Mechanical properties :
#
#
# Convention : Reuss Voigt Hill
#
# Bulk Modulus (GPa) = 51.95319 74.20126 63.07722
# Shear Modulus (GPa) = 29.65929 38.81523 34.23726
#
# Velocity S-wave (km/s) = 3.62990 4.15255 3.89999
# Velocity P-wave (km/s) = 6.37561 7.48034 6.94996
#
# Compressibility (1/GPa) = 0.01924810
#
# Stress axis : x y z
#
# Youngs Moduli (GPa) = 76.53857 111.40507 91.12224
#
# Poissons Ratio (x) = 0.25925 0.09270
# Poissons Ratio (y) = 0.17812 0.32252
# Poissons Ratio (z) = 0.07787 0.39431
#
# Static dielectric constant tensor:
#      x y z
#    x 4.477860 0.098010 -0.008470 
#    y 0.098010 4.213850 0.089670 
#    z -0.008470 0.089670 4.708580 
# 
# 
# High freq. dielectric constant tensor:
#      x y z
#    x 1.899180 -0.008800 0.014300 
#    y -0.008800 1.889570 0.016520 
#    z 0.014300 0.016520 1.899010 
# 
# From -- ./inp_files/168004.got.cif
#   From: 2010.06.25/outbox.cif.g09.slc.cpg/sg2_85_cif.got.tgz:168004.got - 2010.06.27 13:26:56.
