data_PCOD8033805
_publ_section_title
;
Structure prediction by ZEFSAII (Michael W. Deem and Ramdas Pophale) SiO2 
 PCOD8033805
Probable space group: P -1
;
_chemical_formula_sum "Si O2"
_cell_formula_units_Z 16
_cell_length_a 8.929358
_cell_length_b 12.238403
_cell_length_c 8.938354
_cell_angle_alpha 53.275719
_cell_angle_beta 103.176037
_cell_angle_gamma 99.836826
_cell_volume 761.563451
_symmetry_space_group_name_H-M "P -1"
_symmetry_group_IT_number 2
_symmetry_cell_setting 'triclinic'
loop_
_space_group_symop_operation_xyz
x,y,z
-x,-y,-z
loop_
_atom_site_type_symbol
_atom_site_label
_atom_site_fract_x
_atom_site_fract_y
_atom_site_fract_z
Si Si1 0.890138 0.587344 0.805302
Si Si2 0.108410 0.110996 0.514377
Si Si3 0.537637 0.876080 0.505271
Si Si4 0.834763 0.493637 0.545827
Si Si5 0.355855 0.777806 0.255931
Si Si6 0.353181 0.273590 0.830389
Si Si7 0.155259 0.015611 0.932104
Si Si8 0.400544 0.365506 0.099271
O O1 0.958350 0.738326 0.649346
O O2 0.851569 0.496686 0.725411
O O3 0.743632 0.606658 0.855971
O O4 0.000000 0.500000 0.000000
O O5 0.282496 0.108475 0.500888
O O6 0.103654 0.069882 0.717808
O O7 0.000000 0.000000 0.500000
O O8 0.438478 0.862470 0.341402
O O9 0.498054 0.743989 0.705036
O O10 0.500000 0.000000 0.500000
O O11 0.738391 0.355157 0.592059
O O12 0.743999 0.625377 0.372567
O O13 0.000000 0.500000 0.500000
O O14 0.478668 0.730703 0.201042
O O15 0.238151 0.872128 0.064980
O O16 0.274961 0.123851 0.943648
O O17 0.353280 0.320581 0.960997
O O18 0.000000 0.000000 0.000000
O O19 0.500000 0.500000 0.000000
#
# Coordination Sequence:
#
# PCOD8033805 Si02
#       8
#     2   2   2   2   2   2   2   2
#     4  11  25  46  67  99 138 179 229 280 346 414
#     4  11  27  46  70 100 142 181 229 291 348 415
#     4  11  25  45  69 102 138 182 230 284 348 416
#     4  12  25  44  71 104 141 185 233 291 349 413
#     4  12  26  44  73 101 137 186 236 287 354 415
#     4  12  23  46  70  98 141 179 235 294 341 418
#     4  12  27  45  70 103 138 183 239 286 353 414
#     4  11  24  42  67 100 133 175 224 282 344 404
#
# _framework density 21.009412000000001
#
# number of rings (size 3 to 8) (size 9 to 14) (size 15 to 20)
#    0.000    0.500    2.500    5.250    8.750    1.000 
#    0.000    0.000    0.000    0.000    0.000    0.000 
#    0.000    0.000    0.000    0.000    0.000    0.000 
#
# Total GULP energy -198432.800931 kJ/mol
# GULP energy per Si atom -12402.050058 kJ/mol
# Density = 2.096159 g / cm^3
# Si number density = 21.009412 Si / 1000 Ang^3
#
#
#
# Elastic Constant Matrix: (Units=GPa)
#
#
# Indices 1 2 3 4 5 6 
#
# 1 135.7626 49.1503 57.6792 -10.7171 -9.9317 -11.0791
# 2 49.1503 124.8029 42.8538 7.0026 -10.1176 -0.3444
# 3 57.6792 42.8538 147.4769 -5.0790 8.7344 -12.9006
# 4 -10.7171 7.0026 -5.0790 56.7841 -3.5075 -4.4966
# 5 -9.9317 -10.1176 8.7344 -3.5075 41.8701 -6.4114
# 6 -11.0791 -0.3444 -12.9006 -4.4966 -6.4114 43.1281
#
#
#
# Elastic Compliance Matrix: (Units=1/GPa)
#
#
# Indices 1 2 3 4 5 6 
#
# 1 0.010325 -0.002897 -0.003079 0.002403 0.002960 0.002399
# 2 -0.002897 0.010129 -0.002094 -0.001966 0.001846 -0.001220
# 3 -0.003079 -0.002094 0.008905 0.000416 -0.002833 0.001478
# 4 0.002403 -0.001966 0.000416 0.018705 0.002031 0.002978
# 5 0.002960 0.001846 -0.002833 0.002031 0.026415 0.004066
# 6 0.002399 -0.001220 0.001478 0.002978 0.004066 0.025150
#
#
# Mechanical properties :
#
#
# Convention : Reuss Voigt Hill
#
# Bulk Modulus (GPa) = 75.65137 78.60102 77.12620
# Shear Modulus (GPa) = 41.60570 45.58041 43.59306
#
# Velocity S-wave (km/s) = 4.45492 4.66287 4.56008
# Velocity P-wave (km/s) = 7.90875 8.15373 8.03217
#
# Compressibility (1/GPa) = 0.01321853
#
# Stress axis : x y z
#
# Youngs Moduli (GPa) = 96.85452 98.72451 112.29936
#
# Poissons Ratio (x) = 0.28602 0.34576
# Poissons Ratio (y) = 0.28061 0.23515
# Poissons Ratio (z) = 0.29821 0.20673
#
# Static dielectric constant tensor:
#      x y z
#    x 3.795230 -0.157490 0.101320 
#    y -0.157490 3.538660 0.253860 
#    z 0.101320 0.253860 3.952630 
# 
# 
# High freq. dielectric constant tensor:
#      x y z
#    x 1.829550 -0.003470 -0.003890 
#    y -0.003470 1.838290 -0.004480 
#    z -0.003890 -0.004480 1.847550 
# 
# From -- ./inp_files/184289.got.cif
#   From: 2010.06.25/outbox.cif.g09.slc.cpg/sg2_93_cif.got.tgz:184289.got - 2010.06.27 13:26:56.
