data_PCOD8033497
_publ_section_title
;
Structure prediction by ZEFSAII (Michael W. Deem and Ramdas Pophale) SiO2 
 PCOD8033497
Probable space group: P -1
;
_chemical_formula_sum "Si O2"
_cell_formula_units_Z 12
_cell_length_a 9.382866
_cell_length_b 24.873742
_cell_length_c 5.167451
_cell_angle_alpha 113.828490
_cell_angle_beta 75.928119
_cell_angle_gamma 151.333802
_cell_volume 511.898900
_symmetry_space_group_name_H-M "P -1"
_symmetry_group_IT_number 2
_symmetry_cell_setting 'triclinic'
loop_
_space_group_symop_operation_xyz
x,y,z
-x,-y,-z
loop_
_atom_site_type_symbol
_atom_site_label
_atom_site_fract_x
_atom_site_fract_y
_atom_site_fract_z
Si Si1 0.560976 0.081026 0.487556
Si Si2 0.906429 0.417375 0.169630
Si Si3 0.497334 0.170076 0.971281
Si Si4 0.514295 0.365889 0.950853
Si Si5 0.065022 0.962430 0.155213
Si Si6 0.866167 0.772175 0.662817
O O1 0.673772 0.174673 0.796882
O O2 0.824654 0.158903 0.312558
O O3 0.500000 0.000000 0.500000
O O4 0.225120 0.982238 0.348496
O O5 0.000000 0.500000 0.500000
O O6 0.199582 0.496926 0.029105
O O7 0.756133 0.310110 0.179473
O O8 0.658794 0.353532 0.943979
O O9 0.224814 0.097790 0.754041
O O10 0.327398 0.094549 0.165122
O O11 0.259256 0.275292 0.665645
O O12 0.362583 0.335678 0.227805
O O13 0.926068 0.862669 0.839257
#
# Coordination Sequence:
#
# PCOD8033497 Si02
#       6
#     2   2   2   2   2   2
#     4  12  26  43  70 106 155 193 233 292 377 443
#     4  11  23  46  75 105 139 191 250 306 354 418
#     4  11  25  43  71 110 141 186 249 300 359 431
#     4  11  24  43  76 103 140 190 251 294 362 424
#     4  11  24  44  71 107 147 186 244 300 361 434
#     4  12  24  44  74 106 144 194 232 299 369 429
#
# _framework density 23.442129000000001
#
# number of rings (size 3 to 8) (size 9 to 14) (size 15 to 20)
#    0.000    0.667    5.000    2.000    2.333    5.333 
#    0.000    1.667    0.000    0.000    0.000    0.000 
#    0.000    0.000    0.000    0.000    0.000    0.000 
#
# Total GULP energy -148658.550678 kJ/mol
# GULP energy per Si atom -12388.212557 kJ/mol
# Density = 2.338877 g / cm^3
# Si number density = 23.442129 Si / 1000 Ang^3
#
#
#
# Elastic Constant Matrix: (Units=GPa)
#
#
# Indices 1 2 3 4 5 6 
#
# 1 133.1471 54.1064 40.9830 0.9463 -12.3038 7.1513
# 2 54.1064 172.2285 37.8269 -18.8729 -29.3762 -6.7034
# 3 40.9830 37.8269 73.3077 -8.6050 8.0412 -7.3120
# 4 0.9463 -18.8729 -8.6050 33.4642 1.1675 -11.2652
# 5 -12.3038 -29.3762 8.0412 1.1675 41.3942 -2.2695
# 6 7.1513 -6.7034 -7.3120 -11.2652 -2.2695 45.5140
#
#
#
# Elastic Compliance Matrix: (Units=1/GPa)
#
#
# Indices 1 2 3 4 5 6 
#
# 1 0.010806 -0.002247 -0.006119 -0.004592 0.002715 -0.004013
# 2 -0.002247 0.008939 -0.003195 0.004973 0.006304 0.002702
# 3 -0.006119 -0.003195 0.020725 0.005598 -0.008006 0.004807
# 4 -0.004592 0.004973 0.005598 0.038222 0.000648 0.011846
# 5 0.002715 0.006304 -0.008006 0.000648 0.031027 0.000923
# 6 -0.004013 0.002702 0.004807 0.011846 0.000923 0.026750
#
#
# Mechanical properties :
#
#
# Convention : Reuss Voigt Hill
#
# Bulk Modulus (GPa) = 57.63963 71.61288 64.62626
# Shear Modulus (GPa) = 30.23453 40.45893 35.34673
#
# Velocity S-wave (km/s) = 3.59521 4.15891 3.88729
# Velocity P-wave (km/s) = 6.47112 7.32647 6.91204
#
# Compressibility (1/GPa) = 0.01734918
#
# Stress axis : x y z
#
# Youngs Moduli (GPa) = 92.53993 111.86581 48.25054
#
# Poissons Ratio (x) = 0.25138 0.29524
# Poissons Ratio (y) = 0.20795 0.15415
# Poissons Ratio (z) = 0.56624 0.35738
#
# Static dielectric constant tensor:
#      x y z
#    x 4.710790 0.541830 -0.051720 
#    y 0.541830 4.881110 -0.122710 
#    z -0.051720 -0.122710 4.059040 
# 
# 
# High freq. dielectric constant tensor:
#      x y z
#    x 1.919490 0.014970 0.010970 
#    y 0.014970 1.942270 -0.008810 
#    z 0.010970 -0.008810 1.908800 
# 
# From -- ./inp_files/36973.got.cif
#   From: 2010.06.25/outbox.cif.g09.slc.cpg/sg2_19_cif.got.tgz:36973.got - 2010.06.27 13:26:56.
