data_PCOD8033466
_publ_section_title
;
Structure prediction by ZEFSAII (Michael W. Deem and Ramdas Pophale) SiO2 
 PCOD8033466
Probable space group: P -1
;
_chemical_formula_sum "Si O2"
_cell_formula_units_Z 16
_cell_length_a 12.273036
_cell_length_b 9.295292
_cell_length_c 12.449852
_cell_angle_alpha 123.077285
_cell_angle_beta 88.819622
_cell_angle_gamma 50.752145
_cell_volume 761.159280
_symmetry_space_group_name_H-M "P -1"
_symmetry_group_IT_number 2
_symmetry_cell_setting 'triclinic'
loop_
_space_group_symop_operation_xyz
x,y,z
-x,-y,-z
loop_
_atom_site_type_symbol
_atom_site_label
_atom_site_fract_x
_atom_site_fract_y
_atom_site_fract_z
Si Si1 0.385847 0.116255 0.205941
Si Si2 0.007312 0.442905 0.598148
Si Si3 0.440842 0.057459 0.648124
Si Si4 0.127815 0.605036 0.805174
Si Si5 0.206187 0.884218 0.859911
Si Si6 0.664693 0.192521 0.394658
Si Si7 0.167996 0.898924 0.434809
Si Si8 0.477094 0.312917 0.136458
O O1 0.186267 0.353373 0.275248
O O2 0.462151 0.201695 0.193107
O O3 0.419114 0.062588 0.312406
O O4 0.480941 0.841648 0.035706
O O5 0.000000 0.500000 0.500000
O O6 0.101584 0.480734 0.673705
O O7 0.125121 0.132972 0.478609
O O8 0.276672 0.379405 0.795162
O O9 0.500000 0.000000 0.500000
O O10 0.381747 0.938483 0.620941
O O11 0.186328 0.702690 0.778368
O O12 0.955308 0.839094 0.967515
O O13 0.211148 0.958562 0.771770
O O14 0.375086 0.728470 0.859275
O O15 0.500000 0.500000 0.500000
O O16 0.756760 0.178194 0.480983
O O17 0.302425 0.630478 0.249150
O O18 0.000000 0.000000 0.500000
#
# Coordination Sequence:
#
# PCOD8033466 Si02
#       8
#     2   2   2   2   2   2   2   2
#     4  11  24  45  74 101 142 188 228 293 366 416
#     4  12  26  46  68 102 145 184 229 293 360 415
#     4  12  25  44  70 106 138 181 237 289 357 422
#     4  11  26  46  69 102 139 187 237 292 347 427
#     4  11  24  46  72  99 142 183 240 290 353 420
#     4  12  24  43  72  99 137 187 233 290 350 419
#     4  12  26  44  69 109 138 178 242 292 346 428
#     4  11  23  46  73 104 140 182 237 294 355 423
#
# _framework density 21.020567
#
# number of rings (size 3 to 8) (size 9 to 14) (size 15 to 20)
#    0.000    0.500    6.250    1.500    1.750    1.500 
#    2.250    1.250    0.000    0.000    0.000    0.000 
#    0.000    0.000    0.000    0.000    0.000    0.000 
#
# Total GULP energy -198428.341578 kJ/mol
# GULP energy per Si atom -12401.771349 kJ/mol
# Density = 2.097272 g / cm^3
# Si number density = 21.020567 Si / 1000 Ang^3
#
#
#
# Elastic Constant Matrix: (Units=GPa)
#
#
# Indices 1 2 3 4 5 6 
#
# 1 117.3412 45.5922 51.5349 9.0875 -1.9182 9.4635
# 2 45.5922 133.6165 64.4405 9.4688 2.3005 3.2764
# 3 51.5349 64.4405 122.1352 14.2335 0.7168 12.7737
# 4 9.0875 9.4688 14.2335 48.3262 -0.1584 -2.6588
# 5 -1.9182 2.3005 0.7168 -0.1584 35.8886 0.8016
# 6 9.4635 3.2764 12.7737 -2.6588 0.8016 42.9151
#
#
#
# Elastic Compliance Matrix: (Units=1/GPa)
#
#
# Indices 1 2 3 4 5 6 
#
# 1 0.010959 -0.002072 -0.003309 -0.000751 0.000811 -0.001335
# 2 -0.002072 0.010476 -0.004736 -0.000212 -0.000712 0.001067
# 3 -0.003309 -0.004736 0.012649 -0.002331 -0.000073 -0.002817
# 4 -0.000751 -0.000212 -0.002331 0.021684 0.000066 0.002218
# 5 0.000811 -0.000712 -0.000073 0.000066 0.027969 -0.000621
# 6 -0.001335 0.001067 -0.002817 0.002218 -0.000621 0.024502
#
#
# Mechanical properties :
#
#
# Convention : Reuss Voigt Hill
#
# Bulk Modulus (GPa) = 72.19259 77.35869 74.77564
# Shear Modulus (GPa) = 37.56851 39.52767 38.54809
#
# Velocity S-wave (km/s) = 4.23215 4.34109 4.28697
# Velocity P-wave (km/s) = 7.63543 7.87452 7.75590
#
# Compressibility (1/GPa) = 0.01385184
#
# Stress axis : x y z
#
# Youngs Moduli (GPa) = 91.24547 95.45458 79.05643
#
# Poissons Ratio (x) = 0.19776 0.26158
# Poissons Ratio (y) = 0.18904 0.37441
# Poissons Ratio (z) = 0.30191 0.45207
#
# Static dielectric constant tensor:
#      x y z
#    x 4.123320 -0.236830 0.005020 
#    y -0.236830 4.281600 0.023230 
#    z 0.005020 0.023230 4.146680 
# 
# 
# High freq. dielectric constant tensor:
#      x y z
#    x 1.844320 -0.002040 -0.000620 
#    y -0.002040 1.825190 0.011190 
#    z -0.000620 0.011190 1.830980 
# 
# From -- ./inp_files/298328.got.cif
#   From: 2010.06.25/outbox.cif.g09.slc.cpg/sg2_150_cif.got.tgz:298328.got - 2010.06.27 13:26:56.
