data_PCOD8033981
_publ_section_title
;
Structure prediction by ZEFSAII (Michael W. Deem and Ramdas Pophale) SiO2 
 PCOD8033981
Probable space group: P -1
;
_chemical_formula_sum "Si O2"
_cell_formula_units_Z 16
_cell_length_a 15.044581
_cell_length_b 23.690941
_cell_length_c 17.470941
_cell_angle_alpha 21.661928
_cell_angle_beta 32.998930
_cell_angle_gamma 19.783021
_cell_volume 745.260701
_symmetry_space_group_name_H-M "P -1"
_symmetry_group_IT_number 2
_symmetry_cell_setting 'triclinic'
loop_
_space_group_symop_operation_xyz
x,y,z
-x,-y,-z
loop_
_atom_site_type_symbol
_atom_site_label
_atom_site_fract_x
_atom_site_fract_y
_atom_site_fract_z
Si Si1 0.529739 0.455500 0.623670
Si Si2 0.047156 0.637311 0.811759
Si Si3 0.590398 0.150705 0.403281
Si Si4 0.883851 0.664197 0.570664
Si Si5 0.483616 0.272466 0.593373
Si Si6 0.992819 0.701644 0.946626
Si Si7 0.151501 0.984807 0.773170
Si Si8 0.549054 0.421933 0.210804
O O1 0.500000 0.500000 0.500000
O O2 0.326062 0.478002 0.770155
O O3 0.467716 0.662602 0.448401
O O4 0.838820 0.171535 0.776631
O O5 0.088198 0.623822 0.888771
O O6 0.784717 0.927839 0.606612
O O7 0.000000 0.500000 0.000000
O O8 0.344817 0.224532 0.462532
O O9 0.461355 0.395052 0.231710
O O10 0.774385 0.061109 0.311736
O O11 0.782574 0.902708 0.376214
O O12 0.166483 0.464686 0.570863
O O13 0.931616 0.514888 0.795510
O O14 0.585155 0.285245 0.429363
O O15 0.669318 0.980669 0.836423
O O16 0.163576 0.711679 0.848761
O O17 0.327775 0.717658 0.020681
#
# Coordination Sequence:
#
# PCOD8033981 Si02
#       8
#     2   2   2   2   2   2   2   2
#     4  11  24  43  68  98 134 177 229 281 333 410
#     4  12  26  43  72 103 137 178 231 281 341 403
#     4  12  24  45  69 105 135 180 231 282 337 411
#     4  11  27  44  72  99 142 180 227 283 345 403
#     4  11  25  46  68 101 136 181 226 282 347 400
#     4  12  24  47  71  98 138 183 225 285 340 411
#     4  11  25  44  71  99 139 182 227 281 343 405
#     4  12  25  43  72 100 134 183 231 278 344 407
#
# _framework density 21.468996000000001
#
# number of rings (size 3 to 8) (size 9 to 14) (size 15 to 20)
#    0.000    0.500    5.000    3.000    3.500    3.500 
#    2.250    0.000    0.000    0.000    0.000    0.000 
#    0.000    0.000    0.000    0.000    0.000    0.000 
#
# Total GULP energy -198487.116866 kJ/mol
# GULP energy per Si atom -12405.444804 kJ/mol
# Density = 2.142013 g / cm^3
# Si number density = 21.468996 Si / 1000 Ang^3
#
#
#
# Elastic Constant Matrix: (Units=GPa)
#
#
# Indices 1 2 3 4 5 6 
#
# 1 121.5125 45.2774 40.4939 -4.2857 -24.6462 -2.6292
# 2 45.2774 124.3433 44.1212 0.1139 -21.7250 -10.1859
# 3 40.4939 44.1212 96.0858 -9.0174 -13.4434 -11.1950
# 4 -4.2857 0.1139 -9.0174 36.6866 -2.8526 -2.0733
# 5 -24.6462 -21.7250 -13.4434 -2.8526 27.0502 -1.8086
# 6 -2.6292 -10.1859 -11.1950 -2.0733 -1.8086 36.5552
#
#
#
# Elastic Compliance Matrix: (Units=1/GPa)
#
#
# Indices 1 2 3 4 5 6 
#
# 1 0.011450 -0.001842 -0.002798 0.001248 0.007687 -0.000096
# 2 -0.001842 0.011051 -0.003299 -0.000497 0.005651 0.002188
# 3 -0.002798 -0.003299 0.014195 0.003565 0.002469 0.003551
# 4 0.001248 -0.000497 0.003565 0.028897 0.005755 0.002967
# 5 0.007687 0.005651 0.002469 0.005755 0.050727 0.005720
# 6 -0.000096 0.002188 0.003551 0.002967 0.005720 0.029497
#
#
# Mechanical properties :
#
#
# Convention : Reuss Voigt Hill
#
# Bulk Modulus (GPa) = 48.03744 66.85851 57.44798
# Shear Modulus (GPa) = 29.64998 34.19501 31.92250
#
# Velocity S-wave (km/s) = 3.72029 3.99527 3.86023
# Velocity P-wave (km/s) = 6.39359 7.24517 6.83266
#
# Compressibility (1/GPa) = 0.02081709
#
# Stress axis : x y z
#
# Youngs Moduli (GPa) = 87.33973 90.49197 70.44654
#
# Poissons Ratio (x) = 0.16671 0.19709
# Poissons Ratio (y) = 0.16090 0.23241
# Poissons Ratio (z) = 0.24436 0.29854
#
# Static dielectric constant tensor:
#      x y z
#    x 3.947570 -0.013080 -0.162970 
#    y -0.013080 4.205930 -0.160010 
#    z -0.162970 -0.160010 4.050450 
# 
# 
# High freq. dielectric constant tensor:
#      x y z
#    x 1.850590 -0.000760 -0.002110 
#    y -0.000760 1.854140 -0.004210 
#    z -0.002110 -0.004210 1.845670 
# 
# From -- ./inp_files/190254.got.cif
#   From: 2010.06.25/outbox.cif.g09.slc.cpg/sg2_96_cif.got.tgz:190254.got - 2010.06.27 13:26:56.
