data_PCOD8033782
_publ_section_title
;
Structure prediction by ZEFSAII (Michael W. Deem and Ramdas Pophale) SiO2 
 PCOD8033782
Probable space group: P -1
;
_chemical_formula_sum "Si O2"
_cell_formula_units_Z 16
_cell_length_a 11.696350
_cell_length_b 8.489947
_cell_length_c 13.653577
_cell_angle_alpha 66.480998
_cell_angle_beta 33.520465
_cell_angle_gamma 71.940968
_cell_volume 685.842265
_symmetry_space_group_name_H-M "P -1"
_symmetry_group_IT_number 2
_symmetry_cell_setting 'triclinic'
loop_
_space_group_symop_operation_xyz
x,y,z
-x,-y,-z
loop_
_atom_site_type_symbol
_atom_site_label
_atom_site_fract_x
_atom_site_fract_y
_atom_site_fract_z
Si Si1 0.195972 0.086963 0.391824
Si Si2 0.497075 0.564113 0.151379
Si Si3 0.748082 0.809483 0.262668
Si Si4 0.423006 0.064939 0.937141
Si Si5 0.288098 0.844743 0.533865
Si Si6 0.978819 0.917146 0.883659
Si Si7 0.251268 0.501774 0.523864
Si Si8 0.204271 0.480868 0.220407
O O1 0.224078 0.285902 0.295246
O O2 0.407133 0.989432 0.246665
O O3 0.186404 0.026800 0.526993
O O4 0.000000 0.000000 0.500000
O O5 0.595219 0.732603 0.089137
O O6 0.412618 0.455007 0.333104
O O7 0.307113 0.600992 0.202651
O O8 0.674556 0.481489 0.978383
O O9 0.521216 0.882705 0.394486
O O10 0.719584 0.618514 0.374025
O O11 0.882841 0.926356 0.210633
O O12 0.862935 0.801320 0.078342
O O13 0.195262 0.997868 0.081731
O O14 0.500000 0.000000 0.000000
O O15 0.131564 0.791944 0.747777
O O16 0.277885 0.697421 0.494002
O O17 0.028672 0.471516 0.639584
#
# Coordination Sequence:
#
# PCOD8033782 Si02
#       8
#     2   2   2   2   2   2   2   2
#     4  12  22  41  69 102 137 173 223 277 335 404
#     4  11  24  42  62 100 139 175 226 273 344 399
#     4  11  27  47  69  99 137 182 226 285 334 403
#     4  12  22  41  72  99 136 178 221 282 340 399
#     4  12  24  45  71 100 133 177 233 275 338 406
#     4  11  26  47  70 100 135 178 233 279 341 406
#     4  12  25  43  69  97 138 176 230 276 337 400
#     4  11  25  42  64 102 140 181 217 278 341 404
#
# _framework density 23.328980999999999
#
# number of rings (size 3 to 8) (size 9 to 14) (size 15 to 20)
#    0.000    0.500    5.000    2.625    3.500    1.500 
#    0.000    0.000    0.000    0.000    0.000    0.000 
#    0.000    0.000    0.000    0.000    0.000    0.000 
#
# Total GULP energy -198283.030979 kJ/mol
# GULP energy per Si atom -12392.689436 kJ/mol
# Density = 2.327588 g / cm^3
# Si number density = 23.328981 Si / 1000 Ang^3
#
#
#
# Elastic Constant Matrix: (Units=GPa)
#
#
# Indices 1 2 3 4 5 6 
#
# 1 131.4685 26.0846 61.6067 -3.4778 -16.0834 -11.4857
# 2 26.0846 39.3742 27.3143 -2.8959 4.8207 -15.9648
# 3 61.6067 27.3143 162.0440 2.4561 6.3610 -7.6691
# 4 -3.4778 -2.8959 2.4561 24.9846 2.1745 8.4079
# 5 -16.0834 4.8207 6.3610 2.1745 61.2444 -5.4460
# 6 -11.4857 -15.9648 -7.6691 8.4079 -5.4460 37.0824
#
#
#
# Elastic Compliance Matrix: (Units=1/GPa)
#
#
# Indices 1 2 3 4 5 6 
#
# 1 0.010658 -0.004738 -0.003359 0.000633 0.003583 0.000949
# 2 -0.004738 0.036756 -0.003660 -0.000288 -0.002565 0.013288
# 3 -0.003359 -0.003660 0.008101 -0.001268 -0.001468 -0.000869
# 4 0.000633 -0.000288 -0.001268 0.043915 -0.002169 -0.010466
# 5 0.003583 -0.002565 -0.001468 -0.002169 0.017952 0.002830
# 6 0.000949 0.013288 -0.000869 -0.010466 0.002830 0.035591
#
#
# Mechanical properties :
#
#
# Convention : Reuss Voigt Hill
#
# Bulk Modulus (GPa) = 31.24892 62.54421 46.89657
# Shear Modulus (GPa) = 26.71584 39.18768 32.95176
#
# Velocity S-wave (km/s) = 3.38772 4.10296 3.76238
# Velocity P-wave (km/s) = 5.35968 7.02237 6.24659
#
# Compressibility (1/GPa) = 0.03200111
#
# Stress axis : x y z
#
# Youngs Moduli (GPa) = 93.82251 27.20616 123.44393
#
# Poissons Ratio (x) = 0.12890 0.41463
# Poissons Ratio (y) = 0.44454 0.45185
# Poissons Ratio (z) = 0.31513 0.09958
#
# Static dielectric constant tensor:
#      x y z
#    x 4.321220 0.116100 -0.074100 
#    y 0.116100 3.826310 -0.068130 
#    z -0.074100 -0.068130 4.252370 
# 
# 
# High freq. dielectric constant tensor:
#      x y z
#    x 1.940150 0.007990 0.002340 
#    y 0.007990 1.885630 -0.009370 
#    z 0.002340 -0.009370 1.950900 
# 
# From -- ./inp_files/515278.got.cif
#   From: 2010.06.25/outbox.cif.g09.slc.cpg/sg2_258_cif.got.tgz:515278.got - 2010.06.27 13:26:56.
