data_PCOD8033599
_publ_section_title
;
Structure prediction by ZEFSAII (Michael W. Deem and Ramdas Pophale) SiO2 
 PCOD8033599
Probable space group: P -1
;
_chemical_formula_sum "Si O2"
_cell_formula_units_Z 16
_cell_length_a 9.111337
_cell_length_b 15.326528
_cell_length_c 12.058217
_cell_angle_alpha 140.568298
_cell_angle_beta 48.682377
_cell_angle_gamma 134.827836
_cell_volume 733.082049
_symmetry_space_group_name_H-M "P -1"
_symmetry_group_IT_number 2
_symmetry_cell_setting 'triclinic'
loop_
_space_group_symop_operation_xyz
x,y,z
-x,-y,-z
loop_
_atom_site_type_symbol
_atom_site_label
_atom_site_fract_x
_atom_site_fract_y
_atom_site_fract_z
Si Si1 0.699237 0.646336 0.588558
Si Si2 0.194480 0.452549 0.337100
Si Si3 0.488190 0.234767 0.465199
Si Si4 0.363873 0.076010 0.583197
Si Si5 0.714055 0.644795 0.031549
Si Si6 0.049724 0.650770 0.049935
Si Si7 0.032908 0.185804 0.559568
Si Si8 0.434929 0.821984 0.860735
O O1 0.500000 0.500000 0.500000
O O2 0.791518 0.644218 0.660723
O O3 0.889865 0.678045 0.435554
O O4 0.642868 0.792181 0.758683
O O5 0.421348 0.597525 0.364602
O O6 0.000000 0.500000 0.500000
O O7 0.162949 0.356006 0.145553
O O8 0.498469 0.128621 0.454207
O O9 0.240418 0.171950 0.493075
O O10 0.634912 0.233852 0.285971
O O11 0.344743 0.211033 0.794934
O O12 0.500000 0.000000 0.500000
O O13 0.119179 0.965248 0.573980
O O14 0.847091 0.634670 0.061899
O O15 0.500000 0.500000 0.000000
O O16 0.098889 0.780939 0.243984
O O17 0.254714 0.714623 0.929618
O O18 0.000000 0.500000 0.000000
O O19 0.500000 0.000000 0.000000
#
# Coordination Sequence:
#
# PCOD8033599 Si02
#       8
#     2   2   2   2   2   2   2   2
#     4  11  24  46  75 104 137 194 248 293 367 446
#     4  12  26  46  74 106 151 191 245 307 366 439
#     4  11  23  48  70 100 146 193 238 301 366 431
#     4  12  28  46  74 110 151 195 240 305 386 442
#     4  12  28  48  71 107 149 193 248 307 371 444
#     4  12  27  43  79 111 142 190 262 304 362 445
#     4  11  24  45  75 101 145 184 248 301 365 426
#     4  11  25  42  72 111 142 181 245 312 368 430
#
# _framework density 21.825659999999999
#
# number of rings (size 3 to 8) (size 9 to 14) (size 15 to 20)
#    0.000    0.500    5.000    2.625   10.500    1.000 
#    0.000    0.625    0.000    0.000    0.000    0.000 
#    0.000    0.000    0.000    0.000    0.000    0.000 
#
# Total GULP energy -198291.114779 kJ/mol
# GULP energy per Si atom -12393.194674 kJ/mol
# Density = 2.177598 g / cm^3
# Si number density = 21.825660 Si / 1000 Ang^3
#
#
#
# Elastic Constant Matrix: (Units=GPa)
#
#
# Indices 1 2 3 4 5 6 
#
# 1 128.0520 50.2754 62.1021 7.5347 -3.8783 -26.3395
# 2 50.2754 131.1078 67.5359 -12.3168 10.7405 -25.3971
# 3 62.1021 67.5359 155.0288 -1.9547 7.6715 -11.9618
# 4 7.5347 -12.3168 -1.9547 47.6913 -5.0413 5.8467
# 5 -3.8783 10.7405 7.6715 -5.0413 34.4907 1.9592
# 6 -26.3395 -25.3971 -11.9618 5.8467 1.9592 50.3781
#
#
#
# Elastic Compliance Matrix: (Units=1/GPa)
#
#
# Indices 1 2 3 4 5 6 
#
# 1 0.011463 -0.002236 -0.003425 -0.002835 0.002088 0.004301
# 2 -0.002236 0.011545 -0.003682 0.002438 -0.002876 0.003606
# 3 -0.003425 -0.003682 0.009383 0.000011 -0.001246 -0.001372
# 4 -0.002835 0.002438 0.000011 0.022665 0.002401 -0.002975
# 5 0.002088 -0.002876 -0.001246 0.002401 0.030873 -0.002133
# 6 0.004301 0.003606 -0.001372 -0.002975 -0.002133 0.024019
#
#
# Mechanical properties :
#
#
# Convention : Reuss Voigt Hill
#
# Bulk Modulus (GPa) = 72.97335 86.00170 79.48753
# Shear Modulus (GPa) = 37.53746 42.13039 39.83393
#
# Velocity S-wave (km/s) = 4.15164 4.39830 4.27675
# Velocity P-wave (km/s) = 7.51590 8.07978 7.80294
#
# Compressibility (1/GPa) = 0.01370363
#
# Stress axis : x y z
#
# Youngs Moduli (GPa) = 87.23789 86.62133 106.58043
#
# Poissons Ratio (x) = 0.19365 0.36506
# Poissons Ratio (y) = 0.19503 0.39247
# Poissons Ratio (z) = 0.29881 0.31897
#
# Static dielectric constant tensor:
#      x y z
#    x 4.628870 -0.074270 0.045450 
#    y -0.074270 4.365360 -0.442510 
#    z 0.045450 -0.442510 4.642780 
# 
# 
# High freq. dielectric constant tensor:
#      x y z
#    x 1.856470 -0.010850 0.011270 
#    y -0.010850 1.874170 -0.011230 
#    z 0.011270 -0.011230 1.863350 
# 
# From -- ./inp_files/399758.got.cif
#   From: 2010.06.25/outbox.cif.g09.slc.cpg/sg2_200_cif.got.tgz:399758.got - 2010.06.27 13:26:56.
