data_PCOD8033949
_publ_section_title
;
Structure prediction by ZEFSAII (Michael W. Deem and Ramdas Pophale) SiO2 
 PCOD8033949
Probable space group: P -1
;
_chemical_formula_sum "Si O2"
_cell_formula_units_Z 16
_cell_length_a 9.314804
_cell_length_b 11.783710
_cell_length_c 11.497497
_cell_angle_alpha 52.878609
_cell_angle_beta 72.875227
_cell_angle_gamma 60.802969
_cell_volume 878.417229
_symmetry_space_group_name_H-M "P -1"
_symmetry_group_IT_number 2
_symmetry_cell_setting 'triclinic'
loop_
_space_group_symop_operation_xyz
x,y,z
-x,-y,-z
loop_
_atom_site_type_symbol
_atom_site_label
_atom_site_fract_x
_atom_site_fract_y
_atom_site_fract_z
Si Si1 0.434846 0.889477 0.426145
Si Si2 0.382010 0.953647 0.135931
Si Si3 0.479314 0.692824 0.108226
Si Si4 0.676506 0.791837 0.625468
Si Si5 0.573330 0.319547 0.118677
Si Si6 0.006430 0.403072 0.227158
Si Si7 0.689841 0.346860 0.306090
Si Si8 0.176940 0.280861 0.020708
O O1 0.460891 0.912333 0.270573
O O2 0.612576 0.818602 0.491228
O O3 0.344145 0.772920 0.528470
O O4 0.323519 0.050584 0.416754
O O5 0.372733 0.801875 0.171606
O O6 0.205140 0.103413 0.090384
O O7 0.500000 0.000000 0.000000
O O8 0.529057 0.512263 0.242962
O O9 0.368194 0.751779 0.980215
O O10 0.648594 0.708235 0.030390
O O11 0.562800 0.734611 0.765637
O O12 0.864863 0.662447 0.657096
O O13 0.716503 0.281518 0.205772
O O14 0.500000 0.500000 0.000000
O O15 0.105114 0.316911 0.143611
O O16 0.850776 0.360990 0.308167
O O17 0.947494 0.590341 0.117127
#
# Coordination Sequence:
#
# PCOD8033949 Si02
#       8
#     2   2   2   2   2   2   2   2
#     4  10  20  33  49  79 103 130 174 212 249 299
#     4  10  18  32  53  75  97 133 177 212 245 300
#     4   9  16  30  51  73 102 136 171 208 242 298
#     4  10  18  32  52  74 108 131 165 213 254 300
#     4   9  16  30  49  78 102 123 171 213 249 286
#     4  10  17  31  53  78 106 133 162 209 261 304
#     4   9  20  30  48  81 104 131 165 212 260 295
#     4   9  17  28  50  79 100 128 173 208 245 300
#
# _framework density 18.214577999999999
#
# number of rings (size 3 to 8) (size 9 to 14) (size 15 to 20)
#    0.000    2.500    2.500    0.750    1.750    1.000 
#    0.000    0.000    0.000    7.500    6.500    0.000 
#    0.000    0.000    0.000    0.000    0.000    0.000 
#
# Total GULP energy -198219.412777 kJ/mol
# GULP energy per Si atom -12388.713299 kJ/mol
# Density = 1.817312 g / cm^3
# Si number density = 18.214578 Si / 1000 Ang^3
#
#
#
# Elastic Constant Matrix: (Units=GPa)
#
#
# Indices 1 2 3 4 5 6 
#
# 1 62.9790 27.4870 38.0116 -7.6006 23.0364 -0.6735
# 2 27.4870 110.8198 46.0638 -9.3659 15.0929 5.7176
# 3 38.0116 46.0638 113.4104 -7.4421 16.7082 4.1515
# 4 -7.6006 -9.3659 -7.4421 28.9071 5.5631 4.3320
# 5 23.0364 15.0929 16.7082 5.5631 35.6459 -4.3413
# 6 -0.6735 5.7176 4.1515 4.3320 -4.3413 20.7954
#
#
#
# Elastic Compliance Matrix: (Units=1/GPa)
#
#
# Indices 1 2 3 4 5 6 
#
# 1 0.026426 -0.001330 -0.005342 0.008577 -0.015688 -0.002774
# 2 -0.001330 0.011817 -0.003400 0.003941 -0.003678 -0.004202
# 3 -0.005342 -0.003400 0.012358 0.001279 -0.001376 -0.002259
# 4 0.008577 0.003941 0.001279 0.043615 -0.016268 -0.013543
# 5 -0.015688 -0.003678 -0.001376 -0.016268 0.044574 0.013472
# 6 -0.002774 -0.004202 -0.002259 -0.013543 0.013472 0.055238
#
#
# Mechanical properties :
#
#
# Convention : Reuss Voigt Hill
#
# Bulk Modulus (GPa) = 32.83055 56.70378 44.76716
# Shear Modulus (GPa) = 22.28917 28.77946 25.53432
#
# Velocity S-wave (km/s) = 3.50194 3.97926 3.74821
# Velocity P-wave (km/s) = 5.86642 7.23265 6.58506
#
# Compressibility (1/GPa) = 0.03045943
#
# Stress axis : x y z
#
# Youngs Moduli (GPa) = 37.84097 84.62031 80.91862
#
# Poissons Ratio (x) = 0.11252 0.43224
# Poissons Ratio (y) = 0.05032 0.27512
# Poissons Ratio (z) = 0.20213 0.28770
#
# Static dielectric constant tensor:
#      x y z
#    x 3.331850 0.262860 0.274270 
#    y 0.262860 3.774420 -0.199500 
#    z 0.274270 -0.199500 3.507910 
# 
# 
# High freq. dielectric constant tensor:
#      x y z
#    x 1.674430 0.018100 0.010960 
#    y 0.018100 1.686170 -0.025560 
#    z 0.010960 -0.025560 1.712480 
# 
# From -- ./inp_files/257583.got.cif
#   From: 2010.06.25/outbox.cif.g09.slc.cpg/sg2_129_cif.got.tgz:257583.got - 2010.06.27 13:26:56.
