data_PCOD8033828
_publ_section_title
;
Structure prediction by ZEFSAII (Michael W. Deem and Ramdas Pophale) SiO2 
 PCOD8033828
Probable space group: P -1
;
_chemical_formula_sum "Si O2"
_cell_formula_units_Z 16
_cell_length_a 11.692208
_cell_length_b 14.270858
_cell_length_c 8.978219
_cell_angle_alpha 92.568723
_cell_angle_beta 101.603482
_cell_angle_gamma 31.852073
_cell_volume 751.056883
_symmetry_space_group_name_H-M "P -1"
_symmetry_group_IT_number 2
_symmetry_cell_setting 'triclinic'
loop_
_space_group_symop_operation_xyz
x,y,z
-x,-y,-z
loop_
_atom_site_type_symbol
_atom_site_label
_atom_site_fract_x
_atom_site_fract_y
_atom_site_fract_z
Si Si1 0.626878 0.935912 0.179978
Si Si2 0.910585 0.055904 0.314368
Si Si3 0.827509 0.483028 0.184344
Si Si4 0.994578 0.193461 0.850035
Si Si5 0.621078 0.592081 0.832082
Si Si6 0.745176 0.691682 0.720129
Si Si7 0.387571 0.230980 0.640955
Si Si8 0.089127 0.116087 0.209533
O O1 0.854407 0.836579 0.202125
O O2 0.692406 0.794326 0.268054
O O3 0.470314 0.105412 0.257519
O O4 0.500000 0.000000 0.000000
O O5 0.640904 0.231783 0.265510
O O6 0.973985 0.102981 0.240905
O O7 0.025683 0.888475 0.251275
O O8 0.000000 0.000000 0.500000
O O9 0.694234 0.613095 0.302647
O O10 0.024343 0.417259 0.173563
O O11 0.938091 0.306955 0.241035
O O12 0.643637 0.600894 0.012786
O O13 0.740681 0.410206 0.816003
O O14 0.104553 0.100251 0.033953
O O15 0.746217 0.584436 0.766917
O O16 0.739556 0.699513 0.541189
O O17 0.657887 0.045734 0.671474
#
# Coordination Sequence:
#
# PCOD8033828 Si02
#       8
#     2   2   2   2   2   2   2   2
#     4  12  21  41  70  97 135 177 218 264 333 399
#     4  12  27  45  69  95 133 176 224 280 331 383
#     4  11  24  42  68  98 133 176 219 271 332 403
#     4  11  24  44  70  97 130 177 222 275 324 395
#     4  11  24  45  68  96 131 174 224 271 332 397
#     4  12  23  41  66 101 141 171 216 275 336 398
#     4  12  24  40  67 100 139 174 213 278 336 390
#     4  11  25  44  67  96 130 176 229 267 326 392
#
# _framework density 21.303311999999998
#
# number of rings (size 3 to 8) (size 9 to 14) (size 15 to 20)
#    0.000    0.500    3.750    5.250    0.000    4.500 
#    0.000    0.000    0.000    0.000    0.000    0.000 
#    0.000    0.000    0.000    0.000    0.000    0.000 
#
# Total GULP energy -198534.329393 kJ/mol
# GULP energy per Si atom -12408.395587 kJ/mol
# Density = 2.125482 g / cm^3
# Si number density = 21.303312 Si / 1000 Ang^3
#
#
#
# Elastic Constant Matrix: (Units=GPa)
#
#
# Indices 1 2 3 4 5 6 
#
# 1 122.1184 34.7613 24.2608 1.7449 2.3805 20.6178
# 2 34.7613 113.2471 60.7082 7.8729 7.8712 15.4383
# 3 24.2608 60.7082 94.2282 14.7566 15.1919 12.9846
# 4 1.7449 7.8729 14.7566 27.8398 -9.2317 3.1896
# 5 2.3805 7.8712 15.1919 -9.2317 25.6907 -6.5335
# 6 20.6178 15.4383 12.9846 3.1896 -6.5335 28.2472
#
#
#
# Elastic Compliance Matrix: (Units=1/GPa)
#
#
# Indices 1 2 3 4 5 6 
#
# 1 0.009912 -0.001978 -0.000084 0.000107 -0.001894 -0.006565
# 2 -0.001978 0.014268 -0.008684 0.001221 0.000797 -0.002316
# 3 -0.000084 -0.008684 0.022478 -0.014456 -0.017859 -0.008023
# 4 0.000107 0.001221 -0.014456 0.051924 0.028509 0.006630
# 5 -0.001894 0.000797 -0.017859 0.028509 0.064994 0.020970
# 6 -0.006565 -0.002316 -0.008023 0.006630 0.020970 0.049249
#
#
# Mechanical properties :
#
#
# Convention : Reuss Voigt Hill
#
# Bulk Modulus (GPa) = 39.73707 63.22827 51.48267
# Shear Modulus (GPa) = 20.60105 30.34643 25.47374
#
# Velocity S-wave (km/s) = 3.11309 3.77834 3.46173
# Velocity P-wave (km/s) = 5.62275 6.98419 6.34012
#
# Compressibility (1/GPa) = 0.02516542
#
# Stress axis : x y z
#
# Youngs Moduli (GPa) = 100.88287 70.08724 44.48881
#
# Poissons Ratio (x) = 0.13865 0.00376
# Poissons Ratio (y) = 0.19957 0.38632
# Poissons Ratio (z) = 0.00852 0.60861
#
# Static dielectric constant tensor:
#      x y z
#    x 3.919500 0.137020 -0.013670 
#    y 0.137020 4.015150 0.055380 
#    z -0.013670 0.055380 3.874910 
# 
# 
# High freq. dielectric constant tensor:
#      x y z
#    x 1.836680 0.007540 -0.000080 
#    y 0.007540 1.852210 0.001900 
#    z -0.000080 0.001900 1.839850 
# 
# From -- ./inp_files/226073.got.cif
#   From: 2010.06.25/outbox.cif.g09.slc.cpg/sg2_114_cif.got.tgz:226073.got - 2010.06.27 13:26:56.
