data_PCOD8033569
_publ_section_title
;
Structure prediction by ZEFSAII (Michael W. Deem and Ramdas Pophale) SiO2 
 PCOD8033569
Probable space group: P -1
;
_chemical_formula_sum "Si O2"
_cell_formula_units_Z 12
_cell_length_a 9.422036
_cell_length_b 9.628065
_cell_length_c 13.116046
_cell_angle_alpha 146.445019
_cell_angle_beta 104.796435
_cell_angle_gamma 59.684600
_cell_volume 532.598367
_symmetry_space_group_name_H-M "P -1"
_symmetry_group_IT_number 2
_symmetry_cell_setting 'triclinic'
loop_
_space_group_symop_operation_xyz
x,y,z
-x,-y,-z
loop_
_atom_site_type_symbol
_atom_site_label
_atom_site_fract_x
_atom_site_fract_y
_atom_site_fract_z
Si Si1 0.587574 0.625461 0.881860
Si Si2 0.689655 0.913321 0.758570
Si Si3 0.093773 0.847116 0.027596
Si Si4 0.328067 0.584581 0.462536
Si Si5 0.475188 0.241453 0.723630
Si Si6 0.854875 0.796235 0.104486
O O1 0.626137 0.528659 0.713275
O O2 0.602852 0.355446 0.786540
O O3 0.704465 0.746730 0.014297
O O4 0.390384 0.910025 0.039855
O O5 0.754196 0.570229 0.582500
O O6 0.537924 0.078828 0.745487
O O7 0.854189 0.937266 0.776193
O O8 0.269437 0.509589 0.849341
O O9 0.936227 0.858952 0.062118
O O10 0.000000 0.000000 0.000000
O O11 0.500000 0.500000 0.500000
O O12 0.202288 0.942796 0.662646
O O13 0.500000 0.000000 0.500000
O O14 0.000000 0.500000 0.000000
#
# Coordination Sequence:
#
# PCOD8033569 Si02
#       6
#     2   2   2   2   2   2
#     4  11  24  46  74 100 137 187 235 284 341 421
#     4  11  23  47  73 103 137 187 240 285 342 423
#     4  11  26  45  69 103 145 179 226 303 349 397
#     4  12  26  42  76 102 136 188 238 280 343 425
#     4  11  25  46  77  99 137 190 241 277 344 431
#     4  12  27  47  68 104 148 176 228 297 355 404
#
# _framework density 22.53105
#
# number of rings (size 3 to 8) (size 9 to 14) (size 15 to 20)
#    0.000    0.667    1.667    6.500    9.333    1.333 
#    6.000    0.000    0.000    0.000    0.000    0.000 
#    0.000    0.000    0.000    0.000    0.000    0.000 
#
# Total GULP energy -148704.723763 kJ/mol
# GULP energy per Si atom -12392.060314 kJ/mol
# Density = 2.247977 g / cm^3
# Si number density = 22.531050 Si / 1000 Ang^3
#
#
#
# Elastic Constant Matrix: (Units=GPa)
#
#
# Indices 1 2 3 4 5 6 
#
# 1 123.2513 8.4274 41.4724 -1.4474 19.7662 22.6678
# 2 8.4274 102.1953 46.9063 -3.1626 -5.3123 8.3202
# 3 41.4724 46.9063 144.0236 2.1539 25.2652 12.9428
# 4 -1.4474 -3.1626 2.1539 35.8316 5.6637 0.7729
# 5 19.7662 -5.3123 25.2652 5.6637 32.7325 0.9910
# 6 22.6678 8.3202 12.9428 0.7729 0.9910 35.6462
#
#
#
# Elastic Compliance Matrix: (Units=1/GPa)
#
#
# Indices 1 2 3 4 5 6 
#
# 1 0.010633 0.000170 -0.001687 0.001494 -0.005166 -0.006078
# 2 0.000170 0.012498 -0.005011 0.000533 0.005743 -0.001377
# 3 -0.001687 -0.005011 0.010576 0.000139 -0.007940 -0.001380
# 4 0.001494 0.000533 0.000139 0.028972 -0.005887 -0.001589
# 5 -0.005166 0.005743 -0.007940 -0.005887 0.041634 0.003797
# 6 -0.006078 -0.001377 -0.001380 -0.001589 0.003797 0.032670
#
#
# Mechanical properties :
#
#
# Convention : Reuss Voigt Hill
#
# Bulk Modulus (GPa) = 48.42403 62.56469 55.49436
# Shear Modulus (GPa) = 31.86245 39.01967 35.44106
#
# Velocity S-wave (km/s) = 3.76461 4.16603 3.97039
# Velocity P-wave (km/s) = 6.35886 7.13929 6.76035
#
# Compressibility (1/GPa) = 0.02065090
#
# Stress axis : x y z
#
# Youngs Moduli (GPa) = 94.04346 80.01018 94.55353
#
# Poissons Ratio (x) = -0.01361 0.15954
# Poissons Ratio (y) = -0.01600 0.47383
# Poissons Ratio (z) = 0.15868 0.40095
#
# Static dielectric constant tensor:
#      x y z
#    x 4.349390 0.240090 0.056760 
#    y 0.240090 3.946440 0.458030 
#    z 0.056760 0.458030 4.741160 
# 
# 
# High freq. dielectric constant tensor:
#      x y z
#    x 1.906110 0.019170 0.016590 
#    y 0.019170 1.890110 0.004030 
#    z 0.016590 0.004030 1.892790 
# 
# From -- ./inp_files/157811.got.cif
#   From: 2010.06.25/outbox.cif.g09.slc.cpg/sg2_79_cif.got.tgz:157811.got - 2010.06.27 13:26:56.
