data_PCOD8033730
_publ_section_title
;
Structure prediction by ZEFSAII (Michael W. Deem and Ramdas Pophale) SiO2 
 PCOD8033730
Probable space group: P -1
;
_chemical_formula_sum "Si O2"
_cell_formula_units_Z 14
_cell_length_a 27.465828
_cell_length_b 15.465395
_cell_length_c 15.256576
_cell_angle_alpha 18.984359
_cell_angle_beta 21.548096
_cell_angle_gamma 19.429381
_cell_volume 655.754308
_symmetry_space_group_name_H-M "P -1"
_symmetry_group_IT_number 2
_symmetry_cell_setting 'triclinic'
loop_
_space_group_symop_operation_xyz
x,y,z
-x,-y,-z
loop_
_atom_site_type_symbol
_atom_site_label
_atom_site_fract_x
_atom_site_fract_y
_atom_site_fract_z
Si Si1 0.169631 0.326733 0.425023
Si Si2 0.675976 0.239262 0.979123
Si Si3 0.188797 0.354628 0.572511
Si Si4 0.308285 0.653504 0.583181
Si Si5 0.155494 0.279116 0.148063
Si Si6 0.109815 0.133806 0.182281
Si Si7 0.340275 0.615657 0.768368
O O1 0.157419 0.359286 0.518143
O O2 0.000000 0.500000 0.500000
O O3 0.254903 0.972011 0.594881
O O4 0.273331 0.456955 0.092633
O O5 0.760914 0.402091 0.721953
O O6 0.759540 0.044558 0.938801
O O7 0.500000 0.500000 0.000000
O O8 0.682187 0.995766 0.274127
O O9 0.028037 0.458135 0.792465
O O10 0.311645 0.574186 0.755226
O O11 0.476368 0.548970 0.362621
O O12 0.199548 0.028754 0.392454
O O13 0.246603 0.459465 0.823280
O O14 0.200165 0.082190 0.171985
O O15 0.000000 0.000000 0.500000
O O16 0.000000 0.500000 0.000000
#
# Coordination Sequence:
#
# PCOD8033730 Si02
#       7
#     2   2   2   2   2   2   2
#     4  12  25  43  69 100 137 181 226 279 341 418
#     4  12  26  46  70 102 142 184 227 290 357 409
#     4  12  25  44  70  99 138 180 231 284 340 420
#     4  11  24  41  67  99 131 181 222 284 336 408
#     4  12  23  41  71  99 130 175 237 275 342 408
#     4  12  23  45  68  98 134 172 226 287 338 404
#     4  11  24  44  63  95 145 172 225 280 340 396
#
# _framework density 21.349457999999998
#
# number of rings (size 3 to 8) (size 9 to 14) (size 15 to 20)
#    0.000    0.286    2.857    6.857    0.000    5.714 
#    0.000    0.000    0.000    0.000    0.000    0.000 
#    0.000    0.000    0.000    0.000    0.000    0.000 
#
# Total GULP energy -173689.264067 kJ/mol
# GULP energy per Si atom -12406.376005 kJ/mol
# Density = 2.130087 g / cm^3
# Si number density = 21.349458 Si / 1000 Ang^3
#
#
#
# Elastic Constant Matrix: (Units=GPa)
#
#
# Indices 1 2 3 4 5 6 
#
# 1 115.0505 59.6811 45.1593 13.9650 -6.5740 7.4173
# 2 59.6811 135.9301 46.7017 -8.8607 -2.0305 2.1120
# 3 45.1593 46.7017 140.1870 -14.4975 -8.3212 7.9608
# 4 13.9650 -8.8607 -14.4975 39.5330 0.5141 5.3173
# 5 -6.5740 -2.0305 -8.3212 0.5141 40.9444 -6.6698
# 6 7.4173 2.1120 7.9608 5.3173 -6.6698 37.3831
#
#
#
# Elastic Compliance Matrix: (Units=1/GPa)
#
#
# Indices 1 2 3 4 5 6 
#
# 1 0.013732 -0.005344 -0.003286 -0.007207 0.001286 -0.000468
# 2 -0.005344 0.010417 -0.001413 0.003695 -0.000654 0.000130
# 3 -0.003286 -0.001413 0.009278 0.004464 0.000953 -0.001709
# 4 -0.007207 0.003695 0.004464 0.030904 -0.001160 -0.004332
# 5 0.001286 -0.000654 0.000953 -0.001160 0.025505 0.004294
# 6 -0.000468 0.000130 -0.001709 -0.004332 0.004294 0.028582
#
#
# Mechanical properties :
#
#
# Convention : Reuss Voigt Hill
#
# Bulk Modulus (GPa) = 74.94995 77.13908 76.04452
# Shear Modulus (GPa) = 34.97697 39.54713 37.26205
#
# Velocity S-wave (km/s) = 4.05199 4.30859 4.18226
# Velocity P-wave (km/s) = 7.55473 7.80782 7.68232
#
# Compressibility (1/GPa) = 0.01334224
#
# Stress axis : x y z
#
# Youngs Moduli (GPa) = 72.82277 95.99277 107.78368
#
# Poissons Ratio (x) = 0.51294 0.35416
# Poissons Ratio (y) = 0.38913 0.15232
# Poissons Ratio (z) = 0.23928 0.13565
#
# Static dielectric constant tensor:
#      x y z
#    x 4.191960 0.040300 0.006420 
#    y 0.040300 4.042460 -0.080660 
#    z 0.006420 -0.080660 3.939050 
# 
# 
# High freq. dielectric constant tensor:
#      x y z
#    x 1.854900 0.000350 -0.002700 
#    y 0.000350 1.846700 -0.010470 
#    z -0.002700 -0.010470 1.853530 
# 
# From -- ./inp_files/358068.got.cif
#   From: 2010.06.25/outbox.cif.g09.slc.cpg/sg2_180_cif.got.tgz:358068.got - 2010.06.27 13:26:56.
