data_PCOD8033967
_publ_section_title
;
Structure prediction by ZEFSAII (Michael W. Deem and Ramdas Pophale) SiO2 
 PCOD8033967
Probable space group: P -1
;
_chemical_formula_sum "Si O2"
_cell_formula_units_Z 16
_cell_length_a 8.852679
_cell_length_b 11.141279
_cell_length_c 13.761919
_cell_angle_alpha 33.329915
_cell_angle_beta 113.037829
_cell_angle_gamma 109.177079
_cell_volume 686.319695
_symmetry_space_group_name_H-M "P -1"
_symmetry_group_IT_number 2
_symmetry_cell_setting 'triclinic'
loop_
_space_group_symop_operation_xyz
x,y,z
-x,-y,-z
loop_
_atom_site_type_symbol
_atom_site_label
_atom_site_fract_x
_atom_site_fract_y
_atom_site_fract_z
Si Si1 0.158238 0.691920 0.010532
Si Si2 0.694559 0.252096 0.366302
Si Si3 0.183910 0.529789 0.928775
Si Si4 0.197694 0.315695 0.806410
Si Si5 0.829603 0.410964 0.704765
Si Si6 0.376002 0.114926 0.272584
Si Si7 0.592791 0.078083 0.789896
Si Si8 0.231715 0.171683 0.699794
O O1 0.240910 0.636475 0.172262
O O2 0.002025 0.538977 0.064010
O O3 0.261239 0.622163 0.987182
O O4 0.123698 0.950515 0.819559
O O5 0.806905 0.282995 0.278137
O O6 0.704759 0.464486 0.292681
O O7 0.509635 0.220145 0.305441
O O8 0.742818 0.039081 0.586608
O O9 0.280538 0.314950 0.063821
O O10 0.186084 0.302567 0.696674
O O11 0.014467 0.318016 0.805003
O O12 0.298202 0.109098 0.008167
O O13 0.702506 0.297603 0.675069
O O14 0.825112 0.670985 0.508691
O O15 0.449247 0.971870 0.299480
O O16 0.423355 0.107833 0.785274
#
# Coordination Sequence:
#
# PCOD8033967 Si02
#       8
#     2   2   2   2   2   2   2   2
#     4  11  26  43  69 102 141 188 234 289 356 410
#     4  11  24  43  68 102 134 181 237 286 344 414
#     4  11  24  44  68  99 141 187 235 289 344 424
#     4  12  25  45  75 103 141 190 233 291 349 424
#     4  12  26  47  73 104 145 186 238 288 354 424
#     4  11  25  42  72  99 140 186 234 289 348 420
#     4  12  25  47  74 107 143 186 236 292 356 417
#     4  12  28  45  72 107 145 185 233 297 354 417
#
# _framework density 23.312752
#
# number of rings (size 3 to 8) (size 9 to 14) (size 15 to 20)
#    0.000    0.500    3.750    3.375    5.250    3.000 
#    0.000    2.500    0.000    0.000    0.000    0.000 
#    0.000    0.000    0.000    0.000    0.000    0.000 
#
# Total GULP energy -198374.345818 kJ/mol
# GULP energy per Si atom -12398.396614 kJ/mol
# Density = 2.325969 g / cm^3
# Si number density = 23.312752 Si / 1000 Ang^3
#
#
#
# Elastic Constant Matrix: (Units=GPa)
#
#
# Indices 1 2 3 4 5 6 
#
# 1 76.1351 20.5995 30.5441 1.5508 -8.8785 -9.5396
# 2 20.5995 119.0600 36.8032 -5.3154 -26.5250 -26.3793
# 3 30.5441 36.8032 124.8661 -8.4131 -22.7459 -5.3187
# 4 1.5508 -5.3154 -8.4131 25.1453 7.1084 -6.3530
# 5 -8.8785 -26.5250 -22.7459 7.1084 39.2413 1.0861
# 6 -9.5396 -26.3793 -5.3187 -6.3530 1.0861 35.0653
#
#
#
# Elastic Compliance Matrix: (Units=1/GPa)
#
#
# Indices 1 2 3 4 5 6 
#
# 1 0.015181 -0.000848 -0.003253 -0.001895 0.001247 0.002616
# 2 -0.000848 0.012778 -0.001763 0.002646 0.006684 0.009387
# 3 -0.003253 -0.001763 0.010095 0.002097 0.003556 -0.000410
# 4 -0.001895 0.002646 0.002097 0.045401 -0.005932 0.010202
# 5 0.001247 0.006684 0.003556 -0.005932 0.033314 0.003800
# 6 0.002616 0.009387 -0.000410 0.010202 0.003800 0.037960
#
#
# Mechanical properties :
#
#
# Convention : Reuss Voigt Hill
#
# Bulk Modulus (GPa) = 37.98454 55.10611 46.54532
# Shear Modulus (GPa) = 28.53359 35.36467 31.94913
#
# Velocity S-wave (km/s) = 3.50229 3.89905 3.70599
# Velocity P-wave (km/s) = 5.71695 6.63017 6.19043
#
# Compressibility (1/GPa) = 0.02632650
#
# Stress axis : x y z
#
# Youngs Moduli (GPa) = 65.87282 78.26019 99.05576
#
# Poissons Ratio (x) = 0.06638 0.32218
# Poissons Ratio (y) = 0.05588 0.17463
# Poissons Ratio (z) = 0.21425 0.13797
#
# Static dielectric constant tensor:
#      x y z
#    x 4.048760 -0.196930 -0.375840 
#    y -0.196930 4.644150 -0.002280 
#    z -0.375840 -0.002280 4.331910 
# 
# 
# High freq. dielectric constant tensor:
#      x y z
#    x 1.902670 -0.002370 -0.024090 
#    y -0.002370 1.944010 -0.002470 
#    z -0.024090 -0.002470 1.927960 
# 
# From -- ./inp_files/448424.got.cif
#   From: 2010.06.25/outbox.cif.g09.slc.cpg/sg2_225_cif.got.tgz:448424.got - 2010.06.27 13:26:56.
