data_PCOD8033068
_publ_section_title
;
Structure prediction by ZEFSAII (Michael W. Deem and Ramdas Pophale) SiO2 
 PCOD8033068
Probable space group: P -1
;
_chemical_formula_sum "Si O2"
_cell_formula_units_Z 16
_cell_length_a 20.159971
_cell_length_b 10.973766
_cell_length_c 9.052971
_cell_angle_alpha 103.805364
_cell_angle_beta 80.248465
_cell_angle_gamma 157.264990
_cell_volume 744.767650
_symmetry_space_group_name_H-M "P -1"
_symmetry_group_IT_number 2
_symmetry_cell_setting 'triclinic'
loop_
_space_group_symop_operation_xyz
x,y,z
-x,-y,-z
loop_
_atom_site_type_symbol
_atom_site_label
_atom_site_fract_x
_atom_site_fract_y
_atom_site_fract_z
Si Si1 0.146009 0.821803 0.849105
Si Si2 0.791012 0.115273 0.672433
Si Si3 0.983226 0.826336 0.419036
Si Si4 0.196893 0.066038 0.163136
Si Si5 0.775798 0.902461 0.379218
Si Si6 0.500038 0.774558 0.768292
Si Si7 0.416098 0.877678 0.654666
Si Si8 0.510493 0.749599 0.100762
O O1 0.994890 0.477718 0.735879
O O2 0.189806 0.012953 0.780206
O O3 0.311993 0.020673 0.876607
O O4 0.084097 0.784269 0.012779
O O5 0.712197 0.869962 0.734732
O O6 0.751410 0.999226 0.488315
O O7 0.696142 0.083652 0.730222
O O8 0.786543 0.446593 0.374956
O O9 0.000000 0.000000 0.500000
O O10 0.076154 0.957937 0.264299
O O11 0.061038 0.880384 0.539359
O O12 0.348484 0.387564 0.103967
O O13 0.614606 0.532262 0.350538
O O14 0.445526 0.814153 0.737307
O O15 0.487259 0.753527 0.942705
O O16 0.500000 0.000000 0.500000
O O17 0.501886 0.149005 0.765325
#
# Coordination Sequence:
#
# PCOD8033068 Si02
#       8
#     2   2   2   2   2   2   2   2
#     4  12  24  44  72 107 140 178 234 289 352 408
#     4  11  25  40  70 103 141 179 229 294 342 408
#     4  11  24  48  70 100 140 181 236 282 344 412
#     4  11  23  44  73 102 137 185 226 286 347 410
#     4  11  24  43  70 103 137 181 232 286 349 406
#     4  12  25  46  68 101 145 180 233 279 350 414
#     4  12  29  47  72 101 139 189 231 286 342 416
#     4  12  25  46  70 103 143 183 232 283 348 413
#
# _framework density 21.483208999999999
#
# number of rings (size 3 to 8) (size 9 to 14) (size 15 to 20)
#    0.000    0.500    3.750    4.875    7.000    0.000 
#    0.000    1.250    0.000    0.000    0.000    0.000 
#    0.000    0.000    0.000    0.000    0.000    0.000 
#
# Total GULP energy -198434.126390 kJ/mol
# GULP energy per Si atom -12402.132899 kJ/mol
# Density = 2.143431 g / cm^3
# Si number density = 21.483209 Si / 1000 Ang^3
#
#
#
# Elastic Constant Matrix: (Units=GPa)
#
#
# Indices 1 2 3 4 5 6 
#
# 1 101.7693 31.1305 49.3023 -5.5941 3.4603 5.9987
# 2 31.1305 88.5988 31.0982 2.3718 2.7153 12.2465
# 3 49.3023 31.0982 133.1878 1.1963 -13.0518 9.5204
# 4 -5.5941 2.3718 1.1963 35.9999 -5.3216 -6.6723
# 5 3.4603 2.7153 -13.0518 -5.3216 47.3192 1.9502
# 6 5.9987 12.2465 9.5204 -6.6723 1.9502 33.1065
#
#
#
# Elastic Compliance Matrix: (Units=1/GPa)
#
#
# Indices 1 2 3 4 5 6 
#
# 1 0.013029 -0.003151 -0.004321 0.002230 -0.001738 0.000599
# 2 -0.003151 0.013735 -0.001818 -0.002316 -0.001139 -0.004387
# 3 -0.004321 -0.001818 0.009973 -0.000740 0.003160 -0.001748
# 4 0.002230 -0.002316 -0.000740 0.029935 0.002863 0.006530
# 5 -0.001738 -0.001139 0.003160 0.002863 0.022557 -0.000924
# 6 0.000599 -0.004387 -0.001748 0.006530 -0.000924 0.033593
#
#
# Mechanical properties :
#
#
# Convention : Reuss Voigt Hill
#
# Bulk Modulus (GPa) = 55.06813 60.73532 57.90172
# Shear Modulus (GPa) = 33.90877 37.42014 35.66445
#
# Velocity S-wave (km/s) = 3.97720 4.17805 4.07886
# Velocity P-wave (km/s) = 6.83956 7.18382 7.01380
#
# Compressibility (1/GPa) = 0.01815932
#
# Stress axis : x y z
#
# Youngs Moduli (GPa) = 76.74946 72.80535 100.26809
#
# Poissons Ratio (x) = 0.22939 0.43321
# Poissons Ratio (y) = 0.24182 0.18228
# Poissons Ratio (z) = 0.33160 0.13236
#
# Static dielectric constant tensor:
#      x y z
#    x 3.931660 -0.021660 -0.045070 
#    y -0.021660 3.874730 0.065160 
#    z -0.045070 0.065160 4.182650 
# 
# 
# High freq. dielectric constant tensor:
#      x y z
#    x 1.844120 -0.005350 -0.001130 
#    y -0.005350 1.845630 0.005930 
#    z -0.001130 0.005930 1.864870 
# 
# From -- ./inp_files/316088.got.cif
#   From: 2010.06.25/outbox.cif.g09.slc.cpg/sg2_159_cif.got.tgz:316088.got - 2010.06.27 13:26:56.
