data_PCOD8033474
_publ_section_title
;
Structure prediction by ZEFSAII (Michael W. Deem and Ramdas Pophale) SiO2 
 PCOD8033474
Probable space group: P -1
;
_chemical_formula_sum "Si O2"
_cell_formula_units_Z 16
_cell_length_a 9.216176
_cell_length_b 14.809966
_cell_length_c 12.121866
_cell_angle_alpha 114.483741
_cell_angle_beta 74.961920
_cell_angle_gamma 151.990047
_cell_volume 684.862691
_symmetry_space_group_name_H-M "P -1"
_symmetry_group_IT_number 2
_symmetry_cell_setting 'triclinic'
loop_
_space_group_symop_operation_xyz
x,y,z
-x,-y,-z
loop_
_atom_site_type_symbol
_atom_site_label
_atom_site_fract_x
_atom_site_fract_y
_atom_site_fract_z
Si Si1 0.909355 0.403483 0.583945
Si Si2 0.252097 0.057925 0.781191
Si Si3 0.047363 0.491930 0.146155
Si Si4 0.557232 0.769781 0.943593
Si Si5 0.748608 0.576791 0.046637
Si Si6 0.124638 0.301948 0.483331
Si Si7 0.129247 0.985478 0.220163
Si Si8 0.220549 0.033722 0.465250
O O1 0.075721 0.560539 0.730881
O O2 0.000000 0.500000 0.500000
O O3 0.026911 0.359098 0.537330
O O4 0.526212 0.199189 0.568706
O O5 0.628845 0.254309 0.800164
O O6 0.169069 0.111554 0.757617
O O7 0.189641 0.042243 0.918402
O O8 0.045223 0.847432 0.666136
O O9 0.776984 0.366086 0.048846
O O10 0.117712 0.418699 0.070837
O O11 0.441558 0.589704 0.900922
O O12 0.682845 0.858990 0.841208
O O13 0.034176 0.814891 0.146794
O O14 0.500000 0.500000 0.000000
O O15 0.500000 0.500000 0.500000
O O16 0.009355 0.190191 0.566172
O O17 0.340313 0.105557 0.350732
O O18 0.000000 0.000000 0.500000
#
# Coordination Sequence:
#
# PCOD8033474 Si02
#       8
#     2   2   2   2   2   2   2   2
#     4  12  27  47  71 111 153 195 250 315 371 450
#     4  11  23  46  73 106 149 188 246 315 370 443
#     4  11  24  47  72 105 152 192 240 305 378 445
#     4  11  26  45  74 109 152 187 247 309 374 449
#     4  11  24  44  73 107 142 199 241 297 378 437
#     4  12  28  48  78 109 145 205 257 309 386 444
#     4  12  25  45  75 109 148 195 248 308 370 448
#     4  12  25  48  73 105 151 197 250 306 375 451
#
# _framework density 23.362348000000001
#
# number of rings (size 3 to 8) (size 9 to 14) (size 15 to 20)
#    0.000    0.500    5.000    3.750    3.500    2.500 
#    0.000    0.000    0.000    0.000    0.000    0.000 
#    0.000    0.000    0.000    0.000    0.000    0.000 
#
# Total GULP energy -198224.808935 kJ/mol
# GULP energy per Si atom -12389.050558 kJ/mol
# Density = 2.330917 g / cm^3
# Si number density = 23.362348 Si / 1000 Ang^3
#
#
#
# Elastic Constant Matrix: (Units=GPa)
#
#
# Indices 1 2 3 4 5 6 
#
# 1 157.9986 36.5028 28.0894 10.6503 2.1848 -10.1027
# 2 36.5028 81.8783 11.2294 -8.3553 7.9130 -19.9538
# 3 28.0894 11.2294 111.1286 6.7269 12.2810 -21.2559
# 4 10.6503 -8.3553 6.7269 43.0776 -5.5094 16.9374
# 5 2.1848 7.9130 12.2810 -5.5094 44.1032 4.3638
# 6 -10.1027 -19.9538 -21.2559 16.9374 4.3638 45.3931
#
#
#
# Elastic Compliance Matrix: (Units=1/GPa)
#
#
# Indices 1 2 3 4 5 6 
#
# 1 0.007532 -0.003332 -0.001358 -0.002447 0.000251 0.000464
# 2 -0.003332 0.015589 0.000868 0.000679 -0.003441 0.006595
# 3 -0.001358 0.000868 0.011567 -0.004972 -0.004703 0.007803
# 4 -0.002447 0.000679 -0.004972 0.031484 0.006799 -0.014975
# 5 0.000251 -0.003441 -0.004703 0.006799 0.026301 -0.008724
# 6 0.000464 0.006595 0.007803 -0.014975 -0.008724 0.035112
#
#
# Mechanical properties :
#
#
# Convention : Reuss Voigt Hill
#
# Bulk Modulus (GPa) = 36.97863 55.84987 46.41425
# Shear Modulus (GPa) = 34.66338 44.86038 39.76188
#
# Velocity S-wave (km/s) = 3.85610 4.38676 4.12996
# Velocity P-wave (km/s) = 5.97400 7.04387 6.53088
#
# Compressibility (1/GPa) = 0.02704265
#
# Stress axis : x y z
#
# Youngs Moduli (GPa) = 132.77415 64.14854 86.45114
#
# Poissons Ratio (x) = 0.21376 0.11738
# Poissons Ratio (y) = 0.44244 -0.07501
# Poissons Ratio (z) = 0.18028 -0.05566
#
# Static dielectric constant tensor:
#      x y z
#    x 4.062380 0.512040 0.259260 
#    y 0.512040 4.208660 -0.133990 
#    z 0.259260 -0.133990 4.735820 
# 
# 
# High freq. dielectric constant tensor:
#      x y z
#    x 1.932910 0.018820 0.015120 
#    y 0.018820 1.921430 -0.005980 
#    z 0.015120 -0.005980 1.939910 
# 
# From -- ./inp_files/189063.got.cif
#   From: 2010.06.25/outbox.cif.g09.slc.cpg/sg2_95_cif.got.tgz:189063.got - 2010.06.27 13:26:56.
