data_PCOD8033108
_publ_section_title
;
Structure prediction by ZEFSAII (Michael W. Deem and Ramdas Pophale) SiO2 
 PCOD8033108
Probable space group: P -1
;
_chemical_formula_sum "Si O2"
_cell_formula_units_Z 14
_cell_length_a 14.957179
_cell_length_b 9.260222
_cell_length_c 14.241175
_cell_angle_alpha 150.813838
_cell_angle_beta 38.853112
_cell_angle_gamma 139.313286
_cell_volume 583.264204
_symmetry_space_group_name_H-M "P -1"
_symmetry_group_IT_number 2
_symmetry_cell_setting 'triclinic'
loop_
_space_group_symop_operation_xyz
x,y,z
-x,-y,-z
loop_
_atom_site_type_symbol
_atom_site_label
_atom_site_fract_x
_atom_site_fract_y
_atom_site_fract_z
Si Si1 0.187846 0.349463 0.610749
Si Si2 0.350459 0.267294 0.021414
Si Si3 0.830385 0.898860 0.103626
Si Si4 0.532251 0.383424 0.585423
Si Si5 0.859733 0.282981 0.798548
Si Si6 0.671894 0.224564 0.558732
Si Si7 0.682797 0.259974 0.107537
O O1 0.315757 0.557934 0.561321
O O2 0.222126 0.443779 0.744691
O O3 0.035231 0.419214 0.743203
O O4 0.175814 0.989246 0.403085
O O5 0.254275 0.485812 0.270798
O O6 0.500000 0.500000 0.000000
O O7 0.262977 0.077075 0.898782
O O8 0.379629 0.023438 0.933710
O O9 0.794939 0.116444 0.337465
O O10 0.786307 0.549295 0.976873
O O11 0.000000 0.000000 0.000000
O O12 0.560154 0.353766 0.656624
O O13 0.456235 0.657361 0.781598
O O14 0.424933 0.053942 0.456445
O O15 0.787632 0.160126 0.888022
#
# Coordination Sequence:
#
# PCOD8033108 Si02
#       7
#     2   2   2   2   2   2   2
#     4  11  25  44  70 102 143 179 240 293 349 422
#     4  12  28  45  76 109 143 188 243 298 360 427
#     4  12  27  48  71 103 149 194 234 295 365 432
#     4  11  23  44  74 103 142 187 227 305 352 414
#     4  11  26  45  71 101 139 191 236 288 356 427
#     4  11  24  46  69 107 149 179 240 298 356 419
#     4  12  25  45  74 104 140 184 239 293 355 419
#
# _framework density 24.002844
#
# number of rings (size 3 to 8) (size 9 to 14) (size 15 to 20)
#    0.000    0.571    1.429    6.857    4.000    2.857 
#    0.000    0.000    0.000    0.000    0.000    0.000 
#    0.000    0.000    0.000    0.000    0.000    0.000 
#
# Total GULP energy -173647.482682 kJ/mol
# GULP energy per Si atom -12403.391620 kJ/mol
# Density = 2.394821 g / cm^3
# Si number density = 24.002844 Si / 1000 Ang^3
#
#
#
# Elastic Constant Matrix: (Units=GPa)
#
#
# Indices 1 2 3 4 5 6 
#
# 1 54.7522 40.9972 40.0222 -4.1389 -15.8225 -1.1479
# 2 40.9972 130.9562 41.3228 -12.5304 -18.6769 -2.2094
# 3 40.0222 41.3228 154.1562 1.3833 0.5780 -2.3663
# 4 -4.1389 -12.5304 1.3833 35.4199 -1.1872 -8.7001
# 5 -15.8225 -18.6769 0.5780 -1.1872 42.7679 7.9344
# 6 -1.1479 -2.2094 -2.3663 -8.7001 7.9344 36.1205
#
#
#
# Elastic Compliance Matrix: (Units=1/GPa)
#
#
# Indices 1 2 3 4 5 6 
#
# 1 0.029984 -0.006031 -0.006236 0.001569 0.008845 -0.001390
# 2 -0.006031 0.010608 -0.001307 0.003339 0.002391 0.000651
# 3 -0.006236 -0.001307 0.008491 -0.001477 -0.003148 0.000614
# 4 0.001569 0.003339 -0.001477 0.031527 0.001559 0.007409
# 5 0.008845 0.002391 -0.003148 0.001559 0.028849 -0.005740
# 6 -0.001390 0.000651 0.000614 0.007409 -0.005740 0.030766
#
#
# Mechanical properties :
#
#
# Convention : Reuss Voigt Hill
#
# Bulk Modulus (GPa) = 45.58971 64.94988 55.26980
# Shear Modulus (GPa) = 28.62293 37.36315 32.99304
#
# Velocity S-wave (km/s) = 3.45698 3.94967 3.71151
# Velocity P-wave (km/s) = 5.91346 6.92227 6.43766
#
# Compressibility (1/GPa) = 0.02193477
#
# Stress axis : x y z
#
# Youngs Moduli (GPa) = 33.35109 94.26877 117.77438
#
# Poissons Ratio (x) = 0.56851 0.73450
# Poissons Ratio (y) = 0.20113 0.15390
# Poissons Ratio (z) = 0.20799 0.12319
#
# Static dielectric constant tensor:
#      x y z
#    x 3.745060 -0.247410 0.094250 
#    y -0.247410 4.236120 0.075180 
#    z 0.094250 0.075180 4.661200 
# 
# 
# High freq. dielectric constant tensor:
#      x y z
#    x 1.933370 -0.010040 0.001130 
#    y -0.010040 1.957350 0.006500 
#    z 0.001130 0.006500 1.976820 
# 
# From -- ./inp_files/530291.got.cif
#   From: 2010.06.25/outbox.cif.g09.slc.cpg/sg2_266_cif.got.tgz:530291.got - 2010.06.27 13:26:56.
