data_PCOD8033737
_publ_section_title
;
Structure prediction by ZEFSAII (Michael W. Deem and Ramdas Pophale) SiO2 
 PCOD8033737
Probable space group: P -1
;
_chemical_formula_sum "Si O2"
_cell_formula_units_Z 14
_cell_length_a 29.064339
_cell_length_b 12.238859
_cell_length_c 14.676922
_cell_angle_alpha 28.938425
_cell_angle_beta 20.093519
_cell_angle_gamma 19.960833
_cell_volume 611.023547
_symmetry_space_group_name_H-M "P -1"
_symmetry_group_IT_number 2
_symmetry_cell_setting 'triclinic'
loop_
_space_group_symop_operation_xyz
x,y,z
-x,-y,-z
loop_
_atom_site_type_symbol
_atom_site_label
_atom_site_fract_x
_atom_site_fract_y
_atom_site_fract_z
Si Si1 0.102059 0.616453 0.988356
Si Si2 0.197971 0.325382 0.217278
Si Si3 0.552856 0.687262 0.659951
Si Si4 0.781336 0.234114 0.053599
Si Si5 0.597508 0.377812 0.621751
Si Si6 0.161300 0.122257 0.130473
Si Si7 0.978402 0.096259 0.332895
O O1 0.163379 0.400901 0.119082
O O2 0.125067 0.430851 0.991674
O O3 0.229330 0.687886 0.693189
O O4 0.881460 0.966015 0.143539
O O5 0.273634 0.457319 0.029857
O O6 0.000000 0.500000 0.500000
O O7 0.350706 0.947288 0.227803
O O8 0.540840 0.525632 0.718580
O O9 0.763519 0.443851 0.485578
O O10 0.500000 0.000000 0.500000
O O11 0.388773 0.805183 0.951318
O O12 0.583826 0.362929 0.295267
O O13 0.939337 0.053443 0.810811
O O14 0.106842 0.126780 0.124076
O O15 0.026457 0.139838 0.435112
#
# Coordination Sequence:
#
# PCOD8033737 Si02
#       7
#     2   2   2   2   2   2   2
#     4  12  26  47  73 106 137 185 233 287 351 413
#     4  12  26  51  75  97 145 185 230 293 348 410
#     4  12  22  41  66  97 140 179 225 284 342 405
#     4  12  25  47  72 103 142 181 237 290 344 413
#     4  12  26  46  72 106 138 186 232 286 352 413
#     4  11  24  41  69 103 140 181 232 280 345 418
#     4  11  24  43  68 103 139 186 226 282 351 411
#
# _framework density 22.912375999999998
#
# number of rings (size 3 to 8) (size 9 to 14) (size 15 to 20)
#    0.000    0.286    5.714    3.000    2.000    1.714 
#    5.143    0.000    0.000    0.000    0.000    0.000 
#    0.000    0.000    0.000    0.000    0.000    0.000 
#
# Total GULP energy -173608.217673 kJ/mol
# GULP energy per Si atom -12400.586977 kJ/mol
# Density = 2.286023 g / cm^3
# Si number density = 22.912376 Si / 1000 Ang^3
#
#
#
# Elastic Constant Matrix: (Units=GPa)
#
#
# Indices 1 2 3 4 5 6 
#
# 1 83.3255 39.2647 37.9760 5.4437 -14.1218 -3.0823
# 2 39.2647 146.8577 38.5419 5.0623 -22.2078 -0.7090
# 3 37.9760 38.5419 62.2889 5.1939 -15.3950 -7.2979
# 4 5.4437 5.0623 5.1939 27.6200 -6.9763 -7.1895
# 5 -14.1218 -22.2078 -15.3950 -6.9763 34.3424 5.9005
# 6 -3.0823 -0.7090 -7.2979 -7.1895 5.9005 47.2079
#
#
#
# Elastic Compliance Matrix: (Units=1/GPa)
#
#
# Indices 1 2 3 4 5 6 
#
# 1 0.017338 -0.002006 -0.008884 -0.001111 0.001737 -0.000658
# 2 -0.002006 0.008773 -0.003465 0.000067 0.003473 -0.000959
# 3 -0.008884 -0.003465 0.025153 -0.000447 0.004847 0.002582
# 4 -0.001111 0.000067 -0.000447 0.039462 0.006534 0.005053
# 5 0.001737 0.003473 0.004847 0.006534 0.036024 -0.002593
# 6 -0.000658 -0.000959 0.002582 0.005053 -0.002593 0.022618
#
#
# Mechanical properties :
#
#
# Convention : Reuss Voigt Hill
#
# Bulk Modulus (GPa) = 44.33995 58.22637 51.28316
# Shear Modulus (GPa) = 26.93996 33.61335 30.27665
#
# Velocity S-wave (km/s) = 3.43269 3.83435 3.63906
# Velocity P-wave (km/s) = 5.92496 6.71348 6.33150
#
# Compressibility (1/GPa) = 0.02255303
#
# Stress axis : x y z
#
# Youngs Moduli (GPa) = 57.67594 113.98115 39.75737
#
# Poissons Ratio (x) = 0.22867 0.35322
# Poissons Ratio (y) = 0.11571 0.13776
# Poissons Ratio (z) = 0.51242 0.39493
#
# Static dielectric constant tensor:
#      x y z
#    x 4.131500 -0.257680 -0.106170 
#    y -0.257680 3.926170 -0.028550 
#    z -0.106170 -0.028550 4.181070 
# 
# 
# High freq. dielectric constant tensor:
#      x y z
#    x 1.908680 0.004280 -0.010920 
#    y 0.004280 1.918580 0.000160 
#    z -0.010920 0.000160 1.901260 
# 
# From -- ./inp_files/432195.got.cif
#   From: 2010.06.25/outbox.cif.g09.slc.cpg/sg2_217_cif.got.tgz:432195.got - 2010.06.27 13:26:56.
