data_PCOD8033512
_publ_section_title
;
Structure prediction by ZEFSAII (Michael W. Deem and Ramdas Pophale) SiO2 
 PCOD8033512
Probable space group: P -1
;
_chemical_formula_sum "Si O2"
_cell_formula_units_Z 14
_cell_length_a 13.989520
_cell_length_b 14.477446
_cell_length_c 9.500546
_cell_angle_alpha 141.043464
_cell_angle_beta 29.556085
_cell_angle_gamma 139.636109
_cell_volume 573.624165
_symmetry_space_group_name_H-M "P -1"
_symmetry_group_IT_number 2
_symmetry_cell_setting 'triclinic'
loop_
_space_group_symop_operation_xyz
x,y,z
-x,-y,-z
loop_
_atom_site_type_symbol
_atom_site_label
_atom_site_fract_x
_atom_site_fract_y
_atom_site_fract_z
Si Si1 0.989838 0.013125 0.694687
Si Si2 0.387202 0.750342 0.559198
Si Si3 0.840717 0.582608 0.634493
Si Si4 0.692527 0.139003 0.934389
Si Si5 0.253977 0.326087 0.837551
Si Si6 0.707832 0.364226 0.956886
Si Si7 0.395726 0.195770 0.926953
O O1 0.129239 0.903852 0.431706
O O2 0.078988 0.185878 0.836524
O O3 0.000000 0.000000 0.500000
O O4 0.771942 0.950360 0.971954
O O5 0.241419 0.595719 0.504528
O O6 0.552767 0.726252 0.428666
O O7 0.497349 0.852609 0.406724
O O8 0.260491 0.834058 0.923550
O O9 0.068019 0.644292 0.369725
O O10 0.832945 0.601526 0.833860
O O11 0.699950 0.669550 0.838139
O O12 0.652990 0.290491 0.094338
O O13 0.500000 0.000000 0.000000
O O14 0.309704 0.462137 0.811526
O O15 0.557705 0.259073 0.913918
#
# Coordination Sequence:
#
# PCOD8033512 Si02
#       7
#     2   2   2   2   2   2   2
#     4  12  28  49  72 111 159 194 244 308 380 442
#     4  11  24  46  78 108 153 191 255 306 366 444
#     4  11  23  46  77 113 147 191 261 305 364 436
#     4  12  27  48  70 112 153 193 243 310 372 440
#     4  11  24  46  77 107 148 196 246 313 360 443
#     4  12  25  46  80 108 147 196 254 305 371 435
#     4  11  24  48  77 109 145 202 247 304 373 441
#
# _framework density 24.406224999999999
#
# number of rings (size 3 to 8) (size 9 to 14) (size 15 to 20)
#    0.000    0.571    5.714    2.143    2.000    5.714 
#    0.000    2.143    0.000    0.000    0.000    0.000 
#    0.000    0.000    0.000    0.000    0.000    0.000 
#
# Total GULP energy -173620.447837 kJ/mol
# GULP energy per Si atom -12401.460560 kJ/mol
# Density = 2.435068 g / cm^3
# Si number density = 24.406225 Si / 1000 Ang^3
#
#
#
# Elastic Constant Matrix: (Units=GPa)
#
#
# Indices 1 2 3 4 5 6 
#
# 1 101.6103 66.3002 28.2067 -14.0882 25.9334 15.4930
# 2 66.3002 178.2692 50.2184 -20.6946 33.1395 12.6875
# 3 28.2067 50.2184 102.9029 -11.5492 25.8345 17.5802
# 4 -14.0882 -20.6946 -11.5492 37.5405 10.1516 5.7610
# 5 25.9334 33.1395 25.8345 10.1516 38.8756 -0.7019
# 6 15.4930 12.6875 17.5802 5.7610 -0.7019 53.8183
#
#
#
# Elastic Compliance Matrix: (Units=1/GPa)
#
#
# Indices 1 2 3 4 5 6 
#
# 1 0.016618 -0.002876 0.002146 0.009665 -0.012692 -0.006007
# 2 -0.002876 0.008933 -0.001054 0.005516 -0.006465 -0.001608
# 3 0.002146 -0.001054 0.015113 0.009426 -0.013155 -0.006487
# 4 0.009665 0.005516 0.009426 0.046151 -0.029691 -0.012489
# 5 -0.012692 -0.006465 -0.013155 -0.029691 0.056438 0.013389
# 6 -0.006007 -0.001608 -0.006487 -0.012489 0.013389 0.024320
#
#
# Mechanical properties :
#
#
# Convention : Reuss Voigt Hill
#
# Bulk Modulus (GPa) = 26.95768 74.69256 50.82512
# Shear Modulus (GPa) = 27.24721 41.91736 34.58228
#
# Velocity S-wave (km/s) = 3.34489 4.14875 3.76832
# Velocity P-wave (km/s) = 5.09775 7.32256 6.30900
#
# Compressibility (1/GPa) = 0.03709518
#
# Stress axis : x y z
#
# Youngs Moduli (GPa) = 60.17693 111.94993 66.16904
#
# Poissons Ratio (x) = 0.32195 -0.14199
# Poissons Ratio (y) = 0.17306 0.06974
# Poissons Ratio (z) = -0.12913 0.11800
#
# Static dielectric constant tensor:
#      x y z
#    x 4.709320 -0.178890 -0.067570 
#    y -0.178890 4.268770 -0.483080 
#    z -0.067570 -0.483080 3.513970 
# 
# 
# High freq. dielectric constant tensor:
#      x y z
#    x 1.985340 -0.005250 -0.009640 
#    y -0.005250 1.976450 -0.005030 
#    z -0.009640 -0.005030 1.980240 
# 
# From -- ./inp_files/316006.got.cif
#   From: 2010.06.25/outbox.cif.g09.slc.cpg/sg2_159_cif.got.tgz:316006.got - 2010.06.27 13:26:56.
