data_PCOD8033812
_publ_section_title
;
Structure prediction by ZEFSAII (Michael W. Deem and Ramdas Pophale) SiO2 
 PCOD8033812
Probable space group: P -1
;
_chemical_formula_sum "Si O2"
_cell_formula_units_Z 16
_cell_length_a 14.592308
_cell_length_b 11.973849
_cell_length_c 14.868717
_cell_angle_alpha 58.401697
_cell_angle_beta 151.527252
_cell_angle_gamma 139.582374
_cell_volume 708.778236
_symmetry_space_group_name_H-M "P -1"
_symmetry_group_IT_number 2
_symmetry_cell_setting 'triclinic'
loop_
_space_group_symop_operation_xyz
x,y,z
-x,-y,-z
loop_
_atom_site_type_symbol
_atom_site_label
_atom_site_fract_x
_atom_site_fract_y
_atom_site_fract_z
Si Si1 0.489462 0.669672 0.343629
Si Si2 0.255679 0.930656 0.615829
Si Si3 0.333382 0.291271 0.719746
Si Si4 0.844794 0.317576 0.507282
Si Si5 0.591267 0.946500 0.027097
Si Si6 0.196066 0.068107 0.055956
Si Si7 0.913440 0.751374 0.797964
Si Si8 0.704575 0.604766 0.048084
O O1 0.628901 0.687400 0.363495
O O2 0.640568 0.699825 0.554083
O O3 0.174127 0.444146 0.172656
O O4 0.496565 0.832311 0.279279
O O5 0.155363 0.827922 0.476683
O O6 0.002582 0.860976 0.487511
O O7 0.377121 0.858439 0.795654
O O8 0.432683 0.209615 0.889012
O O9 0.525621 0.500368 0.844478
O O10 0.527389 0.202728 0.311848
O O11 0.000000 0.500000 0.500000
O O12 0.050370 0.385904 0.740620
O O13 0.901045 0.143965 0.176176
O O14 0.500000 0.000000 0.000000
O O15 0.170469 0.186397 0.926349
O O16 0.000000 0.000000 0.000000
O O17 0.069729 0.886212 0.964226
O O18 0.500000 0.500000 0.000000
#
# Coordination Sequence:
#
# PCOD8033812 Si02
#       8
#     2   2   2   2   2   2   2   2
#     4  11  24  42  67  98 136 181 221 274 347 409
#     4  12  22  40  70  97 135 180 223 281 341 407
#     4  12  23  43  67 104 138 174 228 287 338 404
#     4  12  24  43  72 105 132 180 237 282 344 414
#     4  12  23  40  67  99 131 177 225 272 335 409
#     4  12  26  48  71 100 142 183 230 291 348 405
#     4  11  24  45  67  96 138 179 225 277 342 412
#     4  12  23  42  73 101 135 184 232 286 347 406
#
# _framework density 22.574055999999999
#
# number of rings (size 3 to 8) (size 9 to 14) (size 15 to 20)
#    0.000    0.250    6.250    4.125    0.000    1.000 
#    0.000    2.500    0.000    0.000    0.000    0.000 
#    0.000    0.000    0.000    0.000    0.000    0.000 
#
# Total GULP energy -198303.936357 kJ/mol
# GULP energy per Si atom -12393.996022 kJ/mol
# Density = 2.252268 g / cm^3
# Si number density = 22.574056 Si / 1000 Ang^3
#
#
#
# Elastic Constant Matrix: (Units=GPa)
#
#
# Indices 1 2 3 4 5 6 
#
# 1 92.3210 23.5721 2.6602 21.2367 6.1180 8.1335
# 2 23.5721 114.5232 27.3232 14.0815 -4.0993 -6.1500
# 3 2.6602 27.3232 109.9308 1.1598 5.3708 3.5900
# 4 21.2367 14.0815 1.1598 39.8320 -2.1288 -1.0414
# 5 6.1180 -4.0993 5.3708 -2.1288 31.9234 -0.3944
# 6 8.1335 -6.1500 3.5900 -1.0414 -0.3944 28.0716
#
#
#
# Elastic Compliance Matrix: (Units=1/GPa)
#
#
# Indices 1 2 3 4 5 6 
#
# 1 0.013681 -0.002549 0.000709 -0.006733 -0.003578 -0.004913
# 2 -0.002549 0.010413 -0.002720 -0.002039 0.002188 0.003323
# 3 0.000709 -0.002720 0.009929 0.000124 -0.002173 -0.002097
# 4 -0.006733 -0.002039 0.000124 0.029643 0.003017 0.002630
# 5 -0.003578 0.002188 -0.002173 0.003017 0.032888 0.002368
# 6 -0.004913 0.003323 -0.002097 0.002630 0.002368 0.038174
#
#
# Mechanical properties :
#
#
# Convention : Reuss Voigt Hill
#
# Bulk Modulus (GPa) = 40.15775 47.09844 43.62810
# Shear Modulus (GPa) = 32.86248 37.51338 35.18793
#
# Velocity S-wave (km/s) = 3.81959 4.08093 3.95242
# Velocity P-wave (km/s) = 6.10576 6.56617 6.34014
#
# Compressibility (1/GPa) = 0.02490179
#
# Stress axis : x y z
#
# Youngs Moduli (GPa) = 73.09385 96.03319 100.71524
#
# Poissons Ratio (x) = 0.24480 -0.07139
# Poissons Ratio (y) = 0.18632 0.27398
# Poissons Ratio (z) = -0.05181 0.26125
#
# Static dielectric constant tensor:
#      x y z
#    x 3.890850 -0.114590 0.309250 
#    y -0.114590 3.488670 0.967930 
#    z 0.309250 0.967930 2.564810 
# 
# 
# High freq. dielectric constant tensor:
#      x y z
#    x 1.874390 -0.005030 -0.005180 
#    y -0.005030 1.900080 0.005180 
#    z -0.005180 0.005180 1.900920 
# 
# From -- ./inp_files/299612.got.cif
#   From: 2010.06.25/outbox.cif.g09.slc.cpg/sg2_150_cif.got.tgz:299612.got - 2010.06.27 13:26:56.
