data_PCOD8033757
_publ_section_title
;
Structure prediction by ZEFSAII (Michael W. Deem and Ramdas Pophale) SiO2 
 PCOD8033757
Probable space group: P -1
;
_chemical_formula_sum "Si O2"
_cell_formula_units_Z 14
_cell_length_a 11.605979
_cell_length_b 8.605999
_cell_length_c 7.278587
_cell_angle_alpha 52.690353
_cell_angle_beta 96.081441
_cell_angle_gamma 117.845777
_cell_volume 494.784527
_symmetry_space_group_name_H-M "P -1"
_symmetry_group_IT_number 2
_symmetry_cell_setting 'triclinic'
loop_
_space_group_symop_operation_xyz
x,y,z
-x,-y,-z
loop_
_atom_site_type_symbol
_atom_site_label
_atom_site_fract_x
_atom_site_fract_y
_atom_site_fract_z
Si Si1 0.540372 0.811884 0.117547
Si Si2 0.261658 0.045595 0.645675
Si Si3 0.107546 0.601085 0.110470
Si Si4 0.074212 0.212099 0.612263
Si Si5 0.363280 0.424222 0.127851
Si Si6 0.823602 0.487744 0.225941
Si Si7 0.207744 0.899467 0.273601
O O1 0.655548 0.876807 0.931993
O O2 0.601107 0.791331 0.336064
O O3 0.404001 0.577466 0.211600
O O4 0.500000 0.000000 0.000000
O O5 0.134443 0.049307 0.709889
O O6 0.289891 0.153532 0.366409
O O7 0.219079 0.779356 0.851861
O O8 0.116449 0.377547 0.320408
O O9 0.139537 0.727382 0.218605
O O10 0.953189 0.539829 0.080951
O O11 0.134498 0.344076 0.716932
O O12 0.911317 0.057198 0.705933
O O13 0.500000 0.500000 0.000000
O O14 0.274746 0.478294 0.943234
O O15 0.755627 0.228460 0.471915
#
# Coordination Sequence:
#
# PCOD8033757 Si02
#       7
#     2   2   2   2   2   2   2
#     4  11  26  45  72  95 132 190 238 264 323 414
#     4  11  24  41  70  97 128 179 235 278 323 409
#     4   8  18  38  67 100 127 170 221 275 341 399
#     4   9  18  40  75  97 128 169 229 280 335 401
#     4  12  28  43  61 100 143 183 221 282 341 392
#     4   9  19  39  65  97 138 166 210 286 344 391
#     4   8  18  38  69 100 124 176 227 275 327 402
#
# _framework density 28.295147
#
# number of rings (size 3 to 8) (size 9 to 14) (size 15 to 20)
#    0.000    2.286    0.000    3.000    8.000    7.429 
#    0.000    2.857    0.000    0.000    0.000    0.000 
#    0.000    0.000    0.000    0.000    0.000    0.000 
#
# Total GULP energy -173621.117267 kJ/mol
# GULP energy per Si atom -12401.508376 kJ/mol
# Density = 2.823075 g / cm^3
# Si number density = 28.295147 Si / 1000 Ang^3
#
#
#
# Elastic Constant Matrix: (Units=GPa)
#
#
# Indices 1 2 3 4 5 6 
#
# 1 117.6174 15.0646 61.3764 11.0912 14.9577 13.5264
# 2 15.0646 104.1461 40.2966 2.7708 14.4000 35.1937
# 3 61.3764 40.2966 166.4339 18.6093 22.0844 24.1484
# 4 11.0912 2.7708 18.6093 51.4968 3.3200 6.3664
# 5 14.9577 14.4000 22.0844 3.3200 46.4289 12.4792
# 6 13.5264 35.1937 24.1484 6.3664 12.4792 43.7433
#
#
#
# Elastic Compliance Matrix: (Units=1/GPa)
#
#
# Indices 1 2 3 4 5 6 
#
# 1 0.010727 0.000465 -0.003612 -0.000790 -0.001517 -0.001150
# 2 0.000465 0.013820 -0.002084 0.001205 -0.000830 -0.010051
# 3 -0.003612 -0.002084 0.008453 -0.001915 -0.001782 -0.001086
# 4 -0.000790 0.001205 -0.001915 0.020544 0.000040 -0.002669
# 5 -0.001517 -0.000830 -0.001782 0.000040 0.024434 -0.004856
# 6 -0.001150 -0.010051 -0.001086 -0.002669 -0.004856 0.033676
#
#
# Mechanical properties :
#
#
# Convention : Reuss Voigt Hill
#
# Bulk Modulus (GPa) = 44.36856 69.07473 56.72165
# Shear Modulus (GPa) = 38.57161 46.43111 42.50136
#
# Velocity S-wave (km/s) = 3.69614 4.05527 3.87986
# Velocity P-wave (km/s) = 5.82494 6.81118 6.33727
#
# Compressibility (1/GPa) = 0.02253848
#
# Stress axis : x y z
#
# Youngs Moduli (GPa) = 93.22226 72.35822 118.29871
#
# Poissons Ratio (x) = -0.03366 0.42731
# Poissons Ratio (y) = -0.04336 0.24653
# Poissons Ratio (z) = 0.33673 0.15079
#
# Static dielectric constant tensor:
#      x y z
#    x 4.483540 -0.227730 0.097850 
#    y -0.227730 6.043770 0.250670 
#    z 0.097850 0.250670 5.635690 
# 
# 
# High freq. dielectric constant tensor:
#      x y z
#    x 2.139520 -0.005800 0.002010 
#    y -0.005800 2.196410 0.021700 
#    z 0.002010 0.021700 2.162050 
# 
# From -- ./inp_files/256099.got.cif
#   From: 2010.06.25/outbox.cif.g09.slc.cpg/sg2_129_cif.got.tgz:256099.got - 2010.06.27 13:26:56.
