data_PCOD8033437
_publ_section_title
;
Structure prediction by ZEFSAII (Michael W. Deem and Ramdas Pophale) SiO2 
 PCOD8033437
Probable space group: P -1
;
_chemical_formula_sum "Si O2"
_cell_formula_units_Z 16
_cell_length_a 9.258429
_cell_length_b 13.223419
_cell_length_c 8.698691
_cell_angle_alpha 115.351362
_cell_angle_beta 106.635417
_cell_angle_gamma 114.244477
_cell_volume 726.544690
_symmetry_space_group_name_H-M "P -1"
_symmetry_group_IT_number 2
_symmetry_cell_setting 'triclinic'
loop_
_space_group_symop_operation_xyz
x,y,z
-x,-y,-z
loop_
_atom_site_type_symbol
_atom_site_label
_atom_site_fract_x
_atom_site_fract_y
_atom_site_fract_z
Si Si1 0.305812 0.874262 0.780746
Si Si2 0.493029 0.353775 0.062930
Si Si3 0.073531 0.698017 0.066739
Si Si4 0.351625 0.527375 0.143921
Si Si5 0.854549 0.385882 0.261619
Si Si6 0.394495 0.776657 0.450207
Si Si7 0.810984 0.007760 0.799240
Si Si8 0.826090 0.957134 0.123728
O O1 0.189361 0.762452 0.807616
O O2 0.324730 0.791421 0.600397
O O3 0.194618 0.933354 0.723156
O O4 0.500000 0.000000 0.000000
O O5 0.451920 0.458684 0.185557
O O6 0.672402 0.382804 0.222601
O O7 0.541101 0.379890 0.914393
O O8 0.309299 0.193521 0.932518
O O9 0.260742 0.767384 0.272372
O O10 0.090662 0.826084 0.073683
O O11 0.067802 0.591320 0.874112
O O12 0.874925 0.599361 0.036970
O O13 0.380340 0.634907 0.353384
O O14 0.000000 0.500000 0.500000
O O15 0.614822 0.914354 0.580974
O O16 0.956221 0.983570 0.755980
O O17 0.766185 0.952036 0.924883
#
# Coordination Sequence:
#
# PCOD8033437 Si02
#       8
#     2   2   2   2   2   2   2   2
#     4  12  23  44  70 104 140 181 233 286 344 412
#     4  11  24  47  70  97 144 188 228 291 347 418
#     4  12  24  47  71 104 143 181 232 290 349 420
#     4  11  26  46  70  99 146 186 232 281 359 421
#     4  12  25  42  72 107 137 182 233 286 348 413
#     4  12  25  44  72 106 141 186 232 289 350 414
#     4  11  24  44  72 104 136 184 232 288 358 410
#     4  11  23  46  71  99 143 183 233 291 347 416
#
# _framework density 22.022044999999999
#
# number of rings (size 3 to 8) (size 9 to 14) (size 15 to 20)
#    0.000    0.500    6.250    1.500    1.750    2.000 
#    2.250    3.125    0.000    0.000    0.000    0.000 
#    0.000    0.000    0.000    0.000    0.000    0.000 
#
# Total GULP energy -198385.279785 kJ/mol
# GULP energy per Si atom -12399.079987 kJ/mol
# Density = 2.197192 g / cm^3
# Si number density = 22.022045 Si / 1000 Ang^3
#
#
#
# Elastic Constant Matrix: (Units=GPa)
#
#
# Indices 1 2 3 4 5 6 
#
# 1 166.6361 50.8105 48.4833 8.3513 -13.2856 -7.1686
# 2 50.8105 130.1646 25.5963 14.7124 -3.9909 1.1567
# 3 48.4833 25.5963 101.2478 0.5997 -7.8318 4.3051
# 4 8.3513 14.7124 0.5997 27.8351 -1.3490 -2.0345
# 5 -13.2856 -3.9909 -7.8318 -1.3490 40.0687 11.6375
# 6 -7.1686 1.1567 4.3051 -2.0345 11.6375 39.0863
#
#
#
# Elastic Compliance Matrix: (Units=1/GPa)
#
#
# Indices 1 2 3 4 5 6 
#
# 1 0.007822 -0.002313 -0.003114 -0.000891 0.001316 0.001408
# 2 -0.002313 0.009307 -0.001185 -0.004257 0.000016 -0.000795
# 3 -0.003114 -0.001185 0.011907 0.001225 0.001900 -0.002350
# 4 -0.000891 -0.004257 0.001225 0.038559 0.000312 0.001742
# 5 0.001316 0.000016 0.001900 0.000312 0.028202 -0.008349
# 6 0.001408 -0.000795 -0.002350 0.001742 -0.008349 0.028701
#
#
# Mechanical properties :
#
#
# Convention : Reuss Voigt Hill
#
# Bulk Modulus (GPa) = 63.23864 71.98097 67.60981
# Shear Modulus (GPa) = 34.96643 39.60857 37.28750
#
# Velocity S-wave (km/s) = 3.98903 4.24558 4.11930
# Velocity P-wave (km/s) = 7.07071 7.53592 7.30702
#
# Compressibility (1/GPa) = 0.01581312
#
# Stress axis : x y z
#
# Youngs Moduli (GPa) = 127.83775 107.44404 83.98283
#
# Poissons Ratio (x) = 0.24848 0.26152
# Poissons Ratio (y) = 0.29565 0.09954
# Poissons Ratio (z) = 0.39808 0.12734
#
# Static dielectric constant tensor:
#      x y z
#    x 4.628800 -0.000340 -0.166460 
#    y -0.000340 4.030730 0.112380 
#    z -0.166460 0.112380 3.713370 
# 
# 
# High freq. dielectric constant tensor:
#      x y z
#    x 1.893350 -0.001720 -0.003160 
#    y -0.001720 1.876250 0.012290 
#    z -0.003160 0.012290 1.841360 
# 
# From -- ./inp_files/188574.got.cif
#   From: 2010.06.25/outbox.cif.g09.slc.cpg/sg2_95_cif.got.tgz:188574.got - 2010.06.27 13:26:56.
