data_PCOD8033218
_publ_section_title
;
Structure prediction by ZEFSAII (Michael W. Deem and Ramdas Pophale) SiO2 
 PCOD8033218
Probable space group: P -1
;
_chemical_formula_sum "Si O2"
_cell_formula_units_Z 14
_cell_length_a 8.814542
_cell_length_b 7.690824
_cell_length_c 13.241020
_cell_angle_alpha 133.483796
_cell_angle_beta 122.855863
_cell_angle_gamma 71.411827
_cell_volume 544.908646
_symmetry_space_group_name_H-M "P -1"
_symmetry_group_IT_number 2
_symmetry_cell_setting 'triclinic'
loop_
_space_group_symop_operation_xyz
x,y,z
-x,-y,-z
loop_
_atom_site_type_symbol
_atom_site_label
_atom_site_fract_x
_atom_site_fract_y
_atom_site_fract_z
Si Si1 0.924930 0.023305 0.197171
Si Si2 0.211125 0.710848 0.115502
Si Si3 0.444911 0.945384 0.594836
Si Si4 0.809717 0.691687 0.441399
Si Si5 0.055792 0.591163 0.804682
Si Si6 0.362801 0.796761 0.721579
Si Si7 0.676108 0.516987 0.742795
O O1 0.030562 0.168356 0.382933
O O2 0.936846 0.152674 0.145234
O O3 0.715123 0.001419 0.152218
O O4 0.011898 0.772063 0.109456
O O5 0.282706 0.512870 0.135972
O O6 0.349366 0.952216 0.264236
O O7 0.195748 0.606963 0.955550
O O8 0.331730 0.876883 0.627892
O O9 0.456993 0.705680 0.436931
O O10 0.347310 0.135902 0.569050
O O11 0.741830 0.460333 0.390429
O O12 0.886909 0.615269 0.330962
O O13 0.853244 0.526599 0.742891
O O14 0.577152 0.763997 0.799903
#
# Coordination Sequence:
#
# PCOD8033218 Si02
#       7
#     2   2   2   2   2   2   2
#     4  11  23  45  70 101 138 182 236 284 339 419
#     4  12  25  45  70 102 144 185 227 284 353 413
#     4  12  24  43  76 103 138 183 235 286 342 409
#     4  11  23  46  70 105 140 181 233 289 340 412
#     4  11  26  44  71 101 144 184 226 287 357 404
#     4  11  24  41  68 106 134 175 233 290 336 400
#     4  12  23  45  69 104 141 182 236 282 340 419
#
# _framework density 25.692378999999999
#
# number of rings (size 3 to 8) (size 9 to 14) (size 15 to 20)
#    0.000    0.571    2.857    6.857    2.000    1.714 
#    0.000    3.571    0.000    0.000    0.000    0.000 
#    0.000    0.000    0.000    0.000    0.000    0.000 
#
# Total GULP energy -173601.155268 kJ/mol
# GULP energy per Si atom -12400.082519 kJ/mol
# Density = 2.563390 g / cm^3
# Si number density = 25.692379 Si / 1000 Ang^3
#
#
#
# Elastic Constant Matrix: (Units=GPa)
#
#
# Indices 1 2 3 4 5 6 
#
# 1 110.2043 16.9100 26.3116 -11.3903 -7.2013 12.2406
# 2 16.9100 77.6419 -3.0008 -27.0523 -11.9195 2.9657
# 3 26.3116 -3.0008 102.1964 -20.0848 -12.9315 15.2260
# 4 -11.3903 -27.0523 -20.0848 29.1283 9.7687 -12.3643
# 5 -7.2013 -11.9195 -12.9315 9.7687 30.8134 -11.4216
# 6 12.2406 2.9657 15.2260 -12.3643 -11.4216 33.1255
#
#
#
# Elastic Compliance Matrix: (Units=1/GPa)
#
#
# Indices 1 2 3 4 5 6 
#
# 1 0.010291 -0.002857 -0.002647 -0.001616 -0.000443 -0.003086
# 2 -0.002857 0.023504 0.006147 0.026447 0.005553 0.007912
# 3 -0.002647 0.006147 0.013603 0.012992 0.003425 0.000206
# 4 -0.001616 0.026447 0.012992 0.076277 -0.001368 0.020257
# 5 -0.000443 0.005553 0.003425 -0.001368 0.040670 0.011604
# 6 -0.003086 0.007912 0.000206 0.020257 0.011604 0.042088
#
#
# Mechanical properties :
#
#
# Convention : Reuss Voigt Hill
#
# Bulk Modulus (GPa) = 20.54001 41.16489 30.85245
# Shear Modulus (GPa) = 22.58597 35.26823 28.92710
#
# Velocity S-wave (km/s) = 2.96817 3.70903 3.35909
# Velocity P-wave (km/s) = 4.44507 5.86511 5.20376
#
# Compressibility (1/GPa) = 0.04868546
#
# Stress axis : x y z
#
# Youngs Moduli (GPa) = 97.16954 42.54522 73.51132
#
# Poissons Ratio (x) = 0.12154 0.19460
# Poissons Ratio (y) = 0.27759 -0.45189
# Poissons Ratio (z) = 0.25723 -0.26153
#
# Static dielectric constant tensor:
#      x y z
#    x 4.963020 -0.159040 -0.093000 
#    y -0.159040 4.751660 -0.173060 
#    z -0.093000 -0.173060 4.572080 
# 
# 
# High freq. dielectric constant tensor:
#      x y z
#    x 2.045030 -0.001560 -0.010850 
#    y -0.001560 2.030700 -0.016760 
#    z -0.010850 -0.016760 2.020970 
# 
# From -- ./inp_files/205700.got.cif
#   From: 2010.06.25/outbox.cif.g09.slc.cpg/sg2_103_cif.got.tgz:205700.got - 2010.06.27 13:26:56.
