data_PCOD8033700
_publ_section_title
;
Structure prediction by ZEFSAII (Michael W. Deem and Ramdas Pophale) SiO2 
 PCOD8033700
Probable space group: P -1
;
_chemical_formula_sum "Si O2"
_cell_formula_units_Z 12
_cell_length_a 7.776519
_cell_length_b 9.154487
_cell_length_c 14.221902
_cell_angle_alpha 104.507278
_cell_angle_beta 73.597123
_cell_angle_gamma 147.397729
_cell_volume 523.158119
_symmetry_space_group_name_H-M "P -1"
_symmetry_group_IT_number 2
_symmetry_cell_setting 'triclinic'
loop_
_space_group_symop_operation_xyz
x,y,z
-x,-y,-z
loop_
_atom_site_type_symbol
_atom_site_label
_atom_site_fract_x
_atom_site_fract_y
_atom_site_fract_z
Si Si1 0.726968 0.452241 0.918607
Si Si2 0.164030 0.959788 0.051658
Si Si3 0.023458 0.360943 0.813338
Si Si4 0.845738 0.678883 0.397139
Si Si5 0.686692 0.657793 0.807846
Si Si6 0.880390 0.817498 0.603157
O O1 0.605683 0.446180 0.840400
O O2 0.009393 0.529755 0.863708
O O3 0.847081 0.667332 0.004891
O O4 0.451828 0.162578 0.965097
O O5 0.239048 0.910123 0.124625
O O6 0.089816 0.078967 0.117511
O O7 0.950295 0.282116 0.700882
O O8 0.371303 0.534712 0.812517
O O9 0.977655 0.762041 0.498262
O O10 0.473542 0.368433 0.401278
O O11 0.871748 0.870231 0.387450
O O12 0.877351 0.746810 0.697268
#
# Coordination Sequence:
#
# PCOD8033700 Si02
#       6
#     2   2   2   2   2   2
#     4  12  28  38  59  90 123 152 204 242 284 348
#     4  12  24  42  59  88 119 162 198 240 288 350
#     4  11  24  41  63  87 119 159 195 242 296 346
#     4   9  18  34  59  86 111 147 193 237 288 348
#     4  11  24  41  63  87 119 159 195 242 296 346
#     4   9  18  34  59  86 111 147 193 237 288 348
#
# _framework density 22.937618000000001
#
# number of rings (size 3 to 8) (size 9 to 14) (size 15 to 20)
#    0.000    1.333    3.333    2.000    4.667    0.000 
#    0.000    0.833    0.000    0.000    0.000   14.000 
#    0.000    0.000    0.000    0.000    0.000    0.000 
#
# Total GULP energy -148694.564729 kJ/mol
# GULP energy per Si atom -12391.213727 kJ/mol
# Density = 2.288541 g / cm^3
# Si number density = 22.937618 Si / 1000 Ang^3
#
#
#
# Elastic Constant Matrix: (Units=GPa)
#
#
# Indices 1 2 3 4 5 6 
#
# 1 70.5299 14.0361 34.0624 -11.6322 0.9550 -15.4187
# 2 14.0361 90.3166 27.1747 -10.3084 2.9150 -7.6564
# 3 34.0624 27.1747 180.9520 -25.0071 6.9652 -23.0050
# 4 -11.6322 -10.3084 -25.0071 33.7811 -8.4556 3.9702
# 5 0.9550 2.9150 6.9652 -8.4556 0.8313 1.8471
# 6 -15.4187 -7.6564 -23.0050 3.9702 1.8471 21.1897
#
#
#
# Elastic Compliance Matrix: (Units=1/GPa)
#
#
# Indices 1 2 3 4 5 6 
#
# 1 0.017923 -0.001031 -0.001298 0.002653 -0.003754 0.011090
# 2 -0.001031 0.011910 -0.001174 0.003859 0.006260 0.001010
# 3 -0.001298 -0.001174 0.006886 0.007220 0.013382 0.003588
# 4 0.002653 0.003859 0.007220 -0.001148 -0.141426 0.023706
# 5 -0.003754 0.006260 0.013382 -0.141426 -0.564898 0.089797
# 6 0.011090 0.001010 0.003588 0.023706 0.089797 0.047254
#
#
# Mechanical properties :
#
#
# Convention : Reuss Voigt Hill
#
# Bulk Modulus (GPa) = 33.65467 54.70500 44.17984
# Shear Modulus (GPa) = -10.74890 28.92877 9.08993
#
# Velocity S-wave (km/s) = -2.16710 3.55518 1.99286
# Velocity P-wave (km/s) = 2.90557 6.38386 4.95964
#
# Compressibility (1/GPa) = 0.02971356
#
# Stress axis : x y z
#
# Youngs Moduli (GPa) = 55.79334 83.96640 145.22723
#
# Poissons Ratio (x) = 0.08655 0.18850
# Poissons Ratio (y) = 0.05751 0.17047
# Poissons Ratio (z) = 0.07242 0.09856
#
# Static dielectric constant tensor:
#      x y z
#    x 3.379170 -0.200530 0.125200 
#    y -0.200530 4.177020 -0.176260 
#    z 0.125200 -0.176260 5.062910 
# 
# 
# High freq. dielectric constant tensor:
#      x y z
#    x 1.825250 -0.009200 0.006080 
#    y -0.009200 1.918200 -0.010010 
#    z 0.006080 -0.010010 1.937770 
# 
# From -- ./inp_files/33409.got.cif
#   From: 2010.06.25/outbox.cif.g09.slc.cpg/sg2_17_cif.got.tgz:33409.got - 2010.06.27 13:26:56.
