data_PCOD8033311
_publ_section_title
;
Structure prediction by ZEFSAII (Michael W. Deem and Ramdas Pophale) SiO2 
 PCOD8033311
Probable space group: P -1
;
_chemical_formula_sum "Si O2"
_cell_formula_units_Z 16
_cell_length_a 13.383576
_cell_length_b 14.837217
_cell_length_c 14.431965
_cell_angle_alpha 30.396103
_cell_angle_beta 146.872628
_cell_angle_gamma 127.957260
_cell_volume 730.384879
_symmetry_space_group_name_H-M "P -1"
_symmetry_group_IT_number 2
_symmetry_cell_setting 'triclinic'
loop_
_space_group_symop_operation_xyz
x,y,z
-x,-y,-z
loop_
_atom_site_type_symbol
_atom_site_label
_atom_site_fract_x
_atom_site_fract_y
_atom_site_fract_z
Si Si1 0.964760 0.212742 0.754912
Si Si2 0.962923 0.407819 0.756995
Si Si3 0.723456 0.757713 0.156404
Si Si4 0.517212 0.091404 0.836108
Si Si5 0.557002 0.530812 0.120338
Si Si6 0.070842 0.281484 0.273667
Si Si7 0.919714 0.118674 0.129566
Si Si8 0.867072 0.309093 0.280450
O O1 0.072371 0.220842 0.734746
O O2 0.056232 0.305614 0.823406
O O3 0.727190 0.327576 0.462414
O O4 0.000000 0.000000 0.000000
O O5 0.759686 0.588672 0.411450
O O6 0.098131 0.503568 0.824581
O O7 0.938488 0.244750 0.946517
O O8 0.635868 0.703460 0.042128
O O9 0.576959 0.951045 0.918464
O O10 0.299460 0.238487 0.511017
O O11 0.682316 0.182399 0.900178
O O12 0.500000 0.000000 0.000000
O O13 0.500000 0.500000 0.000000
O O14 0.369752 0.605797 0.977710
O O15 0.029501 0.159461 0.267518
O O16 0.954023 0.246607 0.301346
O O17 0.000000 0.500000 0.000000
O O18 0.027174 0.885470 0.402024
#
# Coordination Sequence:
#
# PCOD8033311 Si02
#       8
#     2   2   2   2   2   2   2   2
#     4  11  25  46  74 105 143 186 246 295 363 447
#     4  11  23  45  74 104 140 191 233 303 361 427
#     4  11  23  47  72 101 147 182 249 302 350 445
#     4  12  26  46  78 107 143 202 244 294 376 429
#     4  11  25  42  74 103 139 195 233 298 381 414
#     4  12  27  48  69 113 149 189 248 305 354 442
#     4  12  26  46  79 105 151 195 246 300 372 430
#     4  12  24  48  70 102 152 181 242 305 356 430
#
# _framework density 21.90626
#
# number of rings (size 3 to 8) (size 9 to 14) (size 15 to 20)
#    0.000    0.500    3.750    4.875    3.500    3.500 
#    2.250    1.250    0.000    0.000    0.000    0.000 
#    0.000    0.000    0.000    0.000    0.000    0.000 
#
# Total GULP energy -198255.525779 kJ/mol
# GULP energy per Si atom -12390.970361 kJ/mol
# Density = 2.185640 g / cm^3
# Si number density = 21.906260 Si / 1000 Ang^3
#
#
#
# Elastic Constant Matrix: (Units=GPa)
#
#
# Indices 1 2 3 4 5 6 
#
# 1 121.4821 29.7774 76.5314 -1.4849 5.6488 10.3741
# 2 29.7774 97.0203 39.2166 9.2694 -4.6262 4.0431
# 3 76.5314 39.2166 148.0003 1.9466 10.1202 18.5767
# 4 -1.4849 9.2694 1.9466 42.7087 7.6731 -3.1760
# 5 5.6488 -4.6262 10.1202 7.6731 44.0671 0.8772
# 6 10.3741 4.0431 18.5767 -3.1760 0.8772 39.6892
#
#
#
# Elastic Compliance Matrix: (Units=1/GPa)
#
#
# Indices 1 2 3 4 5 6 
#
# 1 0.012425 -0.001526 -0.005972 0.001124 -0.000573 -0.000194
# 2 -0.001526 0.012240 -0.002601 -0.003055 0.002608 0.000067
# 3 -0.005972 -0.002601 0.011087 -0.000040 -0.001981 -0.003323
# 4 0.001124 -0.003055 -0.000040 0.025155 -0.004879 0.002157
# 5 -0.000573 0.002608 -0.001981 -0.004879 0.024347 -0.000117
# 6 -0.000194 0.000067 -0.003323 0.002157 -0.000117 0.026970
#
#
# Mechanical properties :
#
#
# Convention : Reuss Voigt Hill
#
# Bulk Modulus (GPa) = 64.28971 73.06151 68.67561
# Shear Modulus (GPa) = 36.33557 40.02483 38.18020
#
# Velocity S-wave (km/s) = 4.07711 4.27909 4.17932
# Velocity P-wave (km/s) = 7.18158 7.60516 7.39640
#
# Compressibility (1/GPa) = 0.01555459
#
# Stress axis : x y z
#
# Youngs Moduli (GPa) = 80.48420 81.69772 90.19671
#
# Poissons Ratio (x) = 0.12469 0.53862
# Poissons Ratio (y) = 0.12284 0.23458
# Poissons Ratio (z) = 0.48062 0.21248
#
# Static dielectric constant tensor:
#      x y z
#    x 4.119350 -0.054160 0.079880 
#    y -0.054160 7.005540 1.535460 
#    z 0.079880 1.535460 4.887000 
# 
# 
# High freq. dielectric constant tensor:
#      x y z
#    x 1.862680 -0.011250 0.001160 
#    y -0.011250 1.883660 0.001720 
#    z 0.001160 0.001720 1.858410 
# 
# From -- ./inp_files/534162.got.cif
#   From: 2010.06.25/outbox.cif.g09.slc.cpg/sg2_268_cif.got.tgz:534162.got - 2010.06.27 13:26:56.
