data_PCOD8033944
_publ_section_title
;
Structure prediction by ZEFSAII (Michael W. Deem and Ramdas Pophale) SiO2 
 PCOD8033944
Probable space group: P -1
;
_chemical_formula_sum "Si O2"
_cell_formula_units_Z 16
_cell_length_a 26.133762
_cell_length_b 26.337735
_cell_length_c 12.297234
_cell_angle_alpha 28.177781
_cell_angle_beta 150.969128
_cell_angle_gamma 169.162693
_cell_volume 747.970441
_symmetry_space_group_name_H-M "P -1"
_symmetry_group_IT_number 2
_symmetry_cell_setting 'triclinic'
loop_
_space_group_symop_operation_xyz
x,y,z
-x,-y,-z
loop_
_atom_site_type_symbol
_atom_site_label
_atom_site_fract_x
_atom_site_fract_y
_atom_site_fract_z
Si Si1 0.590551 0.453210 0.643448
Si Si2 0.602067 0.489923 0.844564
Si Si3 0.773643 0.242748 0.486398
Si Si4 0.487611 0.798821 0.320217
Si Si5 0.116567 0.558179 0.909923
Si Si6 0.876814 0.108469 0.838604
Si Si7 0.841284 0.079415 0.270434
Si Si8 0.038598 0.707401 0.575442
O O1 0.672778 0.523384 0.789516
O O2 0.449809 0.432393 0.390981
O O3 0.863467 0.697916 0.615742
O O4 0.367195 0.148875 0.782718
O O5 0.849275 0.694148 0.995099
O O6 0.353418 0.191884 0.993919
O O7 0.745438 0.284731 0.245025
O O8 0.836848 0.178583 0.700412
O O9 0.000000 0.500000 0.500000
O O10 0.500000 0.000000 0.500000
O O11 0.234239 0.506100 0.466847
O O12 0.679204 0.892428 0.433831
O O13 0.354650 0.750533 0.072933
O O14 0.697303 0.058452 0.298693
O O15 0.959947 0.515745 0.744898
O O16 0.889792 0.253223 0.042804
O O17 0.880948 0.134896 0.667798
#
# Coordination Sequence:
#
# PCOD8033944 Si02
#       8
#     2   2   2   2   2   2   2   2
#     4  11  25  42  68  99 126 158 221 272 314 393
#     4  11  24  45  70  93 124 174 212 264 328 371
#     4  11  27  39  60  95 139 173 205 247 311 393
#     4  12  23  41  66  93 131 173 213 273 313 360
#     4  11  26  39  64  98 131 177 213 255 316 372
#     4  11  24  43  66  93 128 174 214 258 316 390
#     4  12  24  39  65 101 129 161 207 276 327 367
#     4  11  25  41  64  95 133 167 227 253 309 390
#
# _framework density 21.391221000000002
#
# number of rings (size 3 to 8) (size 9 to 14) (size 15 to 20)
#    0.000    0.750    2.500    3.750    8.750    4.000 
#    0.000    0.000    0.000   15.000    0.000    0.000 
#    0.000    0.000    0.000    0.000    0.000    0.000 
#
# Total GULP energy -198354.925777 kJ/mol
# GULP energy per Si atom -12397.182861 kJ/mol
# Density = 2.134253 g / cm^3
# Si number density = 21.391221 Si / 1000 Ang^3
#
#
#
# Elastic Constant Matrix: (Units=GPa)
#
#
# Indices 1 2 3 4 5 6 
#
# 1 103.1606 54.4328 55.6407 -0.9185 -22.3686 17.5307
# 2 54.4328 160.3873 43.7415 -2.0471 -9.5269 14.7752
# 3 55.6407 43.7415 97.6468 -1.1154 -18.9979 2.1929
# 4 -0.9185 -2.0471 -1.1154 32.9251 0.4883 -1.8088
# 5 -22.3686 -9.5269 -18.9979 0.4883 22.5148 -4.1755
# 6 17.5307 14.7752 2.1929 -1.8088 -4.1755 47.3377
#
#
#
# Elastic Compliance Matrix: (Units=1/GPa)
#
#
# Indices 1 2 3 4 5 6 
#
# 1 0.017964 -0.003260 -0.006742 -0.000322 0.009960 -0.004457
# 2 -0.003260 0.007905 -0.002008 0.000287 -0.001839 -0.001318
# 3 -0.006742 -0.002008 0.016219 0.000301 0.006683 0.002973
# 4 -0.000322 0.000287 0.000301 0.030460 -0.000393 0.001145
# 5 0.009960 -0.001839 0.006683 -0.000393 0.059515 0.001811
# 6 -0.004457 -0.001318 0.002973 0.001145 0.001811 0.023252
#
#
# Mechanical properties :
#
#
# Convention : Reuss Voigt Hill
#
# Bulk Modulus (GPa) = 55.34736 74.31383 64.83059
# Shear Modulus (GPa) = 26.97481 34.38085 30.67783
#
# Velocity S-wave (km/s) = 3.55494 4.01339 3.79110
# Velocity P-wave (km/s) = 6.54065 7.50281 7.03819
#
# Compressibility (1/GPa) = 0.01806771
#
# Stress axis : x y z
#
# Youngs Moduli (GPa) = 55.66659 126.50385 61.65604
#
# Poissons Ratio (x) = 0.41241 0.41567
# Poissons Ratio (y) = 0.18148 0.12383
# Poissons Ratio (z) = 0.37529 0.25407
#
# Static dielectric constant tensor:
#      x y z
#    x 4.300830 0.064210 -0.146420 
#    y 0.064210 3.969430 -0.061820 
#    z -0.146420 -0.061820 3.740990 
# 
# 
# High freq. dielectric constant tensor:
#      x y z
#    x 1.856060 0.005920 -0.012290 
#    y 0.005920 1.861760 0.000570 
#    z -0.012290 0.000570 1.813270 
# 
# From -- ./inp_files/477217.got.cif
#   From: 2010.06.25/outbox.cif.g09.slc.cpg/sg2_239_cif.got.tgz:477217.got - 2010.06.27 13:26:56.
