data_PCOD8033367
_publ_section_title
;
Structure prediction by ZEFSAII (Michael W. Deem and Ramdas Pophale) SiO2 
 PCOD8033367
Probable space group: P -1
;
_chemical_formula_sum "Si O2"
_cell_formula_units_Z 16
_cell_length_a 9.359656
_cell_length_b 9.359677
_cell_length_c 22.176588
_cell_angle_alpha 138.351469
_cell_angle_beta 41.647638
_cell_angle_gamma 138.102423
_cell_volume 778.196784
_symmetry_space_group_name_H-M "P -1"
_symmetry_group_IT_number 2
_symmetry_cell_setting 'triclinic'
loop_
_space_group_symop_operation_xyz
x,y,z
-x,-y,-z
loop_
_atom_site_type_symbol
_atom_site_label
_atom_site_fract_x
_atom_site_fract_y
_atom_site_fract_z
Si Si1 0.524371 0.367020 0.829893
Si Si2 0.101764 0.000659 0.783952
Si Si3 0.000632 0.101719 0.716041
Si Si4 0.902738 0.641922 0.531810
Si Si5 0.037551 0.487215 0.658135
Si Si6 0.633009 0.475644 0.329887
Si Si7 0.358063 0.097250 0.031811
Si Si8 0.512838 0.962489 0.158132
O O1 0.347232 0.228600 0.788228
O O2 0.514386 0.618319 0.918633
O O3 0.784317 0.390541 0.739765
O O4 0.433440 0.218815 0.873480
O O5 0.001383 0.001347 0.749987
O O6 0.147427 0.767127 0.700689
O O7 0.912221 0.999961 0.892573
O O8 0.228544 0.347209 0.711782
O O9 0.999960 0.912206 0.607418
O O10 0.767069 0.147338 0.799308
O O11 0.995792 0.650120 0.437417
O O12 0.618306 0.514386 0.581382
O O13 0.000000 0.500000 0.500000
O O14 0.218835 0.433439 0.626509
O O15 0.609535 0.215717 0.239753
O O16 0.500000 0.000000 0.000000
O O17 0.349824 0.004179 0.937426
#
# Coordination Sequence:
#
# PCOD8033367 Si02
#       8
#     2   2   2   2   2   2   2   2
#     4  11  25  42  69  93 128 176 209 266 321 376
#     4  11  24  42  67  95 129 173 213 263 322 376
#     4  11  24  42  67  95 129 173 213 263 322 376
#     4  11  25  42  66  99 131 165 216 268 315 385
#     4  11  23  46  64  95 133 165 218 263 317 384
#     4  11  25  42  69  93 128 176 209 266 321 376
#     4  11  25  42  66  99 131 165 216 268 315 385
#     4  11  23  46  64  95 133 165 218 263 317 384
#
# _framework density 20.560351000000001
#
# number of rings (size 3 to 8) (size 9 to 14) (size 15 to 20)
#    0.000    1.000    5.000    0.750    3.500    4.000 
#    0.000    0.000    0.000    0.000    0.000    0.000 
#    0.000    0.000    0.000    0.000    0.000    0.000 
#
# Total GULP energy -198515.112129 kJ/mol
# GULP energy per Si atom -12407.194508 kJ/mol
# Density = 2.051355 g / cm^3
# Si number density = 20.560351 Si / 1000 Ang^3
#
#
#
# Elastic Constant Matrix: (Units=GPa)
#
#
# Indices 1 2 3 4 5 6 
#
# 1 120.2034 34.0108 51.2804 1.6726 4.6317 -5.8511
# 2 34.0108 93.8143 24.7191 -1.0211 -6.4197 -5.2209
# 3 51.2804 24.7191 97.0703 -2.4011 6.6047 -11.1466
# 4 1.6726 -1.0211 -2.4011 17.2447 -8.7837 4.8926
# 5 4.6317 -6.4197 6.6047 -8.7837 38.1824 -2.4442
# 6 -5.8511 -5.2209 -11.1466 4.8926 -2.4442 36.3812
#
#
#
# Elastic Compliance Matrix: (Units=1/GPa)
#
#
# Indices 1 2 3 4 5 6 
#
# 1 0.011507 -0.002917 -0.005286 -0.002880 -0.001629 0.000090
# 2 -0.002917 0.012461 -0.001720 0.002268 0.003314 0.000710
# 3 -0.005286 -0.001720 0.014010 0.000628 -0.001735 0.002994
# 4 -0.002880 0.002268 0.000628 0.068928 0.015957 -0.008143
# 5 -0.001629 0.003314 -0.001735 0.015957 0.030891 -0.000389
# 6 0.000090 0.000710 0.002994 -0.008143 -0.000389 0.029589
#
#
# Mechanical properties :
#
#
# Convention : Reuss Voigt Hill
#
# Bulk Modulus (GPa) = 55.15231 59.01207 57.08219
# Shear Modulus (GPa) = 25.86971 31.76683 28.81827
#
# Velocity S-wave (km/s) = 3.55101 3.93498 3.74791
# Velocity P-wave (km/s) = 6.61027 7.02920 6.82295
#
# Compressibility (1/GPa) = 0.01813161
#
# Stress axis : x y z
#
# Youngs Moduli (GPa) = 86.90494 80.25111 71.37792
#
# Poissons Ratio (x) = 0.23405 0.37732
# Poissons Ratio (y) = 0.25346 0.12279
# Poissons Ratio (z) = 0.45940 0.13806
#
# Static dielectric constant tensor:
#      x y z
#    x 3.806760 -0.046960 0.003420 
#    y -0.046960 3.694790 -0.001150 
#    z 0.003420 -0.001150 3.778140 
# 
# 
# High freq. dielectric constant tensor:
#      x y z
#    x 1.820330 -0.005030 -0.001160 
#    y -0.005030 1.808340 0.000420 
#    z -0.001160 0.000420 1.804200 
# 
# From -- ./inp_files/38213.got.cif
#   From: 2010.06.25/outbox.cif.g09.slc.cpg/sg2_20_cif.got.tgz:38213.got - 2010.06.27 13:26:56.
