data_PCOD8033390
_publ_section_title
;
Structure prediction by ZEFSAII (Michael W. Deem and Ramdas Pophale) SiO2 
 PCOD8033390
Probable space group: P -1
;
_chemical_formula_sum "Si O2"
_cell_formula_units_Z 12
_cell_length_a 15.972311
_cell_length_b 15.490077
_cell_length_c 4.921293
_cell_angle_alpha 81.402628
_cell_angle_beta 74.591223
_cell_angle_gamma 25.486931
_cell_volume 492.974654
_symmetry_space_group_name_H-M "P -1"
_symmetry_group_IT_number 2
_symmetry_cell_setting 'triclinic'
loop_
_space_group_symop_operation_xyz
x,y,z
-x,-y,-z
loop_
_atom_site_type_symbol
_atom_site_label
_atom_site_fract_x
_atom_site_fract_y
_atom_site_fract_z
Si Si1 0.538176 0.593722 0.344747
Si Si2 0.832587 0.174778 0.285133
Si Si3 0.084048 0.745855 0.496844
Si Si4 0.539461 0.065027 0.475704
Si Si5 0.963541 0.753677 0.087956
Si Si6 0.382340 0.300748 0.003971
O O1 0.663611 0.397310 0.198022
O O2 0.303627 0.785321 0.534482
O O3 0.677826 0.497183 0.529580
O O4 0.521547 0.689588 0.106860
O O5 0.939090 0.127775 0.479233
O O6 0.000000 0.000000 0.000000
O O7 0.025074 0.777345 0.226554
O O8 0.934676 0.826395 0.787723
O O9 0.395442 0.254983 0.321306
O O10 0.500000 0.000000 0.500000
O O11 0.499415 0.125927 0.792840
O O12 0.770296 0.875903 0.287932
O O13 0.143725 0.518928 0.031722
#
# Coordination Sequence:
#
# PCOD8033390 Si02
#       6
#     2   2   2   2   2   2
#     4   8  19  38  64 103 136 182 235 271 336 407
#     4   9  18  38  66 103 140 186 229 286 326 401
#     4   9  20  40  66  96 136 181 227 277 332 396
#     4  12  28  47  73 108 135 178 235 290 359 426
#     4  11  23  46  69 101 137 178 236 281 343 426
#     4  11  24  45  75 100 142 187 222 293 351 406
#
# _framework density 24.342020999999999
#
# number of rings (size 3 to 8) (size 9 to 14) (size 15 to 20)
#    1.000    1.000    0.000    3.500    2.333    1.333 
#    3.000   10.000    0.000    0.000    0.000    0.000 
#    0.000    0.000    0.000    0.000    0.000    0.000 
#
# Total GULP energy -148767.707718 kJ/mol
# GULP energy per Si atom -12397.308977 kJ/mol
# Density = 2.428662 g / cm^3
# Si number density = 24.342021 Si / 1000 Ang^3
#
#
#
# Elastic Constant Matrix: (Units=GPa)
#
#
# Indices 1 2 3 4 5 6 
#
# 1 111.8540 24.3300 25.0484 13.7611 -18.9141 12.2610
# 2 24.3300 59.7189 22.1685 22.2544 -8.2093 10.6636
# 3 25.0484 22.1685 67.9065 21.9732 8.1294 10.5622
# 4 13.7611 22.2544 21.9732 54.7860 -2.8626 -8.3387
# 5 -18.9141 -8.2093 8.1294 -2.8626 25.4049 -3.8215
# 6 12.2610 10.6636 10.5622 -8.3387 -3.8215 30.8827
#
#
#
# Elastic Compliance Matrix: (Units=1/GPa)
#
#
# Indices 1 2 3 4 5 6 
#
# 1 0.012235 -0.001432 -0.004936 -0.000219 0.009976 -0.001500
# 2 -0.001432 0.024381 -0.003991 -0.008879 0.005862 -0.008157
# 3 -0.004936 -0.003991 0.023949 -0.008916 -0.015004 -0.009117
# 4 -0.000219 -0.008879 -0.008916 0.027948 0.005134 0.014384
# 5 0.009976 0.005862 -0.015004 0.005134 0.055171 0.007360
# 6 -0.001500 -0.008157 -0.009117 0.014384 0.007360 0.043705
#
#
# Mechanical properties :
#
#
# Convention : Reuss Voigt Hill
#
# Bulk Modulus (GPa) = 25.09563 42.50814 33.80188
# Shear Modulus (GPa) = 22.58463 33.41021 27.99742
#
# Velocity S-wave (km/s) = 3.04929 3.70879 3.39509
# Velocity P-wave (km/s) = 4.76755 5.98673 5.41158
#
# Compressibility (1/GPa) = 0.03984757
#
# Stress axis : x y z
#
# Youngs Moduli (GPa) = 81.73161 41.01535 41.75520
#
# Poissons Ratio (x) = 0.05872 0.20610
# Poissons Ratio (y) = 0.11701 0.16666
# Poissons Ratio (z) = 0.40341 0.16371
#
# Static dielectric constant tensor:
#      x y z
#    x 4.134760 0.002830 -0.144360 
#    y 0.002830 4.445550 0.090530 
#    z -0.144360 0.090530 4.250120 
# 
# 
# High freq. dielectric constant tensor:
#      x y z
#    x 1.949510 0.002230 -0.009010 
#    y 0.002230 1.977630 0.006040 
#    z -0.009010 0.006040 1.967890 
# 
# From -- ./inp_files/95853.got.cif
#   From: 2010.06.25/outbox.cif.g09.slc.cpg/sg2_48_cif.got.tgz:95853.got - 2010.06.27 13:26:56.
