data_PCOD8033826
_publ_section_title
;
Structure prediction by ZEFSAII (Michael W. Deem and Ramdas Pophale) SiO2 
 PCOD8033826
Probable space group: P -1
;
_chemical_formula_sum "Si O2"
_cell_formula_units_Z 12
_cell_length_a 22.697725
_cell_length_b 19.983945
_cell_length_c 11.528140
_cell_angle_alpha 150.924456
_cell_angle_beta 29.183301
_cell_angle_gamma 168.541202
_cell_volume 497.395415
_symmetry_space_group_name_H-M "P -1"
_symmetry_group_IT_number 2
_symmetry_cell_setting 'triclinic'
loop_
_space_group_symop_operation_xyz
x,y,z
-x,-y,-z
loop_
_atom_site_type_symbol
_atom_site_label
_atom_site_fract_x
_atom_site_fract_y
_atom_site_fract_z
Si Si1 0.809285 0.827648 0.858198
Si Si2 0.443262 0.635181 0.594188
Si Si3 0.875461 0.666051 0.082899
Si Si4 0.495735 0.835247 0.226582
Si Si5 0.319335 0.519612 0.276053
Si Si6 0.081144 0.429059 0.741840
O O1 0.580992 0.510074 0.680833
O O2 0.903154 0.827424 0.805804
O O3 0.649981 0.796912 0.138701
O O4 0.090649 0.169334 0.814791
O O5 0.280889 0.601238 0.770879
O O6 0.257136 0.404584 0.680553
O O7 0.787109 0.024945 0.626895
O O8 0.637552 0.314302 0.899778
O O9 0.178432 0.895085 0.927206
O O10 0.275369 0.521275 0.220698
O O11 0.500000 0.000000 0.500000
O O12 0.287264 0.622773 0.566109
O O13 0.000000 0.500000 0.000000
#
# Coordination Sequence:
#
# PCOD8033826 Si02
#       6
#     2   2   2   2   2   2
#     4   9  21  44  68 104 129 175 226 272 338 383
#     4  11  24  42  68  97 136 172 220 274 331 393
#     4  11  24  42  68  97 136 172 220 274 331 393
#     4  11  25  43  65  98 131 183 219 269 330 392
#     4   9  22  41  70  92 136 169 226 276 322 389
#     4  11  25  43  65  98 131 183 219 269 330 392
#
# _framework density 24.125675000000001
#
# number of rings (size 3 to 8) (size 9 to 14) (size 15 to 20)
#    0.000    1.667    0.000    2.500    4.667   13.333 
#    0.000    8.333    0.000    0.000    0.000    0.000 
#    0.000    0.000    0.000    0.000    0.000    0.000 
#
# Total GULP energy -148660.155891 kJ/mol
# GULP energy per Si atom -12388.346324 kJ/mol
# Density = 2.407076 g / cm^3
# Si number density = 24.125675 Si / 1000 Ang^3
#
#
#
# Elastic Constant Matrix: (Units=GPa)
#
#
# Indices 1 2 3 4 5 6 
#
# 1 91.1319 28.5347 23.0581 -19.4701 20.9161 -11.8495
# 2 28.5347 72.3566 19.1761 -10.7917 12.9811 -2.5645
# 3 23.0581 19.1761 129.5224 -22.6701 8.2415 -13.2563
# 4 -19.4701 -10.7917 -22.6701 32.0327 -0.2169 10.2983
# 5 20.9161 12.9811 8.2415 -0.2169 41.0011 -0.1240
# 6 -11.8495 -2.5645 -13.2563 10.2983 -0.1240 35.2667
#
#
#
# Elastic Compliance Matrix: (Units=1/GPa)
#
#
# Indices 1 2 3 4 5 6 
#
# 1 0.015626 -0.003731 -0.000276 0.007108 -0.006689 0.002776
# 2 -0.003731 0.016547 -0.001229 0.002852 -0.003078 -0.001356
# 3 -0.000276 -0.001229 0.009140 0.005334 -0.001274 0.001691
# 4 0.007108 0.002852 0.005334 0.042781 -0.005399 -0.007911
# 5 -0.006689 -0.003078 -0.001274 -0.005399 0.029000 -0.001272
# 6 0.002776 -0.001356 0.001691 -0.007911 -0.001272 0.032131
#
#
# Mechanical properties :
#
#
# Convention : Reuss Voigt Hill
#
# Bulk Modulus (GPa) = 32.42456 48.28320 40.35388
# Shear Modulus (GPa) = 30.12492 36.47623 33.30058
#
# Velocity S-wave (km/s) = 3.53748 3.89257 3.71926
# Velocity P-wave (km/s) = 5.49127 6.34503 5.93353
#
# Compressibility (1/GPa) = 0.03084082
#
# Stress axis : x y z
#
# Youngs Moduli (GPa) = 63.99730 60.43416 109.41457
#
# Poissons Ratio (x) = 0.22546 0.03015
# Poissons Ratio (y) = 0.23875 0.13452
# Poissons Ratio (z) = 0.01764 0.07430
#
# Static dielectric constant tensor:
#      x y z
#    x 4.611990 -0.253340 0.128400 
#    y -0.253340 4.190020 -0.151460 
#    z 0.128400 -0.151460 4.513950 
# 
# 
# High freq. dielectric constant tensor:
#      x y z
#    x 1.963940 -0.008130 0.007880 
#    y -0.008130 1.939180 -0.018670 
#    z 0.007880 -0.018670 1.970710 
# 
# From -- ./inp_files/62268.got.cif
#   From: 2010.06.25/outbox.cif.g09.slc.cpg/sg2_32_cif.got.tgz:62268.got - 2010.06.27 13:26:56.
