data_PCOD8033404
_publ_section_title
;
Structure prediction by ZEFSAII (Michael W. Deem and Ramdas Pophale) SiO2 
 PCOD8033404
Probable space group: P -1
;
_chemical_formula_sum "Si O2"
_cell_formula_units_Z 16
_cell_length_a 14.523717
_cell_length_b 15.051048
_cell_length_c 14.860344
_cell_angle_alpha 151.777371
_cell_angle_beta 133.370912
_cell_angle_gamma 29.059562
_cell_volume 695.128738
_symmetry_space_group_name_H-M "P -1"
_symmetry_group_IT_number 2
_symmetry_cell_setting 'triclinic'
loop_
_space_group_symop_operation_xyz
x,y,z
-x,-y,-z
loop_
_atom_site_type_symbol
_atom_site_label
_atom_site_fract_x
_atom_site_fract_y
_atom_site_fract_z
Si Si1 0.326581 0.074022 0.829439
Si Si2 0.494111 0.404869 0.007172
Si Si3 0.451791 0.080038 0.435859
Si Si4 0.831728 0.140410 0.441519
Si Si5 0.827158 0.257350 0.184311
Si Si6 0.255921 0.367219 0.223002
Si Si7 0.955955 0.139116 0.854413
Si Si8 0.852716 0.665324 0.244180
O O1 0.190815 0.319980 0.878536
O O2 0.305392 0.873048 0.628737
O O3 0.560312 0.878988 0.802222
O O4 0.248944 0.227209 0.011946
O O5 0.636682 0.342861 0.118372
O O6 0.268492 0.687356 0.147655
O O7 0.500000 0.500000 0.000000
O O8 0.570950 0.100285 0.782718
O O9 0.246365 0.440706 0.606773
O O10 0.500000 0.000000 0.500000
O O11 0.641666 0.973062 0.423202
O O12 0.690401 0.488025 0.648873
O O13 0.000000 0.000000 0.500000
O O14 0.935748 0.978301 0.272403
O O15 0.908508 0.137849 0.232892
O O16 0.000000 0.000000 0.000000
O O17 0.029849 0.615946 0.337186
O O18 0.932273 0.380956 0.089123
#
# Coordination Sequence:
#
# PCOD8033404 Si02
#       8
#     2   2   2   2   2   2   2   2
#     4  11  24  46  67 103 139 184 239 291 353 419
#     4  11  23  48  73 102 140 187 228 293 360 417
#     4  11  25  45  74 105 142 184 238 290 354 434
#     4  12  24  44  70 101 141 190 234 294 353 422
#     4  12  25  48  72 102 145 184 236 299 350 426
#     4  11  24  42  72  97 143 182 234 296 348 421
#     4  11  26  45  70 105 144 182 240 293 354 424
#     4  11  23  46  70 100 140 187 237 287 358 417
#
# _framework density 23.017318
#
# number of rings (size 3 to 8) (size 9 to 14) (size 15 to 20)
#    0.000    0.750    5.000    2.250    3.500    2.500 
#    2.250    0.000    0.000    0.000    0.000    0.000 
#    0.000    0.000    0.000    0.000    0.000    0.000 
#
# Total GULP energy -198391.513971 kJ/mol
# GULP energy per Si atom -12399.469623 kJ/mol
# Density = 2.296493 g / cm^3
# Si number density = 23.017318 Si / 1000 Ang^3
#
#
#
# Elastic Constant Matrix: (Units=GPa)
#
#
# Indices 1 2 3 4 5 6 
#
# 1 94.7490 48.2032 21.0906 5.1932 4.1967 -11.9763
# 2 48.2032 143.6436 39.2976 13.9899 -1.2418 -9.9772
# 3 21.0906 39.2976 89.5765 15.4724 19.9274 -3.3454
# 4 5.1932 13.9899 15.4724 36.8994 5.0281 5.7206
# 5 4.1967 -1.2418 19.9274 5.0281 37.0340 2.0025
# 6 -11.9763 -9.9772 -3.3454 5.7206 2.0025 41.5711
#
#
#
# Elastic Compliance Matrix: (Units=1/GPa)
#
#
# Indices 1 2 3 4 5 6 
#
# 1 0.013212 -0.003963 -0.000948 -0.000235 -0.001243 0.002871
# 2 -0.003963 0.009552 -0.003489 -0.002153 0.002883 0.001028
# 3 -0.000948 -0.003489 0.015401 -0.004105 -0.007797 0.001070
# 4 -0.000235 -0.002153 -0.004105 0.030691 -0.001730 -0.005055
# 5 -0.001243 0.002883 -0.007797 -0.001730 0.031756 -0.001585
# 6 0.002871 0.001028 0.001070 -0.005055 -0.001585 0.025987
#
#
# Mechanical properties :
#
#
# Convention : Reuss Voigt Hill
#
# Bulk Modulus (GPa) = 46.80218 60.57243 53.68730
# Shear Modulus (GPa) = 33.21840 37.72608 35.47224
#
# Velocity S-wave (km/s) = 3.80306 4.05289 3.92996
# Velocity P-wave (km/s) = 6.29777 6.94797 6.63085
#
# Compressibility (1/GPa) = 0.02136653
#
# Stress axis : x y z
#
# Youngs Moduli (GPa) = 75.68808 104.69157 64.93172
#
# Poissons Ratio (x) = 0.41487 0.06154
# Poissons Ratio (y) = 0.29993 0.22652
# Poissons Ratio (z) = 0.07174 0.36522
#
# Static dielectric constant tensor:
#      x y z
#    x 3.887070 -0.221360 -0.033770 
#    y -0.221360 4.311490 0.163090 
#    z -0.033770 0.163090 4.206610 
# 
# 
# High freq. dielectric constant tensor:
#      x y z
#    x 1.908530 -0.006300 0.007930 
#    y -0.006300 1.915240 0.008440 
#    z 0.007930 0.008440 1.911290 
# 
# From -- ./inp_files/534589.got.cif
#   From: 2010.06.25/outbox.cif.g09.slc.cpg/sg2_268_cif.got.tgz:534589.got - 2010.06.27 13:26:56.
