data_PCOD8033406
_publ_section_title
;
Structure prediction by ZEFSAII (Michael W. Deem and Ramdas Pophale) SiO2 
 PCOD8033406
Probable space group: P -1
;
_chemical_formula_sum "Si O2"
_cell_formula_units_Z 16
_cell_length_a 11.584217
_cell_length_b 8.306965
_cell_length_c 16.014435
_cell_angle_alpha 108.854378
_cell_angle_beta 113.243683
_cell_angle_gamma 127.029003
_cell_volume 728.626974
_symmetry_space_group_name_H-M "P -1"
_symmetry_group_IT_number 2
_symmetry_cell_setting 'triclinic'
loop_
_space_group_symop_operation_xyz
x,y,z
-x,-y,-z
loop_
_atom_site_type_symbol
_atom_site_label
_atom_site_fract_x
_atom_site_fract_y
_atom_site_fract_z
Si Si1 0.348763 0.130439 0.191527
Si Si2 0.854951 0.693153 0.217144
Si Si3 0.511893 0.071007 0.763491
Si Si4 0.659762 0.079457 0.496606
Si Si5 0.876436 0.730477 0.045458
Si Si6 0.186850 0.699730 0.765324
Si Si7 0.648634 0.684851 0.489135
Si Si8 0.368589 0.202634 0.017525
O O1 0.563393 0.458763 0.356314
O O2 0.326833 0.913226 0.182342
O O3 0.389888 0.165778 0.111767
O O4 0.121347 0.985117 0.114334
O O5 0.899231 0.671760 0.133217
O O6 0.789044 0.460617 0.217416
O O7 0.630015 0.562378 0.128408
O O8 0.082250 0.053492 0.372348
O O9 0.412074 0.972700 0.626945
O O10 0.302760 0.830308 0.729212
O O11 0.674852 0.417842 0.881686
O O12 0.918728 0.443619 0.639684
O O13 0.500000 0.000000 0.500000
O O14 0.634547 0.855898 0.476780
O O15 0.821649 0.868191 0.061495
O O16 0.310072 0.975003 0.905811
O O17 0.500000 0.500000 0.500000
#
# Coordination Sequence:
#
# PCOD8033406 Si02
#       8
#     2   2   2   2   2   2   2   2
#     4  12  26  44  72 100 139 185 230 285 349 404
#     4  11  23  46  70 101 138 183 229 273 349 410
#     4  12  25  48  68 102 141 182 232 281 344 412
#     4  11  27  44  72 105 136 182 232 283 346 407
#     4  12  26  42  71 105 139 178 234 290 340 408
#     4  11  25  46  72  98 144 185 226 281 343 419
#     4  11  24  47  70 100 141 177 228 283 343 412
#     4  12  25  45  71 105 138 182 231 288 344 405
#
# _framework density 21.959111
#
# number of rings (size 3 to 8) (size 9 to 14) (size 15 to 20)
#    0.000    0.500    3.750    4.125    5.250    1.500 
#    2.250    0.000    0.000    0.000    0.000    0.000 
#    0.000    0.000    0.000    0.000    0.000    0.000 
#
# Total GULP energy -198460.733634 kJ/mol
# GULP energy per Si atom -12403.795852 kJ/mol
# Density = 2.190913 g / cm^3
# Si number density = 21.959111 Si / 1000 Ang^3
#
#
#
# Elastic Constant Matrix: (Units=GPa)
#
#
# Indices 1 2 3 4 5 6 
#
# 1 99.9699 29.3074 43.8343 4.9443 8.5182 16.7476
# 2 29.3074 95.1202 57.7610 -6.5647 -8.9123 17.4965
# 3 43.8343 57.7610 137.6102 -8.7904 0.6303 22.4890
# 4 4.9443 -6.5647 -8.7904 41.1581 13.9733 -2.8300
# 5 8.5182 -8.9123 0.6303 13.9733 35.4181 0.9171
# 6 16.7476 17.4965 22.4890 -2.8300 0.9171 33.8106
#
#
#
# Elastic Compliance Matrix: (Units=1/GPa)
#
#
# Indices 1 2 3 4 5 6 
#
# 1 0.012689 -0.001977 -0.002737 -0.001742 -0.002722 -0.003514
# 2 -0.001977 0.015417 -0.005286 -0.000259 0.004645 -0.003631
# 3 -0.002737 -0.005286 0.010994 0.002189 -0.001654 -0.002993
# 4 -0.001742 -0.000259 0.002189 0.028867 -0.011132 0.002259
# 5 -0.002722 0.004645 -0.001654 -0.011132 0.034526 -0.001824
# 6 -0.003514 -0.003631 -0.002993 0.002259 -0.001824 0.035426
#
#
# Mechanical properties :
#
#
# Convention : Reuss Voigt Hill
#
# Bulk Modulus (GPa) = 52.35207 66.05620 59.20414
# Shear Modulus (GPa) = 30.43476 35.53054 32.98265
#
# Velocity S-wave (km/s) = 3.72691 4.02684 3.87977
# Velocity P-wave (km/s) = 6.51247 7.19495 6.86220
#
# Compressibility (1/GPa) = 0.01910144
#
# Stress axis : x y z
#
# Youngs Moduli (GPa) = 78.80629 64.86285 90.95746
#
# Poissons Ratio (x) = 0.12821 0.24894
# Poissons Ratio (y) = 0.15577 0.48081
# Poissons Ratio (z) = 0.21568 0.34287
#
# Static dielectric constant tensor:
#      x y z
#    x 3.927940 0.128840 0.120890 
#    y 0.128840 4.096360 -0.029740 
#    z 0.120890 -0.029740 4.190110 
# 
# 
# High freq. dielectric constant tensor:
#      x y z
#    x 1.867660 0.010220 0.005940 
#    y 0.010220 1.874940 -0.006950 
#    z 0.005940 -0.006950 1.880640 
# 
# From -- ./inp_files/260682.got.cif
#   From: 2010.06.25/outbox.cif.g09.slc.cpg/sg2_131_cif.got.tgz:260682.got - 2010.06.27 13:26:56.
