data_PCOD8033170
_publ_section_title
;
Structure prediction by ZEFSAII (Michael W. Deem and Ramdas Pophale) SiO2 
 PCOD8033170
Probable space group: P -1
;
_chemical_formula_sum "Si O2"
_cell_formula_units_Z 14
_cell_length_a 15.143017
_cell_length_b 7.296280
_cell_length_c 14.350124
_cell_angle_alpha 107.465747
_cell_angle_beta 26.924387
_cell_angle_gamma 92.454059
_cell_volume 584.799377
_symmetry_space_group_name_H-M "P -1"
_symmetry_group_IT_number 2
_symmetry_cell_setting 'triclinic'
loop_
_space_group_symop_operation_xyz
x,y,z
-x,-y,-z
loop_
_atom_site_type_symbol
_atom_site_label
_atom_site_fract_x
_atom_site_fract_y
_atom_site_fract_z
Si Si1 0.942625 0.247203 0.898471
Si Si2 0.067335 0.667683 0.416815
Si Si3 0.380563 0.336276 0.927526
Si Si4 0.546545 0.469833 0.609406
Si Si5 0.172313 0.998024 0.461768
Si Si6 0.971657 0.640380 0.867355
Si Si7 0.279230 0.980828 0.702982
O O1 0.993927 0.165397 0.731380
O O2 0.925105 0.488436 0.958713
O O3 0.137735 0.068875 0.753760
O O4 0.684562 0.302364 0.172692
O O5 0.000000 0.500000 0.500000
O O6 0.858854 0.861894 0.581518
O O7 0.130467 0.791465 0.454790
O O8 0.287144 0.530909 0.122573
O O9 0.493598 0.387631 0.742550
O O10 0.569903 0.102360 0.760510
O O11 0.172203 0.307814 0.084410
O O12 0.759262 0.502443 0.432458
O O13 0.628463 0.283601 0.421374
O O14 0.891114 0.879654 0.030311
O O15 0.500000 0.000000 0.500000
#
# Coordination Sequence:
#
# PCOD8033170 Si02
#       7
#     2   2   2   2   2   2   2
#     4  11  23  45  67  99 140 182 226 289 349 407
#     4  11  26  46  73 107 138 180 241 287 355 430
#     4  11  23  46  71  98 144 180 224 296 346 413
#     4  11  24  43  68  96 140 182 229 290 336 412
#     4  11  23  47  72 102 145 183 227 296 360 407
#     4  11  24  43  68 103 136 183 234 280 348 414
#     4  12  22  44  69  97 144 183 226 289 344 406
#
# _framework density 23.939833
#
# number of rings (size 3 to 8) (size 9 to 14) (size 15 to 20)
#    0.000    0.857    7.143    1.286    2.000    1.143 
#    7.714    0.000    0.000    0.000    0.000    0.000 
#    0.000    0.000    0.000    0.000    0.000    0.000 
#
# Total GULP energy -173595.869334 kJ/mol
# GULP energy per Si atom -12399.704952 kJ/mol
# Density = 2.388534 g / cm^3
# Si number density = 23.939833 Si / 1000 Ang^3
#
#
#
# Elastic Constant Matrix: (Units=GPa)
#
#
# Indices 1 2 3 4 5 6 
#
# 1 106.9812 18.1601 46.4257 -1.6963 -13.8840 7.6603
# 2 18.1601 69.6052 17.3602 2.0735 -3.9723 5.5640
# 3 46.4257 17.3602 145.9918 -5.6147 -26.6839 5.9938
# 4 -1.6963 2.0735 -5.6147 37.6113 10.8083 -1.8402
# 5 -13.8840 -3.9723 -26.6839 10.8083 57.9461 9.8039
# 6 7.6603 5.5640 5.9938 -1.8402 9.8039 23.9723
#
#
#
# Elastic Compliance Matrix: (Units=1/GPa)
#
#
# Indices 1 2 3 4 5 6 
#
# 1 0.011417 -0.001855 -0.002946 -0.000533 0.001910 -0.003303
# 2 -0.001855 0.015462 -0.000991 -0.001531 0.000999 -0.003274
# 3 -0.002946 -0.000991 0.008671 0.000052 0.003629 -0.002477
# 4 -0.000533 -0.001531 0.000052 0.028783 -0.006487 0.005375
# 5 0.001910 0.000999 0.003629 -0.006487 0.022609 -0.011494
# 6 -0.003303 -0.003274 -0.002477 0.005375 -0.011494 0.049263
#
#
# Mechanical properties :
#
#
# Convention : Reuss Voigt Hill
#
# Bulk Modulus (GPa) = 41.72353 54.05224 47.88788
# Shear Modulus (GPa) = 32.09730 39.94809 36.02269
#
# Velocity S-wave (km/s) = 3.66560 4.08939 3.88328
# Velocity P-wave (km/s) = 5.94826 6.70260 6.33666
#
# Compressibility (1/GPa) = 0.02396729
#
# Stress axis : x y z
#
# Youngs Moduli (GPa) = 87.59175 64.67408 115.32483
#
# Poissons Ratio (x) = 0.11997 0.33971
# Poissons Ratio (y) = 0.16248 0.11424
# Poissons Ratio (z) = 0.25802 0.06407
#
# Static dielectric constant tensor:
#      x y z
#    x 4.503670 0.125570 -0.153630 
#    y 0.125570 3.975140 0.268040 
#    z -0.153630 0.268040 4.635750 
# 
# 
# High freq. dielectric constant tensor:
#      x y z
#    x 1.958260 0.004710 -0.008390 
#    y 0.004710 1.924580 0.017550 
#    z -0.008390 0.017550 1.968160 
# 
# From -- ./inp_files/529948.got.cif
#   From: 2010.06.25/outbox.cif.g09.slc.cpg/sg2_265_cif.got.tgz:529948.got - 2010.06.27 13:26:56.
