data_PCOD8033516
_publ_section_title
;
Structure prediction by ZEFSAII (Michael W. Deem and Ramdas Pophale) SiO2 
 PCOD8033516
Probable space group: P -1
;
_chemical_formula_sum "Si O2"
_cell_formula_units_Z 12
_cell_length_a 9.117484
_cell_length_b 10.732048
_cell_length_c 10.554399
_cell_angle_alpha 151.422988
_cell_angle_beta 65.532247
_cell_angle_gamma 119.324842
_cell_volume 430.384129
_symmetry_space_group_name_H-M "P -1"
_symmetry_group_IT_number 2
_symmetry_cell_setting 'triclinic'
loop_
_space_group_symop_operation_xyz
x,y,z
-x,-y,-z
loop_
_atom_site_type_symbol
_atom_site_label
_atom_site_fract_x
_atom_site_fract_y
_atom_site_fract_z
Si Si1 0.899898 0.548977 0.710633
Si Si2 0.328730 0.181849 0.079888
Si Si3 0.439253 0.934324 0.605571
Si Si4 0.744391 0.786610 0.466015
Si Si5 0.977126 0.731974 0.126975
Si Si6 0.269552 0.583905 0.639958
O O1 0.855135 0.803340 0.886011
O O2 0.748153 0.270391 0.495580
O O3 0.082772 0.511730 0.572788
O O4 0.907294 0.609852 0.910353
O O5 0.386488 0.424833 0.381294
O O6 0.441068 0.205951 0.930686
O O7 0.339117 0.908230 0.901669
O O8 0.556105 0.787426 0.507528
O O9 0.500000 0.000000 0.500000
O O10 0.836038 0.839270 0.343728
O O11 0.744105 0.505138 0.286684
O O12 0.848826 0.026758 0.737036
O O13 0.000000 0.500000 0.000000
#
# Coordination Sequence:
#
# PCOD8033516 Si02
#       6
#     2   2   2   2   2   2
#     4  12  26  49  84 114 155 204 266 327 384 461
#     4  12  28  51  81 113 160 208 264 321 392 466
#     4  12  29  51  77 118 160 204 257 330 397 461
#     4  11  27  47  76 115 159 204 261 322 391 468
#     4  11  23  46  78 112 150 206 264 318 381 459
#     4  12  27  50  82 114 155 211 268 315 386 476
#
# _framework density 27.882069000000001
#
# number of rings (size 3 to 8) (size 9 to 14) (size 15 to 20)
#    0.000    0.333    3.333    4.000    7.000    5.333 
#    0.000    0.000    0.000    0.000    0.000    0.000 
#    0.000    0.000    0.000    0.000    0.000    0.000 
#
# Total GULP energy -148716.512042 kJ/mol
# GULP energy per Si atom -12393.042670 kJ/mol
# Density = 2.781861 g / cm^3
# Si number density = 27.882069 Si / 1000 Ang^3
#
#
#
# Elastic Constant Matrix: (Units=GPa)
#
#
# Indices 1 2 3 4 5 6 
#
# 1 93.8093 37.4043 45.0986 -1.6914 0.4277 -10.3431
# 2 37.4043 150.7730 61.6444 -2.3213 -19.2850 -2.0935
# 3 45.0986 61.6444 142.5178 -17.2177 -28.0887 -6.0675
# 4 -1.6914 -2.3213 -17.2177 43.8200 -5.5210 -9.9855
# 5 0.4277 -19.2850 -28.0887 -5.5210 43.6248 1.4751
# 6 -10.3431 -2.0935 -6.0675 -9.9855 1.4751 54.2406
#
#
#
# Elastic Compliance Matrix: (Units=1/GPa)
#
#
# Indices 1 2 3 4 5 6 
#
# 1 0.013814 -0.002181 -0.004322 -0.001360 -0.004120 0.001928
# 2 -0.002181 0.008513 -0.002689 -0.000562 0.002001 -0.000546
# 3 -0.004322 -0.002689 0.011628 0.005408 0.006985 0.001178
# 4 -0.001360 -0.000562 0.005408 0.026838 0.006471 0.005089
# 5 -0.004120 0.002001 0.006985 0.006471 0.029148 0.000472
# 6 0.001928 -0.000546 0.001178 0.005089 0.000472 0.019839
#
#
# Mechanical properties :
#
#
# Convention : Reuss Voigt Hill
#
# Bulk Modulus (GPa) = 64.22441 75.04384 69.63412
# Shear Modulus (GPa) = 37.49430 44.53393 41.01412
#
# Velocity S-wave (km/s) = 3.67106 4.00087 3.83950
# Velocity P-wave (km/s) = 6.40728 6.95095 6.68464
#
# Compressibility (1/GPa) = 0.01557041
#
# Stress axis : x y z
#
# Youngs Moduli (GPa) = 72.38844 117.47423 86.00269
#
# Poissons Ratio (x) = 0.25622 0.37173
# Poissons Ratio (y) = 0.15788 0.23123
# Poissons Ratio (z) = 0.31288 0.31584
#
# Static dielectric constant tensor:
#      x y z
#    x 5.351570 0.130840 -0.356680 
#    y 0.130840 5.813730 -0.614850 
#    z -0.356680 -0.614850 5.248320 
# 
# 
# High freq. dielectric constant tensor:
#      x y z
#    x 2.139690 -0.008780 -0.009840 
#    y -0.008780 2.141790 -0.029400 
#    z -0.009840 -0.029400 2.136280 
# 
# From -- ./inp_files/391761.got.cif
#   From: 2010.06.25/outbox.cif.g09.slc.cpg/sg2_196_cif.got.tgz:391761.got - 2010.06.27 13:26:56.
