data_PCOD8033009
_publ_section_title
;
Structure prediction by ZEFSAII (Michael W. Deem and Ramdas Pophale) SiO2 
 PCOD8033009
Probable space group: P -1
;
_chemical_formula_sum "Si O2"
_cell_formula_units_Z 12
_cell_length_a 8.890602
_cell_length_b 13.452538
_cell_length_c 7.845126
_cell_angle_alpha 134.889803
_cell_angle_beta 76.535419
_cell_angle_gamma 128.660370
_cell_volume 480.972706
_symmetry_space_group_name_H-M "P -1"
_symmetry_group_IT_number 2
_symmetry_cell_setting 'triclinic'
loop_
_space_group_symop_operation_xyz
x,y,z
-x,-y,-z
loop_
_atom_site_type_symbol
_atom_site_label
_atom_site_fract_x
_atom_site_fract_y
_atom_site_fract_z
Si Si1 0.612955 0.709574 0.681417
Si Si2 0.711334 0.545581 0.971610
Si Si3 0.672053 0.025929 0.148962
Si Si4 0.953495 0.843949 0.995137
Si Si5 0.085370 0.892753 0.493522
Si Si6 0.450681 0.161016 0.464312
O O1 0.500000 0.500000 0.500000
O O2 0.854588 0.833747 0.826556
O O3 0.606685 0.740486 0.521213
O O4 0.533104 0.797167 0.919393
O O5 0.806079 0.638056 0.871296
O O6 0.642155 0.338465 0.743253
O O7 0.500000 0.500000 0.000000
O O8 0.879941 0.682283 0.238749
O O9 0.812666 0.129819 0.404570
O O10 0.531676 0.078957 0.228814
O O11 0.819440 0.086499 0.015944
O O12 0.968594 0.978533 0.292743
O O13 0.253491 0.991766 0.417611
#
# Coordination Sequence:
#
# PCOD8033009 Si02
#       6
#     2   2   2   2   2   2
#     4  11  23  44  71 105 143 190 242 291 350 441
#     4  12  26  43  76 109 139 195 249 290 355 439
#     4  11  27  47  73 110 147 188 235 308 369 412
#     4  11  24  45  75 103 145 190 243 297 356 427
#     4  11  25  48  75 103 149 193 241 295 356 439
#     4  12  26  49  76 109 149 186 240 304 367 419
#
# _framework density 24.949442000000001
#
# number of rings (size 3 to 8) (size 9 to 14) (size 15 to 20)
#    0.000    0.667    3.333    4.500    4.667    1.333 
#    3.000    0.000    0.000    0.000    0.000    0.000 
#    0.000    0.000    0.000    0.000    0.000    0.000 
#
# Total GULP energy -148761.800286 kJ/mol
# GULP energy per Si atom -12396.816690 kJ/mol
# Density = 2.489266 g / cm^3
# Si number density = 24.949442 Si / 1000 Ang^3
#
#
#
# Elastic Constant Matrix: (Units=GPa)
#
#
# Indices 1 2 3 4 5 6 
#
# 1 111.6636 55.8945 40.8212 8.1178 -16.6991 21.1784
# 2 55.8945 113.6411 42.3716 2.6400 -7.4144 25.0284
# 3 40.8212 42.3716 149.6352 25.7500 -2.0426 22.6552
# 4 8.1178 2.6400 25.7500 56.2359 2.2833 1.3673
# 5 -16.6991 -7.4144 -2.0426 2.2833 50.1809 -8.6650
# 6 21.1784 25.0284 22.6552 1.3673 -8.6650 37.2388
#
#
#
# Elastic Compliance Matrix: (Units=1/GPa)
#
#
# Indices 1 2 3 4 5 6 
#
# 1 0.013064 -0.005115 -0.001555 -0.001008 0.003182 -0.002268
# 2 -0.005115 0.012980 -0.001720 0.001069 -0.000764 -0.004986
# 3 -0.001555 -0.001720 0.008698 -0.003563 -0.000828 -0.003313
# 4 -0.001008 0.001069 -0.003563 0.019525 -0.001027 0.001067
# 5 0.003182 -0.000764 -0.000828 -0.001027 0.021626 0.004277
# 6 -0.002268 -0.004986 -0.003313 0.001067 0.004277 0.034466
#
#
# Mechanical properties :
#
#
# Convention : Reuss Voigt Hill
#
# Bulk Modulus (GPa) = 55.67376 72.56826 64.12101
# Shear Modulus (GPa) = 37.55882 44.45462 41.00672
#
# Velocity S-wave (km/s) = 3.88415 4.22570 4.05852
# Velocity P-wave (km/s) = 6.51756 7.27723 6.90784
#
# Compressibility (1/GPa) = 0.01796178
#
# Stress axis : x y z
#
# Youngs Moduli (GPa) = 76.54782 77.04163 114.97467
#
# Poissons Ratio (x) = 0.39406 0.17881
# Poissons Ratio (y) = 0.39154 0.19771
# Poissons Ratio (z) = 0.11905 0.13248
#
# Static dielectric constant tensor:
#      x y z
#    x 4.428780 0.002030 0.285490 
#    y 0.002030 4.529440 0.188580 
#    z 0.285490 0.188580 5.504470 
# 
# 
# High freq. dielectric constant tensor:
#      x y z
#    x 1.981420 0.004050 0.025220 
#    y 0.004050 1.988450 -0.005650 
#    z 0.025220 -0.005650 2.027080 
# 
# From -- ./inp_files/209317.got.cif
#   From: 2010.06.25/outbox.cif.g09.slc.cpg/sg2_105_cif.got.tgz:209317.got - 2010.06.27 13:26:56.
