data_PCOD8033022
_publ_section_title
;
Structure prediction by ZEFSAII (Michael W. Deem and Ramdas Pophale) SiO2 
 PCOD8033022
Probable space group: P -1
;
_chemical_formula_sum "Si O2"
_cell_formula_units_Z 16
_cell_length_a 13.497479
_cell_length_b 9.222350
_cell_length_c 12.695226
_cell_angle_alpha 131.178798
_cell_angle_beta 65.763353
_cell_angle_gamma 76.235119
_cell_volume 728.892604
_symmetry_space_group_name_H-M "P -1"
_symmetry_group_IT_number 2
_symmetry_cell_setting 'triclinic'
loop_
_space_group_symop_operation_xyz
x,y,z
-x,-y,-z
loop_
_atom_site_type_symbol
_atom_site_label
_atom_site_fract_x
_atom_site_fract_y
_atom_site_fract_z
Si Si1 0.921109 0.803648 0.701214
Si Si2 0.741123 0.857065 0.499180
Si Si3 0.136650 0.940543 0.359243
Si Si4 0.670586 0.985575 0.145854
Si Si5 0.440537 0.699822 0.854545
Si Si6 0.568219 0.119499 0.497186
Si Si7 0.004895 0.772075 0.866374
Si Si8 0.579083 0.690160 0.001548
O O1 0.027393 0.750775 0.721853
O O2 0.000000 0.500000 0.500000
O O3 0.920451 0.966886 0.690820
O O4 0.738976 0.994033 0.901150
O O5 0.832609 0.532050 0.300260
O O6 0.865643 0.843672 0.488066
O O7 0.715310 0.953771 0.435443
O O8 0.580703 0.063848 0.741052
O O9 0.315940 0.615398 0.134963
O O10 0.000000 0.000000 0.500000
O O11 0.686336 0.743670 0.983045
O O12 0.533245 0.262302 0.260597
O O13 0.613587 0.064926 0.329507
O O14 0.842841 0.867936 0.014103
O O15 0.451348 0.453376 0.733711
O O16 0.547908 0.663808 0.881098
O O17 0.500000 0.000000 0.500000
O O18 0.000000 0.000000 0.000000
#
# Coordination Sequence:
#
# PCOD8033022 Si02
#       8
#     2   2   2   2   2   2   2   2
#     4  11  23  44  71  97 140 183 229 286 351 409
#     4  12  24  45  72 104 139 185 232 287 352 415
#     4  12  25  42  70 105 142 177 232 289 350 414
#     4  11  27  45  70 104 142 182 238 284 350 417
#     4  11  24  45  72 102 140 182 235 289 347 410
#     4  12  26  44  70 105 144 184 232 290 351 414
#     4  11  27  47  70 101 143 187 233 285 354 415
#     4  12  23  45  75 106 136 180 237 293 348 413
#
# _framework density 21.951108000000001
#
# number of rings (size 3 to 8) (size 9 to 14) (size 15 to 20)
#    0.000    0.500    5.000    2.625    5.250    2.500 
#    2.250    0.000    0.000    0.000    0.000    0.000 
#    0.000    0.000    0.000    0.000    0.000    0.000 
#
# Total GULP energy -198258.840653 kJ/mol
# GULP energy per Si atom -12391.177541 kJ/mol
# Density = 2.190115 g / cm^3
# Si number density = 21.951108 Si / 1000 Ang^3
#
#
#
# Elastic Constant Matrix: (Units=GPa)
#
#
# Indices 1 2 3 4 5 6 
#
# 1 98.4487 46.8675 57.7381 -3.6188 19.0307 10.9302
# 2 46.8675 185.8187 75.1482 -1.8404 9.7237 -21.0887
# 3 57.7381 75.1482 130.6278 18.2889 16.2727 -3.2185
# 4 -3.6188 -1.8404 18.2889 49.8650 1.7555 5.3736
# 5 19.0307 9.7237 16.2727 1.7555 38.1842 1.8898
# 6 10.9302 -21.0887 -3.2185 5.3736 1.8898 42.4849
#
#
#
# Elastic Compliance Matrix: (Units=1/GPa)
#
#
# Indices 1 2 3 4 5 6 
#
# 1 0.016614 -0.002028 -0.006306 0.004274 -0.004972 -0.006078
# 2 -0.002028 0.007835 -0.003705 0.001060 0.000348 0.003981
# 3 -0.006306 -0.003705 0.013602 -0.005702 -0.001528 0.001603
# 4 0.004274 0.001060 -0.005702 0.022941 -0.000833 -0.003870
# 5 -0.004972 0.000348 -0.001528 -0.000833 0.029261 0.000140
# 6 -0.006078 0.003981 0.001603 -0.003870 0.000140 0.027682
#
#
# Mechanical properties :
#
#
# Convention : Reuss Voigt Hill
#
# Bulk Modulus (GPa) = 71.55721 86.04477 78.80099
# Shear Modulus (GPa) = 34.08997 41.78291 37.93644
#
# Velocity S-wave (km/s) = 3.94508 4.36759 4.16170
# Velocity P-wave (km/s) = 7.30895 8.04475 7.68566
#
# Compressibility (1/GPa) = 0.01397483
#
# Stress axis : x y z
#
# Youngs Moduli (GPa) = 60.19000 127.62539 73.51767
#
# Poissons Ratio (x) = 0.25876 0.46359
# Poissons Ratio (y) = 0.12204 0.27239
# Poissons Ratio (z) = 0.37954 0.47287
#
# Static dielectric constant tensor:
#      x y z
#    x 3.641940 0.393690 -0.005100 
#    y 0.393690 3.976470 0.411500 
#    z -0.005100 0.411500 3.800770 
# 
# 
# High freq. dielectric constant tensor:
#      x y z
#    x 1.865230 -0.011340 0.018280 
#    y -0.011340 1.890660 0.009950 
#    z 0.018280 0.009950 1.858610 
# 
# From -- ./inp_files/219045.got.cif
#   From: 2010.06.25/outbox.cif.g09.slc.cpg/sg2_110_cif.got.tgz:219045.got - 2010.06.27 13:26:56.
