data_PCOD8033473
_publ_section_title
;
Structure prediction by ZEFSAII (Michael W. Deem and Ramdas Pophale) SiO2 
 PCOD8033473
Probable space group: P -1
;
_chemical_formula_sum "Si O2"
_cell_formula_units_Z 16
_cell_length_a 11.604763
_cell_length_b 11.997563
_cell_length_c 12.085052
_cell_angle_alpha 69.088953
_cell_angle_beta 36.314757
_cell_angle_gamma 95.072827
_cell_volume 682.759491
_symmetry_space_group_name_H-M "P -1"
_symmetry_group_IT_number 2
_symmetry_cell_setting 'triclinic'
loop_
_space_group_symop_operation_xyz
x,y,z
-x,-y,-z
loop_
_atom_site_type_symbol
_atom_site_label
_atom_site_fract_x
_atom_site_fract_y
_atom_site_fract_z
Si Si1 0.343815 0.623664 0.283291
Si Si2 0.865909 0.818918 0.691868
Si Si3 0.116201 0.888514 0.090359
Si Si4 0.738781 0.180912 0.213642
Si Si5 0.537549 0.270016 0.608856
Si Si6 0.969014 0.684942 0.843375
Si Si7 0.962276 0.284072 0.589460
Si Si8 0.506033 0.667714 0.616075
O O1 0.467083 0.657694 0.298631
O O2 0.149007 0.434057 0.476408
O O3 0.205292 0.695406 0.362640
O O4 0.559486 0.716279 0.987238
O O5 0.877260 0.735239 0.608975
O O6 0.998217 0.814662 0.699508
O O7 0.000000 0.000000 0.500000
O O8 0.217156 0.871649 0.133804
O O9 0.807490 0.793212 0.380496
O O10 0.146031 0.806415 0.998212
O O11 0.290321 0.076676 0.864176
O O12 0.972555 0.260296 0.093719
O O13 0.637498 0.272889 0.252501
O O14 0.500000 0.000000 0.500000
O O15 0.819659 0.323053 0.360655
O O16 0.501861 0.344588 0.507173
O O17 0.666106 0.510249 0.132131
#
# Coordination Sequence:
#
# PCOD8033473 Si02
#       8
#     2   2   2   2   2   2   2   2
#     4  11  26  46  76 100 145 193 243 300 359 433
#     4  12  27  47  74 104 143 189 249 301 360 428
#     4  12  26  43  72 107 149 184 243 293 360 439
#     4  11  24  42  70 107 148 190 233 296 370 420
#     4  11  23  46  73 106 148 188 240 296 366 430
#     4  11  25  47  72 106 147 188 244 299 363 438
#     4  11  27  47  70 109 142 192 243 300 360 426
#     4  11  26  45  71 106 149 189 238 302 358 437
#
# _framework density 23.434314000000001
#
# number of rings (size 3 to 8) (size 9 to 14) (size 15 to 20)
#    0.000    0.750    3.750    3.750    7.000    3.500 
#    0.000    0.000    0.000    0.000    0.000    0.000 
#    0.000    0.000    0.000    0.000    0.000    0.000 
#
# Total GULP energy -198466.668260 kJ/mol
# GULP energy per Si atom -12404.166766 kJ/mol
# Density = 2.338098 g / cm^3
# Si number density = 23.434314 Si / 1000 Ang^3
#
#
#
# Elastic Constant Matrix: (Units=GPa)
#
#
# Indices 1 2 3 4 5 6 
#
# 1 76.1251 35.8243 17.5889 0.8861 18.0905 5.6475
# 2 35.8243 110.8534 23.9214 14.8517 12.4349 10.3124
# 3 17.5889 23.9214 119.2490 -0.1904 8.2453 -2.0314
# 4 0.8861 14.8517 -0.1904 32.1333 0.6380 13.3436
# 5 18.0905 12.4349 8.2453 0.6380 40.4063 -3.1883
# 6 5.6475 10.3124 -2.0314 13.3436 -3.1883 32.2418
#
#
#
# Elastic Compliance Matrix: (Units=1/GPa)
#
#
# Indices 1 2 3 4 5 6 
#
# 1 0.017412 -0.004752 -0.001227 0.003342 -0.006422 -0.003625
# 2 -0.004752 0.011792 -0.001610 -0.004822 -0.001188 -0.001162
# 3 -0.001227 -0.001610 0.008957 0.000406 -0.000706 0.001056
# 4 0.003342 -0.004822 0.000406 0.039813 -0.001962 -0.015688
# 5 -0.006422 -0.001188 -0.000706 -0.001962 0.028567 0.005097
# 6 -0.003625 -0.001162 0.001056 -0.015688 0.005097 0.039086
#
#
# Mechanical properties :
#
#
# Convention : Reuss Voigt Hill
#
# Bulk Modulus (GPa) = 43.51208 51.21075 47.36141
# Shear Modulus (GPa) = 29.67948 36.21580 32.94764
#
# Velocity S-wave (km/s) = 3.56265 3.93544 3.75368
# Velocity P-wave (km/s) = 5.96081 6.52308 6.24828
#
# Compressibility (1/GPa) = 0.02298213
#
# Stress axis : x y z
#
# Youngs Moduli (GPa) = 57.43007 84.80607 111.64175
#
# Poissons Ratio (x) = 0.40304 0.13702
# Poissons Ratio (y) = 0.27293 0.17972
# Poissons Ratio (z) = 0.07049 0.13652
#
# Static dielectric constant tensor:
#      x y z
#    x 4.282710 -0.019210 0.073690 
#    y -0.019210 4.605110 0.072120 
#    z 0.073690 0.072120 4.348620 
# 
# 
# High freq. dielectric constant tensor:
#      x y z
#    x 1.931270 -0.002690 0.009470 
#    y -0.002690 1.932850 0.005950 
#    z 0.009470 0.005950 1.938920 
# 
# From -- ./inp_files/427965.got.cif
#   From: 2010.06.25/outbox.cif.g09.slc.cpg/sg2_214_cif.got.tgz:427965.got - 2010.06.27 13:26:56.
