data_PCOD8033549
_publ_section_title
;
Structure prediction by ZEFSAII (Michael W. Deem and Ramdas Pophale) SiO2 
 PCOD8033549
Probable space group: P -1
;
_chemical_formula_sum "Si O2"
_cell_formula_units_Z 16
_cell_length_a 12.300604
_cell_length_b 15.149560
_cell_length_c 8.646145
_cell_angle_alpha 94.267602
_cell_angle_beta 98.823154
_cell_angle_gamma 27.649971
_cell_volume 732.194314
_symmetry_space_group_name_H-M "P -1"
_symmetry_group_IT_number 2
_symmetry_cell_setting 'triclinic'
loop_
_space_group_symop_operation_xyz
x,y,z
-x,-y,-z
loop_
_atom_site_type_symbol
_atom_site_label
_atom_site_fract_x
_atom_site_fract_y
_atom_site_fract_z
Si Si1 0.542508 0.966577 0.226001
Si Si2 0.480618 0.700240 0.218880
Si Si3 0.941938 0.966237 0.605538
Si Si4 0.400250 0.884181 0.659118
Si Si5 0.277516 0.312367 0.566804
Si Si6 0.388640 0.411746 0.115193
Si Si7 0.555812 0.457049 0.325064
Si Si8 0.893263 0.674134 0.002893
O O1 0.590937 0.872896 0.376898
O O2 0.689267 0.811650 0.105722
O O3 0.658378 0.981486 0.254815
O O4 0.256059 0.183133 0.160826
O O5 0.657232 0.655060 0.295764
O O6 0.573756 0.543666 0.287538
O O7 0.217519 0.897675 0.261388
O O8 0.478214 0.690463 0.033177
O O9 0.189604 0.759681 0.700077
O O10 0.820689 0.975246 0.482700
O O11 0.000000 0.000000 0.500000
O O12 0.637648 0.724300 0.589805
O O13 0.449817 0.768356 0.770014
O O14 0.000000 0.500000 0.500000
O O15 0.378698 0.517819 0.200849
O O16 0.110436 0.585256 0.069124
O O17 0.500000 0.500000 0.500000
O O18 0.000000 0.500000 0.000000
#
# Coordination Sequence:
#
# PCOD8033549 Si02
#       8
#     2   2   2   2   2   2   2   2
#     4  11  25  42  72 101 140 193 232 284 361 413
#     4  11  27  45  69 104 141 181 239 290 352 424
#     4  11  23  47  71  99 140 180 235 298 344 425
#     4  11  24  43  69 104 138 186 234 282 361 421
#     4  11  25  45  71 104 143 187 238 294 345 428
#     4  12  25  45  72 104 144 185 235 296 354 421
#     4  12  25  47  74 100 136 187 236 290 361 413
#     4  11  24  44  68 104 147 183 233 293 351 425
#
# _framework density 21.852122999999999
#
# number of rings (size 3 to 8) (size 9 to 14) (size 15 to 20)
#    0.000    0.750    3.750    3.000    7.000    2.500 
#    0.000    0.000    0.000    0.000    0.000    0.000 
#    0.000    0.000    0.000    0.000    0.000    0.000 
#
# Total GULP energy -198287.775076 kJ/mol
# GULP energy per Si atom -12392.985942 kJ/mol
# Density = 2.180239 g / cm^3
# Si number density = 21.852123 Si / 1000 Ang^3
#
#
#
# Elastic Constant Matrix: (Units=GPa)
#
#
# Indices 1 2 3 4 5 6 
#
# 1 103.7372 45.1655 20.5937 -2.1366 7.9626 0.2061
# 2 45.1655 121.4374 40.9822 -8.6142 8.1465 -1.4517
# 3 20.5937 40.9822 101.1164 9.3625 -8.9832 -4.0006
# 4 -2.1366 -8.6142 9.3625 44.4116 3.0229 -1.2672
# 5 7.9626 8.1465 -8.9832 3.0229 42.1894 -5.0798
# 6 0.2061 -1.4517 -4.0006 -1.2672 -5.0798 46.3875
#
#
#
# Elastic Compliance Matrix: (Units=1/GPa)
#
#
# Indices 1 2 3 4 5 6 
#
# 1 0.011663 -0.003888 -0.000981 0.000118 -0.001721 -0.000443
# 2 -0.003888 0.011585 -0.004446 0.003175 -0.002703 -0.000213
# 3 -0.000981 -0.004446 0.012668 -0.003827 0.004173 0.001310
# 4 0.000118 0.003175 -0.003827 0.024163 -0.003172 0.000082
# 5 -0.001721 -0.002703 0.004173 -0.003172 0.026032 0.003047
# 6 -0.000443 -0.000213 0.001310 0.000082 0.003047 0.022002
#
#
# Mechanical properties :
#
#
# Convention : Reuss Voigt Hill
#
# Bulk Modulus (GPa) = 57.85012 59.97489 58.91250
# Shear Modulus (GPa) = 37.73431 41.23434 39.48433
#
# Velocity S-wave (km/s) = 4.15999 4.34864 4.25536
# Velocity P-wave (km/s) = 7.04308 7.26083 7.15278
#
# Compressibility (1/GPa) = 0.01728605
#
# Stress axis : x y z
#
# Youngs Moduli (GPa) = 85.74351 86.31646 78.93740
#
# Poissons Ratio (x) = 0.33561 0.07742
# Poissons Ratio (y) = 0.33338 0.35097
# Poissons Ratio (z) = 0.08410 0.38378
#
# Static dielectric constant tensor:
#      x y z
#    x 5.146580 0.372020 -0.411450 
#    y 0.372020 4.133560 -0.248330 
#    z -0.411450 -0.248330 4.375340 
# 
# 
# High freq. dielectric constant tensor:
#      x y z
#    x 1.874580 0.002990 0.001650 
#    y 0.002990 1.863160 0.003650 
#    z 0.001650 0.003650 1.864100 
# 
# From -- ./inp_files/272905.got.cif
#   From: 2010.06.25/outbox.cif.g09.slc.cpg/sg2_137_cif.got.tgz:272905.got - 2010.06.27 13:26:56.
