data_PCOD8033789
_publ_section_title
;
Structure prediction by ZEFSAII (Michael W. Deem and Ramdas Pophale) SiO2 
 PCOD8033789
Probable space group: P -1
;
_chemical_formula_sum "Si O2"
_cell_formula_units_Z 16
_cell_length_a 14.881159
_cell_length_b 11.646463
_cell_length_c 12.999515
_cell_angle_alpha 131.622744
_cell_angle_beta 58.696141
_cell_angle_gamma 153.199303
_cell_volume 741.205993
_symmetry_space_group_name_H-M "P -1"
_symmetry_group_IT_number 2
_symmetry_cell_setting 'triclinic'
loop_
_space_group_symop_operation_xyz
x,y,z
-x,-y,-z
loop_
_atom_site_type_symbol
_atom_site_label
_atom_site_fract_x
_atom_site_fract_y
_atom_site_fract_z
Si Si1 0.414091 0.352005 0.707846
Si Si2 0.377193 0.067149 0.387698
Si Si3 0.570851 0.310617 0.199150
Si Si4 0.893727 0.046134 0.176451
Si Si5 0.700794 0.621461 0.864366
Si Si6 0.540025 0.989769 0.356456
Si Si7 0.199007 0.702400 0.938715
Si Si8 0.064727 0.587779 0.728109
O O1 0.350072 0.434663 0.747930
O O2 0.222291 0.048961 0.707530
O O3 0.617389 0.617740 0.815999
O O4 0.463500 0.293014 0.554091
O O5 0.436751 0.968540 0.321083
O O6 0.131342 0.766310 0.351276
O O7 0.475138 0.233055 0.319832
O O8 0.763474 0.435435 0.167525
O O9 0.397522 0.025045 0.060798
O O10 0.995646 0.317995 0.219426
O O11 0.720634 0.748536 0.031094
O O12 0.073708 0.155837 0.165326
O O13 0.542272 0.284411 0.776504
O O14 0.500000 0.000000 0.500000
O O15 0.783682 0.297360 0.377320
O O16 0.180165 0.745494 0.861490
O O17 0.000000 0.500000 0.000000
#
# Coordination Sequence:
#
# PCOD8033789 Si02
#       8
#     2   2   2   2   2   2   2   2
#     4  12  26  43  68  94 142 178 223 275 341 402
#     4  12  25  44  67  99 134 182 228 277 335 403
#     4  11  26  45  68  98 134 178 230 270 339 407
#     4  11  25  41  66 102 130 174 223 285 340 402
#     4  11  24  42  65  99 137 173 220 277 345 395
#     4  12  24  42  70  97 139 180 223 279 339 403
#     4  11  24  45  73 100 130 177 227 286 334 392
#     4  12  24  42  71  98 134 173 231 286 332 401
#
# _framework density 21.586441000000001
#
# number of rings (size 3 to 8) (size 9 to 14) (size 15 to 20)
#    0.000    0.500    6.250    1.500    3.500    4.000 
#    0.000    0.625    0.000    0.000    0.000    0.000 
#    0.000    0.000    0.000    0.000    0.000    0.000 
#
# Total GULP energy -198480.103253 kJ/mol
# GULP energy per Si atom -12405.006453 kJ/mol
# Density = 2.153731 g / cm^3
# Si number density = 21.586441 Si / 1000 Ang^3
#
#
#
# Elastic Constant Matrix: (Units=GPa)
#
#
# Indices 1 2 3 4 5 6 
#
# 1 114.0849 41.8513 27.9182 -13.9302 2.1479 -15.4597
# 2 41.8513 97.2320 31.0939 -15.7524 -0.0097 8.2701
# 3 27.9182 31.0939 89.1072 -16.4577 0.9807 -4.3432
# 4 -13.9302 -15.7524 -16.4577 32.4742 -0.4987 -2.0824
# 5 2.1479 -0.0097 0.9807 -0.4987 34.4737 -0.2920
# 6 -15.4597 8.2701 -4.3432 -2.0824 -0.2920 35.3253
#
#
#
# Elastic Compliance Matrix: (Units=1/GPa)
#
#
# Indices 1 2 3 4 5 6 
#
# 1 0.012078 -0.004925 -0.001275 0.002549 -0.000626 0.006427
# 2 -0.004925 0.014392 -0.003234 0.002867 0.000396 -0.005750
# 3 -0.001275 -0.003234 0.013784 0.005007 -0.000223 0.002187
# 4 0.002549 0.002867 0.005007 0.036023 0.000248 0.003185
# 5 -0.000626 0.000396 -0.000223 0.000248 0.029056 -0.000139
# 6 0.006427 -0.005750 0.002187 0.003185 -0.000139 0.032923
#
#
# Mechanical properties :
#
#
# Convention : Reuss Voigt Hill
#
# Bulk Modulus (GPa) = 46.75793 55.79455 51.27624
# Shear Modulus (GPa) = 30.44091 33.75868 32.09980
#
# Velocity S-wave (km/s) = 3.75932 3.95889 3.86039
# Velocity P-wave (km/s) = 6.36798 6.84107 6.60876
#
# Compressibility (1/GPa) = 0.02138675
#
# Stress axis : x y z
#
# Youngs Moduli (GPa) = 82.79581 69.48127 72.54650
#
# Poissons Ratio (x) = 0.34218 0.09248
# Poissons Ratio (y) = 0.40776 0.23464
# Poissons Ratio (z) = 0.10554 0.22472
#
# Static dielectric constant tensor:
#      x y z
#    x 4.285710 0.057040 0.055600 
#    y 0.057040 3.805170 -0.132070 
#    z 0.055600 -0.132070 3.880000 
# 
# 
# High freq. dielectric constant tensor:
#      x y z
#    x 1.863650 0.010260 0.002610 
#    y 0.010260 1.840920 -0.012270 
#    z 0.002610 -0.012270 1.848690 
# 
# From -- ./inp_files/451790.got.cif
#   From: 2010.06.25/outbox.cif.g09.slc.cpg/sg2_226_cif.got.tgz:451790.got - 2010.06.27 13:26:56.
