data_PCOD8033775
_publ_section_title
;
Structure prediction by ZEFSAII (Michael W. Deem and Ramdas Pophale) SiO2 
 PCOD8033775
Probable space group: P -1
;
_chemical_formula_sum "Si O2"
_cell_formula_units_Z 16
_cell_length_a 9.542705
_cell_length_b 15.668072
_cell_length_c 9.775567
_cell_angle_alpha 113.013118
_cell_angle_beta 43.999390
_cell_angle_gamma 84.572960
_cell_volume 756.036591
_symmetry_space_group_name_H-M "P -1"
_symmetry_group_IT_number 2
_symmetry_cell_setting 'triclinic'
loop_
_space_group_symop_operation_xyz
x,y,z
-x,-y,-z
loop_
_atom_site_type_symbol
_atom_site_label
_atom_site_fract_x
_atom_site_fract_y
_atom_site_fract_z
Si Si1 0.239168 0.870363 0.763177
Si Si2 0.011169 0.275914 0.507288
Si Si3 0.234297 0.542316 0.770744
Si Si4 0.044614 0.197835 0.926989
Si Si5 0.127642 0.504499 0.114073
Si Si6 0.417195 0.740615 0.273428
Si Si7 0.649622 0.894891 0.602339
Si Si8 0.352766 0.150265 0.943364
O O1 0.292648 0.808441 0.542745
O O2 0.477534 0.861041 0.640686
O O3 0.187647 0.803454 0.867751
O O4 0.000000 0.000000 0.000000
O O5 0.212162 0.183099 0.413429
O O6 0.936550 0.401483 0.669396
O O7 0.765033 0.279996 0.689398
O O8 0.123806 0.244516 0.256693
O O9 0.500000 0.500000 0.500000
O O10 0.130970 0.476760 0.731787
O O11 0.254490 0.520257 0.904758
O O12 0.036533 0.675729 0.964263
O O13 0.159120 0.124985 0.662396
O O14 0.252920 0.140263 0.862325
O O15 0.318945 0.379333 0.962604
O O16 0.458160 0.816074 0.190979
O O17 0.495645 0.026892 0.839174
#
# Coordination Sequence:
#
# PCOD8033775 Si02
#       8
#     2   2   2   2   2   2   2   2
#     4  12  23  40  73 104 132 179 228 281 339 399
#     4  12  28  45  67 101 143 183 222 285 347 399
#     4  11  24  41  73 104 133 172 232 286 337 396
#     4  12  22  43  71 104 130 179 231 277 340 404
#     4  11  25  46  67 101 140 179 222 288 339 403
#     4  12  25  45  70  98 142 182 227 277 342 413
#     4  12  25  46  70 103 140 173 236 288 330 404
#     4  12  25  44  71 101 138 183 227 280 342 406
#
# _framework density 21.162996
#
# number of rings (size 3 to 8) (size 9 to 14) (size 15 to 20)
#    0.000    0.250    6.250    2.625    3.500    3.000 
#    0.000    0.000    0.000    0.000    0.000    0.000 
#    0.000    0.000    0.000    0.000    0.000    0.000 
#
# Total GULP energy -198531.366751 kJ/mol
# GULP energy per Si atom -12408.210422 kJ/mol
# Density = 2.111483 g / cm^3
# Si number density = 21.162996 Si / 1000 Ang^3
#
#
#
# Elastic Constant Matrix: (Units=GPa)
#
#
# Indices 1 2 3 4 5 6 
#
# 1 78.7274 23.1044 22.4316 3.1214 -5.7350 11.0237
# 2 23.1044 87.2009 19.2998 4.3815 0.5987 15.3897
# 3 22.4316 19.2998 97.6094 3.4914 3.4898 15.6756
# 4 3.1214 4.3815 3.4914 47.2513 6.9624 -6.6335
# 5 -5.7350 0.5987 3.4898 6.9624 31.9108 1.4865
# 6 11.0237 15.3897 15.6756 -6.6335 1.4865 39.6567
#
#
#
# Elastic Compliance Matrix: (Units=1/GPa)
#
#
# Indices 1 2 3 4 5 6 
#
# 1 0.014920 -0.002928 -0.002544 -0.001362 0.003422 -0.002361
# 2 -0.002928 0.013321 -0.001242 -0.001510 -0.000119 -0.004113
# 3 -0.002544 -0.001242 0.011724 -0.000880 -0.001359 -0.003541
# 4 -0.001362 -0.001510 -0.000880 0.023005 -0.005389 0.005362
# 5 0.003422 -0.000119 -0.001359 -0.005389 0.033396 -0.002521
# 6 -0.002361 -0.004113 -0.003541 0.005362 -0.002521 0.029860
#
#
# Mechanical properties :
#
#
# Convention : Reuss Voigt Hill
#
# Bulk Modulus (GPa) = 37.68506 43.68993 40.68750
# Shear Modulus (GPa) = 33.66955 37.01058 35.34007
#
# Velocity S-wave (km/s) = 3.99302 4.18644 4.09087
# Velocity P-wave (km/s) = 6.25337 6.63760 6.44835
#
# Compressibility (1/GPa) = 0.02653571
#
# Stress axis : x y z
#
# Youngs Moduli (GPa) = 67.02273 75.06892 85.29525
#
# Poissons Ratio (x) = 0.21983 0.21701
# Poissons Ratio (y) = 0.19627 0.10595
# Poissons Ratio (z) = 0.17052 0.09325
#
# Static dielectric constant tensor:
#      x y z
#    x 3.875210 0.149790 -0.003560 
#    y 0.149790 4.084090 -0.033840 
#    z -0.003560 -0.033840 3.929650 
# 
# 
# High freq. dielectric constant tensor:
#      x y z
#    x 1.824620 0.009230 -0.003450 
#    y 0.009230 1.845810 0.001170 
#    z -0.003450 0.001170 1.839210 
# 
# From -- ./inp_files/186431.got.cif
#   From: 2010.06.25/outbox.cif.g09.slc.cpg/sg2_94_cif.got.tgz:186431.got - 2010.06.27 13:26:56.
