data_PCOD8033613
_publ_section_title
;
Structure prediction by ZEFSAII (Michael W. Deem and Ramdas Pophale) SiO2 
 PCOD8033613
Probable space group: P -1
;
_chemical_formula_sum "Si O2"
_cell_formula_units_Z 14
_cell_length_a 8.097136
_cell_length_b 14.438947
_cell_length_c 11.373792
_cell_angle_alpha 145.593641
_cell_angle_beta 117.472639
_cell_angle_gamma 50.299092
_cell_volume 571.472238
_symmetry_space_group_name_H-M "P -1"
_symmetry_group_IT_number 2
_symmetry_cell_setting 'triclinic'
loop_
_space_group_symop_operation_xyz
x,y,z
-x,-y,-z
loop_
_atom_site_type_symbol
_atom_site_label
_atom_site_fract_x
_atom_site_fract_y
_atom_site_fract_z
Si Si1 0.985167 0.069941 0.434800
Si Si2 0.664491 0.925039 0.866249
Si Si3 0.526681 0.728212 0.988306
Si Si4 0.721261 0.403682 0.545698
Si Si5 0.878097 0.604793 0.428829
Si Si6 0.693403 0.790815 0.334745
Si Si7 0.916283 0.210226 0.029533
O O1 0.757260 0.224322 0.454528
O O2 0.095080 0.197476 0.606358
O O3 0.000000 0.000000 0.500000
O O4 0.097829 0.877035 0.191861
O O5 0.750643 0.709137 0.617951
O O6 0.870213 0.947883 0.994174
O O7 0.500000 0.000000 0.000000
O O8 0.541789 0.060666 0.857048
O O9 0.704009 0.571552 0.797094
O O10 0.312226 0.712153 0.900740
O O11 0.646827 0.681838 0.103507
O O12 0.500000 0.500000 0.500000
O O13 0.929663 0.345869 0.470178
O O14 0.710687 0.684579 0.349802
O O15 0.967393 0.380502 0.219625
O O16 0.500000 0.000000 0.500000
#
# Coordination Sequence:
#
# PCOD8033613 Si02
#       7
#     2   2   2   2   2   2   2
#     4  11  27  44  70 106 147 188 246 302 353 434
#     4  12  26  46  73 104 142 190 238 299 363 429
#     4  12  25  45  75 103 143 193 238 294 360 431
#     4  11  25  49  75 104 149 193 241 297 364 435
#     4  11  26  47  74 107 145 185 244 295 359 434
#     4  11  23  48  72  98 144 194 236 294 364 423
#     4  12  26  44  71 107 143 186 241 297 358 426
#
# _framework density 24.498128000000001
#
# number of rings (size 3 to 8) (size 9 to 14) (size 15 to 20)
#    0.000    0.571    2.857    4.286    6.000    5.143 
#    0.000    0.000    0.000    0.000    0.000    0.000 
#    0.000    0.000    0.000    0.000    0.000    0.000 
#
# Total GULP energy -173472.061835 kJ/mol
# GULP energy per Si atom -12390.861560 kJ/mol
# Density = 2.444237 g / cm^3
# Si number density = 24.498128 Si / 1000 Ang^3
#
#
#
# Elastic Constant Matrix: (Units=GPa)
#
#
# Indices 1 2 3 4 5 6 
#
# 1 86.7948 33.6067 31.2320 -9.2135 -12.8813 -3.7036
# 2 33.6067 166.6565 30.9498 -12.6827 -2.2337 3.0213
# 3 31.2320 30.9498 126.7180 -11.9103 -16.5148 -2.6246
# 4 -9.2135 -12.6827 -11.9103 41.9621 2.4885 2.8834
# 5 -12.8813 -2.2337 -16.5148 2.4885 36.6665 2.9315
# 6 -3.7036 3.0213 -2.6246 2.8834 2.9315 32.5204
#
#
#
# Elastic Compliance Matrix: (Units=1/GPa)
#
#
# Indices 1 2 3 4 5 6 
#
# 1 0.013938 -0.002254 -0.002262 0.001446 0.003549 0.001166
# 2 -0.002254 0.006770 -0.001107 0.001360 -0.000889 -0.001015
# 3 -0.002262 -0.001107 0.009291 0.001605 0.003200 0.000164
# 4 0.001446 0.001360 0.001605 0.025169 -0.000231 -0.002043
# 5 0.003549 -0.000889 0.003200 -0.000231 0.030078 -0.001946
# 6 0.001166 -0.001015 0.000164 -0.002043 -0.001946 0.031347
#
#
# Mechanical properties :
#
#
# Convention : Reuss Voigt Hill
#
# Bulk Modulus (GPa) = 53.32569 63.52736 58.42652
# Shear Modulus (GPa) = 37.28799 41.18853 39.23826
#
# Velocity S-wave (km/s) = 3.90561 4.10481 4.00645
# Velocity P-wave (km/s) = 6.49253 6.96087 6.73077
#
# Compressibility (1/GPa) = 0.01875269
#
# Stress axis : x y z
#
# Youngs Moduli (GPa) = 71.74522 147.69986 107.63289
#
# Poissons Ratio (x) = 0.33293 0.24348
# Poissons Ratio (y) = 0.16172 0.11917
# Poissons Ratio (z) = 0.16230 0.16353
#
# Static dielectric constant tensor:
#      x y z
#    x 4.083800 -0.132000 -0.178180 
#    y -0.132000 5.035970 0.116630 
#    z -0.178180 0.116630 4.048270 
# 
# 
# High freq. dielectric constant tensor:
#      x y z
#    x 1.950380 -0.010430 -0.013560 
#    y -0.010430 2.000290 -0.009230 
#    z -0.013560 -0.009230 1.983780 
# 
# From -- ./inp_files/223150.got.cif
#   From: 2010.06.25/outbox.cif.g09.slc.cpg/sg2_112_cif.got.tgz:223150.got - 2010.06.27 13:26:56.
