data_PCOD8033784
_publ_section_title
;
Structure prediction by ZEFSAII (Michael W. Deem and Ramdas Pophale) SiO2 
 PCOD8033784
Probable space group: P -1
;
_chemical_formula_sum "Si O2"
_cell_formula_units_Z 16
_cell_length_a 9.738635
_cell_length_b 10.819298
_cell_length_c 15.688769
_cell_angle_alpha 109.883928
_cell_angle_beta 29.738309
_cell_angle_gamma 100.890493
_cell_volume 750.770286
_symmetry_space_group_name_H-M "P -1"
_symmetry_group_IT_number 2
_symmetry_cell_setting 'triclinic'
loop_
_space_group_symop_operation_xyz
x,y,z
-x,-y,-z
loop_
_atom_site_type_symbol
_atom_site_label
_atom_site_fract_x
_atom_site_fract_y
_atom_site_fract_z
Si Si1 0.439671 0.292455 0.402735
Si Si2 0.555886 0.537562 0.115104
Si Si3 0.180277 0.785999 0.656385
Si Si4 0.204906 0.707550 0.952692
Si Si5 0.308236 0.023118 0.356857
Si Si6 0.919518 0.537561 0.751464
Si Si7 0.456285 0.213997 0.707046
Si Si8 0.336078 0.976883 0.998830
O O1 0.613995 0.244729 0.381925
O O2 0.655935 0.321322 0.221793
O O3 0.214507 0.429522 0.575807
O O4 0.277250 0.179471 0.433348
O O5 0.726939 0.429518 0.063382
O O6 0.263759 0.500004 0.236245
O O7 0.472316 0.682448 0.238229
O O8 0.754554 0.544651 0.930029
O O9 0.363908 0.778564 0.471553
O O10 0.976851 0.682449 0.733674
O O11 0.984054 0.934988 0.807438
O O12 0.870965 0.755297 0.133134
O O13 0.324951 0.820528 0.964463
O O14 0.455422 0.934990 0.336067
O O15 0.501525 0.981027 0.159835
O O16 0.000000 0.000000 0.500000
O O17 0.500000 0.000000 0.000000
#
# Coordination Sequence:
#
# PCOD8033784 Si02
#       8
#     2   2   2   2   2   2   2   2
#     4  11  24  42  64  91 125 163 205 254 307 364
#     4  11  24  42  65  92 124 162 205 254 307 366
#     4  12  25  41  64  92 125 164 206 254 306 363
#     4  11  24  42  64  91 125 163 205 254 307 364
#     4  11  24  42  65  93 126 163 204 253 307 364
#     4  11  24  42  65  92 124 162 205 254 307 366
#     4  12  25  41  64  92 125 164 206 254 306 363
#     4  11  24  42  65  93 126 163 204 253 307 364
#
# _framework density 21.311446
#
# number of rings (size 3 to 8) (size 9 to 14) (size 15 to 20)
#    0.000    0.750    0.000    7.500    0.000   13.000 
#    0.000    0.000    0.000    0.000    0.000    0.000 
#    0.000    0.000    0.000    0.000    0.000    0.000 
#
# Total GULP energy -198548.923767 kJ/mol
# GULP energy per Si atom -12409.307735 kJ/mol
# Density = 2.126294 g / cm^3
# Si number density = 21.311446 Si / 1000 Ang^3
#
#
#
# Elastic Constant Matrix: (Units=GPa)
#
#
# Indices 1 2 3 4 5 6 
#
# 1 98.1121 3.5535 26.4820 -11.8030 8.9239 -4.7428
# 2 3.5535 69.8887 12.3842 -9.4248 10.1268 -5.7642
# 3 26.4820 12.3842 114.0053 -8.3256 6.3464 1.9591
# 4 -11.8030 -9.4248 -8.3256 42.8107 -2.7835 -2.9369
# 5 8.9239 10.1268 6.3464 -2.7835 40.7094 4.3048
# 6 -4.7428 -5.7642 1.9591 -2.9369 4.3048 40.3897
#
#
#
# Elastic Compliance Matrix: (Units=1/GPa)
#
#
# Indices 1 2 3 4 5 6 
#
# 1 0.011478 0.000738 -0.002444 0.002839 -0.002339 0.002027
# 2 0.000738 0.015813 -0.001477 0.003351 -0.003962 0.003081
# 3 -0.002444 -0.001477 0.009596 0.000779 -0.000449 -0.000859
# 4 0.002839 0.003351 0.000779 0.025202 -0.000131 0.002620
# 5 -0.002339 -0.003962 -0.000449 -0.000131 0.026510 -0.003653
# 6 0.002027 0.003081 -0.000859 0.002620 -0.003653 0.026058
#
#
# Mechanical properties :
#
#
# Convention : Reuss Voigt Hill
#
# Bulk Modulus (GPa) = 32.76302 40.76063 36.76182
# Shear Modulus (GPa) = 38.11130 40.75440 39.43285
#
# Velocity S-wave (km/s) = 4.23342 4.37776 4.30619
# Velocity P-wave (km/s) = 6.26918 6.68735 6.48164
#
# Compressibility (1/GPa) = 0.03052222
#
# Stress axis : x y z
#
# Youngs Moduli (GPa) = 87.12697 63.24010 104.20763
#
# Poissons Ratio (x) = -0.04669 0.25464
# Poissons Ratio (y) = -0.06433 0.15390
# Poissons Ratio (z) = 0.21291 0.09340
#
# Static dielectric constant tensor:
#      x y z
#    x 3.961390 0.028040 0.043890 
#    y 0.028040 4.074170 0.004080 
#    z 0.043890 0.004080 3.996710 
# 
# 
# High freq. dielectric constant tensor:
#      x y z
#    x 1.851580 0.000830 0.000860 
#    y 0.000830 1.851200 -0.000980 
#    z 0.000860 -0.000980 1.851700 
# 
# From -- ./inp_files/216407.got.cif
#   From: 2010.06.25/outbox.cif.g09.slc.cpg/sg2_109_cif.got.tgz:216407.got - 2010.06.27 13:26:56.
