data_PCOD8033014
_publ_section_title
;
Structure prediction by ZEFSAII (Michael W. Deem and Ramdas Pophale) SiO2 
 PCOD8033014
Probable space group: P -1
;
_chemical_formula_sum "Si O2"
_cell_formula_units_Z 14
_cell_length_a 24.503019
_cell_length_b 7.880902
_cell_length_c 9.217241
_cell_angle_alpha 131.633431
_cell_angle_beta 35.807385
_cell_angle_gamma 147.155062
_cell_volume 563.987085
_symmetry_space_group_name_H-M "P -1"
_symmetry_group_IT_number 2
_symmetry_cell_setting 'triclinic'
loop_
_space_group_symop_operation_xyz
x,y,z
-x,-y,-z
loop_
_atom_site_type_symbol
_atom_site_label
_atom_site_fract_x
_atom_site_fract_y
_atom_site_fract_z
Si Si1 0.764640 0.243613 0.835462
Si Si2 0.029601 0.600854 0.664821
Si Si3 0.496424 0.977640 0.166224
Si Si4 0.533071 0.296859 0.521507
Si Si5 0.897027 0.010722 0.785096
Si Si6 0.665501 0.688196 0.915144
Si Si7 0.833312 0.803418 0.129917
O O1 0.836885 0.324442 0.572500
O O2 0.845951 0.547094 0.945510
O O3 0.632306 0.139167 0.032442
O O4 0.755337 0.987592 0.789481
O O5 0.000000 0.500000 0.500000
O O6 0.933875 0.327045 0.831603
O O7 0.069844 0.927513 0.805962
O O8 0.473916 0.174162 0.413675
O O9 0.392152 0.613153 0.228651
O O10 0.500000 0.000000 0.000000
O O11 0.456967 0.377826 0.800460
O O12 0.684493 0.613954 0.379449
O O13 0.500000 0.000000 0.500000
O O14 0.000000 0.000000 0.500000
O O15 0.753523 0.721678 0.868562
O O16 0.881207 0.985680 0.977120
#
# Coordination Sequence:
#
# PCOD8033014 Si02
#       7
#     2   2   2   2   2   2   2
#     4  11  23  44  71 107 146 181 244 293 359 436
#     4  12  26  47  74 104 136 201 245 290 360 428
#     4  11  25  42  71 109 147 185 232 299 363 425
#     4  11  24  44  74 110 143 185 238 294 367 436
#     4  12  27  50  71 105 148 193 248 298 355 428
#     4  12  24  45  75 106 146 191 238 295 361 426
#     4  11  25  47  73 103 151 180 237 315 355 422
#
# _framework density 24.823262
#
# number of rings (size 3 to 8) (size 9 to 14) (size 15 to 20)
#    0.000    0.571    5.714    3.429    2.000    4.000 
#    2.571    0.000    0.000    0.000    0.000    0.000 
#    0.000    0.000    0.000    0.000    0.000    0.000 
#
# Total GULP energy -173455.992767 kJ/mol
# GULP energy per Si atom -12389.713769 kJ/mol
# Density = 2.476676 g / cm^3
# Si number density = 24.823262 Si / 1000 Ang^3
#
#
#
# Elastic Constant Matrix: (Units=GPa)
#
#
# Indices 1 2 3 4 5 6 
#
# 1 48.2706 23.0120 -7.3195 3.0366 26.5997 -2.5624
# 2 23.0120 165.7127 16.5637 11.1622 21.0201 2.6534
# 3 -7.3195 16.5637 75.2861 -11.1957 8.5383 1.3011
# 4 3.0366 11.1622 -11.1957 42.2201 -5.6502 12.5401
# 5 26.5997 21.0201 8.5383 -5.6502 38.0568 2.5463
# 6 -2.5624 2.6534 1.3011 12.5401 2.5463 35.6232
#
#
#
# Elastic Compliance Matrix: (Units=1/GPa)
#
#
# Indices 1 2 3 4 5 6 
#
# 1 0.039866 -0.002097 0.006580 -0.006694 -0.029662 0.007260
# 2 -0.002097 0.006990 -0.001874 -0.002667 -0.002405 0.000508
# 3 0.006580 -0.001874 0.015606 0.003507 -0.006496 -0.000727
# 4 -0.006694 -0.002667 0.003507 0.030811 0.010744 -0.012025
# 5 -0.029662 -0.002405 -0.006496 0.010744 0.052006 -0.009217
# 6 0.007260 0.000508 -0.000727 -0.012025 -0.009217 0.033475
#
#
# Mechanical properties :
#
#
# Convention : Reuss Voigt Hill
#
# Bulk Modulus (GPa) = 14.77557 39.30909 27.04233
# Shear Modulus (GPa) = 25.49804 40.31422 32.90613
#
# Velocity S-wave (km/s) = 3.20845 4.03432 3.64485
# Velocity P-wave (km/s) = 4.43742 6.12952 5.35078
#
# Compressibility (1/GPa) = 0.06767929
#
# Stress axis : x y z
#
# Youngs Moduli (GPa) = 25.08431 143.07114 64.07971
#
# Poissons Ratio (x) = 0.29996 -0.42165
# Poissons Ratio (y) = 0.05259 0.12010
# Poissons Ratio (z) = -0.16506 0.26815
#
# Static dielectric constant tensor:
#      x y z
#    x 4.798950 0.283770 0.276660 
#    y 0.283770 5.101270 -0.079600 
#    z 0.276660 -0.079600 5.457530 
# 
# 
# High freq. dielectric constant tensor:
#      x y z
#    x 1.975830 0.010220 -0.003820 
#    y 0.010220 2.015260 -0.009030 
#    z -0.003820 -0.009030 2.000980 
# 
# From -- ./inp_files/356527.got.cif
#   From: 2010.06.25/outbox.cif.g09.slc.cpg/sg2_179_cif.got.tgz:356527.got - 2010.06.27 13:26:56.
