data_PCOD8033008
_publ_section_title
;
Structure prediction by ZEFSAII (Michael W. Deem and Ramdas Pophale) SiO2 
 PCOD8033008
Probable space group: P -1
;
_chemical_formula_sum "Si O2"
_cell_formula_units_Z 14
_cell_length_a 14.594206
_cell_length_b 12.336269
_cell_length_c 11.139375
_cell_angle_alpha 69.564711
_cell_angle_beta 113.227075
_cell_angle_gamma 160.771771
_cell_volume 605.156349
_symmetry_space_group_name_H-M "P -1"
_symmetry_group_IT_number 2
_symmetry_cell_setting 'triclinic'
loop_
_space_group_symop_operation_xyz
x,y,z
-x,-y,-z
loop_
_atom_site_type_symbol
_atom_site_label
_atom_site_fract_x
_atom_site_fract_y
_atom_site_fract_z
Si Si1 0.944989 0.562590 0.505047
Si Si2 0.230052 0.824060 0.794364
Si Si3 0.092372 0.415739 0.867189
Si Si4 0.461058 0.738813 0.719471
Si Si5 0.129143 0.408363 0.153576
Si Si6 0.635975 0.783065 0.596168
Si Si7 0.826006 0.760299 0.614017
O O1 0.621570 0.249649 0.425169
O O2 0.000000 0.500000 0.500000
O O3 0.014050 0.634032 0.653026
O O4 0.126756 0.859968 0.418886
O O5 0.258826 0.717097 0.856312
O O6 0.085394 0.718730 0.880015
O O7 0.547038 0.214296 0.787978
O O8 0.243493 0.501928 0.810514
O O9 0.104626 0.356492 0.019298
O O10 0.773675 0.103880 0.788582
O O11 0.450168 0.605399 0.690288
O O12 0.021015 0.177738 0.260196
O O13 0.766843 0.796803 0.666437
O O14 0.462778 0.603766 0.451869
O O15 0.000000 0.000000 0.500000
#
# Coordination Sequence:
#
# PCOD8033008 Si02
#       7
#     2   2   2   2   2   2   2
#     4  12  24  42  74 108 146 180 232 296 365 425
#     4  12  24  43  70 105 143 186 239 296 353 418
#     4  12  26  44  69 101 151 194 228 288 353 439
#     4  12  24  45  67 104 145 185 232 282 362 423
#     4  12  26  46  70 103 140 191 247 287 351 422
#     4  11  23  44  71 105 139 184 232 308 353 408
#     4  11  25  45  76 103 141 181 248 304 349 407
#
# _framework density 23.134516999999999
#
# number of rings (size 3 to 8) (size 9 to 14) (size 15 to 20)
#    0.000    0.286    4.286    5.143    2.000    1.143 
#    0.000    1.429    0.000    0.000    0.000    0.000 
#    0.000    0.000    0.000    0.000    0.000    0.000 
#
# Total GULP energy -173588.005000 kJ/mol
# GULP energy per Si atom -12399.143214 kJ/mol
# Density = 2.308186 g / cm^3
# Si number density = 23.134517 Si / 1000 Ang^3
#
#
#
# Elastic Constant Matrix: (Units=GPa)
#
#
# Indices 1 2 3 4 5 6 
#
# 1 177.9912 40.6952 57.7013 -5.2330 -22.2239 -0.8573
# 2 40.6952 81.1299 25.8266 1.7120 7.4875 1.4622
# 3 57.7013 25.8266 113.0030 -15.7676 -4.7375 -10.6898
# 4 -5.2330 1.7120 -15.7676 25.2112 5.0706 -4.9550
# 5 -22.2239 7.4875 -4.7375 5.0706 37.2653 -1.1962
# 6 -0.8573 1.4622 -10.6898 -4.9550 -1.1962 34.3728
#
#
#
# Elastic Compliance Matrix: (Units=1/GPa)
#
#
# Indices 1 2 3 4 5 6 
#
# 1 0.008120 -0.003431 -0.003408 -0.001417 0.005268 -0.000732
# 2 -0.003431 0.015441 -0.002578 -0.002750 -0.005170 -0.002121
# 3 -0.003408 -0.002578 0.012854 0.008719 -0.000898 0.005248
# 4 -0.001417 -0.002750 0.008719 0.047969 -0.005405 0.009520
# 5 0.005268 -0.005170 -0.000898 -0.005405 0.031649 0.000394
# 6 -0.000732 -0.002121 0.005248 0.009520 0.000394 0.032183
#
#
# Mechanical properties :
#
#
# Convention : Reuss Voigt Hill
#
# Bulk Modulus (GPa) = 56.88118 68.95226 62.91672
# Shear Modulus (GPa) = 28.91648 35.89658 32.40653
#
# Velocity S-wave (km/s) = 3.53927 3.94337 3.74677
# Velocity P-wave (km/s) = 6.42981 7.11359 6.78032
#
# Compressibility (1/GPa) = 0.01758051
#
# Stress axis : x y z
#
# Youngs Moduli (GPa) = 123.14907 64.76184 77.79581
#
# Poissons Ratio (x) = 0.22222 0.26514
# Poissons Ratio (y) = 0.42256 0.20056
# Poissons Ratio (z) = 0.41971 0.16696
#
# Static dielectric constant tensor:
#      x y z
#    x 4.391050 0.057930 -0.134500 
#    y 0.057930 4.208660 0.253130 
#    z -0.134500 0.253130 4.309760 
# 
# 
# High freq. dielectric constant tensor:
#      x y z
#    x 1.924640 0.009260 -0.013010 
#    y 0.009260 1.909980 0.016210 
#    z -0.013010 0.016210 1.904120 
# 
# From -- ./inp_files/451353.got.cif
#   From: 2010.06.25/outbox.cif.g09.slc.cpg/sg2_226_cif.got.tgz:451353.got - 2010.06.27 13:26:56.
