data_PCOD8033405
_publ_section_title
;
Structure prediction by ZEFSAII (Michael W. Deem and Ramdas Pophale) SiO2 
 PCOD8033405
Probable space group: P -1
;
_chemical_formula_sum "Si O2"
_cell_formula_units_Z 16
_cell_length_a 13.545043
_cell_length_b 14.220349
_cell_length_c 9.461073
_cell_angle_alpha 112.013269
_cell_angle_beta 88.412359
_cell_angle_gamma 34.315256
_cell_volume 727.562209
_symmetry_space_group_name_H-M "P -1"
_symmetry_group_IT_number 2
_symmetry_cell_setting 'triclinic'
loop_
_space_group_symop_operation_xyz
x,y,z
-x,-y,-z
loop_
_atom_site_type_symbol
_atom_site_label
_atom_site_fract_x
_atom_site_fract_y
_atom_site_fract_z
Si Si1 0.854006 0.913711 0.128781
Si Si2 0.080337 0.767158 0.472012
Si Si3 0.519944 0.041237 0.874883
Si Si4 0.987036 0.723989 0.715115
Si Si5 0.430937 0.782169 0.345192
Si Si6 0.663617 0.283265 0.469627
Si Si7 0.441440 0.190001 0.416951
Si Si8 0.754194 0.516765 0.933302
O O1 0.001338 0.717233 0.130661
O O2 0.829352 0.055873 0.243612
O O3 0.600192 0.100079 0.243941
O O4 0.976308 0.786489 0.903117
O O5 0.171586 0.796936 0.491219
O O6 0.254862 0.539803 0.241722
O O7 0.065496 0.738070 0.613557
O O8 0.836963 0.987308 0.530869
O O9 0.744836 0.902087 0.780122
O O10 0.528661 0.957262 0.693547
O O11 0.299443 0.317280 0.014037
O O12 0.500000 0.000000 0.000000
O O13 0.174356 0.461622 0.557532
O O14 0.501158 0.630828 0.371887
O O15 0.483286 0.844419 0.447338
O O16 0.561415 0.648217 0.118020
O O17 0.500000 0.500000 0.500000
#
# Coordination Sequence:
#
# PCOD8033405 Si02
#       8
#     2   2   2   2   2   2   2   2
#     4  11  25  48  71 105 145 186 240 293 358 429
#     4  12  25  46  72 104 147 185 239 297 355 420
#     4  12  26  45  73 110 141 191 242 292 360 427
#     4  12  25  46  73 104 149 190 231 302 361 418
#     4  11  24  47  68 107 143 189 236 295 360 420
#     4  11  26  46  75 107 144 190 238 295 357 428
#     4  11  23  46  70 100 149 183 239 293 350 429
#     4  12  26  47  72 103 149 188 237 298 353 422
#
# _framework density 21.991246
#
# number of rings (size 3 to 8) (size 9 to 14) (size 15 to 20)
#    0.000    0.500    6.250    3.000    1.750    2.000 
#    0.000    0.000    0.000    0.000    0.000    0.000 
#    0.000    0.000    0.000    0.000    0.000    0.000 
#
# Total GULP energy -198430.190110 kJ/mol
# GULP energy per Si atom -12401.886882 kJ/mol
# Density = 2.194119 g / cm^3
# Si number density = 21.991246 Si / 1000 Ang^3
#
#
#
# Elastic Constant Matrix: (Units=GPa)
#
#
# Indices 1 2 3 4 5 6 
#
# 1 101.5760 37.0048 51.3014 -1.0018 26.0091 3.7812
# 2 37.0048 120.0799 45.1182 9.6289 17.6604 12.7690
# 3 51.3014 45.1182 149.9082 -6.4590 8.7390 18.7886
# 4 -1.0018 9.6289 -6.4590 42.4932 9.0239 -2.8290
# 5 26.0091 17.6604 8.7390 9.0239 41.0501 -0.5556
# 6 3.7812 12.7690 18.7886 -2.8290 -0.5556 38.1074
#
#
#
# Elastic Compliance Matrix: (Units=1/GPa)
#
#
# Indices 1 2 3 4 5 6 
#
# 1 0.014635 -0.002146 -0.003972 0.001994 -0.007925 0.001258
# 2 -0.002146 0.010574 -0.002110 -0.002460 -0.002234 -0.002505
# 3 -0.003972 -0.002110 0.009061 0.001297 0.001166 -0.003253
# 4 0.001994 -0.002460 0.001297 0.025755 -0.006119 0.001809
# 5 -0.007925 -0.002234 0.001166 -0.006119 0.031452 0.000964
# 6 0.001258 -0.002505 -0.003253 0.001809 0.000964 0.028708
#
#
# Mechanical properties :
#
#
# Convention : Reuss Voigt Hill
#
# Bulk Modulus (GPa) = 56.13606 70.93476 63.53541
# Shear Modulus (GPa) = 35.06837 40.20614 37.63726
#
# Velocity S-wave (km/s) = 3.99764 4.28048 4.14147
# Velocity P-wave (km/s) = 6.84764 7.53365 7.19882
#
# Compressibility (1/GPa) = 0.01781386
#
# Stress axis : x y z
#
# Youngs Moduli (GPa) = 68.33007 94.57234 110.36570
#
# Poissons Ratio (x) = 0.20291 0.43840
# Poissons Ratio (y) = 0.14661 0.23287
# Poissons Ratio (z) = 0.27143 0.19955
#
# Static dielectric constant tensor:
#      x y z
#    x 3.975590 -0.071940 0.123360 
#    y -0.071940 4.025090 -0.005380 
#    z 0.123360 -0.005380 4.203300 
# 
# 
# High freq. dielectric constant tensor:
#      x y z
#    x 1.857400 -0.006730 0.004730 
#    y -0.006730 1.871320 -0.001220 
#    z 0.004730 -0.001220 1.879020 
# 
# From -- ./inp_files/315601.got.cif
#   From: 2010.06.25/outbox.cif.g09.slc.cpg/sg2_158_cif.got.tgz:315601.got - 2010.06.27 13:26:56.
