data_PCOD8033555
_publ_section_title
;
Structure prediction by ZEFSAII (Michael W. Deem and Ramdas Pophale) SiO2 
 PCOD8033555
Probable space group: P -1
;
_chemical_formula_sum "Si O2"
_cell_formula_units_Z 16
_cell_length_a 19.462855
_cell_length_b 14.693002
_cell_length_c 8.546403
_cell_angle_alpha 138.299959
_cell_angle_beta 29.756123
_cell_angle_gamma 147.426645
_cell_volume 652.005193
_symmetry_space_group_name_H-M "P -1"
_symmetry_group_IT_number 2
_symmetry_cell_setting 'triclinic'
loop_
_space_group_symop_operation_xyz
x,y,z
-x,-y,-z
loop_
_atom_site_type_symbol
_atom_site_label
_atom_site_fract_x
_atom_site_fract_y
_atom_site_fract_z
Si Si1 0.694393 0.939026 0.670255
Si Si2 0.485414 0.584621 0.490444
Si Si3 0.807538 0.489197 0.205559
Si Si4 0.812655 0.345235 0.420367
Si Si5 0.236904 0.391222 0.236747
Si Si6 0.235427 0.916834 0.607678
Si Si7 0.003814 0.008964 0.316028
Si Si8 0.601827 0.139908 0.286089
O O1 0.550519 0.772118 0.648263
O O2 0.780161 0.080908 0.545842
O O3 0.816047 0.904036 0.476259
O O4 0.611539 0.985302 0.026418
O O5 0.500000 0.500000 0.500000
O O6 0.283981 0.480492 0.713606
O O7 0.595160 0.585450 0.131409
O O8 0.729146 0.514224 0.546720
O O9 0.737508 0.294107 0.102142
O O10 0.012073 0.607146 0.945803
O O11 0.816999 0.512866 0.649282
O O12 0.653691 0.197237 0.438103
O O13 0.792561 0.259628 0.518047
O O14 0.092193 0.193992 0.302445
O O15 0.410538 0.079001 0.545547
O O16 0.085044 0.916215 0.980903
O O17 0.000000 0.000000 0.500000
#
# Coordination Sequence:
#
# PCOD8033555 Si02
#       8
#     2   2   2   2   2   2   2   2
#     4  12  26  47  70 104 148 185 239 301 358 425
#     4  12  29  44  69 103 148 191 237 294 364 429
#     4  11  23  48  71 102 141 191 238 292 354 419
#     4  11  26  45  76 108 142 187 244 295 355 427
#     4  11  24  48  72 106 143 188 238 300 348 427
#     4  12  25  44  72 109 139 189 236 295 360 425
#     4  12  26  47  76 105 141 191 242 297 358 427
#     4  11  23  47  72 100 142 187 239 294 355 418
#
# _framework density 24.539681000000002
#
# number of rings (size 3 to 8) (size 9 to 14) (size 15 to 20)
#    0.000    0.500    2.500    6.000    5.250    1.000 
#    0.000    1.875    0.000    0.000    0.000    0.000 
#    0.000    0.000    0.000    0.000    0.000    0.000 
#
# Total GULP energy -198345.302294 kJ/mol
# GULP energy per Si atom -12396.581393 kJ/mol
# Density = 2.448383 g / cm^3
# Si number density = 24.539681 Si / 1000 Ang^3
#
#
#
# Elastic Constant Matrix: (Units=GPa)
#
#
# Indices 1 2 3 4 5 6 
#
# 1 118.1348 9.0837 -1.2981 -6.0608 -18.6113 -16.0538
# 2 9.0837 61.7942 4.4516 16.0623 -6.1961 -18.6015
# 3 -1.2981 4.4516 62.7738 9.8101 -10.3543 16.7190
# 4 -6.0608 16.0623 9.8101 33.5524 -3.6472 -6.7948
# 5 -18.6113 -6.1961 -10.3543 -3.6472 35.7722 -8.5834
# 6 -16.0538 -18.6015 16.7190 -6.7948 -8.5834 44.5958
#
#
#
# Elastic Compliance Matrix: (Units=1/GPa)
#
#
# Indices 1 2 3 4 5 6 
#
# 1 0.010648 -0.000014 -0.000903 0.004231 0.007194 0.006196
# 2 -0.000014 0.021587 -0.002191 -0.007242 0.004667 0.009616
# 3 -0.000903 -0.002191 0.019914 -0.006608 0.002003 -0.009326
# 4 0.004231 -0.007242 -0.006608 0.038042 0.004758 0.007692
# 5 0.007194 0.004667 0.002003 0.004758 0.036331 0.011503
# 6 0.006196 0.009616 -0.009326 0.007692 0.011503 0.035547
#
#
# Mechanical properties :
#
#
# Convention : Reuss Voigt Hill
#
# Bulk Modulus (GPa) = 21.77029 29.68636 25.72833
# Shear Modulus (GPa) = 27.23362 38.14847 32.69105
#
# Velocity S-wave (km/s) = 3.33495 3.94707 3.65385
# Velocity P-wave (km/s) = 4.87031 5.73551 5.32052
#
# Compressibility (1/GPa) = 0.04593415
#
# Stress axis : x y z
#
# Youngs Moduli (GPa) = 93.91065 46.32332 50.21655
#
# Poissons Ratio (x) = 0.00063 0.04537
# Poissons Ratio (y) = 0.00127 0.11001
# Poissons Ratio (z) = 0.08485 0.10148
#
# Static dielectric constant tensor:
#      x y z
#    x 4.468460 -0.034020 -0.108590 
#    y -0.034020 4.498680 -0.049080 
#    z -0.108590 -0.049080 4.328990 
# 
# 
# High freq. dielectric constant tensor:
#      x y z
#    x 1.986660 -0.014580 -0.010210 
#    y -0.014580 1.977730 0.001550 
#    z -0.010210 0.001550 1.972010 
# 
# From -- ./inp_files/347364.got.cif
#   From: 2010.06.25/outbox.cif.g09.slc.cpg/sg2_174_cif.got.tgz:347364.got - 2010.06.27 13:26:56.
