data_PCOD8033867
_publ_section_title
;
Structure prediction by ZEFSAII (Michael W. Deem and Ramdas Pophale) SiO2 
 PCOD8033867
Probable space group: P -1
;
_chemical_formula_sum "Si O2"
_cell_formula_units_Z 16
_cell_length_a 13.815592
_cell_length_b 11.936848
_cell_length_c 10.984321
_cell_angle_alpha 155.090264
_cell_angle_beta 73.513585
_cell_angle_gamma 105.853229
_cell_volume 731.047861
_symmetry_space_group_name_H-M "P -1"
_symmetry_group_IT_number 2
_symmetry_cell_setting 'triclinic'
loop_
_space_group_symop_operation_xyz
x,y,z
-x,-y,-z
loop_
_atom_site_type_symbol
_atom_site_label
_atom_site_fract_x
_atom_site_fract_y
_atom_site_fract_z
Si Si1 0.860707 0.588415 0.327748
Si Si2 0.687863 0.843536 0.511285
Si Si3 0.381597 0.026454 0.081518
Si Si4 0.495010 0.739006 0.326675
Si Si5 0.725439 0.472376 0.473933
Si Si6 0.209431 0.052376 0.665850
Si Si7 0.985646 0.098491 0.737301
Si Si8 0.720588 0.443532 0.720209
O O1 0.761588 0.614030 0.303213
O O2 0.827992 0.493354 0.379824
O O3 0.917722 0.874159 0.609265
O O4 0.931875 0.378313 0.032817
O O5 0.658763 0.026883 0.817912
O O6 0.582947 0.719413 0.375285
O O7 0.747734 0.005460 0.542379
O O8 0.355812 0.320681 0.338380
O O9 0.500000 0.000000 0.000000
O O10 0.324742 0.820510 0.809715
O O11 0.389360 0.702247 0.398223
O O12 0.500000 0.000000 0.500000
O O13 0.500000 0.500000 0.000000
O O14 0.758617 0.523918 0.651732
O O15 0.095334 0.146724 0.804817
O O16 0.207784 0.773144 0.461315
O O17 0.279445 0.288338 0.933893
O O18 0.000000 0.000000 0.500000
#
# Coordination Sequence:
#
# PCOD8033867 Si02
#       8
#     2   2   2   2   2   2   2   2
#     4  11  25  45  69 103 133 172 226 289 339 401
#     4  11  24  42  70 103 138 172 227 279 342 393
#     4  11  24  43  69 100 134 182 234 281 325 400
#     4  12  24  40  62  98 135 179 215 264 327 404
#     4  11  25  45  70  94 137 187 222 275 342 392
#     4  12  26  42  70 101 135 179 224 279 349 395
#     4  12  25  43  71 102 135 169 224 289 350 400
#     4  12  25  47  65  98 143 181 225 270 326 418
#
# _framework density 21.886393000000002
#
# number of rings (size 3 to 8) (size 9 to 14) (size 15 to 20)
#    0.000    0.500    3.750    4.500    1.750    6.000 
#    0.000    3.750    0.000    0.000    0.000    0.000 
#    0.000    0.000    0.000    0.000    0.000    0.000 
#
# Total GULP energy -198450.854421 kJ/mol
# GULP energy per Si atom -12403.178401 kJ/mol
# Density = 2.183658 g / cm^3
# Si number density = 21.886393 Si / 1000 Ang^3
#
#
#
# Elastic Constant Matrix: (Units=GPa)
#
#
# Indices 1 2 3 4 5 6 
#
# 1 116.3271 33.6656 21.9274 -1.5596 -13.7870 3.3598
# 2 33.6656 140.5087 28.9949 -9.9583 -7.3963 -3.8092
# 3 21.9274 28.9949 105.8166 -0.8926 -8.1770 -4.0502
# 4 -1.5596 -9.9583 -0.8926 30.6721 6.4733 2.1672
# 5 -13.7870 -7.3963 -8.1770 6.4733 38.7397 0.6035
# 6 3.3598 -3.8092 -4.0502 2.1672 0.6035 28.7456
#
#
#
# Elastic Compliance Matrix: (Units=1/GPa)
#
#
# Indices 1 2 3 4 5 6 
#
# 1 0.009819 -0.002017 -0.001320 -0.000708 0.002974 -0.001610
# 2 -0.002017 0.008162 -0.001760 0.002423 0.000050 0.000886
# 3 -0.001320 -0.001760 0.010368 -0.000750 0.001486 0.001407
# 4 -0.000708 0.002423 -0.000750 0.034692 -0.005710 -0.002197
# 5 0.002974 0.000050 0.001486 -0.005710 0.028154 -0.000292
# 6 -0.001610 0.000886 0.001407 -0.002197 -0.000292 0.035463
#
#
# Mechanical properties :
#
#
# Convention : Reuss Voigt Hill
#
# Bulk Modulus (GPa) = 55.08286 59.09203 57.08745
# Shear Modulus (GPa) = 34.98844 38.16913 36.57878
#
# Velocity S-wave (km/s) = 4.00264 4.18061 4.09259
# Velocity P-wave (km/s) = 6.82523 7.09658 6.96222
#
# Compressibility (1/GPa) = 0.01815447
#
# Stress axis : x y z
#
# Youngs Moduli (GPa) = 101.84821 122.51928 96.44636
#
# Poissons Ratio (x) = 0.24718 0.12727
# Poissons Ratio (y) = 0.20548 0.16977
# Poissons Ratio (z) = 0.13440 0.21566
#
# Static dielectric constant tensor:
#      x y z
#    x 4.219280 0.189710 0.048210 
#    y 0.189710 4.080030 -0.009410 
#    z 0.048210 -0.009410 3.996060 
# 
# 
# High freq. dielectric constant tensor:
#      x y z
#    x 1.864750 0.008610 -0.005800 
#    y 0.008610 1.862740 -0.000470 
#    z -0.005800 -0.000470 1.864600 
# 
# From -- ./inp_files/452689.got.cif
#   From: 2010.06.25/outbox.cif.g09.slc.cpg/sg2_227_cif.got.tgz:452689.got - 2010.06.27 13:26:56.
