data_PCOD8033363
_publ_section_title
;
Structure prediction by ZEFSAII (Michael W. Deem and Ramdas Pophale) SiO2 
 PCOD8033363
Probable space group: P -1
;
_chemical_formula_sum "Si O2"
_cell_formula_units_Z 16
_cell_length_a 11.400076
_cell_length_b 12.618393
_cell_length_c 13.420708
_cell_angle_alpha 76.178644
_cell_angle_beta 158.703725
_cell_angle_gamma 102.039468
_cell_volume 680.329145
_symmetry_space_group_name_H-M "P -1"
_symmetry_group_IT_number 2
_symmetry_cell_setting 'triclinic'
loop_
_space_group_symop_operation_xyz
x,y,z
-x,-y,-z
loop_
_atom_site_type_symbol
_atom_site_label
_atom_site_fract_x
_atom_site_fract_y
_atom_site_fract_z
Si Si1 0.415520 0.240157 0.844625
Si Si2 0.417501 0.274091 0.373956
Si Si3 0.216585 0.924492 0.258877
Si Si4 0.102879 0.630714 0.927611
Si Si5 0.164500 0.882471 0.641749
Si Si6 0.745009 0.594203 0.157049
Si Si7 0.357503 0.204354 0.112825
Si Si8 0.686816 0.490363 0.490130
O O1 0.246066 0.338659 0.749742
O O2 0.128804 0.198583 0.558821
O O3 0.701238 0.278883 0.993682
O O4 0.562289 0.144268 0.053310
O O5 0.581013 0.182527 0.598566
O O6 0.401352 0.222879 0.261532
O O7 0.647725 0.376438 0.541436
O O8 0.060091 0.308312 0.120807
O O9 0.500000 0.000000 0.500000
O O10 0.959917 0.867861 0.144064
O O11 0.000000 0.000000 0.000000
O O12 0.828660 0.581933 0.652242
O O13 0.333194 0.529687 0.165774
O O14 0.332694 0.866027 0.669948
O O15 0.000000 0.000000 0.500000
O O16 0.088769 0.532207 0.423479
O O17 0.500000 0.500000 0.000000
O O18 0.659960 0.676646 0.979831
#
# Coordination Sequence:
#
# PCOD8033363 Si02
#       8
#     2   2   2   2   2   2   2   2
#     4  11  25  46  68 112 139 191 245 297 366 444
#     4  12  27  48  74 105 153 194 247 308 362 441
#     4  12  27  47  74 106 141 192 250 304 367 429
#     4  12  28  43  72 105 155 192 242 293 368 447
#     4  11  26  48  76 100 144 186 243 311 374 426
#     4  11  23  45  78 109 152 194 242 305 365 445
#     4  11  26  49  76 112 144 193 249 306 370 442
#     4  12  25  45  70 111 144 199 240 292 370 440
#
# _framework density 23.518028999999999
#
# number of rings (size 3 to 8) (size 9 to 14) (size 15 to 20)
#    0.000    0.500    3.750    3.375    5.250    3.500 
#    0.000    0.000    0.000    0.000    0.000    0.000 
#    0.000    0.000    0.000    0.000    0.000    0.000 
#
# Total GULP energy -198303.951444 kJ/mol
# GULP energy per Si atom -12393.996965 kJ/mol
# Density = 2.346450 g / cm^3
# Si number density = 23.518029 Si / 1000 Ang^3
#
#
#
# Elastic Constant Matrix: (Units=GPa)
#
#
# Indices 1 2 3 4 5 6 
#
# 1 114.1266 54.4846 45.5440 -6.9637 36.4755 -7.1427
# 2 54.4846 150.6932 59.9981 -7.7107 27.5044 13.5036
# 3 45.5440 59.9981 126.5857 -3.3242 27.8026 2.2525
# 4 -6.9637 -7.7107 -3.3242 57.5451 -2.5102 9.9699
# 5 36.4755 27.5044 27.8026 -2.5102 38.8409 -8.6553
# 6 -7.1427 13.5036 2.2525 9.9699 -8.6553 40.3530
#
#
#
# Elastic Compliance Matrix: (Units=1/GPa)
#
#
# Indices 1 2 3 4 5 6 
#
# 1 0.013897 -0.002701 -0.001600 0.000592 -0.009681 0.001230
# 2 -0.002701 0.009855 -0.002837 0.001499 -0.003364 -0.004709
# 3 -0.001600 -0.002837 0.010807 0.000012 -0.004421 -0.000888
# 4 0.000592 0.001499 0.000012 0.018501 -0.001614 -0.005315
# 5 -0.009681 -0.003364 -0.004421 -0.001614 0.042315 0.009134
# 6 0.001230 -0.004709 -0.000888 -0.005315 0.009134 0.029897
#
#
# Mechanical properties :
#
#
# Convention : Reuss Voigt Hill
#
# Bulk Modulus (GPa) = 49.30143 79.05098 64.17620
# Shear Modulus (GPa) = 34.17408 42.77306 38.47357
#
# Velocity S-wave (km/s) = 3.81609 4.26929 4.04904
# Velocity P-wave (km/s) = 6.35811 7.61501 7.01476
#
# Compressibility (1/GPa) = 0.02028339
#
# Stress axis : x y z
#
# Youngs Moduli (GPa) = 71.95724 101.47403 92.52848
#
# Poissons Ratio (x) = 0.27404 0.14806
# Poissons Ratio (y) = 0.19433 0.26252
# Poissons Ratio (z) = 0.11514 0.28791
#
# Static dielectric constant tensor:
#      x y z
#    x 4.267130 0.209260 0.351100 
#    y 0.209260 4.295410 -0.054950 
#    z 0.351100 -0.054950 4.366130 
# 
# 
# High freq. dielectric constant tensor:
#      x y z
#    x 1.912460 0.009180 0.021150 
#    y 0.009180 1.947090 -0.002330 
#    z 0.021150 -0.002330 1.950080 
# 
# From -- ./inp_files/519693.got.cif
#   From: 2010.06.25/outbox.cif.g09.slc.cpg/sg2_260_cif.got.tgz:519693.got - 2010.06.27 13:26:56.
