data_PCOD8033809
_publ_section_title
;
Structure prediction by ZEFSAII (Michael W. Deem and Ramdas Pophale) SiO2 
 PCOD8033809
Probable space group: P -1
;
_chemical_formula_sum "Si O2"
_cell_formula_units_Z 12
_cell_length_a 8.432184
_cell_length_b 20.190294
_cell_length_c 7.353400
_cell_angle_alpha 53.018134
_cell_angle_beta 85.521589
_cell_angle_gamma 46.666000
_cell_volume 594.563061
_symmetry_space_group_name_H-M "P -1"
_symmetry_group_IT_number 2
_symmetry_cell_setting 'triclinic'
loop_
_space_group_symop_operation_xyz
x,y,z
-x,-y,-z
loop_
_atom_site_type_symbol
_atom_site_label
_atom_site_fract_x
_atom_site_fract_y
_atom_site_fract_z
Si Si1 0.259385 0.946254 0.597902
Si Si2 0.525494 0.113753 0.937911
Si Si3 0.263957 0.395510 0.387030
Si Si4 0.439870 0.620432 0.331242
Si Si5 0.652708 0.643946 0.970670
Si Si6 0.172039 0.104780 0.038719
O O1 0.281030 0.956923 0.790969
O O2 0.523066 0.788720 0.764837
O O3 0.235363 0.043082 0.334750
O O4 0.000000 0.000000 0.500000
O O5 0.294015 0.144813 0.946896
O O6 0.388098 0.257342 0.666424
O O7 0.709568 0.008353 0.930598
O O8 0.344485 0.384038 0.193102
O O9 0.633931 0.573931 0.545274
O O10 0.947148 0.523912 0.225934
O O11 0.500000 0.500000 0.500000
O O12 0.480234 0.649278 0.087699
O O13 0.140196 0.759063 0.196226
#
# Coordination Sequence:
#
# PCOD8033809 Si02
#       6
#     2   2   2   2   2   2
#     4  12  23  41  68  96 129 167 217 261 318 382
#     4  11  24  43  68  93 133 168 212 264 319 379
#     4  11  24  44  68  93 129 172 212 264 320 377
#     4  12  26  43  68  94 130 168 218 263 316 384
#     4  11  24  42  67  96 128 169 215 261 321 379
#     4  11  25  42  64 101 129 166 214 265 318 375
#
# _framework density 20.182887999999998
#
# number of rings (size 3 to 8) (size 9 to 14) (size 15 to 20)
#    0.000    0.667    5.000    2.000    4.667    2.000 
#    0.000    0.000    0.000    0.000    0.000    0.000 
#    0.000    0.000    0.000    0.000    0.000    0.000 
#
# Total GULP energy -148894.704174 kJ/mol
# GULP energy per Si atom -12407.892015 kJ/mol
# Density = 2.013695 g / cm^3
# Si number density = 20.182888 Si / 1000 Ang^3
#
#
#
# Elastic Constant Matrix: (Units=GPa)
#
#
# Indices 1 2 3 4 5 6 
#
# 1 117.0801 54.7549 59.9467 3.7784 5.5895 9.4006
# 2 54.7549 86.3232 46.1285 -9.5941 9.8294 -3.5525
# 3 59.9467 46.1285 122.9529 2.3920 12.0531 3.6986
# 4 3.7784 -9.5941 2.3920 31.3771 5.6597 -3.5844
# 5 5.5895 9.8294 12.0531 5.6597 31.1987 0.1015
# 6 9.4006 -3.5525 3.6986 -3.5844 0.1015 38.3636
#
#
#
# Elastic Compliance Matrix: (Units=1/GPa)
#
#
# Indices 1 2 3 4 5 6 
#
# 1 0.014960 -0.008260 -0.004205 -0.004964 0.002462 -0.004496
# 2 -0.008260 0.020503 -0.003476 0.009069 -0.005299 0.005119
# 3 -0.004205 -0.003476 0.011769 -0.001061 -0.002504 -0.000519
# 4 -0.004964 0.009069 -0.001061 0.037482 -0.008376 0.005683
# 5 0.002462 -0.005299 -0.002504 -0.008376 0.035774 -0.001730
# 6 -0.004496 0.005119 -0.000519 0.005683 -0.001730 0.028228
#
#
# Mechanical properties :
#
#
# Convention : Reuss Voigt Hill
#
# Bulk Modulus (GPa) = 65.13977 72.00181 68.57079
# Shear Modulus (GPa) = 26.92312 31.22297 29.07305
#
# Velocity S-wave (km/s) = 3.65630 3.93746 3.79948
# Velocity P-wave (km/s) = 7.08305 7.51156 7.30045
#
# Compressibility (1/GPa) = 0.01535161
#
# Stress axis : x y z
#
# Youngs Moduli (GPa) = 66.84275 48.77357 84.96767
#
# Poissons Ratio (x) = 0.40285 0.35728
# Poissons Ratio (y) = 0.55209 0.29536
# Poissons Ratio (z) = 0.28107 0.16954
#
# Static dielectric constant tensor:
#      x y z
#    x 3.682640 -0.016570 -0.015710 
#    y -0.016570 3.908840 0.020240 
#    z -0.015710 0.020240 3.936720 
# 
# 
# High freq. dielectric constant tensor:
#      x y z
#    x 1.788550 -0.005400 -0.000740 
#    y -0.005400 1.803260 -0.000750 
#    z -0.000740 -0.000750 1.806430 
# 
# From -- ./inp_files/49554.got.cif
#   From: 2010.06.25/outbox.cif.g09.slc.cpg/sg2_25_cif.got.tgz:49554.got - 2010.06.27 13:26:56.
