data_PCOD8033043
_publ_section_title
;
Structure prediction by ZEFSAII (Michael W. Deem and Ramdas Pophale) SiO2 
 PCOD8033043
Probable space group: P -1
;
_chemical_formula_sum "Si O2"
_cell_formula_units_Z 16
_cell_length_a 11.677701
_cell_length_b 9.221776
_cell_length_c 18.113080
_cell_angle_alpha 36.119753
_cell_angle_beta 43.963168
_cell_angle_gamma 36.052275
_cell_volume 664.067786
_symmetry_space_group_name_H-M "P -1"
_symmetry_group_IT_number 2
_symmetry_cell_setting 'triclinic'
loop_
_space_group_symop_operation_xyz
x,y,z
-x,-y,-z
loop_
_atom_site_type_symbol
_atom_site_label
_atom_site_fract_x
_atom_site_fract_y
_atom_site_fract_z
Si Si1 0.655025 0.584861 0.074901
Si Si2 0.176442 0.058038 0.200995
Si Si3 0.607639 0.048040 0.555379
Si Si4 0.276310 0.557923 0.735027
Si Si5 0.938085 0.990732 0.114653
Si Si6 0.133355 0.105980 0.364331
Si Si7 0.257903 0.307210 0.700932
Si Si8 0.714363 0.409964 0.771792
O O1 0.605986 0.589124 0.183579
O O2 0.470421 0.609525 0.108183
O O3 0.861025 0.288769 0.074706
O O4 0.677291 0.856673 0.936794
O O5 0.235956 0.961158 0.298161
O O6 0.949054 0.331449 0.190085
O O7 0.189719 0.790664 0.262372
O O8 0.693980 0.975858 0.627063
O O9 0.643170 0.738364 0.639986
O O10 0.704996 0.166203 0.407241
O O11 0.378929 0.313388 0.571040
O O12 0.351831 0.327358 0.726298
O O13 0.742010 0.983968 0.195350
O O14 0.122751 0.716244 0.186583
O O15 0.000000 0.000000 0.000000
O O16 0.977968 0.455296 0.286516
O O17 0.000000 0.000000 0.500000
#
# Coordination Sequence:
#
# PCOD8033043 Si02
#       8
#     2   2   2   2   2   2   2   2
#     4  12  27  50  69 105 147 185 246 287 364 429
#     4  11  25  47  72 102 143 190 237 296 357 426
#     4  12  25  46  71 109 147 184 245 288 361 423
#     4  11  25  46  76 105 139 197 231 296 355 425
#     4  12  26  46  73 102 146 189 235 299 356 426
#     4  11  23  44  72 105 139 189 242 291 355 420
#     4  11  24  44  70 108 140 186 238 295 354 417
#     4  12  28  46  71 109 141 191 234 295 365 423
#
# _framework density 24.093924999999999
#
# number of rings (size 3 to 8) (size 9 to 14) (size 15 to 20)
#    0.000    0.500    6.250    2.625    3.500    2.500 
#    2.250    0.000    0.000    0.000    0.000    0.000 
#    0.000    0.000    0.000    0.000    0.000    0.000 
#
# Total GULP energy -198286.243515 kJ/mol
# GULP energy per Si atom -12392.890220 kJ/mol
# Density = 2.403909 g / cm^3
# Si number density = 24.093925 Si / 1000 Ang^3
#
#
#
# Elastic Constant Matrix: (Units=GPa)
#
#
# Indices 1 2 3 4 5 6 
#
# 1 99.8809 32.2854 52.3515 -11.3535 -2.1077 15.5660
# 2 32.2854 80.8704 37.4400 4.5077 6.3609 24.7055
# 3 52.3515 37.4400 136.8660 0.6425 -0.2839 22.8273
# 4 -11.3535 4.5077 0.6425 30.3716 4.3765 -7.3153
# 5 -2.1077 6.3609 -0.2839 4.3765 44.1474 0.3859
# 6 15.5660 24.7055 22.8273 -7.3153 0.3859 34.6512
#
#
#
# Elastic Compliance Matrix: (Units=1/GPa)
#
#
# Indices 1 2 3 4 5 6 
#
# 1 0.014338 -0.004322 -0.004479 0.006218 0.000654 0.000897
# 2 -0.004322 0.019048 -0.001511 -0.007014 -0.002159 -0.012101
# 3 -0.004479 -0.001511 0.010142 -0.002724 0.000375 -0.004171
# 4 0.006218 -0.007014 -0.002724 0.039738 -0.002758 0.012422
# 5 0.000654 -0.002159 0.000375 -0.002758 0.023268 0.000157
# 6 0.000897 -0.012101 -0.004171 0.012422 0.000157 0.042452
#
#
# Mechanical properties :
#
#
# Convention : Reuss Voigt Hill
#
# Bulk Modulus (GPa) = 43.66161 62.41901 53.04031
# Shear Modulus (GPa) = 28.20956 34.87005 31.53981
#
# Velocity S-wave (km/s) = 3.42543 3.80841 3.62198
# Velocity P-wave (km/s) = 5.81425 6.73063 6.28915
#
# Compressibility (1/GPa) = 0.02290341
#
# Stress axis : x y z
#
# Youngs Moduli (GPa) = 69.74683 52.49914 98.59725
#
# Poissons Ratio (x) = 0.22692 0.44164
# Poissons Ratio (y) = 0.30147 0.14895
# Poissons Ratio (z) = 0.31241 0.07931
#
# Static dielectric constant tensor:
#      x y z
#    x 4.507310 0.277220 -0.244610 
#    y 0.277220 4.702920 -0.114990 
#    z -0.244610 -0.114990 4.175620 
# 
# 
# High freq. dielectric constant tensor:
#      x y z
#    x 1.960200 0.004860 -0.018520 
#    y 0.004860 1.973010 0.009680 
#    z -0.018520 0.009680 1.948600 
# 
# From -- ./inp_files/346451.got.cif
#   From: 2010.06.25/outbox.cif.g09.slc.cpg/sg2_174_cif.got.tgz:346451.got - 2010.06.27 13:26:56.
