data_PCOD8033106
_publ_section_title
;
Structure prediction by ZEFSAII (Michael W. Deem and Ramdas Pophale) SiO2 
 PCOD8033106
Probable space group: P -1
;
_chemical_formula_sum "Si O2"
_cell_formula_units_Z 14
_cell_length_a 9.583180
_cell_length_b 13.293656
_cell_length_c 16.198970
_cell_angle_alpha 154.618839
_cell_angle_beta 53.614760
_cell_angle_gamma 134.922235
_cell_volume 619.480549
_symmetry_space_group_name_H-M "P -1"
_symmetry_group_IT_number 2
_symmetry_cell_setting 'triclinic'
loop_
_space_group_symop_operation_xyz
x,y,z
-x,-y,-z
loop_
_atom_site_type_symbol
_atom_site_label
_atom_site_fract_x
_atom_site_fract_y
_atom_site_fract_z
Si Si1 0.876395 0.749032 0.295352
Si Si2 0.774791 0.849300 0.943324
Si Si3 0.177332 0.816831 0.104056
Si Si4 0.588531 0.151747 0.287707
Si Si5 0.707426 0.071795 0.368269
Si Si6 0.506177 0.671068 0.273194
Si Si7 0.831370 0.743177 0.669443
O O1 0.674101 0.749915 0.344119
O O2 0.982540 0.765534 0.183862
O O3 0.831777 0.456946 0.131300
O O4 0.000000 0.000000 0.500000
O O5 0.633711 0.652622 0.920055
O O6 0.758060 0.679783 0.742386
O O7 0.700869 0.065457 0.116810
O O8 0.000000 0.000000 0.000000
O O9 0.354544 0.980435 0.227683
O O10 0.196091 0.005849 0.161138
O O11 0.631178 0.083696 0.313684
O O12 0.676150 0.468979 0.474596
O O13 0.647280 0.227479 0.571701
O O14 0.945204 0.200997 0.378875
O O15 0.601394 0.770281 0.222145
#
# Coordination Sequence:
#
# PCOD8033106 Si02
#       7
#     2   2   2   2   2   2   2
#     4  11  24  47  72 100 145 182 236 296 346 416
#     4  12  25  44  70 104 142 185 236 287 353 422
#     4  11  26  46  70 105 139 188 236 285 355 420
#     4  12  24  44  72 101 146 186 232 293 353 417
#     4  11  23  44  74 103 138 187 232 293 355 412
#     4  11  23  46  72 104 139 185 239 288 352 421
#     4  12  25  47  70 105 147 184 233 293 352 420
#
# _framework density 22.599578999999999
#
# number of rings (size 3 to 8) (size 9 to 14) (size 15 to 20)
#    0.000    0.571    5.714    2.571    0.000    2.286 
#   10.286    0.000    0.000    0.000    0.000    0.000 
#    0.000    0.000    0.000    0.000    0.000    0.000 
#
# Total GULP energy -173533.813378 kJ/mol
# GULP energy per Si atom -12395.272384 kJ/mol
# Density = 2.254814 g / cm^3
# Si number density = 22.599579 Si / 1000 Ang^3
#
#
#
# Elastic Constant Matrix: (Units=GPa)
#
#
# Indices 1 2 3 4 5 6 
#
# 1 100.7476 31.1914 28.5643 20.6079 -0.8881 5.0616
# 2 31.1914 109.5643 41.9497 20.0702 -3.6565 4.5328
# 3 28.5643 41.9497 119.8530 21.0724 -9.1436 6.9833
# 4 20.6079 20.0702 21.0724 42.9115 5.7636 -2.8853
# 5 -0.8881 -3.6565 -9.1436 5.7636 34.0168 5.1391
# 6 5.0616 4.5328 6.9833 -2.8853 5.1391 26.8803
#
#
#
# Elastic Compliance Matrix: (Units=1/GPa)
#
#
# Indices 1 2 3 4 5 6 
#
# 1 0.011912 -0.002006 -0.001148 -0.004490 0.000889 -0.002258
# 2 -0.002006 0.011465 -0.002782 -0.003289 0.001203 -0.001416
# 3 -0.001148 -0.002782 0.010807 -0.004184 0.003783 -0.003295
# 4 -0.004490 -0.003289 -0.004184 0.030601 -0.007880 0.007278
# 5 0.000889 0.001203 0.003783 -0.007880 0.033193 -0.008545
# 6 -0.002258 -0.001416 -0.003295 0.007278 -0.008545 0.041137
#
#
# Mechanical properties :
#
#
# Convention : Reuss Voigt Hill
#
# Bulk Modulus (GPa) = 44.81984 59.28620 52.05302
# Shear Modulus (GPa) = 31.56101 35.99235 33.77668
#
# Velocity S-wave (km/s) = 3.74107 3.99508 3.87016
# Velocity P-wave (km/s) = 6.20774 6.89719 6.56153
#
# Compressibility (1/GPa) = 0.02231155
#
# Stress axis : x y z
#
# Youngs Moduli (GPa) = 83.94842 87.22485 92.53228
#
# Poissons Ratio (x) = 0.17498 0.10623
# Poissons Ratio (y) = 0.16841 0.25742
# Poissons Ratio (z) = 0.09638 0.24266
#
# Static dielectric constant tensor:
#      x y z
#    x 3.982780 0.023230 -0.264200 
#    y 0.023230 4.421570 -0.026410 
#    z -0.264200 -0.026410 4.508500 
# 
# 
# High freq. dielectric constant tensor:
#      x y z
#    x 1.887750 0.015340 -0.016980 
#    y 0.015340 1.900320 0.011440 
#    z -0.016980 0.011440 1.897580 
# 
# From -- ./inp_files/224319.got.cif
#   From: 2010.06.25/outbox.cif.g09.slc.cpg/sg2_113_cif.got.tgz:224319.got - 2010.06.27 13:26:56.
