data_PCOD8033408
_publ_section_title
;
Structure prediction by ZEFSAII (Michael W. Deem and Ramdas Pophale) SiO2 
 PCOD8033408
Probable space group: P -1
;
_chemical_formula_sum "Si O2"
_cell_formula_units_Z 12
_cell_length_a 16.089295
_cell_length_b 5.678596
_cell_length_c 8.697521
_cell_angle_alpha 60.260507
_cell_angle_beta 51.073976
_cell_angle_gamma 87.048289
_cell_volume 495.360345
_symmetry_space_group_name_H-M "P -1"
_symmetry_group_IT_number 2
_symmetry_cell_setting 'triclinic'
loop_
_space_group_symop_operation_xyz
x,y,z
-x,-y,-z
loop_
_atom_site_type_symbol
_atom_site_label
_atom_site_fract_x
_atom_site_fract_y
_atom_site_fract_z
Si Si1 0.711883 0.677604 0.783664
Si Si2 0.907308 0.145053 0.560912
Si Si3 0.469621 0.212670 0.855258
Si Si4 0.052663 0.353824 0.854462
Si Si5 0.737635 0.120063 0.016809
Si Si6 0.709371 0.656220 0.431283
O O1 0.762418 0.462596 0.881277
O O2 0.694918 0.627835 0.639351
O O3 0.808325 0.001488 0.593058
O O4 0.589462 0.618335 0.023930
O O5 0.961495 0.491383 0.339622
O O6 0.845370 0.084494 0.817120
O O7 0.000000 0.000000 0.500000
O O8 0.588569 0.437791 0.568038
O O9 0.500000 0.000000 0.000000
O O10 0.384520 0.040100 0.874897
O O11 0.187549 0.440997 0.709952
O O12 0.000000 0.500000 0.000000
O O13 0.000000 0.000000 0.000000
O O14 0.732759 0.984598 0.236205
#
# Coordination Sequence:
#
# PCOD8033408 Si02
#       6
#     2   2   2   2   2   2
#     4  11  24  47  70 106 144 189 245 304 374 438
#     4  11  25  48  73 102 152 193 243 313 372 448
#     4  11  23  46  70 101 147 188 239 306 375 439
#     4  12  27  48  74 111 146 198 254 312 378 450
#     4  11  25  44  70 107 139 192 242 301 374 449
#     4  12  24  46  74 104 146 190 247 304 369 448
#
# _framework density 24.224788
#
# number of rings (size 3 to 8) (size 9 to 14) (size 15 to 20)
#    0.000    0.667    3.333    4.000    2.333    1.333 
#   12.000    0.000    0.000    0.000    0.000    0.000 
#    0.000    0.000    0.000    0.000    0.000    0.000 
#
# Total GULP energy -148768.561682 kJ/mol
# GULP energy per Si atom -12397.380140 kJ/mol
# Density = 2.416965 g / cm^3
# Si number density = 24.224788 Si / 1000 Ang^3
#
#
#
# Elastic Constant Matrix: (Units=GPa)
#
#
# Indices 1 2 3 4 5 6 
#
# 1 76.3253 34.0430 45.4450 4.1141 -7.1633 -34.5947
# 2 34.0430 125.4103 49.1449 -4.5639 -11.4785 -24.4060
# 3 45.4450 49.1449 122.3921 -12.9738 -12.8670 -19.5909
# 4 4.1141 -4.5639 -12.9738 46.1181 -21.6969 3.5563
# 5 -7.1633 -11.4785 -12.8670 -21.6969 51.9798 -7.5505
# 6 -34.5947 -24.4060 -19.5909 3.5563 -7.5505 43.0776
#
#
#
# Elastic Compliance Matrix: (Units=1/GPa)
#
#
# Indices 1 2 3 4 5 6 
#
# 1 0.026294 -0.000868 -0.006677 -0.004523 0.002565 0.018411
# 2 -0.000868 0.010417 -0.002762 0.001242 0.002642 0.004310
# 3 -0.006677 -0.002762 0.012616 0.005761 0.003854 -0.000990
# 4 -0.004523 0.001242 0.005761 0.030289 0.013660 -0.000415
# 5 0.002565 0.002642 0.003854 0.013660 0.028155 0.009117
# 6 0.018411 0.004310 -0.000990 -0.000415 0.009117 0.041623
#
#
# Mechanical properties :
#
#
# Convention : Reuss Voigt Hill
#
# Bulk Modulus (GPa) = 34.82632 64.59929 49.71281
# Shear Modulus (GPa) = 27.84291 41.26810 34.55550
#
# Velocity S-wave (km/s) = 3.39389 4.13188 3.78094
# Velocity P-wave (km/s) = 5.45578 7.03476 6.29497
#
# Compressibility (1/GPa) = 0.02871391
#
# Stress axis : x y z
#
# Youngs Moduli (GPa) = 38.03150 95.99483 79.26368
#
# Poissons Ratio (x) = 0.08330 0.52928
# Poissons Ratio (y) = 0.03300 0.21889
# Poissons Ratio (z) = 0.25395 0.26509
#
# Static dielectric constant tensor:
#      x y z
#    x 4.562090 -0.156000 -0.435350 
#    y -0.156000 4.422640 -0.282950 
#    z -0.435350 -0.282950 4.674720 
# 
# 
# High freq. dielectric constant tensor:
#      x y z
#    x 1.968930 -0.020700 -0.012520 
#    y -0.020700 1.957910 -0.010010 
#    z -0.012520 -0.010010 1.975350 
# 
# From -- ./inp_files/19106.got.cif
#   From: 2010.06.25/outbox.cif.g09.slc.cpg/sg2_10_cif.got.tgz:19106.got - 2010.06.27 13:26:56.
