data_PCOD8033445
_publ_section_title
;
Structure prediction by ZEFSAII (Michael W. Deem and Ramdas Pophale) SiO2 
 PCOD8033445
Probable space group: P -1
;
_chemical_formula_sum "Si O2"
_cell_formula_units_Z 14
_cell_length_a 19.007623
_cell_length_b 10.940565
_cell_length_c 13.950041
_cell_angle_alpha 33.852387
_cell_angle_beta 147.077930
_cell_angle_gamma 155.747856
_cell_volume 619.434136
_symmetry_space_group_name_H-M "P -1"
_symmetry_group_IT_number 2
_symmetry_cell_setting 'triclinic'
loop_
_space_group_symop_operation_xyz
x,y,z
-x,-y,-z
loop_
_atom_site_type_symbol
_atom_site_label
_atom_site_fract_x
_atom_site_fract_y
_atom_site_fract_z
Si Si1 0.742466 0.744808 0.427711
Si Si2 0.826418 0.329371 0.477206
Si Si3 0.564415 0.160951 0.708430
Si Si4 0.315225 0.136582 0.039180
Si Si5 0.881480 0.806809 0.350468
Si Si6 0.313686 0.823460 0.956437
Si Si7 0.055912 0.843175 0.114324
O O1 0.586012 0.427018 0.512310
O O2 0.801771 0.666141 0.456683
O O3 0.690006 0.918188 0.214569
O O4 0.900944 0.950815 0.554005
O O5 0.809137 0.548538 0.358960
O O6 0.000000 0.500000 0.500000
O O7 0.829224 0.160719 0.676433
O O8 0.654051 0.108271 0.352317
O O9 0.637347 0.064010 0.780656
O O10 0.669100 0.258487 0.864807
O O11 0.500000 0.500000 0.000000
O O12 0.180813 0.029968 0.865687
O O13 0.202812 0.061409 0.055816
O O14 0.129321 0.503554 0.906277
O O15 0.500000 0.000000 0.000000
O O16 0.000000 0.000000 0.000000
#
# Coordination Sequence:
#
# PCOD8033445 Si02
#       7
#     2   2   2   2   2   2   2
#     4  11  26  46  75 106 148 192 249 312 374 445
#     4  12  26  47  73 107 153 197 251 308 372 450
#     4  12  28  45  78 112 144 197 255 304 384 444
#     4  12  26  45  78 110 153 192 257 316 370 450
#     4  11  23  46  72 103 148 193 239 311 372 429
#     4  12  28  51  75 109 156 195 252 320 376 449
#     4  12  29  49  78 108 150 206 251 305 392 452
#
# _framework density 22.601272999999999
#
# number of rings (size 3 to 8) (size 9 to 14) (size 15 to 20)
#    0.000    0.286    4.286    3.429    8.000    2.857 
#    0.000    0.000    0.000    0.000    0.000    0.000 
#    0.000    0.000    0.000    0.000    0.000    0.000 
#
# Total GULP energy -173566.061320 kJ/mol
# GULP energy per Si atom -12397.575809 kJ/mol
# Density = 2.254983 g / cm^3
# Si number density = 22.601273 Si / 1000 Ang^3
#
#
#
# Elastic Constant Matrix: (Units=GPa)
#
#
# Indices 1 2 3 4 5 6 
#
# 1 110.3629 46.4354 35.2979 -12.2352 3.5122 14.1778
# 2 46.4354 96.7530 45.8558 -5.1055 3.5885 8.8385
# 3 35.2979 45.8558 125.9757 3.1922 -7.3191 -0.7471
# 4 -12.2352 -5.1055 3.1922 44.6013 0.6256 -0.5067
# 5 3.5122 3.5885 -7.3191 0.6256 37.2063 0.4619
# 6 14.1778 8.8385 -0.7471 -0.5067 0.4619 39.1403
#
#
#
# Elastic Compliance Matrix: (Units=1/GPa)
#
#
# Indices 1 2 3 4 5 6 
#
# 1 0.012405 -0.004485 -0.002006 0.003010 -0.001141 -0.003467
# 2 -0.004485 0.014776 -0.004258 0.000771 -0.001830 -0.001762
# 3 -0.002006 -0.004258 0.010259 -0.001788 0.002626 0.001830
# 4 0.003010 0.000771 -0.001788 0.023467 -0.001093 -0.000982
# 5 -0.001141 -0.001830 0.002626 -0.001093 0.027690 0.000536
# 6 -0.003467 -0.001762 0.001830 -0.000982 0.000536 0.027219
#
#
# Mechanical properties :
#
#
# Convention : Reuss Voigt Hill
#
# Bulk Modulus (GPa) = 62.73211 65.36331 64.04771
# Shear Modulus (GPa) = 35.05635 37.88974 36.47304
#
# Velocity S-wave (km/s) = 3.94265 4.09888 4.02152
# Velocity P-wave (km/s) = 6.96722 7.16827 7.06846
#
# Compressibility (1/GPa) = 0.01594080
#
# Stress axis : x y z
#
# Youngs Moduli (GPa) = 80.61197 67.67847 97.47609
#
# Poissons Ratio (x) = 0.30353 0.19558
# Poissons Ratio (y) = 0.36154 0.41507
# Poissons Ratio (z) = 0.16174 0.28818
#
# Static dielectric constant tensor:
#      x y z
#    x 4.323470 -0.079960 0.114570 
#    y -0.079960 4.071140 0.054290 
#    z 0.114570 0.054290 4.494790 
# 
# 
# High freq. dielectric constant tensor:
#      x y z
#    x 1.896600 0.002970 0.000450 
#    y 0.002970 1.892580 0.009590 
#    z 0.000450 0.009590 1.913210 
# 
# From -- ./inp_files/438625.got.cif
#   From: 2010.06.25/outbox.cif.g09.slc.cpg/sg2_220_cif.got.tgz:438625.got - 2010.06.27 13:26:56.
