data_PCOD8033561
_publ_section_title
;
Structure prediction by ZEFSAII (Michael W. Deem and Ramdas Pophale) SiO2 
 PCOD8033561
Probable space group: P -1
;
_chemical_formula_sum "Si O2"
_cell_formula_units_Z 16
_cell_length_a 8.716702
_cell_length_b 9.113140
_cell_length_c 19.056441
_cell_angle_alpha 60.464458
_cell_angle_beta 86.813958
_cell_angle_gamma 135.223614
_cell_volume 695.510803
_symmetry_space_group_name_H-M "P -1"
_symmetry_group_IT_number 2
_symmetry_cell_setting 'triclinic'
loop_
_space_group_symop_operation_xyz
x,y,z
-x,-y,-z
loop_
_atom_site_type_symbol
_atom_site_label
_atom_site_fract_x
_atom_site_fract_y
_atom_site_fract_z
Si Si1 0.759082 0.361693 0.382344
Si Si2 0.906287 0.771224 0.609108
Si Si3 0.698258 0.651632 0.257969
Si Si4 0.795329 0.630385 0.869544
Si Si5 0.716296 0.334440 0.069050
Si Si6 0.682768 0.228119 0.690707
Si Si7 0.160025 0.796741 0.706694
Si Si8 0.729626 0.634933 0.107311
O O1 0.647075 0.449483 0.360696
O O2 0.892605 0.413047 0.293074
O O3 0.043096 0.642679 0.360483
O O4 0.500000 0.000000 0.500000
O O5 0.594877 0.521256 0.708812
O O6 0.862930 0.566157 0.612960
O O7 0.140098 0.949699 0.623237
O O8 0.000000 0.000000 0.500000
O O9 0.766362 0.623018 0.190253
O O10 0.940485 0.010505 0.192078
O O11 0.567570 0.543753 0.860401
O O12 0.920813 0.603257 0.819920
O O13 0.629633 0.376871 0.996733
O O14 0.760609 0.488133 0.100918
O O15 0.479564 0.976221 0.184102
O O16 0.000000 0.500000 0.000000
O O17 0.475965 0.059326 0.669367
O O18 0.000000 0.000000 0.000000
#
# Coordination Sequence:
#
# PCOD8033561 Si02
#       8
#     2   2   2   2   2   2   2   2
#     4  11  27  47  68 101 141 184 236 295 351 411
#     4  11  24  46  72 102 136 179 236 290 346 411
#     4  12  23  45  70 101 143 179 229 294 341 410
#     4  12  25  46  69 106 140 185 231 283 351 422
#     4  12  24  44  72 104 144 185 228 279 350 424
#     4  11  24  46  70 102 143 182 231 288 346 423
#     4  11  23  47  72 103 137 184 233 280 359 414
#     4  12  27  43  69 104 141 190 230 282 349 415
#
# _framework density 23.004674999999999
#
# number of rings (size 3 to 8) (size 9 to 14) (size 15 to 20)
#    0.000    0.500    5.000    3.375    1.750    1.000 
#    2.250    3.125    0.000    0.000    0.000    0.000 
#    0.000    0.000    0.000    0.000    0.000    0.000 
#
# Total GULP energy -198222.078268 kJ/mol
# GULP energy per Si atom -12388.879892 kJ/mol
# Density = 2.295232 g / cm^3
# Si number density = 23.004675 Si / 1000 Ang^3
#
#
#
# Elastic Constant Matrix: (Units=GPa)
#
#
# Indices 1 2 3 4 5 6 
#
# 1 115.8104 35.8014 16.2182 -8.9394 -1.9393 28.3699
# 2 35.8014 86.3864 23.4459 2.9690 -5.0026 15.0069
# 3 16.2182 23.4459 86.3115 -11.7046 17.7370 21.0815
# 4 -8.9394 2.9690 -11.7046 30.1630 0.5877 -8.3241
# 5 -1.9393 -5.0026 17.7370 0.5877 53.2226 2.6298
# 6 28.3699 15.0069 21.0815 -8.3241 2.6298 47.0964
#
#
#
# Elastic Compliance Matrix: (Units=1/GPa)
#
#
# Indices 1 2 3 4 5 6 
#
# 1 0.011292 -0.003991 0.000593 0.002489 0.000076 -0.005360
# 2 -0.003991 0.014939 -0.004156 -0.004730 0.002769 -0.001487
# 3 0.000593 -0.004156 0.015612 0.005435 -0.005397 -0.004760
# 4 0.002489 -0.004730 0.005435 0.037734 -0.002799 0.004401
# 5 0.000076 0.002769 -0.005397 -0.002799 0.020890 -0.000174
# 6 -0.005360 -0.001487 -0.004760 0.004401 -0.000174 0.027854
#
#
# Mechanical properties :
#
#
# Convention : Reuss Voigt Hill
#
# Bulk Modulus (GPa) = 37.40158 48.82658 43.11408
# Shear Modulus (GPa) = 32.82161 40.29926 36.56043
#
# Velocity S-wave (km/s) = 3.78131 4.18997 3.99088
# Velocity P-wave (km/s) = 5.94626 6.68420 6.32600
#
# Compressibility (1/GPa) = 0.02673684
#
# Stress axis : x y z
#
# Youngs Moduli (GPa) = 88.55912 66.93957 64.05416
#
# Poissons Ratio (x) = 0.26714 -0.03801
# Poissons Ratio (y) = 0.35342 0.26618
# Poissons Ratio (z) = -0.05255 0.27817
#
# Static dielectric constant tensor:
#      x y z
#    x 4.925290 0.387770 -0.063050 
#    y 0.387770 4.260300 0.136780 
#    z -0.063050 0.136780 4.139340 
# 
# 
# High freq. dielectric constant tensor:
#      x y z
#    x 1.937320 0.012440 0.000880 
#    y 0.012440 1.896630 0.003920 
#    z 0.000880 0.003920 1.903990 
# 
# From -- ./inp_files/587903.got.cif
#   From: 2010.06.25/outbox.cif.g09.slc.cpg/sg2_294_cif.got.tgz:587903.got - 2010.06.27 13:26:56.
