data_PCOD8033811
_publ_section_title
;
Structure prediction by ZEFSAII (Michael W. Deem and Ramdas Pophale) SiO2 
 PCOD8033811
Probable space group: P -1
;
_chemical_formula_sum "Si O2"
_cell_formula_units_Z 16
_cell_length_a 6.797642
_cell_length_b 13.670990
_cell_length_c 11.115741
_cell_angle_alpha 74.583642
_cell_angle_beta 96.702032
_cell_angle_gamma 131.493482
_cell_volume 743.373522
_symmetry_space_group_name_H-M "P -1"
_symmetry_group_IT_number 2
_symmetry_cell_setting 'triclinic'
loop_
_space_group_symop_operation_xyz
x,y,z
-x,-y,-z
loop_
_atom_site_type_symbol
_atom_site_label
_atom_site_fract_x
_atom_site_fract_y
_atom_site_fract_z
Si Si1 0.273037 0.980659 0.060692
Si Si2 0.075170 0.827120 0.573463
Si Si3 0.164845 0.698680 0.450693
Si Si4 0.688917 0.676736 0.791653
Si Si5 0.841506 0.475287 0.317475
Si Si6 0.707985 0.780142 0.009350
Si Si7 0.609878 0.021579 0.661385
Si Si8 0.165377 0.501158 0.117068
O O1 0.296418 0.987014 0.202822
O O2 0.993851 0.835197 0.052931
O O3 0.500000 0.000000 0.000000
O O4 0.299953 0.106674 0.985142
O O5 0.978997 0.694237 0.536939
O O6 0.182678 0.943646 0.441566
O O7 0.842459 0.784427 0.657809
O O8 0.322742 0.880521 0.659308
O O9 0.270635 0.633527 0.546471
O O10 0.398303 0.856474 0.379665
O O11 0.004476 0.620616 0.343611
O O12 0.393430 0.554825 0.766004
O O13 0.824728 0.617408 0.863420
O O14 0.683723 0.756185 0.872218
O O15 0.031967 0.477183 0.242682
O O16 0.465897 0.641182 0.100119
O O17 0.000000 0.500000 0.000000
#
# Coordination Sequence:
#
# PCOD8033811 Si02
#       8
#     2   2   2   2   2   2   2   2
#     4  11  26  46  69  95 138 175 212 288 324 389
#     4   9  20  40  66  93 121 173 214 269 327 384
#     4   9  21  43  64  97 128 170 219 270 336 391
#     4  12  25  43  69  95 134 175 224 273 332 399
#     4  11  24  42  67  96 136 170 219 277 332 394
#     4  11  28  42  65 105 125 176 236 254 342 398
#     4   9  20  40  72  87 129 173 216 263 341 380
#     4  12  26  43  68  97 136 180 222 276 327 395
#
# _framework density 21.523499999999999
#
# number of rings (size 3 to 8) (size 9 to 14) (size 15 to 20)
#    0.750    0.750    2.500    1.125    8.750    0.500 
#    4.500    1.250    0.000    0.000    0.000    0.000 
#    0.000    0.000    0.000    0.000    0.000    0.000 
#
# Total GULP energy -198244.367565 kJ/mol
# GULP energy per Si atom -12390.272973 kJ/mol
# Density = 2.147451 g / cm^3
# Si number density = 21.523500 Si / 1000 Ang^3
#
#
#
# Elastic Constant Matrix: (Units=GPa)
#
#
# Indices 1 2 3 4 5 6 
#
# 1 97.9110 29.3163 34.8791 5.3623 -10.4800 17.2951
# 2 29.3163 80.5244 15.1761 14.4388 -8.1819 10.4767
# 3 34.8791 15.1761 90.8221 14.6602 -4.6330 18.6845
# 4 5.3623 14.4388 14.6602 41.7381 7.2811 1.5067
# 5 -10.4800 -8.1819 -4.6330 7.2811 28.7879 0.9434
# 6 17.2951 10.4767 18.6845 1.5067 0.9434 31.7208
#
#
#
# Elastic Compliance Matrix: (Units=1/GPa)
#
#
# Indices 1 2 3 4 5 6 
#
# 1 0.013654 -0.003417 -0.003656 0.000259 0.003486 -0.004278
# 2 -0.003417 0.015552 0.000636 -0.005890 0.004883 -0.003514
# 3 -0.003656 0.000636 0.014650 -0.005130 0.002724 -0.006683
# 4 0.000259 -0.005890 -0.005130 0.029367 -0.009955 0.003727
# 5 0.003486 0.004883 0.002724 -0.009955 0.040542 -0.005851
# 6 -0.004278 -0.003514 -0.006683 0.003727 -0.005851 0.038952
#
#
# Mechanical properties :
#
#
# Convention : Reuss Voigt Hill
#
# Bulk Modulus (GPa) = 32.27748 47.55562 39.91655
# Shear Modulus (GPa) = 28.42222 33.10843 30.76532
#
# Velocity S-wave (km/s) = 3.63784 3.92630 3.78482
# Velocity P-wave (km/s) = 5.71613 6.53431 6.13886
#
# Compressibility (1/GPa) = 0.03098136
#
# Stress axis : x y z
#
# Youngs Moduli (GPa) = 73.24034 64.29957 68.25755
#
# Poissons Ratio (x) = 0.21974 0.24957
# Poissons Ratio (y) = 0.25029 -0.04343
# Poissons Ratio (z) = 0.26779 -0.04091
#
# Static dielectric constant tensor:
#      x y z
#    x 3.618710 0.105930 -0.129690 
#    y 0.105930 3.936910 0.101200 
#    z -0.129690 0.101200 3.905850 
# 
# 
# High freq. dielectric constant tensor:
#      x y z
#    x 1.814940 0.005820 -0.006220 
#    y 0.005820 1.852090 0.008530 
#    z -0.006220 0.008530 1.854260 
# 
# From -- ./inp_files/364312.got.cif
#   From: 2010.06.25/outbox.cif.g09.slc.cpg/sg2_183_cif.got.tgz:364312.got - 2010.06.27 13:26:56.
