data_PCOD8033876
_publ_section_title
;
Structure prediction by ZEFSAII (Michael W. Deem and Ramdas Pophale) SiO2 
 PCOD8033876
Probable space group: P -1
;
_chemical_formula_sum "Si O2"
_cell_formula_units_Z 14
_cell_length_a 18.823242
_cell_length_b 16.150552
_cell_length_c 6.178921
_cell_angle_alpha 43.408002
_cell_angle_beta 50.278865
_cell_angle_gamma 27.771699
_cell_volume 601.422826
_symmetry_space_group_name_H-M "P -1"
_symmetry_group_IT_number 2
_symmetry_cell_setting 'triclinic'
loop_
_space_group_symop_operation_xyz
x,y,z
-x,-y,-z
loop_
_atom_site_type_symbol
_atom_site_label
_atom_site_fract_x
_atom_site_fract_y
_atom_site_fract_z
Si Si1 0.779079 0.815613 0.335656
Si Si2 0.446919 0.934680 0.344999
Si Si3 0.609210 0.449211 0.702575
Si Si4 0.260477 0.522291 0.276055
Si Si5 0.175587 0.820380 0.572847
Si Si6 0.937880 0.487709 0.342179
Si Si7 0.329754 0.875599 0.337214
O O1 0.795352 0.704514 0.318427
O O2 0.939431 0.666851 0.421254
O O3 0.652665 0.901080 0.585194
O O4 0.724815 0.999858 0.005294
O O5 0.582347 0.715273 0.601069
O O6 0.337610 0.958245 0.371416
O O7 0.500000 0.000000 0.000000
O O8 0.735035 0.396730 0.679532
O O9 0.709548 0.265060 0.690303
O O10 0.498728 0.648479 0.397379
O O11 0.500000 0.500000 0.000000
O O12 0.122092 0.577475 0.500062
O O13 0.223291 0.638755 0.912875
O O14 0.209644 0.886977 0.566147
O O15 0.000000 0.000000 0.500000
O O16 0.000000 0.500000 0.000000
#
# Coordination Sequence:
#
# PCOD8033876 Si02
#       7
#     2   2   2   2   2   2   2
#     4  11  24  42  70  98 140 180 229 285 349 405
#     4  11  25  44  70 105 133 179 238 287 343 413
#     4  11  25  46  70  99 141 184 233 286 345 413
#     4  11  25  45  72  98 142 181 229 292 341 418
#     4  12  27  45  70 105 141 185 237 284 356 420
#     4  11  25  46  69 100 143 185 230 286 352 412
#     4  11  24  42  72  98 138 183 230 286 348 419
#
# _framework density 23.278130999999998
#
# number of rings (size 3 to 8) (size 9 to 14) (size 15 to 20)
#    0.000    0.857    1.429    4.714    4.000    9.714 
#    2.571    0.000    0.000    0.000    0.000    0.000 
#    0.000    0.000    0.000    0.000    0.000    0.000 
#
# Total GULP energy -173506.328865 kJ/mol
# GULP energy per Si atom -12393.309205 kJ/mol
# Density = 2.322515 g / cm^3
# Si number density = 23.278131 Si / 1000 Ang^3
#
#
#
# Elastic Constant Matrix: (Units=GPa)
#
#
# Indices 1 2 3 4 5 6 
#
# 1 156.0796 35.9150 66.6241 4.7130 -13.4603 -8.1685
# 2 35.9150 120.4043 75.6777 5.6904 5.7026 8.8843
# 3 66.6241 75.6777 155.1361 -6.2035 -9.2386 -10.0367
# 4 4.7130 5.6904 -6.2035 43.1040 -10.3528 5.7973
# 5 -13.4603 5.7026 -9.2386 -10.3528 36.6395 -3.9406
# 6 -8.1685 8.8843 -10.0367 5.7973 -3.9406 29.3975
#
#
#
# Elastic Compliance Matrix: (Units=1/GPa)
#
#
# Indices 1 2 3 4 5 6 
#
# 1 0.008160 -0.000873 -0.002839 -0.000889 0.002388 0.002057
# 2 -0.000873 0.014339 -0.007601 -0.003399 -0.006218 -0.007334
# 3 -0.002839 -0.007601 0.012160 0.003458 0.004788 0.005620
# 4 -0.000889 -0.003399 0.003458 0.026536 0.008341 -0.002154
# 5 0.002388 -0.006218 0.004788 0.008341 0.033457 0.007017
# 6 0.002057 -0.007334 0.005620 -0.002154 0.007017 0.040089
#
#
# Mechanical properties :
#
#
# Convention : Reuss Voigt Hill
#
# Bulk Modulus (GPa) = 83.09467 87.56150 85.32808
# Shear Modulus (GPa) = 30.98332 38.72176 34.85254
#
# Velocity S-wave (km/s) = 3.65225 4.08295 3.87359
# Velocity P-wave (km/s) = 7.31842 7.74108 7.53271
#
# Compressibility (1/GPa) = 0.01203447
#
# Stress axis : x y z
#
# Youngs Moduli (GPa) = 122.54838 69.73841 82.23699
#
# Poissons Ratio (x) = 0.06085 0.23347
# Poissons Ratio (y) = 0.10692 0.62508
# Poissons Ratio (z) = 0.34792 0.53008
#
# Static dielectric constant tensor:
#      x y z
#    x 4.442400 0.016060 0.040530 
#    y 0.016060 4.174550 -0.268070 
#    z 0.040530 -0.268070 4.317990 
# 
# 
# High freq. dielectric constant tensor:
#      x y z
#    x 1.934320 -0.006220 0.006260 
#    y -0.006220 1.910300 -0.020070 
#    z 0.006260 -0.020070 1.928310 
# 
# From -- ./inp_files/101247.got.cif
#   From: 2010.06.25/outbox.cif.g09.slc.cpg/sg2_51_cif.got.tgz:101247.got - 2010.06.27 13:26:56.
