data_PCOD8033633
_publ_section_title
;
Structure prediction by ZEFSAII (Michael W. Deem and Ramdas Pophale) SiO2 
 PCOD8033633
Probable space group: P -1
;
_chemical_formula_sum "Si O2"
_cell_formula_units_Z 12
_cell_length_a 8.353008
_cell_length_b 12.079312
_cell_length_c 14.738829
_cell_angle_alpha 149.053484
_cell_angle_beta 50.018928
_cell_angle_gamma 112.585712
_cell_volume 530.752258
_symmetry_space_group_name_H-M "P -1"
_symmetry_group_IT_number 2
_symmetry_cell_setting 'triclinic'
loop_
_space_group_symop_operation_xyz
x,y,z
-x,-y,-z
loop_
_atom_site_type_symbol
_atom_site_label
_atom_site_fract_x
_atom_site_fract_y
_atom_site_fract_z
Si Si1 0.472713 0.125882 0.377242
Si Si2 0.453563 0.217955 0.737126
Si Si3 0.046344 0.928644 0.779600
Si Si4 0.616870 0.901034 0.983617
Si Si5 0.008255 0.558006 0.858295
Si Si6 0.221784 0.572326 0.314381
O O1 0.245047 0.341694 0.648643
O O2 0.494196 0.888267 0.254410
O O3 0.692146 0.181387 0.356574
O O4 0.462178 0.085458 0.245674
O O5 0.603041 0.359632 0.759824
O O6 0.500000 0.000000 0.500000
O O7 0.183683 0.404606 0.967661
O O8 0.047929 0.802488 0.594410
O O9 0.943238 0.209978 0.000883
O O10 0.878096 0.879206 0.875459
O O11 0.636038 0.639199 0.815322
O O12 0.500000 0.000000 0.000000
O O13 0.927155 0.509553 0.755743
#
# Coordination Sequence:
#
# PCOD8033633 Si02
#       6
#     2   2   2   2   2   2
#     4  11  25  47  74 110 141 194 236 293 367 422
#     4  11  23  49  74 105 147 186 238 302 360 422
#     4  11  25  48  72 104 150 189 236 297 353 426
#     4  12  27  47  75 108 146 193 245 292 358 432
#     4  11  25  45  75 108 145 186 238 297 360 430
#     4  12  24  49  74 104 147 189 239 302 356 423
#
# _framework density 22.609418000000002
#
# number of rings (size 3 to 8) (size 9 to 14) (size 15 to 20)
#    0.000    0.667    6.667    2.500    2.333    2.000 
#    3.000    0.000    0.000    0.000    0.000    0.000 
#    0.000    0.000    0.000    0.000    0.000    0.000 
#
# Total GULP energy -148829.537998 kJ/mol
# GULP energy per Si atom -12402.461500 kJ/mol
# Density = 2.255796 g / cm^3
# Si number density = 22.609418 Si / 1000 Ang^3
#
#
#
# Elastic Constant Matrix: (Units=GPa)
#
#
# Indices 1 2 3 4 5 6 
#
# 1 66.9810 41.8275 42.9688 9.1643 -5.0437 -1.2440
# 2 41.8275 135.9730 49.7146 -7.2365 -3.3685 11.0712
# 3 42.9688 49.7146 156.4415 -12.4212 -9.4752 15.2038
# 4 9.1643 -7.2365 -12.4212 36.6440 0.9162 4.4879
# 5 -5.0437 -3.3685 -9.4752 0.9162 49.4993 -1.8198
# 6 -1.2440 11.0712 15.2038 4.4879 -1.8198 28.7763
#
#
#
# Elastic Compliance Matrix: (Units=1/GPa)
#
#
# Indices 1 2 3 4 5 6 
#
# 1 0.024851 -0.006570 -0.006357 -0.010771 0.001388 0.008728
# 2 -0.006570 0.010202 -0.000708 0.003975 -0.000349 -0.004477
# 3 -0.006357 -0.000708 0.009392 0.005317 0.000792 -0.005744
# 4 -0.010771 0.003975 0.005317 0.033832 -0.000808 -0.010131
# 5 0.001388 -0.000349 0.000792 -0.000808 0.020531 0.001200
# 6 0.008728 -0.004477 -0.005744 -0.010131 0.001200 0.041541
#
#
# Mechanical properties :
#
#
# Convention : Reuss Voigt Hill
#
# Bulk Modulus (GPa) = 58.22664 69.82414 64.02539
# Shear Modulus (GPa) = 28.84477 37.97622 33.41049
#
# Velocity S-wave (km/s) = 3.57569 4.10282 3.84829
# Velocity P-wave (km/s) = 6.54649 7.30712 6.93724
#
# Compressibility (1/GPa) = 0.01717427
#
# Stress axis : x y z
#
# Youngs Moduli (GPa) = 40.24032 98.02411 106.47838
#
# Poissons Ratio (x) = 0.64399 0.67691
# Poissons Ratio (y) = 0.26437 0.07538
# Poissons Ratio (z) = 0.25582 0.06939
#
# Static dielectric constant tensor:
#      x y z
#    x 3.849590 0.145290 0.097260 
#    y 0.145290 4.190440 -0.228510 
#    z 0.097260 -0.228510 4.354740 
# 
# 
# High freq. dielectric constant tensor:
#      x y z
#    x 1.878450 0.009050 0.012660 
#    y 0.009050 1.895300 -0.013940 
#    z 0.012660 -0.013940 1.912390 
# 
# From -- ./inp_files/213727.got.cif
#   From: 2010.06.25/outbox.cif.g09.slc.cpg/sg2_107_cif.got.tgz:213727.got - 2010.06.27 13:26:56.
