data_PCOD8033025
_publ_section_title
;
Structure prediction by ZEFSAII (Michael W. Deem and Ramdas Pophale) SiO2 
 PCOD8033025
Probable space group: P -1
;
_chemical_formula_sum "Si O2"
_cell_formula_units_Z 16
_cell_length_a 11.683755
_cell_length_b 11.857472
_cell_length_c 8.884021
_cell_angle_alpha 124.110343
_cell_angle_beta 52.748719
_cell_angle_gamma 89.433507
_cell_volume 687.816836
_symmetry_space_group_name_H-M "P -1"
_symmetry_group_IT_number 2
_symmetry_cell_setting 'triclinic'
loop_
_space_group_symop_operation_xyz
x,y,z
-x,-y,-z
loop_
_atom_site_type_symbol
_atom_site_label
_atom_site_fract_x
_atom_site_fract_y
_atom_site_fract_z
Si Si1 0.196124 0.606946 0.548586
Si Si2 0.600343 0.768384 0.883034
Si Si3 0.704593 0.972419 0.506608
Si Si4 0.901868 0.812288 0.751992
Si Si5 0.748043 0.115800 0.280100
Si Si6 0.576997 0.765461 0.547430
Si Si7 0.020307 0.832431 0.349606
Si Si8 0.303946 0.568397 0.753631
O O1 0.332499 0.417814 0.270367
O O2 0.234514 0.741243 0.556459
O O3 0.178112 0.637523 0.763526
O O4 0.020475 0.655090 0.643326
O O5 0.719790 0.828795 0.899435
O O6 0.577686 0.807440 0.753354
O O7 0.414753 0.871361 0.179878
O O8 0.714285 0.030314 0.378332
O O9 0.621877 0.865572 0.476035
O O10 0.886057 0.850737 0.346112
O O11 0.984473 0.779401 0.497332
O O12 0.896431 0.966270 0.951531
O O13 0.604030 0.200594 0.332046
O O14 0.709196 0.576613 0.276862
O O15 0.216800 0.707469 0.051834
O O16 0.000000 0.000000 0.500000
O O17 0.500000 0.500000 0.500000
#
# Coordination Sequence:
#
# PCOD8033025 Si02
#       8
#     2   2   2   2   2   2   2   2
#     4  11  25  45  70 102 141 184 234 293 353 410
#     4  11  25  44  73  99 146 190 230 294 347 418
#     4  12  25  44  68 107 138 188 239 282 352 417
#     4  12  24  47  67 103 146 184 237 286 353 412
#     4  12  24  42  72 101 141 188 235 291 345 418
#     4  11  23  44  71  99 137 185 239 283 346 419
#     4  12  27  43  73 104 141 183 238 290 348 424
#     4  11  25  48  73 101 138 183 230 291 354 416
#
# _framework density 23.262008999999999
#
# number of rings (size 3 to 8) (size 9 to 14) (size 15 to 20)
#    0.000    0.500    3.750    4.500    3.500    2.000 
#    2.250    0.000    0.000    0.000    0.000    0.000 
#    0.000    0.000    0.000    0.000    0.000    0.000 
#
# Total GULP energy -198280.874063 kJ/mol
# GULP energy per Si atom -12392.554629 kJ/mol
# Density = 2.320906 g / cm^3
# Si number density = 23.262009 Si / 1000 Ang^3
#
#
#
# Elastic Constant Matrix: (Units=GPa)
#
#
# Indices 1 2 3 4 5 6 
#
# 1 65.4259 21.2187 19.6676 -1.1565 -0.9013 -13.7794
# 2 21.2187 126.6319 49.4073 3.9683 7.9411 -13.5283
# 3 19.6676 49.4073 150.7675 2.2718 2.7861 2.2139
# 4 -1.1565 3.9683 2.2718 24.1289 4.6877 8.1908
# 5 -0.9013 7.9411 2.7861 4.6877 28.4473 7.1501
# 6 -13.7794 -13.5283 2.2139 8.1908 7.1501 43.7085
#
#
#
# Elastic Compliance Matrix: (Units=1/GPa)
#
#
# Indices 1 2 3 4 5 6 
#
# 1 0.017442 -0.001650 -0.001803 -0.000473 -0.000033 0.005173
# 2 -0.001650 0.010002 -0.003027 -0.002064 -0.003119 0.003626
# 3 -0.001803 -0.003027 0.007877 0.000266 0.000484 -0.002033
# 4 -0.000473 -0.002064 0.000266 0.045577 -0.004825 -0.008553
# 5 -0.000033 -0.003119 0.000484 -0.004825 0.038372 -0.006373
# 6 0.005173 0.003626 -0.002033 -0.008553 -0.006373 0.028380
#
#
# Mechanical properties :
#
#
# Convention : Reuss Voigt Hill
#
# Bulk Modulus (GPa) = 44.71914 58.15693 51.43804
# Shear Modulus (GPa) = 29.75070 36.09241 32.92156
#
# Velocity S-wave (km/s) = 3.58011 3.94326 3.76606
# Velocity P-wave (km/s) = 6.02954 6.76664 6.40870
#
# Compressibility (1/GPa) = 0.02236179
#
# Stress axis : x y z
#
# Youngs Moduli (GPa) = 57.33208 99.97982 126.95491
#
# Poissons Ratio (x) = 0.16493 0.22890
# Poissons Ratio (y) = 0.09458 0.38430
# Poissons Ratio (z) = 0.10337 0.30264
#
# Static dielectric constant tensor:
#      x y z
#    x 4.268050 -0.032400 -0.065540 
#    y -0.032400 4.405900 0.203420 
#    z -0.065540 0.203420 4.371590 
# 
# 
# High freq. dielectric constant tensor:
#      x y z
#    x 1.931760 -0.011890 -0.000480 
#    y -0.011890 1.934160 0.022460 
#    z -0.000480 0.022460 1.906110 
# 
# From -- ./inp_files/262929.got.cif
#   From: 2010.06.25/outbox.cif.g09.slc.cpg/sg2_132_cif.got.tgz:262929.got - 2010.06.27 13:26:56.
