data_PCOD8033478
_publ_section_title
;
Structure prediction by ZEFSAII (Michael W. Deem and Ramdas Pophale) SiO2 
 PCOD8033478
Probable space group: P -1
;
_chemical_formula_sum "Si O2"
_cell_formula_units_Z 16
_cell_length_a 9.159151
_cell_length_b 11.416829
_cell_length_c 8.799466
_cell_angle_alpha 114.815654
_cell_angle_beta 104.688719
_cell_angle_gamma 60.211132
_cell_volume 723.636751
_symmetry_space_group_name_H-M "P -1"
_symmetry_group_IT_number 2
_symmetry_cell_setting 'triclinic'
loop_
_space_group_symop_operation_xyz
x,y,z
-x,-y,-z
loop_
_atom_site_type_symbol
_atom_site_label
_atom_site_fract_x
_atom_site_fract_y
_atom_site_fract_z
Si Si1 0.760946 0.130573 0.764607
Si Si2 0.485621 0.628559 0.962239
Si Si3 0.171234 0.364842 0.019979
Si Si4 0.921913 0.806809 0.602126
Si Si5 0.287713 0.615522 0.618189
Si Si6 0.915834 0.862386 0.275788
Si Si7 0.646994 0.173890 0.433881
Si Si8 0.716882 0.676816 0.635937
O O1 0.636590 0.158787 0.603947
O O2 0.907804 0.174235 0.779356
O O3 0.836820 0.963765 0.741860
O O4 0.653453 0.220846 0.926914
O O5 0.668431 0.623240 0.999693
O O6 0.427764 0.606212 0.769598
O O7 0.500000 0.500000 0.000000
O O8 0.179064 0.356742 0.199570
O O9 0.175051 0.219030 0.878249
O O10 0.000000 0.500000 0.000000
O O11 0.948241 0.814345 0.433192
O O12 0.810783 0.722414 0.555973
O O13 0.100057 0.716727 0.683342
O O14 0.321261 0.687046 0.515182
O O15 0.305097 0.459554 0.502212
O O16 0.798465 0.033038 0.325227
O O17 0.471142 0.193315 0.324069
#
# Coordination Sequence:
#
# PCOD8033478 Si02
#       8
#     2   2   2   2   2   2   2   2
#     4  11  24  47  74 101 139 181 227 283 341 407
#     4  12  29  44  71 104 136 183 230 283 344 407
#     4  12  29  47  68 102 142 180 226 287 348 403
#     4  11  25  45  73 105 135 184 232 275 344 406
#     4  12  24  48  70  98 141 182 234 278 336 412
#     4  11  24  46  74 100 142 180 225 284 342 407
#     4  11  23  46  73  99 137 187 230 275 340 408
#     4  12  28  43  71 102 139 183 230 288 336 408
#
# _framework density 22.110541999999999
#
# number of rings (size 3 to 8) (size 9 to 14) (size 15 to 20)
#    0.000    0.500    3.750    3.750   10.500    3.000 
#    0.000    0.000    0.000    0.000    0.000    0.000 
#    0.000    0.000    0.000    0.000    0.000    0.000 
#
# Total GULP energy -198482.364301 kJ/mol
# GULP energy per Si atom -12405.147769 kJ/mol
# Density = 2.206022 g / cm^3
# Si number density = 22.110542 Si / 1000 Ang^3
#
#
#
# Elastic Constant Matrix: (Units=GPa)
#
#
# Indices 1 2 3 4 5 6 
#
# 1 155.7548 59.3706 32.9760 0.9265 11.0416 -3.9951
# 2 59.3706 102.9337 40.2219 0.8490 5.3681 -6.6560
# 3 32.9760 40.2219 106.5145 11.7907 15.3240 -5.6667
# 4 0.9265 0.8490 11.7907 31.1875 -2.5004 10.0388
# 5 11.0416 5.3681 15.3240 -2.5004 37.0528 0.0471
# 6 -3.9951 -6.6560 -5.6667 10.0388 0.0471 41.8841
#
#
#
# Elastic Compliance Matrix: (Units=1/GPa)
#
#
# Indices 1 2 3 4 5 6 
#
# 1 0.008387 -0.004492 -0.000675 0.000004 -0.001569 -0.000004
# 2 -0.004492 0.013898 -0.004080 0.001072 0.001084 0.000970
# 3 -0.000675 -0.004080 0.012597 -0.005784 -0.004811 0.002383
# 4 0.000004 0.001072 -0.005784 0.037714 0.004793 -0.009656
# 5 -0.001569 0.001084 -0.004811 0.004793 0.029614 -0.001810
# 6 -0.000004 0.000970 0.002383 -0.009656 -0.001810 0.026668
#
#
# Mechanical properties :
#
#
# Convention : Reuss Voigt Hill
#
# Bulk Modulus (GPa) = 61.02490 70.03777 65.53134
# Shear Modulus (GPa) = 32.71490 37.53386 35.12438
#
# Velocity S-wave (km/s) = 3.85074 4.12461 3.99002
# Velocity P-wave (km/s) = 6.88700 7.37754 7.13649
#
# Compressibility (1/GPa) = 0.01638675
#
# Stress axis : x y z
#
# Youngs Moduli (GPa) = 119.23761 71.95455 79.38093
#
# Poissons Ratio (x) = 0.32322 0.05359
# Poissons Ratio (y) = 0.53561 0.32391
# Poissons Ratio (z) = 0.08050 0.29360
#
# Static dielectric constant tensor:
#      x y z
#    x 4.194900 -0.114520 0.112610 
#    y -0.114520 4.349750 -0.019780 
#    z 0.112610 -0.019780 3.885240 
# 
# 
# High freq. dielectric constant tensor:
#      x y z
#    x 1.886690 -0.005730 0.007350 
#    y -0.005730 1.889010 0.000300 
#    z 0.007350 0.000300 1.856930 
# 
# From -- ./inp_files/184936.got.cif
#   From: 2010.06.25/outbox.cif.g09.slc.cpg/sg2_93_cif.got.tgz:184936.got - 2010.06.27 13:26:56.
