data_PCOD8033843
_publ_section_title
;
Structure prediction by ZEFSAII (Michael W. Deem and Ramdas Pophale) SiO2 
 PCOD8033843
Probable space group: P -1
;
_chemical_formula_sum "Si O2"
_cell_formula_units_Z 16
_cell_length_a 8.407211
_cell_length_b 14.200397
_cell_length_c 6.289315
_cell_angle_alpha 89.669001
_cell_angle_beta 73.037196
_cell_angle_gamma 75.666941
_cell_volume 694.042049
_symmetry_space_group_name_H-M "P -1"
_symmetry_group_IT_number 2
_symmetry_cell_setting 'triclinic'
loop_
_space_group_symop_operation_xyz
x,y,z
-x,-y,-z
loop_
_atom_site_type_symbol
_atom_site_label
_atom_site_fract_x
_atom_site_fract_y
_atom_site_fract_z
Si Si1 0.708774 0.262218 0.782955
Si Si2 0.802343 0.807467 0.954843
Si Si3 0.091249 0.491429 0.688421
Si Si4 0.532179 0.758738 0.785830
Si Si5 0.086359 0.638067 0.002763
Si Si6 0.468695 0.394199 0.526861
Si Si7 0.033366 0.105781 0.472090
Si Si8 0.375204 0.103910 0.580069
O O1 0.766065 0.338173 0.914119
O O2 0.575372 0.328010 0.670826
O O3 0.861568 0.187873 0.600290
O O4 0.612051 0.201131 0.976561
O O5 0.719668 0.746782 0.818713
O O6 0.908041 0.874016 0.789623
O O7 0.648844 0.871930 0.159955
O O8 0.930816 0.734144 0.059731
O O9 0.266095 0.406072 0.640748
O O10 0.000000 0.500000 0.500000
O O11 0.953147 0.457542 0.884342
O O12 0.131294 0.595848 0.743269
O O13 0.495698 0.658766 0.715537
O O14 0.524501 0.827333 0.582176
O O15 0.500000 0.500000 0.500000
O O16 0.185339 0.109997 0.571080
O O17 0.000000 0.000000 0.500000
O O18 0.500000 0.000000 0.500000
#
# Coordination Sequence:
#
# PCOD8033843 Si02
#       8
#     2   2   2   2   2   2   2   2
#     4  12  27  45  72 107 151 186 243 297 366 429
#     4  11  25  48  74 103 146 190 243 291 363 437
#     4  11  24  42  71 100 145 188 247 294 355 424
#     4  11  26  45  73 104 147 192 242 297 362 427
#     4  11  24  42  69 104 138 192 238 298 356 427
#     4  12  27  44  70 105 150 196 241 302 359 429
#     4  11  29  46  75 108 145 189 236 301 366 434
#     4  11  26  47  77 107 143 190 242 299 366 437
#
# _framework density 23.053360000000001
#
# number of rings (size 3 to 8) (size 9 to 14) (size 15 to 20)
#    0.000    0.750    1.250    4.500   12.250    5.500 
#    0.000    0.000    0.000    0.000    0.000    0.000 
#    0.000    0.000    0.000    0.000    0.000    0.000 
#
# Total GULP energy -198292.347201 kJ/mol
# GULP energy per Si atom -12393.271700 kJ/mol
# Density = 2.300089 g / cm^3
# Si number density = 23.053360 Si / 1000 Ang^3
#
#
#
# Elastic Constant Matrix: (Units=GPa)
#
#
# Indices 1 2 3 4 5 6 
#
# 1 133.7761 58.2098 60.7058 5.3609 13.4638 -9.5170
# 2 58.2098 128.6959 71.3753 2.8612 2.5326 3.3229
# 3 60.7058 71.3753 157.5716 0.6568 -8.7133 -0.0063
# 4 5.3609 2.8612 0.6568 38.2209 7.7720 -9.7554
# 5 13.4638 2.5326 -8.7133 7.7720 44.6564 4.4588
# 6 -9.5170 3.3229 -0.0063 -9.7554 4.4588 41.7472
#
#
#
# Elastic Compliance Matrix: (Units=1/GPa)
#
#
# Indices 1 2 3 4 5 6 
#
# 1 0.010861 -0.003313 -0.002910 0.000435 -0.004057 0.003274
# 2 -0.003313 0.011525 -0.003946 -0.000780 -0.000105 -0.001844
# 3 -0.002910 -0.003946 0.009425 -0.000269 0.003061 -0.000737
# 4 0.000435 -0.000780 -0.000269 0.029343 -0.006011 0.007660
# 5 -0.004057 -0.000105 0.003061 -0.006011 0.025772 -0.005073
# 6 0.003274 -0.001844 -0.000737 0.007660 -0.005073 0.027179
#
#
# Mechanical properties :
#
#
# Convention : Reuss Voigt Hill
#
# Bulk Modulus (GPa) = 87.16626 88.95838 88.06232
# Shear Modulus (GPa) = 36.16184 40.24175 38.20180
#
# Velocity S-wave (km/s) = 3.96487 4.18256 4.07517
# Velocity P-wave (km/s) = 7.67157 7.87381 7.77335
#
# Compressibility (1/GPa) = 0.01147233
#
# Stress axis : x y z
#
# Youngs Moduli (GPa) = 92.07293 86.77101 106.09851
#
# Poissons Ratio (x) = 0.28749 0.30869
# Poissons Ratio (y) = 0.30506 0.41872
# Poissons Ratio (z) = 0.26789 0.34244
#
# Static dielectric constant tensor:
#      x y z
#    x 4.794960 0.215640 1.052050 
#    y 0.215640 3.946180 -0.059330 
#    z 1.052050 -0.059330 6.153250 
# 
# 
# High freq. dielectric constant tensor:
#      x y z
#    x 1.926270 0.011290 0.002830 
#    y 0.011290 1.900310 0.003300 
#    z 0.002830 0.003300 1.927660 
# 
# From -- ./inp_files/39178.got.cif
#   From: 2010.06.25/outbox.cif.g09.slc.cpg/sg2_20_cif.got.tgz:39178.got - 2010.06.27 13:26:56.
