data_PCOD8033385
_publ_section_title
;
Structure prediction by ZEFSAII (Michael W. Deem and Ramdas Pophale) SiO2 
 PCOD8033385
Probable space group: P -1
;
_chemical_formula_sum "Si O2"
_cell_formula_units_Z 16
_cell_length_a 13.923637
_cell_length_b 13.610386
_cell_length_c 8.212349
_cell_angle_alpha 94.646648
_cell_angle_beta 31.211393
_cell_angle_gamma 80.684719
_cell_volume 718.821800
_symmetry_space_group_name_H-M "P -1"
_symmetry_group_IT_number 2
_symmetry_cell_setting 'triclinic'
loop_
_space_group_symop_operation_xyz
x,y,z
-x,-y,-z
loop_
_atom_site_type_symbol
_atom_site_label
_atom_site_fract_x
_atom_site_fract_y
_atom_site_fract_z
Si Si1 0.677481 0.990043 0.864242
Si Si2 0.983697 0.779201 0.561396
Si Si3 0.426299 0.525837 0.289848
Si Si4 0.012684 0.726259 0.895275
Si Si5 0.264310 0.390615 0.695570
Si Si6 0.669079 0.179709 0.104786
Si Si7 0.863998 0.460372 0.800097
Si Si8 0.008829 0.919873 0.116868
O O1 0.766643 0.878415 0.829392
O O2 0.859611 0.989495 0.487716
O O3 0.500000 0.000000 0.000000
O O4 0.596302 0.094586 0.116481
O O5 0.971091 0.757816 0.768684
O O6 0.021550 0.671718 0.386758
O O7 0.174433 0.805929 0.247706
O O8 0.256098 0.652445 0.565261
O O9 0.327088 0.442396 0.458534
O O10 0.500000 0.500000 0.000000
O O11 0.622786 0.506962 0.110639
O O12 0.891751 0.659883 0.128179
O O13 0.938494 0.833169 0.130262
O O14 0.473576 0.293186 0.448710
O O15 0.142996 0.493046 0.004854
O O16 0.765325 0.137320 0.137222
O O17 0.000000 0.500000 0.500000
O O18 0.000000 0.000000 0.000000
#
# Coordination Sequence:
#
# PCOD8033385 Si02
#       8
#     2   2   2   2   2   2   2   2
#     4  11  25  46  70 100 130 180 234 289 351 412
#     4  11  23  46  68  95 146 182 226 291 347 409
#     4  12  24  44  66 101 141 183 231 282 348 414
#     4  12  24  43  66 109 139 183 234 286 346 417
#     4  12  25  42  70 101 142 187 229 289 343 418
#     4  11  23  46  70  98 135 185 230 286 354 410
#     4  12  24  46  68 103 141 184 234 281 349 413
#     4  11  24  43  70  98 134 180 234 289 349 413
#
# _framework density 22.258645999999999
#
# number of rings (size 3 to 8) (size 9 to 14) (size 15 to 20)
#    0.000    0.500    3.750    5.250    3.500    1.000 
#    9.000    2.500    0.000    0.000    0.000    0.000 
#    0.000    0.000    0.000    0.000    0.000    0.000 
#
# Total GULP energy -198392.149940 kJ/mol
# GULP energy per Si atom -12399.509371 kJ/mol
# Density = 2.220798 g / cm^3
# Si number density = 22.258646 Si / 1000 Ang^3
#
#
#
# Elastic Constant Matrix: (Units=GPa)
#
#
# Indices 1 2 3 4 5 6 
#
# 1 98.1091 62.0410 25.1690 -1.5452 3.3834 8.1277
# 2 62.0410 139.6843 39.0142 -0.8849 6.6916 4.6434
# 3 25.1690 39.0142 78.8278 -4.7958 2.4113 -6.5505
# 4 -1.5452 -0.8849 -4.7958 45.2945 -0.5341 1.8471
# 5 3.3834 6.6916 2.4113 -0.5341 42.6815 6.1751
# 6 8.1277 4.6434 -6.5505 1.8471 6.1751 48.5788
#
#
#
# Elastic Compliance Matrix: (Units=1/GPa)
#
#
# Indices 1 2 3 4 5 6 
#
# 1 0.014577 -0.005874 -0.001917 0.000270 0.000191 -0.002170
# 2 -0.005874 0.010801 -0.003494 -0.000355 -0.000979 -0.000383
# 3 -0.001917 -0.003494 0.015355 0.001374 -0.000547 0.002743
# 4 0.000270 -0.000355 0.001374 0.022259 0.000339 -0.000715
# 5 0.000191 -0.000979 -0.000547 0.000339 0.024049 -0.003082
# 6 -0.002170 -0.000383 0.002743 -0.000715 -0.003082 0.021774
#
#
# Mechanical properties :
#
#
# Convention : Reuss Voigt Hill
#
# Bulk Modulus (GPa) = 55.05409 63.22994 59.14202
# Shear Modulus (GPa) = 36.38013 40.00410 38.19211
#
# Velocity S-wave (km/s) = 4.04719 4.24398 4.14675
# Velocity P-wave (km/s) = 6.82841 7.24457 7.03956
#
# Compressibility (1/GPa) = 0.01816396
#
# Stress axis : x y z
#
# Youngs Moduli (GPa) = 68.60348 92.58212 65.12448
#
# Poissons Ratio (x) = 0.54384 0.12482
# Poissons Ratio (y) = 0.40299 0.22753
# Poissons Ratio (z) = 0.13149 0.32346
#
# Static dielectric constant tensor:
#      x y z
#    x 4.077810 -0.052840 -0.004680 
#    y -0.052840 4.324170 0.220960 
#    z -0.004680 0.220960 4.227700 
# 
# 
# High freq. dielectric constant tensor:
#      x y z
#    x 1.880230 -0.002260 0.000560 
#    y -0.002260 1.889980 0.008960 
#    z 0.000560 0.008960 1.881380 
# 
# From -- ./inp_files/271363.got.cif
#   From: 2010.06.25/outbox.cif.g09.slc.cpg/sg2_136_cif.got.tgz:271363.got - 2010.06.27 13:26:56.
