data_PCOD8033012
_publ_section_title
;
Structure prediction by ZEFSAII (Michael W. Deem and Ramdas Pophale) SiO2 
 PCOD8033012
Probable space group: P -1
;
_chemical_formula_sum "Si O2"
_cell_formula_units_Z 14
_cell_length_a 13.296809
_cell_length_b 8.361192
_cell_length_c 18.486068
_cell_angle_alpha 40.810736
_cell_angle_beta 153.722711
_cell_angle_gamma 129.741218
_cell_volume 589.143360
_symmetry_space_group_name_H-M "P -1"
_symmetry_group_IT_number 2
_symmetry_cell_setting 'triclinic'
loop_
_space_group_symop_operation_xyz
x,y,z
-x,-y,-z
loop_
_atom_site_type_symbol
_atom_site_label
_atom_site_fract_x
_atom_site_fract_y
_atom_site_fract_z
Si Si1 0.754670 0.124818 0.820560
Si Si2 0.174996 0.262462 0.715455
Si Si3 0.048460 0.389902 0.213236
Si Si4 0.446418 0.555950 0.178029
Si Si5 0.860312 0.116860 0.302575
Si Si6 0.384019 0.027495 0.064155
Si Si7 0.409409 0.989982 0.525194
O O1 0.770947 0.414603 0.743744
O O2 0.687571 0.973923 0.898574
O O3 0.576115 0.096555 0.652527
O O4 0.000000 0.000000 0.000000
O O5 0.441152 0.308535 0.861687
O O6 0.121081 0.054195 0.697291
O O7 0.000000 0.500000 0.500000
O O8 0.174627 0.160938 0.832788
O O9 0.160497 0.145537 0.325197
O O10 0.981377 0.344684 0.270154
O O11 0.811729 0.495327 0.984801
O O12 0.453761 0.736917 0.189344
O O13 0.612098 0.298074 0.380554
O O14 0.600802 0.178817 0.142968
O O15 0.000000 0.000000 0.500000
O O16 0.500000 0.000000 0.500000
#
# Coordination Sequence:
#
# PCOD8033012 Si02
#       7
#     2   2   2   2   2   2   2
#     4  12  28  46  70 106 144 188 239 296 360 420
#     4  11  23  44  71 106 143 187 237 292 358 428
#     4  12  24  48  74 104 149 182 239 300 350 424
#     4  11  23  45  74 107 137 189 237 290 362 418
#     4  11  23  44  72 103 138 185 236 294 357 418
#     4  11  24  47  72 101 148 186 237 297 354 430
#     4  12  28  46  72 106 144 191 241 289 362 433
#
# _framework density 23.763314999999999
#
# number of rings (size 3 to 8) (size 9 to 14) (size 15 to 20)
#    0.000    0.571    4.286    3.857    2.000    4.571 
#    0.000    2.143    0.000    0.000    0.000    0.000 
#    0.000    0.000    0.000    0.000    0.000    0.000 
#
# Total GULP energy -173511.442545 kJ/mol
# GULP energy per Si atom -12393.674468 kJ/mol
# Density = 2.370923 g / cm^3
# Si number density = 23.763315 Si / 1000 Ang^3
#
#
#
# Elastic Constant Matrix: (Units=GPa)
#
#
# Indices 1 2 3 4 5 6 
#
# 1 171.0862 32.2297 48.7651 7.3953 -20.4753 20.5025
# 2 32.2297 70.0516 28.2873 -2.9940 -6.2933 13.5094
# 3 48.7651 28.2873 104.8334 -8.5921 -8.6568 -6.1507
# 4 7.3953 -2.9940 -8.5921 43.0061 -7.0563 1.7995
# 5 -20.4753 -6.2933 -8.6568 -7.0563 46.3026 -1.7209
# 6 20.5025 13.5094 -6.1507 1.7995 -1.7209 32.3296
#
#
#
# Elastic Compliance Matrix: (Units=1/GPa)
#
#
# Indices 1 2 3 4 5 6 
#
# 1 0.008067 -0.001084 -0.003706 -0.001612 0.002290 -0.005156
# 2 -0.001084 0.018341 -0.004743 0.001007 0.000987 -0.007883
# 3 -0.003706 -0.004743 0.013241 0.002813 0.000871 0.006741
# 4 -0.001612 0.001007 0.002813 0.024775 0.003724 -0.000045
# 5 0.002290 0.000987 0.000871 0.003724 0.023450 -0.000658
# 6 -0.005156 -0.007883 0.006741 -0.000045 -0.000658 0.038745
#
#
# Mechanical properties :
#
#
# Convention : Reuss Voigt Hill
#
# Bulk Modulus (GPa) = 48.58297 62.72615 55.65456
# Shear Modulus (GPa) = 32.77724 40.10694 36.44209
#
# Velocity S-wave (km/s) = 3.71795 4.11270 3.92030
# Velocity P-wave (km/s) = 6.23857 7.00042 6.63045
#
# Compressibility (1/GPa) = 0.02058335
#
# Stress axis : x y z
#
# Youngs Moduli (GPa) = 123.96114 54.52226 75.52574
#
# Poissons Ratio (x) = 0.05910 0.27986
# Poissons Ratio (y) = 0.13437 0.35823
# Poissons Ratio (z) = 0.45934 0.25861
#
# Static dielectric constant tensor:
#      x y z
#    x 4.393740 0.505430 -0.001440 
#    y 0.505430 5.043900 0.151160 
#    z -0.001440 0.151160 3.203270 
# 
# 
# High freq. dielectric constant tensor:
#      x y z
#    x 1.941750 0.018310 0.002830 
#    y 0.018310 1.948070 0.000870 
#    z 0.002830 0.000870 1.948140 
# 
# From -- ./inp_files/221753.got.cif
#   From: 2010.06.25/outbox.cif.g09.slc.cpg/sg2_111_cif.got.tgz:221753.got - 2010.06.27 13:26:56.
