data_PCOD8033725
_publ_section_title
;
Structure prediction by ZEFSAII (Michael W. Deem and Ramdas Pophale) SiO2 
 PCOD8033725
Probable space group: P -1
;
_chemical_formula_sum "Si O2"
_cell_formula_units_Z 16
_cell_length_a 25.698381
_cell_length_b 25.578798
_cell_length_c 8.640083
_cell_angle_alpha 139.237256
_cell_angle_beta 40.776080
_cell_angle_gamma 168.661975
_cell_volume 724.280714
_symmetry_space_group_name_H-M "P -1"
_symmetry_group_IT_number 2
_symmetry_cell_setting 'triclinic'
loop_
_space_group_symop_operation_xyz
x,y,z
-x,-y,-z
loop_
_atom_site_type_symbol
_atom_site_label
_atom_site_fract_x
_atom_site_fract_y
_atom_site_fract_z
Si Si1 0.293969 0.058453 0.581714
Si Si2 0.225585 0.770143 0.667777
Si Si3 0.679364 0.706327 0.247758
Si Si4 0.823815 0.521752 0.588905
Si Si5 0.022633 0.300918 0.014751
Si Si6 0.426556 0.215284 0.288889
Si Si7 0.742587 0.260729 0.142808
Si Si8 0.215659 0.162936 0.046324
O O1 0.575324 0.328354 0.640199
O O2 0.342500 0.095825 0.373642
O O3 0.164334 0.019003 0.829037
O O4 0.090618 0.792467 0.492701
O O5 0.238064 0.779361 0.845180
O O6 0.000000 0.500000 0.500000
O O7 0.500000 0.000000 0.500000
O O8 0.158319 0.795009 0.825004
O O9 0.545182 0.662314 0.491305
O O10 0.482645 0.447415 0.171890
O O11 0.741827 0.757868 0.040732
O O12 0.968229 0.965998 0.254491
O O13 0.730767 0.340662 0.406291
O O14 0.884771 0.615295 0.829681
O O15 0.289156 0.551006 0.871690
O O16 0.812178 0.028775 0.842687
O O17 0.000000 0.500000 0.000000
O O18 0.500000 0.000000 0.000000
#
# Coordination Sequence:
#
# PCOD8033725 Si02
#       8
#     2   2   2   2   2   2   2   2
#     4  11  24  41  68 100 133 167 223 269 324 382
#     4  12  26  48  70  94 127 174 223 259 316 400
#     4   9  17  33  60  92 129 160 214 266 317 368
#     4  12  26  45  65  94 136 177 207 264 335 398
#     4  12  26  44  68  92 134 178 213 265 327 390
#     4  11  24  41  67 102 128 170 222 275 315 377
#     4  12  28  46  70  99 129 167 214 277 328 375
#     4   9  17  33  60  93 126 168 205 267 321 372
#
# _framework density 22.090882000000001
#
# number of rings (size 3 to 8) (size 9 to 14) (size 15 to 20)
#    0.000    1.000    1.250    5.250    7.000    4.000 
#    0.000    0.000    0.000   15.000    0.000    0.000 
#    0.000    0.000    0.000    0.000    0.000    0.000 
#
# Total GULP energy -198366.015007 kJ/mol
# GULP energy per Si atom -12397.875938 kJ/mol
# Density = 2.204060 g / cm^3
# Si number density = 22.090882 Si / 1000 Ang^3
#
#
#
# Elastic Constant Matrix: (Units=GPa)
#
#
# Indices 1 2 3 4 5 6 
#
# 1 37.6728 16.9904 20.0651 0.6554 14.4539 13.6846
# 2 16.9904 174.9222 49.6921 1.4215 6.6395 17.4613
# 3 20.0651 49.6921 80.6279 -8.1243 4.3826 5.0909
# 4 0.6554 1.4215 -8.1243 49.5869 4.6470 -3.7428
# 5 14.4539 6.6395 4.3826 4.6470 31.9287 4.7178
# 6 13.6846 17.4613 5.0909 -3.7428 4.7178 36.1581
#
#
#
# Elastic Compliance Matrix: (Units=1/GPa)
#
#
# Indices 1 2 3 4 5 6 
#
# 1 0.041999 0.000436 -0.009210 -0.001581 -0.015699 -0.012924
# 2 0.000436 0.007289 -0.004494 -0.001141 -0.000471 -0.003109
# 3 -0.009210 -0.004494 0.017483 0.003200 0.001751 0.003297
# 4 -0.001581 -0.001141 0.003200 0.021282 -0.003072 0.003303
# 5 -0.015699 -0.000471 0.001751 -0.003072 0.038648 0.000562
# 6 -0.012924 -0.003109 0.003297 0.003303 0.000562 0.033853
#
#
# Mechanical properties :
#
#
# Convention : Reuss Voigt Hill
#
# Bulk Modulus (GPa) = 24.85433 51.85755 38.35594
# Shear Modulus (GPa) = 24.93747 37.29975 31.11861
#
# Velocity S-wave (km/s) = 3.36349 4.11356 3.75729
# Velocity P-wave (km/s) = 5.13415 6.78877 6.01859
#
# Compressibility (1/GPa) = 0.04023443
#
# Stress axis : x y z
#
# Youngs Moduli (GPa) = 23.81019 137.20220 57.19744
#
# Poissons Ratio (x) = -0.05982 0.52681
# Poissons Ratio (y) = -0.01038 0.25702
# Poissons Ratio (z) = 0.21930 0.61654
#
# Static dielectric constant tensor:
#      x y z
#    x 4.516470 -0.250070 -0.999980 
#    y -0.250070 4.581050 0.685130 
#    z -0.999980 0.685130 5.610120 
# 
# 
# High freq. dielectric constant tensor:
#      x y z
#    x 1.851050 0.007690 -0.010340 
#    y 0.007690 1.897350 0.004370 
#    z -0.010340 0.004370 1.869360 
# 
# From -- ./inp_files/358014.got.cif
#   From: 2010.06.25/outbox.cif.g09.slc.cpg/sg2_180_cif.got.tgz:358014.got - 2010.06.27 13:26:56.
