data_PCOD8033214
_publ_section_title
;
Structure prediction by ZEFSAII (Michael W. Deem and Ramdas Pophale) SiO2 
 PCOD8033214
Probable space group: P -1
;
_chemical_formula_sum "Si O2"
_cell_formula_units_Z 16
_cell_length_a 9.180605
_cell_length_b 14.812733
_cell_length_c 7.975605
_cell_angle_alpha 134.619530
_cell_angle_beta 113.136604
_cell_angle_gamma 77.862656
_cell_volume 706.323975
_symmetry_space_group_name_H-M "P -1"
_symmetry_group_IT_number 2
_symmetry_cell_setting 'triclinic'
loop_
_space_group_symop_operation_xyz
x,y,z
-x,-y,-z
loop_
_atom_site_type_symbol
_atom_site_label
_atom_site_fract_x
_atom_site_fract_y
_atom_site_fract_z
Si Si1 0.163477 0.695656 0.369623
Si Si2 0.168405 0.622795 0.908939
Si Si3 0.709458 0.945696 0.617129
Si Si4 0.525004 0.357011 0.388137
Si Si5 0.040011 0.347931 0.457973
Si Si6 0.436580 0.794322 0.124347
Si Si7 0.053692 0.967416 0.663995
Si Si8 0.734236 0.823599 0.787354
O O1 0.336616 0.647446 0.417021
O O2 0.158185 0.847731 0.563714
O O3 0.055219 0.636358 0.394087
O O4 0.100039 0.641984 0.090151
O O5 0.158917 0.475940 0.660171
O O6 0.067691 0.685367 0.799715
O O7 0.351485 0.686228 0.068882
O O8 0.618722 0.839334 0.314567
O O9 0.645612 0.912003 0.734155
O O10 0.899465 0.945880 0.684922
O O11 0.665486 0.086549 0.745424
O O12 0.500000 0.500000 0.500000
O O13 0.365557 0.292548 0.316835
O O14 0.570536 0.265796 0.140770
O O15 0.148424 0.233560 0.368211
O O16 0.000000 0.000000 0.500000
O O17 0.172631 0.089408 0.920664
#
# Coordination Sequence:
#
# PCOD8033214 Si02
#       8
#     2   2   2   2   2   2   2   2
#     4  12  25  47  74 104 146 190 239 294 361 424
#     4  11  24  43  72 103 137 193 237 287 355 423
#     4  11  24  42  70 102 138 186 233 296 363 421
#     4  12  28  47  70 104 146 192 241 291 355 426
#     4  11  24  45  72 101 145 186 237 298 349 422
#     4  11  23  45  69  99 148 183 233 298 358 420
#     4  12  25  44  73 108 142 182 241 296 357 432
#     4  12  25  43  70 102 143 184 237 296 358 425
#
# _framework density 22.652493
#
# number of rings (size 3 to 8) (size 9 to 14) (size 15 to 20)
#    0.000    0.500    2.500    6.000    1.750    5.000 
#    2.250    2.500    0.000    0.000    0.000    0.000 
#    0.000    0.000    0.000    0.000    0.000    0.000 
#
# Total GULP energy -198344.973039 kJ/mol
# GULP energy per Si atom -12396.560815 kJ/mol
# Density = 2.260094 g / cm^3
# Si number density = 22.652493 Si / 1000 Ang^3
#
#
#
# Elastic Constant Matrix: (Units=GPa)
#
#
# Indices 1 2 3 4 5 6 
#
# 1 76.3492 45.1772 44.6952 -0.2821 7.3142 0.4041
# 2 45.1772 119.6154 31.7496 -1.8521 10.3362 20.0184
# 3 44.6952 31.7496 105.9443 -2.8162 9.5688 16.9987
# 4 -0.2821 -1.8521 -2.8162 41.0812 12.7811 -9.3647
# 5 7.3142 10.3362 9.5688 12.7811 35.4611 1.8027
# 6 0.4041 20.0184 16.9987 -9.3647 1.8027 31.9178
#
#
#
# Elastic Compliance Matrix: (Units=1/GPa)
#
#
# Indices 1 2 3 4 5 6 
#
# 1 0.022953 -0.007869 -0.008755 0.001854 -0.001251 0.009922
# 2 -0.007869 0.012609 0.001028 -0.000864 -0.001585 -0.008520
# 3 -0.008755 0.001028 0.014285 -0.000323 -0.001819 -0.008134
# 4 0.001854 -0.000864 -0.000323 0.030175 -0.011437 0.010190
# 5 -0.001251 -0.001585 -0.001819 -0.011437 0.033700 -0.003280
# 6 0.009922 -0.008520 -0.008134 0.010190 -0.003280 0.044055
#
#
# Mechanical properties :
#
#
# Convention : Reuss Voigt Hill
#
# Bulk Modulus (GPa) = 53.60269 60.57256 57.08763
# Shear Modulus (GPa) = 25.61655 33.71117 29.66386
#
# Velocity S-wave (km/s) = 3.36646 3.86189 3.62265
# Velocity P-wave (km/s) = 6.23098 6.83254 6.53868
#
# Compressibility (1/GPa) = 0.01865578
#
# Stress axis : x y z
#
# Youngs Moduli (GPa) = 43.56674 79.31048 70.00362
#
# Poissons Ratio (x) = 0.62410 0.61288
# Poissons Ratio (y) = 0.34283 -0.07199
# Poissons Ratio (z) = 0.38142 -0.08156
#
# Static dielectric constant tensor:
#      x y z
#    x 4.247430 0.015950 0.441060 
#    y 0.015950 4.205620 -0.127640 
#    z 0.441060 -0.127640 4.721230 
# 
# 
# High freq. dielectric constant tensor:
#      x y z
#    x 1.884380 0.013290 0.003120 
#    y 0.013290 1.908070 0.003350 
#    z 0.003120 0.003350 1.905680 
# 
# From -- ./inp_files/209553.got.cif
#   From: 2010.06.25/outbox.cif.g09.slc.cpg/sg2_105_cif.got.tgz:209553.got - 2010.06.27 13:26:56.
