data_PCOD8033901
_publ_section_title
;
Structure prediction by ZEFSAII (Michael W. Deem and Ramdas Pophale) SiO2 
 PCOD8033901
Probable space group: P -1
;
_chemical_formula_sum "Si O2"
_cell_formula_units_Z 12
_cell_length_a 11.732696
_cell_length_b 9.237673
_cell_length_c 5.985392
_cell_angle_alpha 68.830501
_cell_angle_beta 121.379722
_cell_angle_gamma 100.683564
_cell_volume 516.452178
_symmetry_space_group_name_H-M "P -1"
_symmetry_group_IT_number 2
_symmetry_cell_setting 'triclinic'
loop_
_space_group_symop_operation_xyz
x,y,z
-x,-y,-z
loop_
_atom_site_type_symbol
_atom_site_label
_atom_site_fract_x
_atom_site_fract_y
_atom_site_fract_z
Si Si1 0.322430 0.745631 0.067622
Si Si2 0.402817 0.331080 0.708630
Si Si3 0.609200 0.941773 0.820615
Si Si4 0.243493 0.544609 0.725476
Si Si5 0.793012 0.745920 0.833763
Si Si6 0.934583 0.362852 0.873164
O O1 0.460793 0.647276 0.309407
O O2 0.203959 0.696052 0.135937
O O3 0.350061 0.926366 0.034587
O O4 0.284294 0.707370 0.792766
O O5 0.357712 0.489523 0.696885
O O6 0.281724 0.266972 0.471836
O O7 0.442942 0.202393 0.007696
O O8 0.739346 0.889716 0.842374
O O9 0.500000 0.000000 0.500000
O O10 0.102247 0.573146 0.444933
O O11 0.225458 0.417394 0.969242
O O12 0.952223 0.772196 0.946436
O O13 0.000000 0.500000 0.000000
#
# Coordination Sequence:
#
# PCOD8033901 Si02
#       6
#     2   2   2   2   2   2
#     4  12  26  41  72 104 134 182 226 275 347 398
#     4  11  24  45  71 101 136 175 230 285 335 398
#     4  11  26  46  71  99 139 180 224 283 339 401
#     4  11  24  42  73 100 138 173 232 278 336 393
#     4  11  24  46  72  98 139 182 225 277 341 399
#     4  12  25  45  69 102 141 179 223 281 338 404
#
# _framework density 23.235451000000001
#
# number of rings (size 3 to 8) (size 9 to 14) (size 15 to 20)
#    0.000    0.667    5.000    1.500    2.333    3.333 
#    0.000    1.667    0.000    0.000    0.000    0.000 
#    0.000    0.000    0.000    0.000    0.000    0.000 
#
# Total GULP energy -148758.002408 kJ/mol
# GULP energy per Si atom -12396.500201 kJ/mol
# Density = 2.318257 g / cm^3
# Si number density = 23.235451 Si / 1000 Ang^3
#
#
#
# Elastic Constant Matrix: (Units=GPa)
#
#
# Indices 1 2 3 4 5 6 
#
# 1 177.0808 37.8063 46.2505 -3.2414 29.0902 -24.0014
# 2 37.8063 118.0213 43.2261 40.5806 13.2095 -33.0191
# 3 46.2505 43.2261 152.1050 14.3675 28.1565 -10.8683
# 4 -3.2414 40.5806 14.3675 23.9145 -8.8982 -2.8018
# 5 29.0902 13.2095 28.1565 -8.8982 34.7507 1.2583
# 6 -24.0014 -33.0191 -10.8683 -2.8018 1.2583 44.2946
#
#
#
# Elastic Compliance Matrix: (Units=1/GPa)
#
#
# Indices 1 2 3 4 5 6 
#
# 1 0.007805 -0.014655 -0.003389 0.030970 0.009925 -0.005850
# 2 -0.014655 0.447538 0.075527 -0.947721 -0.472495 0.297680
# 3 -0.003389 0.075527 0.022316 -0.169128 -0.089135 0.051774
# 4 0.030970 -0.947721 -0.169128 2.062391 1.022252 -0.629774
# 5 0.009925 -0.472495 -0.089135 1.022252 0.545620 -0.319549
# 6 -0.005850 0.297680 0.051774 -0.629774 -0.319549 0.223255
#
#
# Mechanical properties :
#
#
# Convention : Reuss Voigt Hill
#
# Bulk Modulus (GPa) = 1.68741 77.97477 39.83109
# Shear Modulus (GPa) = 1.47427 41.92027 21.69727
#
# Velocity S-wave (km/s) = 0.79742 4.25214 3.05913
# Velocity P-wave (km/s) = 1.25524 7.59862 5.44585
#
# Compressibility (1/GPa) = 0.59262359
#
# Stress axis : x y z
#
# Youngs Moduli (GPa) = 128.12898 2.23445 44.81064
#
# Poissons Ratio (x) = 0.03275 0.15186
# Poissons Ratio (y) = 1.87777 -3.38441
# Poissons Ratio (z) = 0.43423 -0.16876
#
# Static dielectric constant tensor:
#      x y z
#    x 5.001300 -0.461770 0.272140 
#    y -0.461770 4.135110 0.100030 
#    z 0.272140 0.100030 4.340450 
# 
# 
# High freq. dielectric constant tensor:
#      x y z
#    x 1.935410 -0.025640 0.007840 
#    y -0.025640 1.901300 0.015670 
#    z 0.007840 0.015670 1.924230 
# 
# From -- ./inp_files/17740.got.cif
#   From: 2010.06.25/outbox.cif.g09.slc.cpg/sg2_9_cif.got.tgz:17740.got - 2010.06.27 13:26:56.
