data_PCOD8033574
_publ_section_title
;
Structure prediction by ZEFSAII (Michael W. Deem and Ramdas Pophale) SiO2 
 PCOD8033574
Probable space group: P -1
;
_chemical_formula_sum "Si O2"
_cell_formula_units_Z 16
_cell_length_a 11.622928
_cell_length_b 10.991663
_cell_length_c 6.317364
_cell_angle_alpha 95.472981
_cell_angle_beta 84.385056
_cell_angle_gamma 124.643015
_cell_volume 660.024641
_symmetry_space_group_name_H-M "P -1"
_symmetry_group_IT_number 2
_symmetry_cell_setting 'triclinic'
loop_
_space_group_symop_operation_xyz
x,y,z
-x,-y,-z
loop_
_atom_site_type_symbol
_atom_site_label
_atom_site_fract_x
_atom_site_fract_y
_atom_site_fract_z
Si Si1 0.210828 0.661910 0.541796
Si Si2 0.327012 0.575792 0.155092
Si Si3 0.922486 0.567959 0.133835
Si Si4 0.720442 0.874733 0.387544
Si Si5 0.239831 0.299531 0.364900
Si Si6 0.497949 0.883499 0.636455
Si Si7 0.054428 0.803764 0.467128
Si Si8 0.376855 0.173054 0.042746
O O1 0.273391 0.666099 0.299671
O O2 0.120027 0.499500 0.631222
O O3 0.337929 0.759276 0.700397
O O4 0.124119 0.733067 0.564094
O O5 0.333908 0.471777 0.312727
O O6 0.210405 0.468350 0.983863
O O7 0.477575 0.679431 0.037384
O O8 0.017296 0.741497 0.217715
O O9 0.000000 0.500000 0.000000
O O10 0.739899 0.740149 0.403382
O O11 0.562106 0.811217 0.476930
O O12 0.834931 0.019232 0.526675
O O13 0.726916 0.916596 0.147694
O O14 0.287115 0.212360 0.203900
O O15 0.075993 0.234635 0.368234
O O16 0.585176 0.930753 0.851910
O O17 0.500000 0.000000 0.500000
#
# Coordination Sequence:
#
# PCOD8033574 Si02
#       8
#     2   2   2   2   2   2   2   2
#     4  12  23  46  75 109 144 182 240 312 376 414
#     4  12  24  46  75 108 143 189 250 309 359 426
#     4  12  25  44  73 111 146 186 242 296 375 438
#     4  11  26  48  71 105 148 196 242 297 360 435
#     4  11  27  47  69 104 152 196 245 301 349 432
#     4  11  23  47  73 108 146 181 240 310 365 429
#     4  12  25  48  71 103 153 190 235 304 369 428
#     4  11  26  47  75 109 139 197 251 289 368 432
#
# _framework density 24.241519
#
# number of rings (size 3 to 8) (size 9 to 14) (size 15 to 20)
#    0.000    0.500    6.250    1.875    1.750    1.500 
#   11.250    0.000    0.000    0.000    0.000    0.000 
#    0.000    0.000    0.000    0.000    0.000    0.000 
#
# Total GULP energy -198212.584631 kJ/mol
# GULP energy per Si atom -12388.286539 kJ/mol
# Density = 2.418634 g / cm^3
# Si number density = 24.241519 Si / 1000 Ang^3
#
#
#
# Elastic Constant Matrix: (Units=GPa)
#
#
# Indices 1 2 3 4 5 6 
#
# 1 153.9074 47.1737 46.5294 -0.7982 -9.7532 -5.4844
# 2 47.1737 92.2968 38.1728 -8.5107 16.5307 -6.5678
# 3 46.5294 38.1728 112.9611 -0.3741 7.1434 -3.2834
# 4 -0.7982 -8.5107 -0.3741 40.4739 -3.6801 10.5543
# 5 -9.7532 16.5307 7.1434 -3.6801 26.2087 -12.1917
# 6 -5.4844 -6.5678 -3.2834 10.5543 -12.1917 35.8012
#
#
#
# Elastic Compliance Matrix: (Units=1/GPa)
#
#
# Indices 1 2 3 4 5 6 
#
# 1 0.009645 -0.005324 -0.002654 -0.001085 0.009253 0.003728
# 2 -0.005324 0.017140 -0.002856 0.003148 -0.013120 -0.003329
# 3 -0.002654 -0.002856 0.011054 -0.000626 -0.002570 -0.000607
# 4 -0.001085 0.003148 -0.000626 0.027347 -0.002334 -0.008503
# 5 0.009253 -0.013120 -0.002570 -0.002334 0.059407 0.019693
# 6 0.003728 -0.003329 -0.000607 -0.008503 0.019693 0.037050
#
#
# Mechanical properties :
#
#
# Convention : Reuss Voigt Hill
#
# Bulk Modulus (GPa) = 61.83830 69.21303 65.52566
# Shear Modulus (GPa) = 26.49686 35.64938 31.07312
#
# Velocity S-wave (km/s) = 3.30970 3.83899 3.58413
# Velocity P-wave (km/s) = 6.33799 6.94722 6.64959
#
# Compressibility (1/GPa) = 0.01617121
#
# Stress axis : x y z
#
# Youngs Moduli (GPa) = 103.67846 58.34265 90.46743
#
# Poissons Ratio (x) = 0.31061 0.24011
# Poissons Ratio (y) = 0.55198 0.25836
# Poissons Ratio (z) = 0.27518 0.16662
#
# Static dielectric constant tensor:
#      x y z
#    x 4.947220 0.145070 0.280460 
#    y 0.145070 4.261580 -0.143750 
#    z 0.280460 -0.143750 4.642910 
# 
# 
# High freq. dielectric constant tensor:
#      x y z
#    x 1.987130 0.002710 0.004830 
#    y 0.002710 1.942600 -0.010950 
#    z 0.004830 -0.010950 1.959060 
# 
# From -- ./inp_files/70549.got.cif
#   From: 2010.06.25/outbox.cif.g09.slc.cpg/sg2_36_cif.got.tgz:70549.got - 2010.06.27 13:26:56.
