data_PCOD8033189
_publ_section_title
;
Structure prediction by ZEFSAII (Michael W. Deem and Ramdas Pophale) SiO2 
 PCOD8033189
Probable space group: P -1
;
_chemical_formula_sum "Si O2"
_cell_formula_units_Z 16
_cell_length_a 8.915763
_cell_length_b 9.162232
_cell_length_c 12.163528
_cell_angle_alpha 75.175250
_cell_angle_beta 96.625247
_cell_angle_gamma 132.105351
_cell_volume 710.450032
_symmetry_space_group_name_H-M "P -1"
_symmetry_group_IT_number 2
_symmetry_cell_setting 'triclinic'
loop_
_space_group_symop_operation_xyz
x,y,z
-x,-y,-z
loop_
_atom_site_type_symbol
_atom_site_label
_atom_site_fract_x
_atom_site_fract_y
_atom_site_fract_z
Si Si1 0.403583 0.296470 0.592132
Si Si2 0.346289 0.790666 0.782918
Si Si3 0.307169 0.443275 0.933027
Si Si4 0.798350 0.121548 0.452130
Si Si5 0.011643 0.286504 0.130802
Si Si6 0.176710 0.496665 0.326109
Si Si7 0.222464 0.850432 0.302951
Si Si8 0.890894 0.862096 0.212881
O O1 0.500000 0.500000 0.500000
O O2 0.589687 0.331130 0.654397
O O3 0.263985 0.276617 0.676365
O O4 0.278694 0.096861 0.543709
O O5 0.365958 0.622184 0.824568
O O6 0.268375 0.793068 0.656169
O O7 0.193777 0.750493 0.872305
O O8 0.570204 0.006966 0.777179
O O9 0.208770 0.245172 0.891162
O O10 0.500000 0.500000 0.000000
O O11 0.135053 0.393284 0.009413
O O12 0.723221 0.109430 0.570076
O O13 0.045639 0.296347 0.432694
O O14 0.164324 0.431296 0.213473
O O15 0.943931 0.071013 0.178785
O O16 0.096045 0.615512 0.307288
O O17 0.095205 0.908409 0.243681
#
# Coordination Sequence:
#
# PCOD8033189 Si02
#       8
#     2   2   2   2   2   2   2   2
#     4  12  26  41  71 107 148 194 233 292 358 428
#     4  11  24  46  71 102 143 190 235 296 351 428
#     4  12  27  47  74 106 137 185 243 307 364 418
#     4  11  24  45  71 105 150 190 244 278 357 429
#     4  11  24  48  71  99 145 186 242 298 357 427
#     4  11  23  45  68  99 144 190 240 287 352 421
#     4  12  25  42  73 106 145 191 234 294 351 428
#     4  12  25  46  71 108 145 181 243 295 360 424
#
# _framework density 22.520935000000001
#
# number of rings (size 3 to 8) (size 9 to 14) (size 15 to 20)
#    0.000    0.500    3.750    5.250    3.500    1.000 
#    0.000    1.875    0.000    0.000    0.000    0.000 
#    0.000    0.000    0.000    0.000    0.000    0.000 
#
# Total GULP energy -198416.481448 kJ/mol
# GULP energy per Si atom -12401.030091 kJ/mol
# Density = 2.246968 g / cm^3
# Si number density = 22.520935 Si / 1000 Ang^3
#
#
#
# Elastic Constant Matrix: (Units=GPa)
#
#
# Indices 1 2 3 4 5 6 
#
# 1 108.1400 41.2049 27.7498 6.0058 0.0927 7.9449
# 2 41.2049 139.9281 38.1993 15.4114 -9.0376 -6.1018
# 3 27.7498 38.1993 96.3967 10.2758 -9.8268 -2.5960
# 4 6.0058 15.4114 10.2758 31.1255 -3.4318 -9.1182
# 5 0.0927 -9.0376 -9.8268 -3.4318 41.2936 -8.8915
# 6 7.9449 -6.1018 -2.5960 -9.1182 -8.8915 42.6371
#
#
#
# Elastic Compliance Matrix: (Units=1/GPa)
#
#
# Indices 1 2 3 4 5 6 
#
# 1 0.011218 -0.002823 -0.002275 -0.001205 -0.001997 -0.003307
# 2 -0.002823 0.009054 -0.002304 -0.002583 0.001537 0.001449
# 3 -0.002275 -0.002304 0.012432 -0.001970 0.002500 0.000951
# 4 -0.001205 -0.002583 -0.001970 0.037210 0.003892 0.008504
# 5 -0.001997 0.001537 0.002500 0.003892 0.027029 0.007213
# 6 -0.003307 0.001449 0.000951 0.008504 0.007213 0.027658
#
#
# Mechanical properties :
#
#
# Convention : Reuss Voigt Hill
#
# Bulk Modulus (GPa) = 55.86413 62.08587 58.97500
# Shear Modulus (GPa) = 34.39434 38.83196 36.61315
#
# Velocity S-wave (km/s) = 3.91220 4.15693 4.03642
# Velocity P-wave (km/s) = 6.72803 7.11814 6.92583
#
# Compressibility (1/GPa) = 0.01790057
#
# Stress axis : x y z
#
# Youngs Moduli (GPa) = 89.14066 110.45109 80.43588
#
# Poissons Ratio (x) = 0.31179 0.18299
# Poissons Ratio (y) = 0.25163 0.18533
# Poissons Ratio (z) = 0.20279 0.25448
#
# Static dielectric constant tensor:
#      x y z
#    x 4.426120 0.218700 -0.251160 
#    y 0.218700 4.202450 -0.105220 
#    z -0.251160 -0.105220 4.045080 
# 
# 
# High freq. dielectric constant tensor:
#      x y z
#    x 1.896640 0.001450 -0.006410 
#    y 0.001450 1.909000 -0.010530 
#    z -0.006410 -0.010530 1.878310 
# 
# From -- ./inp_files/242070.got.cif
#   From: 2010.06.25/outbox.cif.g09.slc.cpg/sg2_122_cif.got.tgz:242070.got - 2010.06.27 13:26:56.
