data_PCOD8033946
_publ_section_title
;
Structure prediction by ZEFSAII (Michael W. Deem and Ramdas Pophale) SiO2 
 PCOD8033946
Probable space group: P -1
;
_chemical_formula_sum "Si O2"
_cell_formula_units_Z 16
_cell_length_a 25.154906
_cell_length_b 9.566142
_cell_length_c 22.083123
_cell_angle_alpha 29.077585
_cell_angle_beta 17.561326
_cell_angle_gamma 29.205496
_cell_volume 750.208562
_symmetry_space_group_name_H-M "P -1"
_symmetry_group_IT_number 2
_symmetry_cell_setting 'triclinic'
loop_
_space_group_symop_operation_xyz
x,y,z
-x,-y,-z
loop_
_atom_site_type_symbol
_atom_site_label
_atom_site_fract_x
_atom_site_fract_y
_atom_site_fract_z
Si Si1 0.079117 0.946226 0.086126
Si Si2 0.188895 0.479624 0.332990
Si Si3 0.952702 0.602565 0.746959
Si Si4 0.550102 0.676250 0.324827
Si Si5 0.796835 0.150324 0.421695
Si Si6 0.400691 0.736017 0.908775
Si Si7 0.242977 0.749654 0.297424
Si Si8 0.025255 0.525261 0.092719
O O1 0.081011 0.628211 0.177769
O O2 0.265716 0.887929 0.943814
O O3 0.903425 0.075887 0.270000
O O4 0.077776 0.181694 0.944349
O O5 0.167956 0.612364 0.372695
O O6 0.000000 0.500000 0.500000
O O7 0.273212 0.125907 0.373694
O O8 0.297846 0.660751 0.107223
O O9 0.995470 0.429389 0.830055
O O10 0.126947 0.715310 0.495594
O O11 0.778131 0.897710 0.826357
O O12 0.500000 0.500000 0.500000
O O13 0.404685 0.619870 0.454175
O O14 0.496882 0.024339 0.270304
O O15 0.760057 0.564635 0.120220
O O16 0.930379 0.262967 0.278951
O O17 0.548540 0.429204 0.845244
#
# Coordination Sequence:
#
# PCOD8033946 Si02
#       8
#     2   2   2   2   2   2   2   2
#     4  12  23  46  67  97 140 184 222 281 342 403
#     4  12  21  39  71 102 134 172 223 291 349 399
#     4  11  25  46  67  93 140 190 222 277 350 400
#     4  12  23  40  71 103 136 177 224 286 346 397
#     4  12  23  42  70 102 135 173 229 285 346 394
#     4  12  24  41  70 105 138 172 234 289 340 407
#     4  11  24  43  66  95 141 177 227 283 339 415
#     4  12  26  46  70 104 140 179 234 284 334 417
#
# _framework density 21.327403
#
# number of rings (size 3 to 8) (size 9 to 14) (size 15 to 20)
#    0.000    0.250    6.250    3.375    1.750    1.500 
#    2.250    0.625    0.000    0.000    0.000    0.000 
#    0.000    0.000    0.000    0.000    0.000    0.000 
#
# Total GULP energy -198290.554702 kJ/mol
# GULP energy per Si atom -12393.159669 kJ/mol
# Density = 2.127886 g / cm^3
# Si number density = 21.327403 Si / 1000 Ang^3
#
#
#
# Elastic Constant Matrix: (Units=GPa)
#
#
# Indices 1 2 3 4 5 6 
#
# 1 90.7810 20.8053 42.1040 17.0675 -3.3259 -21.0655
# 2 20.8053 86.2067 30.6760 6.3400 -2.5630 -14.1241
# 3 42.1040 30.6760 95.5116 -1.8955 -4.4505 -9.4416
# 4 17.0675 6.3400 -1.8955 37.8425 -12.8919 -8.2377
# 5 -3.3259 -2.5630 -4.4505 -12.8919 40.0276 -4.5899
# 6 -21.0655 -14.1241 -9.4416 -8.2377 -4.5899 40.4946
#
#
#
# Elastic Compliance Matrix: (Units=1/GPa)
#
#
# Indices 1 2 3 4 5 6 
#
# 1 0.016897 -0.000179 -0.007034 -0.007095 -0.001041 0.005526
# 2 -0.000179 0.013768 -0.004014 -0.001558 0.000319 0.003492
# 3 -0.007034 -0.004014 0.015073 0.005444 0.002571 -0.000146
# 4 -0.007095 -0.001558 0.005444 0.035461 0.011980 0.005607
# 5 -0.001041 0.000319 0.002571 0.011980 0.029747 0.005978
# 6 0.005526 0.003492 -0.000146 0.005607 0.005978 0.030572
#
#
# Mechanical properties :
#
#
# Convention : Reuss Voigt Hill
#
# Bulk Modulus (GPa) = 42.94698 51.07442 47.01070
# Shear Modulus (GPa) = 29.11510 35.60056 32.35783
#
# Velocity S-wave (km/s) = 3.69880 4.09007 3.89934
# Velocity P-wave (km/s) = 6.19857 6.80475 6.50872
#
# Compressibility (1/GPa) = 0.02328452
#
# Stress axis : x y z
#
# Youngs Moduli (GPa) = 59.18191 72.63359 66.34185
#
# Poissons Ratio (x) = 0.01297 0.46667
# Poissons Ratio (y) = 0.01057 0.26629
# Poissons Ratio (z) = 0.41630 0.29155
#
# Static dielectric constant tensor:
#      x y z
#    x 3.840360 -0.137010 0.190580 
#    y -0.137010 3.937780 -0.084910 
#    z 0.190580 -0.084910 4.354510 
# 
# 
# High freq. dielectric constant tensor:
#      x y z
#    x 1.838500 -0.023920 -0.002260 
#    y -0.023920 1.839810 -0.013270 
#    z -0.002260 -0.013270 1.841140 
# 
# From -- ./inp_files/495427.got.cif
#   From: 2010.06.25/outbox.cif.g09.slc.cpg/sg2_248_cif.got.tgz:495427.got - 2010.06.27 13:26:56.
