data_PCOD8033049
_publ_section_title
;
Structure prediction by ZEFSAII (Michael W. Deem and Ramdas Pophale) SiO2 
 PCOD8033049
Probable space group: P -1
;
_chemical_formula_sum "Si O2"
_cell_formula_units_Z 16
_cell_length_a 8.675417
_cell_length_b 25.205848
_cell_length_c 10.784976
_cell_angle_alpha 148.395096
_cell_angle_beta 140.492787
_cell_angle_gamma 31.435939
_cell_volume 635.843583
_symmetry_space_group_name_H-M "P -1"
_symmetry_group_IT_number 2
_symmetry_cell_setting 'triclinic'
loop_
_space_group_symop_operation_xyz
x,y,z
-x,-y,-z
loop_
_atom_site_type_symbol
_atom_site_label
_atom_site_fract_x
_atom_site_fract_y
_atom_site_fract_z
Si Si1 0.570173 0.136826 0.461088
Si Si2 0.201536 0.324762 0.395971
Si Si3 0.700600 0.941449 0.695179
Si Si4 0.054600 0.145924 0.904009
Si Si5 0.237159 0.810520 0.933899
Si Si6 0.450210 0.454421 0.507125
Si Si7 0.627001 0.400992 0.772982
Si Si8 0.743204 0.835025 0.267612
O O1 0.332115 0.250436 0.455862
O O2 0.383779 0.151161 0.495707
O O3 0.836316 0.151079 0.675934
O O4 0.683309 0.001506 0.202943
O O5 0.438355 0.343890 0.520859
O O6 0.901249 0.461489 0.510963
O O7 0.151448 0.236560 0.103338
O O8 0.816733 0.905250 0.553525
O O9 0.956827 0.925640 0.910489
O O10 0.385765 0.084562 0.782185
O O11 0.877351 0.209322 0.048842
O O12 0.414687 0.689197 0.715472
O O13 0.467698 0.841768 0.169495
O O14 0.500000 0.500000 0.500000
O O15 0.619611 0.456327 0.741309
O O16 0.959284 0.302523 0.836381
O O17 0.500000 0.500000 0.000000
#
# Coordination Sequence:
#
# PCOD8033049 Si02
#       8
#     2   2   2   2   2   2   2   2
#     4  11  25  45  73 112 156 196 258 312 389 468
#     4  12  27  48  78 111 155 205 257 320 385 459
#     4  11  23  44  72 108 149 195 253 314 384 463
#     4  11  25  44  75 112 153 199 254 318 385 459
#     4  12  23  47  73 110 146 199 260 319 376 468
#     4  12  26  50  80 108 151 202 264 315 386 463
#     4  12  30  53  76 115 158 205 261 327 388 458
#     4  11  26  46  72 106 151 200 249 319 392 450
#
# _framework density 25.163423000000002
#
# number of rings (size 3 to 8) (size 9 to 14) (size 15 to 20)
#    0.000    0.500    5.000    1.875    5.250    1.000 
#    0.000    1.875    0.000    0.000    0.000    0.000 
#    0.000    0.000    0.000    0.000    0.000    0.000 
#
# Total GULP energy -198282.896506 kJ/mol
# GULP energy per Si atom -12392.681032 kJ/mol
# Density = 2.510615 g / cm^3
# Si number density = 25.163423 Si / 1000 Ang^3
#
#
#
# Elastic Constant Matrix: (Units=GPa)
#
#
# Indices 1 2 3 4 5 6 
#
# 1 67.4982 35.9920 31.2105 -5.4592 4.7556 11.4727
# 2 35.9920 194.1310 35.5043 -1.5223 -3.5798 -3.9944
# 3 31.2105 35.5043 122.3198 -5.1594 -3.8266 -6.7724
# 4 -5.4592 -1.5223 -5.1594 34.2181 -10.0399 2.7299
# 5 4.7556 -3.5798 -3.8266 -10.0399 37.1292 -2.0751
# 6 11.4727 -3.9944 -6.7724 2.7299 -2.0751 38.6877
#
#
#
# Elastic Compliance Matrix: (Units=1/GPa)
#
#
# Indices 1 2 3 4 5 6 
#
# 1 0.020316 -0.003103 -0.004714 0.002035 -0.003255 -0.007488
# 2 -0.003103 0.005923 -0.000827 -0.000205 0.000909 0.001450
# 3 -0.004714 -0.000827 0.009895 0.001044 0.001998 0.003078
# 4 0.002035 -0.000205 0.001044 0.032358 0.008450 -0.002272
# 5 -0.003255 0.000909 0.001998 0.008450 0.030064 0.002425
# 6 -0.007488 0.001450 0.003078 -0.002272 0.002425 0.029048
#
#
# Mechanical properties :
#
#
# Convention : Reuss Voigt Hill
#
# Bulk Modulus (GPa) = 53.06124 65.48474 59.27299
# Shear Modulus (GPa) = 33.07480 40.75650 36.91565
#
# Velocity S-wave (km/s) = 3.62940 4.02888 3.83435
# Velocity P-wave (km/s) = 6.22060 6.90817 6.57338
#
# Compressibility (1/GPa) = 0.01884615
#
# Stress axis : x y z
#
# Youngs Moduli (GPa) = 49.22248 168.84209 101.05964
#
# Poissons Ratio (x) = 0.52386 0.47637
# Poissons Ratio (y) = 0.15272 0.08362
# Poissons Ratio (z) = 0.23202 0.13970
#
# Static dielectric constant tensor:
#      x y z
#    x 4.530860 0.008640 0.088530 
#    y 0.008640 4.866790 0.007170 
#    z 0.088530 0.007170 4.493000 
# 
# 
# High freq. dielectric constant tensor:
#      x y z
#    x 2.005100 0.002460 -0.011910 
#    y 0.002460 2.022230 -0.003840 
#    z -0.011910 -0.003840 1.994860 
# 
# From -- ./inp_files/407364.got.cif
#   From: 2010.06.25/outbox.cif.g09.slc.cpg/sg2_204_cif.got.tgz:407364.got - 2010.06.27 13:26:56.
