data_PCOD8033768
_publ_section_title
;
Structure prediction by ZEFSAII (Michael W. Deem and Ramdas Pophale) SiO2 
 PCOD8033768
Probable space group: P -1
;
_chemical_formula_sum "Si O2"
_cell_formula_units_Z 16
_cell_length_a 12.249432
_cell_length_b 14.483030
_cell_length_c 17.018960
_cell_angle_alpha 31.003310
_cell_angle_beta 148.502585
_cell_angle_gamma 129.659505
_cell_volume 762.889704
_symmetry_space_group_name_H-M "P -1"
_symmetry_group_IT_number 2
_symmetry_cell_setting 'triclinic'
loop_
_space_group_symop_operation_xyz
x,y,z
-x,-y,-z
loop_
_atom_site_type_symbol
_atom_site_label
_atom_site_fract_x
_atom_site_fract_y
_atom_site_fract_z
Si Si1 0.979336 0.047702 0.542890
Si Si2 0.612229 0.833262 0.251349
Si Si3 0.146299 0.351698 0.761401
Si Si4 0.916617 0.542727 0.051304
Si Si5 0.358763 0.913693 0.196992
Si Si6 0.793543 0.759483 0.668611
Si Si7 0.584077 0.389092 0.053075
Si Si8 0.854154 0.406152 0.691896
O O1 0.152013 0.148328 0.597902
O O2 0.000000 0.000000 0.500000
O O3 0.989363 0.851444 0.733939
O O4 0.732415 0.177227 0.322970
O O5 0.452636 0.863150 0.204862
O O6 0.662327 0.616009 0.411281
O O7 0.500000 0.000000 0.000000
O O8 0.380028 0.385971 0.876866
O O9 0.000000 0.500000 0.500000
O O10 0.040739 0.398766 0.748176
O O11 0.182583 0.129659 0.927662
O O12 0.760772 0.693192 0.784209
O O13 0.748823 0.456773 0.051657
O O14 0.118588 0.400750 0.227889
O O15 0.034067 0.627662 0.128480
O O16 0.553818 0.900681 0.388574
O O17 0.242875 0.761983 0.262100
O O18 0.500000 0.500000 0.000000
#
# Coordination Sequence:
#
# PCOD8033768 Si02
#       8
#     2   2   2   2   2   2   2   2
#     4  12  20  43  67  95 131 170 228 277 325 397
#     4  12  25  41  70 103 132 176 226 282 337 398
#     4  12  27  47  68  99 136 186 228 278 342 407
#     4  11  24  43  68 105 133 178 221 284 343 402
#     4  12  25  45  67  99 137 184 220 279 345 402
#     4  11  24  41  72 102 135 173 228 279 345 404
#     4  12  22  44  72  92 132 176 226 285 330 393
#     4  12  25  47  64  99 144 175 227 281 338 409
#
# _framework density 20.972887
#
# number of rings (size 3 to 8) (size 9 to 14) (size 15 to 20)
#    0.000    0.250    7.500    1.500    3.500    1.000 
#    0.000    1.250    0.000    0.000    0.000    0.000 
#    0.000    0.000    0.000    0.000    0.000    0.000 
#
# Total GULP energy -198300.674435 kJ/mol
# GULP energy per Si atom -12393.792152 kJ/mol
# Density = 2.092515 g / cm^3
# Si number density = 20.972887 Si / 1000 Ang^3
#
#
#
# Elastic Constant Matrix: (Units=GPa)
#
#
# Indices 1 2 3 4 5 6 
#
# 1 100.6371 24.4772 42.4492 3.3202 -3.5151 -6.4508
# 2 24.4772 101.3928 34.5380 -10.6577 -3.6304 9.0721
# 3 42.4492 34.5380 130.1767 -12.8808 -3.2566 -8.2087
# 4 3.3202 -10.6577 -12.8808 34.2352 0.6806 6.1305
# 5 -3.5151 -3.6304 -3.2566 0.6806 35.3675 -8.7871
# 6 -6.4508 9.0721 -8.2087 6.1305 -8.7871 28.8910
#
#
#
# Elastic Compliance Matrix: (Units=1/GPa)
#
#
# Indices 1 2 3 4 5 6 
#
# 1 0.012482 -0.002541 -0.003505 -0.004066 0.001723 0.003976
# 2 -0.002541 0.012286 -0.002423 0.004302 -0.000860 -0.006288
# 3 -0.003505 -0.002423 0.009928 0.002863 0.000872 0.002457
# 4 -0.004066 0.004302 0.002863 0.033763 -0.002691 -0.009428
# 5 0.001723 -0.000860 0.000872 -0.002691 0.031215 0.010967
# 6 0.003976 -0.006288 0.002457 -0.009428 0.010967 0.043509
#
#
# Mechanical properties :
#
#
# Convention : Reuss Voigt Hill
#
# Bulk Modulus (GPa) = 56.31390 59.45948 57.88669
# Shear Modulus (GPa) = 30.11337 35.08156 32.59747
#
# Velocity S-wave (km/s) = 3.79334 4.09432 3.94670
# Velocity P-wave (km/s) = 6.78933 7.12484 6.95911
#
# Compressibility (1/GPa) = 0.01775761
#
# Stress axis : x y z
#
# Youngs Moduli (GPa) = 80.11395 81.39618 100.72805
#
# Poissons Ratio (x) = 0.20683 0.35302
# Poissons Ratio (y) = 0.20357 0.24409
# Poissons Ratio (z) = 0.28077 0.19725
#
# Static dielectric constant tensor:
#      x y z
#    x 3.996210 0.152570 -0.078210 
#    y 0.152570 3.977210 -0.369130 
#    z -0.078210 -0.369130 4.220440 
# 
# 
# High freq. dielectric constant tensor:
#      x y z
#    x 1.829640 0.009220 0.001660 
#    y 0.009220 1.828050 -0.007640 
#    z 0.001660 -0.007640 1.824150 
# 
# From -- ./inp_files/186640.got.cif
#   From: 2010.06.25/outbox.cif.g09.slc.cpg/sg2_94_cif.got.tgz:186640.got - 2010.06.27 13:26:56.
