data_PCOD8033734
_publ_section_title
;
Structure prediction by ZEFSAII (Michael W. Deem and Ramdas Pophale) SiO2 
 PCOD8033734
Probable space group: P -1
;
_chemical_formula_sum "Si O2"
_cell_formula_units_Z 16
_cell_length_a 9.246244
_cell_length_b 5.329715
_cell_length_c 13.927638
_cell_angle_alpha 80.893005
_cell_angle_beta 109.084463
_cell_angle_gamma 81.304741
_cell_volume 625.123566
_symmetry_space_group_name_H-M "P -1"
_symmetry_group_IT_number 2
_symmetry_cell_setting 'triclinic'
loop_
_space_group_symop_operation_xyz
x,y,z
-x,-y,-z
loop_
_atom_site_type_symbol
_atom_site_label
_atom_site_fract_x
_atom_site_fract_y
_atom_site_fract_z
Si Si1 0.147999 0.550131 0.317181
Si Si2 0.481599 0.299309 0.925804
Si Si3 0.372028 0.397139 0.197553
Si Si4 0.849892 0.405448 0.190208
Si Si5 0.234350 0.127807 0.025315
Si Si6 0.300872 0.870726 0.673665
Si Si7 0.815064 0.545608 0.458124
Si Si8 0.974516 0.027682 0.860217
O O1 0.259900 0.430147 0.262114
O O2 0.236903 0.481049 0.440693
O O3 0.982937 0.458400 0.287987
O O4 0.101830 0.860452 0.265016
O O5 0.540202 0.373921 0.828801
O O6 0.289511 0.334999 0.879284
O O7 0.599318 0.011145 0.982340
O O8 0.500000 0.500000 0.000000
O O9 0.512814 0.156807 0.271321
O O10 0.270909 0.357112 0.084386
O O11 0.771018 0.187671 0.236482
O O12 0.927625 0.267703 0.116729
O O13 0.164669 0.937421 0.093689
O O14 0.091279 0.213722 0.911553
O O15 0.255641 0.668743 0.599707
O O16 0.244701 0.167098 0.612402
O O17 0.000000 0.500000 0.500000
#
# Coordination Sequence:
#
# PCOD8033734 Si02
#       8
#     2   2   2   2   2   2   2   2
#     4  12  26  43  75  99 143 188 243 307 365 435
#     4  11  24  44  64 100 142 188 236 294 362 431
#     4  11  27  45  70 103 144 188 240 304 367 435
#     4  11  24  43  69 104 141 191 242 299 361 441
#     4  11  24  42  70 101 148 190 236 298 366 436
#     4  11  28  48  73 111 148 188 250 306 373 444
#     4  12  26  48  78 108 145 193 246 310 375 437
#     4  11  24  41  68 108 141 189 246 296 360 442
#
# _framework density 25.594940999999999
#
# number of rings (size 3 to 8) (size 9 to 14) (size 15 to 20)
#    0.000    0.750    5.000    1.125    7.000    3.000 
#    0.000    0.000    0.000    0.000    0.000    0.000 
#    0.000    0.000    0.000    0.000    0.000    0.000 
#
# Total GULP energy -198283.220801 kJ/mol
# GULP energy per Si atom -12392.701300 kJ/mol
# Density = 2.553669 g / cm^3
# Si number density = 25.594941 Si / 1000 Ang^3
#
#
#
# Elastic Constant Matrix: (Units=GPa)
#
#
# Indices 1 2 3 4 5 6 
#
# 1 155.3742 18.1394 14.6575 -5.5441 -0.9985 -18.5670
# 2 18.1394 90.5781 19.2453 -2.4139 5.6237 -24.7171
# 3 14.6575 19.2453 97.3363 -7.8662 2.1970 -15.4550
# 4 -5.5441 -2.4139 -7.8662 51.9803 -0.0110 8.1548
# 5 -0.9985 5.6237 2.1970 -0.0110 39.1862 4.6652
# 6 -18.5670 -24.7171 -15.4550 8.1548 4.6652 38.8854
#
#
#
# Elastic Compliance Matrix: (Units=1/GPa)
#
#
# Indices 1 2 3 4 5 6 
#
# 1 0.006875 -0.000524 -0.000482 0.000209 -0.000046 0.002720
# 2 -0.000524 0.013943 -0.001316 -0.000965 -0.002971 0.008649
# 3 -0.000482 -0.001316 0.011232 0.001073 -0.000843 0.003274
# 4 0.000209 -0.000965 0.001073 0.020063 0.000609 -0.004367
# 5 -0.000046 -0.002971 -0.000843 0.000609 0.026655 -0.005571
# 6 0.002720 0.008649 0.003274 -0.004367 -0.005571 0.035398
#
#
# Mechanical properties :
#
#
# Convention : Reuss Voigt Hill
#
# Bulk Modulus (GPa) = 36.48630 49.70812 43.09721
# Shear Modulus (GPa) = 39.07924 45.42681 42.25303
#
# Velocity S-wave (km/s) = 3.91171 4.21745 4.06745
# Velocity P-wave (km/s) = 5.88967 6.57108 6.23968
#
# Compressibility (1/GPa) = 0.02740755
#
# Stress axis : x y z
#
# Youngs Moduli (GPa) = 145.45738 71.71838 89.03184
#
# Poissons Ratio (x) = 0.03756 0.04290
# Poissons Ratio (y) = 0.07618 0.11714
# Poissons Ratio (z) = 0.07009 0.09436
#
# Static dielectric constant tensor:
#      x y z
#    x 5.304900 -0.020140 0.051150 
#    y -0.020140 4.486740 -0.398970 
#    z 0.051150 -0.398970 5.285360 
# 
# 
# High freq. dielectric constant tensor:
#      x y z
#    x 2.065930 0.001920 -0.009660 
#    y 0.001920 2.015670 -0.018150 
#    z -0.009660 -0.018150 2.025580 
# 
# From -- ./inp_files/38109.got.cif
#   From: 2010.06.25/outbox.cif.g09.slc.cpg/sg2_20_cif.got.tgz:38109.got - 2010.06.27 13:26:56.
