data_PCOD8033673
_publ_section_title
;
Structure prediction by ZEFSAII (Michael W. Deem and Ramdas Pophale) SiO2 
 PCOD8033673
Probable space group: P -1
;
_chemical_formula_sum "Si O2"
_cell_formula_units_Z 16
_cell_length_a 6.559718
_cell_length_b 10.477544
_cell_length_c 12.316453
_cell_angle_alpha 111.559859
_cell_angle_beta 114.549307
_cell_angle_gamma 82.292998
_cell_volume 715.940550
_symmetry_space_group_name_H-M "P -1"
_symmetry_group_IT_number 2
_symmetry_cell_setting 'triclinic'
loop_
_space_group_symop_operation_xyz
x,y,z
-x,-y,-z
loop_
_atom_site_type_symbol
_atom_site_label
_atom_site_fract_x
_atom_site_fract_y
_atom_site_fract_z
Si Si1 0.456683 0.294404 0.192195
Si Si2 0.052443 0.772541 0.972929
Si Si3 0.270819 0.936912 0.894590
Si Si4 0.069290 0.901295 0.237280
Si Si5 0.330173 0.520493 0.870206
Si Si6 0.959965 0.731846 0.366794
Si Si7 0.427323 0.653863 0.529475
Si Si8 0.669396 0.880030 0.524493
O O1 0.216444 0.240056 0.078917
O O2 0.674071 0.204278 0.193803
O O3 0.520331 0.435262 0.187246
O O4 0.454010 0.295593 0.320016
O O5 0.106266 0.902236 0.947896
O O6 0.152797 0.632156 0.906114
O O7 0.157356 0.809362 0.127061
O O8 0.180306 0.052953 0.830981
O O9 0.500000 0.000000 0.000000
O O10 0.081450 0.817432 0.324905
O O11 0.190912 0.051171 0.324411
O O12 0.196354 0.383165 0.761495
O O13 0.500000 0.500000 0.000000
O O14 0.820190 0.838500 0.441365
O O15 0.156384 0.665321 0.463040
O O16 0.500000 0.500000 0.500000
O O17 0.543157 0.739689 0.485652
O O18 0.500000 0.000000 0.500000
#
# Coordination Sequence:
#
# PCOD8033673 Si02
#       8
#     2   2   2   2   2   2   2   2
#     4  11  24  45  71 101 142 187 239 300 362 427
#     4  11  25  45  69 108 140 187 243 296 369 439
#     4  11  24  40  67 105 142 183 230 293 366 429
#     4  12  25  44  75 104 150 190 236 303 366 441
#     4  11  27  46  73 104 144 189 241 304 364 435
#     4  12  28  49  71 108 147 192 253 300 368 438
#     4  12  27  48  77 105 146 199 247 306 365 439
#     4  12  28  47  73 108 148 197 249 304 371 436
#
# _framework density 22.348222
#
# number of rings (size 3 to 8) (size 9 to 14) (size 15 to 20)
#    0.000    0.500    2.500    4.500    7.000    7.000 
#    0.000    0.000    0.000    0.000    0.000    0.000 
#    0.000    0.000    0.000    0.000    0.000    0.000 
#
# Total GULP energy -198255.071384 kJ/mol
# GULP energy per Si atom -12390.941962 kJ/mol
# Density = 2.229736 g / cm^3
# Si number density = 22.348222 Si / 1000 Ang^3
#
#
#
# Elastic Constant Matrix: (Units=GPa)
#
#
# Indices 1 2 3 4 5 6 
#
# 1 105.4434 47.2090 36.4636 4.1550 -4.0392 -6.8716
# 2 47.2090 122.5809 33.0755 -0.4567 -0.4772 -3.0175
# 3 36.4636 33.0755 132.4431 11.0675 -0.0141 -6.3580
# 4 4.1550 -0.4567 11.0675 44.5424 -0.1707 2.9734
# 5 -4.0392 -0.4772 -0.0141 -0.1707 43.3211 -0.3272
# 6 -6.8716 -3.0175 -6.3580 2.9734 -0.3272 47.1560
#
#
#
# Elastic Compliance Matrix: (Units=1/GPa)
#
#
# Indices 1 2 3 4 5 6 
#
# 1 0.012233 -0.004077 -0.002229 -0.000710 0.001102 0.001274
# 2 -0.004077 0.010127 -0.001489 0.000867 -0.000267 -0.000203
# 3 -0.002229 -0.001489 0.008749 -0.002041 -0.000223 0.000887
# 4 -0.000710 0.000867 -0.002041 0.023152 0.000020 -0.001783
# 5 0.001102 -0.000267 -0.000223 0.000020 0.023185 0.000273
# 6 0.001274 -0.000203 0.000887 -0.001783 0.000273 0.021613
#
#
# Mechanical properties :
#
#
# Convention : Reuss Voigt Hill
#
# Bulk Modulus (GPa) = 64.43588 65.99595 65.21591
# Shear Modulus (GPa) = 41.72865 43.25184 42.49025
#
# Velocity S-wave (km/s) = 4.32580 4.40404 4.36510
# Velocity P-wave (km/s) = 7.33794 7.44686 7.39260
#
# Compressibility (1/GPa) = 0.01551930
#
# Stress axis : x y z
#
# Youngs Moduli (GPa) = 81.74543 98.74738 114.29753
#
# Poissons Ratio (x) = 0.40257 0.25480
# Poissons Ratio (y) = 0.33326 0.17017
# Poissons Ratio (z) = 0.18223 0.14702
#
# Static dielectric constant tensor:
#      x y z
#    x 3.671880 0.268950 0.031120 
#    y 0.268950 4.265660 0.266420 
#    z 0.031120 0.266420 3.903610 
# 
# 
# High freq. dielectric constant tensor:
#      x y z
#    x 1.885780 -0.005250 0.003660 
#    y -0.005250 1.891970 0.005460 
#    z 0.003660 0.005460 1.896030 
# 
# From -- ./inp_files/365108.got.cif
#   From: 2010.06.25/outbox.cif.g09.slc.cpg/sg2_183_cif.got.tgz:365108.got - 2010.06.27 13:26:56.
