data_PCOD8033272
_publ_section_title
;
Structure prediction by ZEFSAII (Michael W. Deem and Ramdas Pophale) SiO2 
 PCOD8033272
Probable space group: P -1
;
_chemical_formula_sum "Si O2"
_cell_formula_units_Z 16
_cell_length_a 21.531453
_cell_length_b 9.000570
_cell_length_c 12.452886
_cell_angle_alpha 132.064839
_cell_angle_beta 141.863212
_cell_angle_gamma 30.819464
_cell_volume 763.426664
_symmetry_space_group_name_H-M "P -1"
_symmetry_group_IT_number 2
_symmetry_cell_setting 'triclinic'
loop_
_space_group_symop_operation_xyz
x,y,z
-x,-y,-z
loop_
_atom_site_type_symbol
_atom_site_label
_atom_site_fract_x
_atom_site_fract_y
_atom_site_fract_z
Si Si1 0.400649 0.625973 0.819354
Si Si2 0.340292 0.780279 0.381269
Si Si3 0.146716 0.682800 0.512945
Si Si4 0.584736 0.090573 0.663137
Si Si5 0.183176 0.273771 0.767377
Si Si6 0.873298 0.517373 0.835097
Si Si7 0.148101 0.685002 0.076726
Si Si8 0.149221 0.352416 0.518855
O O1 0.269440 0.668582 0.679815
O O2 0.493486 0.403183 0.739660
O O3 0.325112 0.939638 0.829883
O O4 0.500000 0.500000 0.000000
O O5 0.500000 0.500000 0.500000
O O6 0.353080 0.922818 0.372376
O O7 0.275784 0.655781 0.208212
O O8 0.229846 0.029063 0.441015
O O9 0.125551 0.607931 0.333829
O O10 0.207931 0.438702 0.563832
O O11 0.000000 0.000000 0.500000
O O12 0.500000 0.000000 0.500000
O O13 0.724764 0.853896 0.813180
O O14 0.198416 0.336709 0.698323
O O15 0.026001 0.391101 0.612407
O O16 0.182144 0.448581 0.935964
O O17 0.875310 0.349949 0.849741
O O18 0.000000 0.500000 0.000000
O O19 0.000000 0.000000 0.000000
#
# Coordination Sequence:
#
# PCOD8033272 Si02
#       8
#     2   2   2   2   2   2   2   2
#     4  12  27  46  70 104 147 190 235 297 361 426
#     4  12  25  43  71 103 136 184 234 289 355 420
#     4  12  26  44  74 105 139 186 240 292 361 428
#     4  12  24  47  70 101 141 187 237 290 353 425
#     4  11  25  45  70 103 145 184 232 293 359 427
#     4  12  26  45  74 103 143 185 243 298 349 427
#     4  12  26  44  70 105 140 185 239 290 352 420
#     4  11  23  45  72 103 140 183 233 292 357 427
#
# _framework density 20.958136
#
# number of rings (size 3 to 8) (size 9 to 14) (size 15 to 20)
#    0.000    0.250    5.000    3.750    5.250    2.000 
#    0.000    1.875    0.000    0.000    0.000    0.000 
#    0.000    0.000    0.000    0.000    0.000    0.000 
#
# Total GULP energy -198328.303090 kJ/mol
# GULP energy per Si atom -12395.518943 kJ/mol
# Density = 2.091043 g / cm^3
# Si number density = 20.958136 Si / 1000 Ang^3
#
#
#
# Elastic Constant Matrix: (Units=GPa)
#
#
# Indices 1 2 3 4 5 6 
#
# 1 140.2372 35.9775 56.4765 -2.6578 -5.9476 15.0502
# 2 35.9775 168.7909 47.7655 -14.4658 -12.6805 -4.3387
# 3 56.4765 47.7655 126.3710 -9.6734 4.4286 1.2083
# 4 -2.6578 -14.4658 -9.6734 45.1979 -5.6751 -3.0647
# 5 -5.9476 -12.6805 4.4286 -5.6751 42.7872 -0.0257
# 6 15.0502 -4.3387 1.2083 -3.0647 -0.0257 41.2050
#
#
#
# Elastic Compliance Matrix: (Units=1/GPa)
#
#
# Indices 1 2 3 4 5 6 
#
# 1 0.009352 -0.000937 -0.003889 -0.000648 0.001337 -0.003448
# 2 -0.000937 0.007162 -0.002223 0.002166 0.002510 0.001324
# 3 -0.003889 -0.002223 0.010644 0.001133 -0.002150 0.000957
# 4 -0.000648 0.002166 0.001133 0.023619 0.003569 0.002190
# 5 0.001337 0.002510 -0.002150 0.003569 0.024997 0.000120
# 6 -0.003448 0.001324 0.000957 0.002190 0.000120 0.025803
#
#
# Mechanical properties :
#
#
# Convention : Reuss Voigt Hill
#
# Bulk Modulus (GPa) = 76.56706 79.53757 78.05231
# Shear Modulus (GPa) = 41.65733 45.51667 43.58700
#
# Velocity S-wave (km/s) = 4.46314 4.66530 4.56534
# Velocity P-wave (km/s) = 7.94809 8.18860 8.06924
#
# Compressibility (1/GPa) = 0.01306045
#
# Stress axis : x y z
#
# Youngs Moduli (GPa) = 106.93411 139.63530 93.94618
#
# Poissons Ratio (x) = 0.13077 0.36534
# Poissons Ratio (y) = 0.10015 0.20886
# Poissons Ratio (z) = 0.41585 0.31043
#
# Static dielectric constant tensor:
#      x y z
#    x 3.859430 0.057840 -0.073310 
#    y 0.057840 4.126930 -0.050710 
#    z -0.073310 -0.050710 3.888630 
# 
# 
# High freq. dielectric constant tensor:
#      x y z
#    x 1.833290 -0.000460 -0.001960 
#    y -0.000460 1.849190 -0.003870 
#    z -0.001960 -0.003870 1.821960 
# 
# From -- ./inp_files/188546.got.cif
#   From: 2010.06.25/outbox.cif.g09.slc.cpg/sg2_95_cif.got.tgz:188546.got - 2010.06.27 13:26:56.
