data_PCOD8033485
_publ_section_title
;
Structure prediction by ZEFSAII (Michael W. Deem and Ramdas Pophale) SiO2 
 PCOD8033485
Probable space group: P -1
;
_chemical_formula_sum "Si O2"
_cell_formula_units_Z 16
_cell_length_a 11.368840
_cell_length_b 8.873579
_cell_length_c 8.955550
_cell_angle_alpha 125.210110
_cell_angle_beta 91.589278
_cell_angle_gamma 88.144320
_cell_volume 737.730383
_symmetry_space_group_name_H-M "P -1"
_symmetry_group_IT_number 2
_symmetry_cell_setting 'triclinic'
loop_
_space_group_symop_operation_xyz
x,y,z
-x,-y,-z
loop_
_atom_site_type_symbol
_atom_site_label
_atom_site_fract_x
_atom_site_fract_y
_atom_site_fract_z
Si Si1 0.873908 0.098366 0.549281
Si Si2 0.779389 0.523710 0.239625
Si Si3 0.286817 0.164968 0.788324
Si Si4 0.221911 0.865812 0.108606
Si Si5 0.199223 0.232366 0.139965
Si Si6 0.971279 0.450858 0.637663
Si Si7 0.389339 0.370470 0.434743
Si Si8 0.474742 0.978912 0.164455
O O1 0.837744 0.159522 0.748570
O O2 0.881574 0.282677 0.553997
O O3 0.771674 0.971948 0.409514
O O4 0.000000 0.000000 0.500000
O O5 0.720632 0.625300 0.153150
O O6 0.907043 0.612975 0.316527
O O7 0.696502 0.556122 0.397384
O O8 0.808526 0.307956 0.094462
O O9 0.422167 0.114854 0.790866
O O10 0.221769 0.144248 0.930349
O O11 0.175145 0.060830 0.151216
O O12 0.362959 0.852494 0.112062
O O13 0.310224 0.351496 0.270688
O O14 0.085619 0.363210 0.189315
O O15 0.000000 0.500000 0.500000
O O16 0.500000 0.500000 0.500000
O O17 0.446299 0.171255 0.356090
O O18 0.500000 0.000000 0.000000
#
# Coordination Sequence:
#
# PCOD8033485 Si02
#       8
#     2   2   2   2   2   2   2   2
#     4  12  27  47  71 102 148 186 241 301 354 420
#     4  12  27  46  71 105 145 186 239 298 358 424
#     4  12  26  46  74 106 143 188 233 297 361 416
#     4  11  26  48  71 104 145 188 240 294 358 427
#     4  11  25  44  73 104 141 185 241 291 356 430
#     4  12  26  46  72 102 143 187 244 294 356 428
#     4  11  24  44  72 104 142 183 236 295 357 428
#     4  11  23  46  74 105 145 183 238 293 354 433
#
# _framework density 21.688141999999999
#
# number of rings (size 3 to 8) (size 9 to 14) (size 15 to 20)
#    0.000    0.500    5.000    3.750    5.250    4.000 
#    0.000    0.000    0.000    0.000    0.000    0.000 
#    0.000    0.000    0.000    0.000    0.000    0.000 
#
# Total GULP energy -198408.348819 kJ/mol
# GULP energy per Si atom -12400.521801 kJ/mol
# Density = 2.163878 g / cm^3
# Si number density = 21.688142 Si / 1000 Ang^3
#
#
#
# Elastic Constant Matrix: (Units=GPa)
#
#
# Indices 1 2 3 4 5 6 
#
# 1 116.3370 36.4326 22.0153 0.4656 -11.6704 -12.7144
# 2 36.4326 101.0066 25.7931 7.0391 -1.8591 -5.0269
# 3 22.0153 25.7931 108.9612 3.4137 -15.0965 3.6672
# 4 0.4656 7.0391 3.4137 30.1964 1.9394 2.5009
# 5 -11.6704 -1.8591 -15.0965 1.9394 38.3146 0.5396
# 6 -12.7144 -5.0269 3.6672 2.5009 0.5396 45.2641
#
#
#
# Elastic Compliance Matrix: (Units=1/GPa)
#
#
# Indices 1 2 3 4 5 6 
#
# 1 0.010370 -0.003320 -0.001057 0.000358 0.002526 0.002580
# 2 -0.003320 0.011856 -0.002251 -0.002440 -0.001210 0.000716
# 3 -0.001057 -0.002251 0.010518 -0.000774 0.003772 -0.001401
# 4 0.000358 -0.002440 -0.000774 0.034059 -0.002011 -0.001966
# 5 0.002526 -0.001210 0.003772 -0.002011 0.028398 0.000042
# 6 0.002580 0.000716 -0.001401 -0.001966 0.000042 0.023118
#
#
# Mechanical properties :
#
#
# Convention : Reuss Voigt Hill
#
# Bulk Modulus (GPa) = 51.31657 54.97631 53.14644
# Shear Modulus (GPa) = 36.21310 38.89260 37.55285
#
# Velocity S-wave (km/s) = 4.09065 4.23929 4.16563
# Velocity P-wave (km/s) = 6.78408 7.02607 6.90614
#
# Compressibility (1/GPa) = 0.01948688
#
# Stress axis : x y z
#
# Youngs Moduli (GPa) = 96.43647 84.34450 95.07483
#
# Poissons Ratio (x) = 0.28005 0.10051
# Poissons Ratio (y) = 0.32020 0.21401
# Poissons Ratio (z) = 0.10195 0.18985
#
# Static dielectric constant tensor:
#      x y z
#    x 3.806650 -0.022550 -0.157660 
#    y -0.022550 4.024070 0.195770 
#    z -0.157660 0.195770 4.182450 
# 
# 
# High freq. dielectric constant tensor:
#      x y z
#    x 1.865390 -0.003340 -0.011630 
#    y -0.003340 1.852970 0.007100 
#    z -0.011630 0.007100 1.859340 
# 
# From -- ./inp_files/242562.got.cif
#   From: 2010.06.25/outbox.cif.g09.slc.cpg/sg2_122_cif.got.tgz:242562.got - 2010.06.27 13:26:56.
