data_PCOD8033677
_publ_section_title
;
Structure prediction by ZEFSAII (Michael W. Deem and Ramdas Pophale) SiO2 
 PCOD8033677
Probable space group: P -1
;
_chemical_formula_sum "Si O2"
_cell_formula_units_Z 10
_cell_length_a 8.278283
_cell_length_b 10.016478
_cell_length_c 9.923923
_cell_angle_alpha 138.063908
_cell_angle_beta 109.715825
_cell_angle_gamma 94.688720
_cell_volume 439.383818
_symmetry_space_group_name_H-M "P -1"
_symmetry_group_IT_number 2
_symmetry_cell_setting 'triclinic'
loop_
_space_group_symop_operation_xyz
x,y,z
-x,-y,-z
loop_
_atom_site_type_symbol
_atom_site_label
_atom_site_fract_x
_atom_site_fract_y
_atom_site_fract_z
Si Si1 0.332305 0.075005 0.334335
Si Si2 0.788133 0.464298 0.752372
Si Si3 0.055981 0.830955 0.315435
Si Si4 0.124488 0.321403 0.354678
Si Si5 0.693313 0.194775 0.120567
O O1 0.548600 0.309881 0.581413
O O2 0.179870 0.126357 0.249083
O O3 0.253432 0.980620 0.390066
O O4 0.337518 0.873914 0.097710
O O5 0.887004 0.303861 0.661231
O O6 0.853333 0.611092 0.744630
O O7 0.865430 0.643728 0.033423
O O8 0.000000 0.000000 0.500000
O O9 0.277401 0.549865 0.659904
O O10 0.893055 0.213041 0.253562
O O11 0.500000 0.000000 0.000000
#
# Coordination Sequence:
#
# PCOD8033677 Si02
#       5
#     2   2   2   2   2
#     4  12  25  43  70  99 133 174 218 273 332 388
#     4  11  25  46  66  99 135 170 228 269 321 401
#     4  11  28  45  67  91 137 183 218 270 327 385
#     4  11  25  41  70 103 133 167 222 274 327 395
#     4  11  24  40  68 102 136 168 211 274 339 383
#
# _framework density 22.759145
#
# number of rings (size 3 to 8) (size 9 to 14) (size 15 to 20)
#    0.000    0.800    4.000    1.800    5.600    2.400 
#    0.000    0.000    0.000    0.000    0.000    0.000 
#    0.000    0.000    0.000    0.000    0.000    0.000 
#
# Total GULP energy -124054.926766 kJ/mol
# GULP energy per Si atom -12405.492677 kJ/mol
# Density = 2.270734 g / cm^3
# Si number density = 22.759145 Si / 1000 Ang^3
#
#
#
# Elastic Constant Matrix: (Units=GPa)
#
#
# Indices 1 2 3 4 5 6 
#
# 1 79.0788 18.8449 47.3784 1.9823 -0.3166 17.3647
# 2 18.8449 88.5448 22.8072 -0.0086 -6.1506 2.1862
# 3 47.3784 22.8072 97.4927 7.0346 -6.0333 7.9171
# 4 1.9823 -0.0086 7.0346 28.2944 6.2433 3.1393
# 5 -0.3166 -6.1506 -6.0333 6.2433 59.0752 6.9503
# 6 17.3647 2.1862 7.9171 3.1393 6.9503 41.3236
#
#
#
# Elastic Compliance Matrix: (Units=1/GPa)
#
#
# Indices 1 2 3 4 5 6 
#
# 1 0.019734 -0.001804 -0.008774 0.001610 -0.000375 -0.006575
# 2 -0.001804 0.012249 -0.001978 0.000371 0.000990 0.000294
# 3 -0.008774 -0.001978 0.015273 -0.003630 0.001588 0.000874
# 4 0.001610 0.000371 -0.003630 0.037256 -0.004007 -0.002157
# 5 -0.000375 0.000990 0.001588 -0.004007 0.017957 -0.002915
# 6 -0.006575 0.000294 0.000874 -0.002157 -0.002915 0.027433
#
#
# Mechanical properties :
#
#
# Convention : Reuss Voigt Hill
#
# Bulk Modulus (GPa) = 45.15792 49.24190 47.19991
# Shear Modulus (GPa) = 30.78920 37.47771 34.13346
#
# Velocity S-wave (km/s) = 3.68207 4.06237 3.87689
# Velocity P-wave (km/s) = 6.16130 6.60960 6.38938
#
# Compressibility (1/GPa) = 0.02214451
#
# Stress axis : x y z
#
# Youngs Moduli (GPa) = 50.67420 81.64149 65.47553
#
# Poissons Ratio (x) = 0.14725 0.57445
# Poissons Ratio (y) = 0.09140 0.12953
# Poissons Ratio (z) = 0.44459 0.16152
#
# Static dielectric constant tensor:
#      x y z
#    x 4.207050 0.063390 -0.040370 
#    y 0.063390 3.975560 0.105670 
#    z -0.040370 0.105670 4.448400 
# 
# 
# High freq. dielectric constant tensor:
#      x y z
#    x 1.898990 0.009370 0.004080 
#    y 0.009370 1.886800 0.010130 
#    z 0.004080 0.010130 1.923530 
# 
# From -- ./inp_files/144096.got.cif
#   From: 2010.06.25/outbox.cif.g09.slc.cpg/sg2_73_cif.got.tgz:144096.got - 2010.06.27 13:26:56.
