data_PCOD8033963
_publ_section_title
;
Structure prediction by ZEFSAII (Michael W. Deem and Ramdas Pophale) SiO2 
 PCOD8033963
Probable space group: P -1
;
_chemical_formula_sum "Si O2"
_cell_formula_units_Z 16
_cell_length_a 27.998718
_cell_length_b 12.531904
_cell_length_c 6.937175
_cell_angle_alpha 43.423018
_cell_angle_beta 128.055732
_cell_angle_gamma 153.097240
_cell_volume 753.226678
_symmetry_space_group_name_H-M "P -1"
_symmetry_group_IT_number 2
_symmetry_cell_setting 'triclinic'
loop_
_space_group_symop_operation_xyz
x,y,z
-x,-y,-z
loop_
_atom_site_type_symbol
_atom_site_label
_atom_site_fract_x
_atom_site_fract_y
_atom_site_fract_z
Si Si1 0.386251 0.286506 0.589543
Si Si2 0.951028 0.270689 0.033582
Si Si3 0.052913 0.318196 0.873508
Si Si4 0.526487 0.007966 0.343310
Si Si5 0.351690 0.559209 0.218213
Si Si6 0.891452 0.916624 0.676120
Si Si7 0.778232 0.113908 0.622425
Si Si8 0.599581 0.822690 0.848808
O O1 0.500000 0.500000 0.500000
O O2 0.379919 0.438802 0.478944
O O3 0.292765 0.091079 0.461112
O O4 0.370070 0.115513 0.930293
O O5 0.903898 0.033741 0.354106
O O6 0.858258 0.146160 0.836232
O O7 0.000000 0.500000 0.000000
O O8 0.035560 0.379304 0.947536
O O9 0.158082 0.599134 0.658595
O O10 0.066516 0.166731 0.154901
O O11 0.955451 0.133696 0.723929
O O12 0.418493 0.795672 0.231240
O O13 0.573569 0.935201 0.553012
O O14 0.500000 0.000000 0.500000
O O15 0.613360 0.309661 0.079206
O O16 0.229809 0.341782 0.225579
O O17 0.704398 0.987731 0.785927
O O18 0.500000 0.500000 0.000000
#
# Coordination Sequence:
#
# PCOD8033963 Si02
#       8
#     2   2   2   2   2   2   2   2
#     4  12  24  41  69 100 141 180 225 282 337 404
#     4  12  26  45  71 103 136 177 236 287 340 414
#     4  11  26  47  68 103 139 178 232 286 353 405
#     4  11  25  43  66  98 140 177 225 278 333 405
#     4  11  24  43  67  99 136 180 227 276 344 402
#     4  11  25  46  72  98 140 180 227 289 345 414
#     4  12  26  43  72 101 137 182 225 285 345 395
#     4  12  24  44  67 101 136 175 232 272 332 414
#
# _framework density 21.241945000000001
#
# number of rings (size 3 to 8) (size 9 to 14) (size 15 to 20)
#    0.000    0.500    3.750    3.750    3.500    4.000 
#    0.000    0.000    0.000    0.000    0.000    0.000 
#    0.000    0.000    0.000    0.000    0.000    0.000 
#
# Total GULP energy -198465.556230 kJ/mol
# GULP energy per Si atom -12404.097264 kJ/mol
# Density = 2.119360 g / cm^3
# Si number density = 21.241945 Si / 1000 Ang^3
#
#
#
# Elastic Constant Matrix: (Units=GPa)
#
#
# Indices 1 2 3 4 5 6 
#
# 1 95.7236 40.4222 17.3337 -0.2711 -20.5795 3.0558
# 2 40.4222 125.7645 46.5101 2.7233 -13.9516 12.0763
# 3 17.3337 46.5101 132.1114 0.0695 -15.4594 1.2828
# 4 -0.2711 2.7233 0.0695 39.7175 4.4077 -5.1783
# 5 -20.5795 -13.9516 -15.4594 4.4077 45.8987 -1.9552
# 6 3.0558 12.0763 1.2828 -5.1783 -1.9552 30.8131
#
#
#
# Elastic Compliance Matrix: (Units=1/GPa)
#
#
# Indices 1 2 3 4 5 6 
#
# 1 0.013016 -0.003757 0.000170 -0.000125 0.004783 0.000457
# 2 -0.003757 0.010807 -0.003217 -0.001325 0.000477 -0.003921
# 3 0.000170 -0.003217 0.008920 0.000103 0.002137 0.001025
# 4 -0.000125 -0.001325 0.000103 0.026191 -0.002737 0.004755
# 5 0.004783 0.000477 0.002137 -0.002737 0.025075 0.000381
# 6 0.000457 -0.003921 0.001025 0.004755 0.000381 0.034726
#
#
# Mechanical properties :
#
#
# Convention : Reuss Voigt Hill
#
# Bulk Modulus (GPa) = 52.26161 62.45906 57.36033
# Shear Modulus (GPa) = 36.04374 39.90807 37.97591
#
# Velocity S-wave (km/s) = 4.12372 4.33914 4.23280
# Velocity P-wave (km/s) = 6.87967 7.38727 7.13798
#
# Compressibility (1/GPa) = 0.01913451
#
# Stress axis : x y z
#
# Youngs Moduli (GPa) = 76.83033 92.53453 112.11261
#
# Poissons Ratio (x) = 0.34765 -0.01908
# Poissons Ratio (y) = 0.28865 0.36067
# Poissons Ratio (z) = -0.01308 0.29769
#
# Static dielectric constant tensor:
#      x y z
#    x 3.794950 0.079030 0.090940 
#    y 0.079030 3.909420 0.106200 
#    z 0.090940 0.106200 4.435460 
# 
# 
# High freq. dielectric constant tensor:
#      x y z
#    x 1.834810 0.006780 -0.001420 
#    y 0.006780 1.837870 0.004110 
#    z -0.001420 0.004110 1.857810 
# 
# From -- ./inp_files/126824.got.cif
#   From: 2010.06.25/outbox.cif.g09.slc.cpg/sg2_64_cif.got.tgz:126824.got - 2010.06.27 13:26:56.
