data_PCOD8033796
_publ_section_title
;
Structure prediction by ZEFSAII (Michael W. Deem and Ramdas Pophale) SiO2 
 PCOD8033796
Probable space group: P -1
;
_chemical_formula_sum "Si O2"
_cell_formula_units_Z 16
_cell_length_a 11.663524
_cell_length_b 16.497442
_cell_length_c 5.267152
_cell_angle_alpha 91.730636
_cell_angle_beta 118.345518
_cell_angle_gamma 51.782395
_cell_volume 647.907806
_symmetry_space_group_name_H-M "P -1"
_symmetry_group_IT_number 2
_symmetry_cell_setting 'triclinic'
loop_
_space_group_symop_operation_xyz
x,y,z
-x,-y,-z
loop_
_atom_site_type_symbol
_atom_site_label
_atom_site_fract_x
_atom_site_fract_y
_atom_site_fract_z
Si Si1 0.672934 0.638167 0.908805
Si Si2 0.736428 0.175992 0.633128
Si Si3 0.792867 0.669632 0.566243
Si Si4 0.536796 0.914094 0.328747
Si Si5 0.995178 0.937370 0.706841
Si Si6 0.137221 0.709046 0.381723
Si Si7 0.788430 0.896823 0.225280
Si Si8 0.827730 0.404016 0.089271
O O1 0.472591 0.748499 0.623713
O O2 0.808335 0.599954 0.811345
O O3 0.735262 0.654253 0.236839
O O4 0.681122 0.538283 0.949132
O O5 0.804900 0.220431 0.527301
O O6 0.841870 0.044449 0.728787
O O7 0.805878 0.169912 0.987667
O O8 0.631418 0.794340 0.524197
O O9 0.974183 0.641535 0.710700
O O10 0.663923 0.883804 0.223999
O O11 0.500000 0.000000 0.500000
O O12 0.338612 0.979178 0.018314
O O13 0.923510 0.878649 0.564539
O O14 0.000000 0.000000 0.500000
O O15 0.206025 0.631995 0.694107
O O16 0.918115 0.798740 0.144668
O O17 0.211799 0.634776 0.200493
#
# Coordination Sequence:
#
# PCOD8033796 Si02
#       8
#     2   2   2   2   2   2   2   2
#     4  12  29  48  75 106 145 189 248 307 355 430
#     4  11  28  43  72 108 141 196 240 294 362 426
#     4  12  26  47  74 106 148 189 237 300 370 431
#     4  11  26  39  70 106 146 183 235 288 360 427
#     4  11  24  45  70 100 146 189 234 284 360 440
#     4  12  25  46  75 103 148 191 245 297 357 436
#     4  11  24  42  66 103 143 189 231 290 357 432
#     4  12  26  49  76 105 141 193 246 305 370 414
#
# _framework density 24.694875
#
# number of rings (size 3 to 8) (size 9 to 14) (size 15 to 20)
#    0.000    0.500    2.500    4.500   10.500    1.000 
#    0.000    0.000    0.000    0.000    0.000    0.000 
#    0.000    0.000    0.000    0.000    0.000    0.000 
#
# Total GULP energy -198222.491453 kJ/mol
# GULP energy per Si atom -12388.905716 kJ/mol
# Density = 2.463867 g / cm^3
# Si number density = 24.694875 Si / 1000 Ang^3
#
#
#
# Elastic Constant Matrix: (Units=GPa)
#
#
# Indices 1 2 3 4 5 6 
#
# 1 80.5841 -4.0111 23.6700 8.7861 -25.1118 2.9052
# 2 -4.0111 91.6064 19.1511 3.3776 -5.8221 1.8568
# 3 23.6700 19.1511 100.7657 13.9259 -18.2229 -5.6119
# 4 8.7861 3.3776 13.9259 44.5086 1.3029 -2.4853
# 5 -25.1118 -5.8221 -18.2229 1.3029 38.7920 -4.6305
# 6 2.9052 1.8568 -5.6119 -2.4853 -4.6305 33.4646
#
#
#
# Elastic Compliance Matrix: (Units=1/GPa)
#
#
# Indices 1 2 3 4 5 6 
#
# 1 0.016624 0.001929 -0.002053 -0.003122 0.010104 -0.000728
# 2 0.001929 0.011642 -0.002302 -0.000653 0.001818 -0.000997
# 3 -0.002053 -0.002302 0.012262 -0.003235 0.004522 0.002748
# 4 -0.003122 -0.000653 -0.003235 0.024327 -0.004340 0.000971
# 5 0.010104 0.001818 0.004522 -0.004340 0.035382 0.004354
# 6 -0.000728 -0.000997 0.002748 0.000971 0.004354 0.031136
#
#
# Mechanical properties :
#
#
# Convention : Reuss Voigt Hill
#
# Bulk Modulus (GPa) = 28.03124 38.95293 33.49208
# Shear Modulus (GPa) = 33.75702 38.96279 36.35991
#
# Velocity S-wave (km/s) = 3.70126 3.97642 3.84131
# Velocity P-wave (km/s) = 5.44440 6.07376 5.76767
#
# Compressibility (1/GPa) = 0.03567448
#
# Stress axis : x y z
#
# Youngs Moduli (GPa) = 60.15423 85.89699 81.55360
#
# Poissons Ratio (x) = -0.16572 0.16747
# Poissons Ratio (y) = -0.11605 0.18777
# Poissons Ratio (z) = 0.12352 0.19777
#
# Static dielectric constant tensor:
#      x y z
#    x 4.356070 -0.184990 -0.304450 
#    y -0.184990 3.525240 -0.426010 
#    z -0.304450 -0.426010 4.749510 
# 
# 
# High freq. dielectric constant tensor:
#      x y z
#    x 1.979680 0.006070 -0.011950 
#    y 0.006070 1.988100 -0.004820 
#    z -0.011950 -0.004820 1.992190 
# 
# From -- ./inp_files/81418.got.cif
#   From: 2010.06.25/outbox.cif.g09.slc.cpg/sg2_41_cif.got.tgz:81418.got - 2010.06.27 13:26:56.
