data_PCOD8033938
_publ_section_title
;
Structure prediction by ZEFSAII (Michael W. Deem and Ramdas Pophale) SiO2 
 PCOD8033938
Probable space group: P -1
;
_chemical_formula_sum "Si O2"
_cell_formula_units_Z 16
_cell_length_a 5.218973
_cell_length_b 21.361912
_cell_length_c 7.090345
_cell_angle_alpha 124.589381
_cell_angle_beta 102.331635
_cell_angle_gamma 79.392443
_cell_volume 633.800499
_symmetry_space_group_name_H-M "P -1"
_symmetry_group_IT_number 2
_symmetry_cell_setting 'triclinic'
loop_
_space_group_symop_operation_xyz
x,y,z
-x,-y,-z
loop_
_atom_site_type_symbol
_atom_site_label
_atom_site_fract_x
_atom_site_fract_y
_atom_site_fract_z
Si Si1 0.517383 0.384526 0.679360
Si Si2 0.215165 0.000709 0.370248
Si Si3 0.587188 0.450173 0.207985
Si Si4 0.876099 0.621336 0.848070
Si Si5 0.903305 0.787461 0.993911
Si Si6 0.316233 0.848173 0.908067
Si Si7 0.941255 0.686091 0.368943
Si Si8 0.995140 0.157108 0.497116
O O1 0.481863 0.461342 0.687678
O O2 0.255065 0.338256 0.538862
O O3 0.756410 0.328419 0.538780
O O4 0.558681 0.399612 0.931427
O O5 0.168097 0.077229 0.367959
O O6 0.500000 0.000000 0.500000
O O7 0.000000 0.000000 0.500000
O O8 0.200056 0.929450 0.108309
O O9 0.389318 0.423136 0.292787
O O10 0.884835 0.432187 0.296234
O O11 0.842087 0.701607 0.875938
O O12 0.921116 0.630000 0.092608
O O13 0.621892 0.832926 0.983257
O O14 0.051807 0.824702 0.257453
O O15 0.113823 0.788654 0.858656
O O16 0.276747 0.847798 0.673216
O O17 0.854109 0.773322 0.447188
#
# Coordination Sequence:
#
# PCOD8033938 Si02
#       8
#     2   2   2   2   2   2   2   2
#     4   9  16  28  46  80 121 154 207 261 304 377
#     4  12  24  46  69  97 133 173 210 271 326 384
#     4   9  15  26  48  79 117 161 205 255 314 370
#     4   9  17  30  51  81 118 164 204 258 317 369
#     4  11  24  43  65  98 138 168 223 276 320 386
#     4  12  25  44  69  99 128 179 219 263 332 388
#     4   9  19  31  50  82 117 162 203 258 319 364
#     4  11  25  44  70  96 135 173 218 272 325 392
#
# _framework density 25.244534999999999
#
# number of rings (size 3 to 8) (size 9 to 14) (size 15 to 20)
#    0.000    1.750    2.500    1.875    0.000   10.000 
#    0.000    2.500    0.000    0.000    0.000   17.500 
#    0.000    0.000    0.000    0.000    0.000    0.000 
#
# Total GULP energy -198358.636920 kJ/mol
# GULP energy per Si atom -12397.414808 kJ/mol
# Density = 2.518708 g / cm^3
# Si number density = 25.244535 Si / 1000 Ang^3
#
#
#
# Elastic Constant Matrix: (Units=GPa)
#
#
# Indices 1 2 3 4 5 6 
#
# 1 186.6376 78.1630 74.4178 16.8400 9.0965 -14.9396
# 2 78.1630 120.1317 45.2857 33.4980 6.8713 -21.9795
# 3 74.4178 45.2857 -9.3354 -40.4526 -15.8486 -5.3583
# 4 16.8400 33.4980 -40.4526 48.6575 -4.1850 13.4147
# 5 9.0965 6.8713 -15.8486 -4.1850 22.7754 7.4110
# 6 -14.9396 -21.9795 -5.3583 13.4147 7.4110 31.6691
#
#
#
# Elastic Compliance Matrix: (Units=1/GPa)
#
#
# Indices 1 2 3 4 5 6 
#
# 1 0.007093 -0.007096 0.001050 0.004539 0.002116 -0.003819
# 2 -0.007096 0.012255 0.006697 -0.002242 0.001114 0.006980
# 3 0.001050 0.006697 -0.003200 -0.011926 -0.010824 0.012187
# 4 0.004539 -0.002242 -0.011926 0.011486 -0.005710 -0.004962
# 5 0.002116 0.001114 -0.010824 -0.005710 0.036128 -0.006096
# 6 -0.003819 0.006980 0.012187 -0.004962 -0.006096 0.040209
#
#
# Mechanical properties :
#
#
# Convention : Reuss Voigt Hill
#
# Bulk Modulus (GPa) = 57.30570 77.01855 67.16213
# Shear Modulus (GPa) = 46.08944 27.25824 36.67384
#
# Velocity S-wave (km/s) = 4.27748 3.28955 3.81562
# Velocity P-wave (km/s) = 6.86624 6.70846 6.78781
#
# Compressibility (1/GPa) = 0.01745027
#
# Stress axis : x y z
#
# Youngs Moduli (GPa) = 140.99144 81.60009 -312.46256
#
# Poissons Ratio (x) = 0.57903 0.32821
# Poissons Ratio (y) = 1.00048 2.09262
# Poissons Ratio (z) = -0.14810 -0.54649
#
# Static dielectric constant tensor:
#      x y z
#    x 4.693150 -0.013860 0.059460 
#    y -0.013860 4.556970 0.040950 
#    z 0.059460 0.040950 4.730390 
# 
# 
# High freq. dielectric constant tensor:
#      x y z
#    x 1.998450 -0.003100 0.004890 
#    y -0.003100 2.010070 0.003660 
#    z 0.004890 0.003660 2.026200 
# 
# From -- ./inp_files/143168.got.cif
#   From: 2010.06.25/outbox.cif.g09.slc.cpg/sg2_72_cif.got.tgz:143168.got - 2010.06.27 13:26:56.
