data_PCOD8033984
_publ_section_title
;
Structure prediction by ZEFSAII (Michael W. Deem and Ramdas Pophale) SiO2 
 PCOD8033984
Probable space group: P -1
;
_chemical_formula_sum "Si O2"
_cell_formula_units_Z 14
_cell_length_a 5.552993
_cell_length_b 17.528101
_cell_length_c 7.644178
_cell_angle_alpha 106.162392
_cell_angle_beta 120.599366
_cell_angle_gamma 61.099143
_cell_volume 560.148376
_symmetry_space_group_name_H-M "P -1"
_symmetry_group_IT_number 2
_symmetry_cell_setting 'triclinic'
loop_
_space_group_symop_operation_xyz
x,y,z
-x,-y,-z
loop_
_atom_site_type_symbol
_atom_site_label
_atom_site_fract_x
_atom_site_fract_y
_atom_site_fract_z
Si Si1 0.876457 0.943883 0.751384
Si Si2 0.279305 0.596473 0.436053
Si Si3 0.624567 0.706260 0.301731
Si Si4 0.283452 0.599700 0.026126
Si Si5 0.659372 0.878492 0.323031
Si Si6 0.360686 0.298387 0.302486
Si Si7 0.576788 0.881150 0.922879
O O1 0.907031 0.881298 0.555656
O O2 0.717037 0.913323 0.833234
O O3 0.221010 0.938680 0.894686
O O4 0.665788 0.044131 0.692703
O O5 0.500000 0.500000 0.500000
O O6 0.233425 0.610415 0.221281
O O7 0.405852 0.658100 0.628539
O O8 0.941656 0.621579 0.399154
O O9 0.423095 0.670803 0.084097
O O10 0.640612 0.785866 0.253979
O O11 0.530413 0.737050 0.484114
O O12 0.500000 0.500000 0.000000
O O13 0.979844 0.626973 0.813284
O O14 0.763882 0.887993 0.169093
O O15 0.399208 0.215708 0.149163
#
# Coordination Sequence:
#
# PCOD8033984 Si02
#       7
#     2   2   2   2   2   2   2
#     4  11  27  49  71 111 147 196 242 312 360 443
#     4  11  24  43  68  99 139 185 234 301 366 431
#     4  11  24  45  67 102 142 183 240 300 362 434
#     4  11  25  43  68 102 136 185 237 295 367 438
#     4  11  25  45  75 103 147 193 245 301 370 435
#     4  11  25  43  69 101 142 186 239 303 360 438
#     4  12  26  47  75 107 148 194 249 297 373 435
#
# _framework density 24.993376000000001
#
# number of rings (size 3 to 8) (size 9 to 14) (size 15 to 20)
#    0.000    0.857    1.429    4.286    2.000   11.429 
#    5.143    0.000    0.000    0.000    0.000    0.000 
#    0.000    0.000    0.000    0.000    0.000    0.000 
#
# Total GULP energy -173457.640727 kJ/mol
# GULP energy per Si atom -12389.831480 kJ/mol
# Density = 2.493649 g / cm^3
# Si number density = 24.993376 Si / 1000 Ang^3
#
#
#
# Elastic Constant Matrix: (Units=GPa)
#
#
# Indices 1 2 3 4 5 6 
#
# 1 72.7251 -6.3134 28.1969 -8.0814 2.2962 4.0745
# 2 -6.3134 90.4216 -2.2098 5.3037 -9.7394 7.3625
# 3 28.1969 -2.2098 136.0793 13.0554 -12.1146 21.6980
# 4 -8.0814 5.3037 13.0554 41.9854 -2.0321 1.0846
# 5 2.2962 -9.7394 -12.1146 -2.0321 25.2687 1.2092
# 6 4.0745 7.3625 21.6980 1.0846 1.2092 22.5498
#
#
#
# Elastic Compliance Matrix: (Units=1/GPa)
#
#
# Indices 1 2 3 4 5 6 
#
# 1 0.015866 0.000374 -0.004084 0.004110 -0.002968 0.000902
# 2 0.000374 0.012325 0.001740 -0.001595 0.005709 -0.005995
# 3 -0.004084 0.001740 0.010817 -0.003790 0.006421 -0.010400
# 4 0.004110 -0.001595 -0.003790 0.025891 -0.000829 0.002224
# 5 -0.002968 0.005709 0.006421 -0.000829 0.045531 -0.009907
# 6 0.000902 -0.005995 -0.010400 0.002224 -0.009907 0.056572
#
#
# Mechanical properties :
#
#
# Convention : Reuss Voigt Hill
#
# Bulk Modulus (GPa) = 28.51710 37.61927 33.06819
# Shear Modulus (GPa) = 27.37763 36.59761 31.98762
#
# Velocity S-wave (km/s) = 3.31327 3.83076 3.58137
# Velocity P-wave (km/s) = 5.10604 5.88648 5.51009
#
# Compressibility (1/GPa) = 0.03506668
#
# Stress axis : x y z
#
# Youngs Moduli (GPa) = 63.02737 81.13891 92.44997
#
# Poissons Ratio (x) = -0.03033 0.37756
# Poissons Ratio (y) = -0.02356 -0.16085
# Poissons Ratio (z) = 0.25740 -0.14117
#
# Static dielectric constant tensor:
#      x y z
#    x 4.425170 -0.056830 -0.003610 
#    y -0.056830 4.473690 0.004970 
#    z -0.003610 0.004970 4.925500 
# 
# 
# High freq. dielectric constant tensor:
#      x y z
#    x 1.977010 -0.004030 -0.005490 
#    y -0.004030 2.012930 0.009550 
#    z -0.005490 0.009550 2.020680 
# 
# From -- ./inp_files/107746.got.cif
#   From: 2010.06.25/outbox.cif.g09.slc.cpg/sg2_54_cif.got.tgz:107746.got - 2010.06.27 13:26:56.
