data_PCOD8033568
_publ_section_title
;
Structure prediction by ZEFSAII (Michael W. Deem and Ramdas Pophale) SiO2 
 PCOD8033568
Probable space group: P -1
;
_chemical_formula_sum "Si O2"
_cell_formula_units_Z 16
_cell_length_a 11.832960
_cell_length_b 6.415548
_cell_length_c 23.802342
_cell_angle_alpha 52.217875
_cell_angle_beta 31.867077
_cell_angle_gamma 47.318614
_cell_volume 698.124984
_symmetry_space_group_name_H-M "P -1"
_symmetry_group_IT_number 2
_symmetry_cell_setting 'triclinic'
loop_
_space_group_symop_operation_xyz
x,y,z
-x,-y,-z
loop_
_atom_site_type_symbol
_atom_site_label
_atom_site_fract_x
_atom_site_fract_y
_atom_site_fract_z
Si Si1 0.673478 0.632613 0.382806
Si Si2 0.996717 0.716240 0.316365
Si Si3 0.138564 0.669104 0.384074
Si Si4 0.353353 0.100361 0.253487
Si Si5 0.996492 0.717827 0.917327
Si Si6 0.493921 0.814793 0.944123
Si Si7 0.979501 0.716300 0.804278
Si Si8 0.426188 0.866277 0.734151
O O1 0.500000 0.500000 0.500000
O O2 0.533744 0.940106 0.364154
O O3 0.782250 0.656715 0.392642
O O4 0.862951 0.450897 0.286679
O O5 0.981275 0.800775 0.374450
O O6 0.995864 0.989016 0.238560
O O7 0.221252 0.436875 0.258270
O O8 0.177809 0.927651 0.358017
O O9 0.000000 0.500000 0.500000
O O10 0.395601 0.454647 0.296267
O O11 0.530698 0.002480 0.246818
O O12 0.493130 0.060777 0.143624
O O13 0.058746 0.550109 0.858186
O O14 0.168882 0.869513 0.839087
O O15 0.000000 0.500000 0.000000
O O16 0.747721 0.961902 0.968930
O O17 0.710473 0.808831 0.889622
O O18 0.500000 0.500000 0.000000
#
# Coordination Sequence:
#
# PCOD8033568 Si02
#       8
#     2   2   2   2   2   2   2   2
#     4  12  28  46  75 108 145 193 237 298 370 423
#     4  11  23  47  73 101 145 186 241 293 353 425
#     4  11  26  45  76 102 141 194 240 293 366 431
#     4  11  25  46  72 104 145 188 237 297 353 439
#     4  12  28  46  72 109 147 193 238 305 375 417
#     4  12  25  46  78 103 138 200 250 288 366 437
#     4  12  26  50  73 104 153 188 248 302 347 447
#     4  11  28  45  67 108 153 178 243 303 355 434
#
# _framework density 22.918533
#
# number of rings (size 3 to 8) (size 9 to 14) (size 15 to 20)
#    0.000    0.500    3.750    2.625   12.250    2.000 
#    0.000    0.000    0.000    0.000    0.000    0.000 
#    0.000    0.000    0.000    0.000    0.000    0.000 
#
# Total GULP energy -198296.324680 kJ/mol
# GULP energy per Si atom -12393.520292 kJ/mol
# Density = 2.286637 g / cm^3
# Si number density = 22.918533 Si / 1000 Ang^3
#
#
#
# Elastic Constant Matrix: (Units=GPa)
#
#
# Indices 1 2 3 4 5 6 
#
# 1 190.8912 18.4517 60.0495 1.3119 -11.9142 2.6724
# 2 18.4517 79.0493 14.4364 -10.7597 -3.8549 -2.7898
# 3 60.0495 14.4364 119.6878 -19.1787 -10.2050 1.6359
# 4 1.3119 -10.7597 -19.1787 23.5177 -5.7496 -0.7280
# 5 -11.9142 -3.8549 -10.2050 -5.7496 40.1861 -9.7706
# 6 2.6724 -2.7898 1.6359 -0.7280 -9.7706 35.0550
#
#
#
# Elastic Compliance Matrix: (Units=1/GPa)
#
#
# Indices 1 2 3 4 5 6 
#
# 1 0.006608 -0.001416 -0.003776 -0.004070 0.000166 -0.000479
# 2 -0.001416 0.014142 0.000419 0.007603 0.002644 0.002109
# 3 -0.003776 0.000419 0.012364 0.011489 0.003969 0.001089
# 4 -0.004070 0.007603 0.011489 0.058693 0.012042 0.004955
# 5 0.000166 0.002644 0.003969 0.012042 0.030016 0.008629
# 6 -0.000479 0.002109 0.001089 0.004955 0.008629 0.031188
#
#
# Mechanical properties :
#
#
# Convention : Reuss Voigt Hill
#
# Bulk Modulus (GPa) = 42.42839 63.94484 53.18662
# Shear Modulus (GPa) = 29.34044 39.53115 34.43579
#
# Velocity S-wave (km/s) = 3.58188 4.15764 3.88045
# Velocity P-wave (km/s) = 5.97155 7.14209 6.58289
#
# Compressibility (1/GPa) = 0.02356912
#
# Stress axis : x y z
#
# Youngs Moduli (GPa) = 151.32310 70.70929 80.88227
#
# Poissons Ratio (x) = 0.10010 0.30544
# Poissons Ratio (y) = 0.21423 -0.03392
# Poissons Ratio (z) = 0.57144 -0.02965
#
# Static dielectric constant tensor:
#      x y z
#    x 5.280880 0.588860 0.240770 
#    y 0.588860 4.793770 0.034010 
#    z 0.240770 0.034010 4.182900 
# 
# 
# High freq. dielectric constant tensor:
#      x y z
#    x 1.930830 -0.007380 -0.003580 
#    y -0.007380 1.907850 -0.013960 
#    z -0.003580 -0.013960 1.903320 
# 
# From -- ./inp_files/617883.got.cif
#   From: 2010.06.25/outbox.cif.g09.slc.cpg/sg2_309_cif.got.tgz:617883.got - 2010.06.27 13:26:56.
