data_PCOD8033797
_publ_section_title
;
Structure prediction by ZEFSAII (Michael W. Deem and Ramdas Pophale) SiO2 
 PCOD8033797
Probable space group: P -1
;
_chemical_formula_sum "Si O2"
_cell_formula_units_Z 16
_cell_length_a 11.279484
_cell_length_b 22.137659
_cell_length_c 6.334791
_cell_angle_alpha 113.990200
_cell_angle_beta 102.824744
_cell_angle_gamma 32.131392
_cell_volume 743.869588
_symmetry_space_group_name_H-M "P -1"
_symmetry_group_IT_number 2
_symmetry_cell_setting 'triclinic'
loop_
_space_group_symop_operation_xyz
x,y,z
-x,-y,-z
loop_
_atom_site_type_symbol
_atom_site_label
_atom_site_fract_x
_atom_site_fract_y
_atom_site_fract_z
Si Si1 0.121043 0.050662 0.604097
Si Si2 0.424637 0.087388 0.266746
Si Si3 0.299363 0.543973 0.432290
Si Si4 0.942759 0.691712 0.850065
Si Si5 0.853311 0.089242 0.865299
Si Si6 0.931597 0.790450 0.367395
Si Si7 0.629574 0.626722 0.975449
Si Si8 0.035383 0.510910 0.759681
O O1 0.999825 0.163960 0.576656
O O2 0.968715 0.100239 0.817216
O O3 0.364237 0.966834 0.650259
O O4 0.157680 0.968497 0.368863
O O5 0.252189 0.219278 0.279858
O O6 0.304448 0.106309 0.445116
O O7 0.500000 0.000000 0.000000
O O8 0.500000 0.500000 0.500000
O O9 0.403556 0.433870 0.189788
O O10 0.185187 0.578217 0.659923
O O11 0.131738 0.660868 0.380011
O O12 0.926815 0.634495 0.908006
O O13 0.902359 0.774159 0.098139
O O14 0.586193 0.232538 0.002512
O O15 0.000000 0.000000 0.000000
O O16 0.879138 0.532781 0.858187
O O17 0.692302 0.609951 0.227121
O O18 0.000000 0.500000 0.500000
#
# Coordination Sequence:
#
# PCOD8033797 Si02
#       8
#     2   2   2   2   2   2   2   2
#     4  11  27  47  66 102 136 184 237 274 351 412
#     4  11  25  40  71 104 135 177 226 289 348 407
#     4  11  26  43  66 104 137 181 225 284 349 414
#     4  11  24  42  66 104 136 178 227 282 360 402
#     4  11  30  47  69  96 143 193 232 282 339 419
#     4  11  25  44  70 102 141 173 234 292 340 416
#     4  11  26  44  70 102 136 180 236 284 345 415
#     4  11  24  43  70  99 137 176 228 292 343 404
#
# _framework density 21.509146999999999
#
# number of rings (size 3 to 8) (size 9 to 14) (size 15 to 20)
#    0.000    1.000    3.750    0.375   10.500    2.500 
#    0.000    0.000    0.000    0.000    0.000    0.000 
#    0.000    0.000    0.000    0.000    0.000    0.000 
#
# Total GULP energy -198296.144118 kJ/mol
# GULP energy per Si atom -12393.509007 kJ/mol
# Density = 2.146019 g / cm^3
# Si number density = 21.509147 Si / 1000 Ang^3
#
#
#
# Elastic Constant Matrix: (Units=GPa)
#
#
# Indices 1 2 3 4 5 6 
#
# 1 115.2250 38.6016 31.8269 -6.7342 14.4638 7.8753
# 2 38.6016 134.4570 38.2157 -9.1935 7.1515 2.4155
# 3 31.8269 38.2157 109.4461 -8.2162 7.7712 -10.1120
# 4 -6.7342 -9.1935 -8.2162 30.9365 2.0173 3.5432
# 5 14.4638 7.1515 7.7712 2.0173 28.4448 -1.7079
# 6 7.8753 2.4155 -10.1120 3.5432 -1.7079 37.7677
#
#
#
# Elastic Compliance Matrix: (Units=1/GPa)
#
#
# Indices 1 2 3 4 5 6 
#
# 1 0.010909 -0.002053 -0.002272 0.001829 -0.004728 -0.003137
# 2 -0.002053 0.008886 -0.002418 0.001710 -0.000710 -0.000980
# 3 -0.002272 -0.002418 0.011150 0.001433 -0.001179 0.003426
# 4 0.001829 0.001710 0.001433 0.034301 -0.004395 -0.003524
# 5 -0.004728 -0.000710 -0.001179 -0.004395 0.038545 0.002871
# 6 -0.003137 -0.000980 0.003426 -0.003524 0.002871 0.028572
#
#
# Mechanical properties :
#
#
# Convention : Reuss Voigt Hill
#
# Bulk Modulus (GPa) = 57.27764 64.04627 60.66196
# Shear Modulus (GPa) = 32.96671 36.12874 34.54772
#
# Velocity S-wave (km/s) = 3.91920 4.10285 4.01207
# Velocity P-wave (km/s) = 6.86785 7.23087 7.05170
#
# Compressibility (1/GPa) = 0.01745882
#
# Stress axis : x y z
#
# Youngs Moduli (GPa) = 91.66806 112.53429 89.68941
#
# Poissons Ratio (x) = 0.23105 0.20380
# Poissons Ratio (y) = 0.18821 0.21682
# Poissons Ratio (z) = 0.20829 0.27205
#
# Static dielectric constant tensor:
#      x y z
#    x 2.530530 -1.839260 0.843710 
#    y -1.839260 1.358490 1.119210 
#    z 0.843710 1.119210 3.388290 
# 
# 
# High freq. dielectric constant tensor:
#      x y z
#    x 1.849820 0.009080 0.008250 
#    y 0.009080 1.857120 -0.011760 
#    z 0.008250 -0.011760 1.849110 
# 
# From -- ./inp_files/84533.got.cif
#   From: 2010.06.25/outbox.cif.g09.slc.cpg/sg2_43_cif.got.tgz:84533.got - 2010.06.27 13:26:56.
