data_PCOD8033494
_publ_section_title
;
Structure prediction by ZEFSAII (Michael W. Deem and Ramdas Pophale) SiO2 
 PCOD8033494
Probable space group: P -1
;
_chemical_formula_sum "Si O2"
_cell_formula_units_Z 16
_cell_length_a 20.358349
_cell_length_b 17.248377
_cell_length_c 9.704788
_cell_angle_alpha 37.786638
_cell_angle_beta 37.212542
_cell_angle_gamma 20.447617
_cell_volume 704.153756
_symmetry_space_group_name_H-M "P -1"
_symmetry_group_IT_number 2
_symmetry_cell_setting 'triclinic'
loop_
_space_group_symop_operation_xyz
x,y,z
-x,-y,-z
loop_
_atom_site_type_symbol
_atom_site_label
_atom_site_fract_x
_atom_site_fract_y
_atom_site_fract_z
Si Si1 0.181355 0.819873 0.347977
Si Si2 0.034396 0.577423 0.023153
Si Si3 0.512769 0.136693 0.527652
Si Si4 0.341642 0.942370 0.896013
Si Si5 0.923641 0.415315 0.363597
Si Si6 0.464859 0.706830 0.476396
Si Si7 0.946714 0.975793 0.257285
Si Si8 0.586715 0.781025 0.951553
O O1 0.334968 0.564070 0.494680
O O2 0.097143 0.877743 0.257063
O O3 0.297975 0.837471 0.127935
O O4 0.000000 0.000000 0.500000
O O5 0.188648 0.465116 0.041278
O O6 0.053558 0.410806 0.189873
O O7 0.083956 0.604285 0.761459
O O8 0.822412 0.816508 0.094177
O O9 0.646918 0.024448 0.327207
O O10 0.291124 0.358423 0.536092
O O11 0.553760 0.211597 0.457620
O O12 0.546810 0.968180 0.778597
O O13 0.541755 0.781351 0.869634
O O14 0.022842 0.202167 0.573513
O O15 0.280908 0.788977 0.649938
O O16 0.450460 0.830648 0.211505
O O17 0.000000 0.000000 0.000000
#
# Coordination Sequence:
#
# PCOD8033494 Si02
#       8
#     2   2   2   2   2   2   2   2
#     4  12  27  50  71 100 146 188 235 291 346 415
#     4  11  24  45  75 104 140 185 232 292 343 425
#     4  12  25  46  73 105 145 180 224 303 354 410
#     4  12  28  45  68 105 148 182 229 294 358 400
#     4  11  23  46  75 103 143 183 233 290 353 409
#     4  12  26  47  75 103 136 190 242 286 343 427
#     4  12  27  46  73 104 138 185 240 288 348 418
#     4  12  24  45  75 105 137 186 238 277 355 427
#
# _framework density 22.72231
#
# number of rings (size 3 to 8) (size 9 to 14) (size 15 to 20)
#    0.000    0.250    3.750    5.250    3.500    4.500 
#    2.250    0.000    0.000    0.000    0.000    0.000 
#    0.000    0.000    0.000    0.000    0.000    0.000 
#
# Total GULP energy -198491.203760 kJ/mol
# GULP energy per Si atom -12405.700235 kJ/mol
# Density = 2.267059 g / cm^3
# Si number density = 22.722310 Si / 1000 Ang^3
#
#
#
# Elastic Constant Matrix: (Units=GPa)
#
#
# Indices 1 2 3 4 5 6 
#
# 1 87.2669 33.3422 27.9568 -11.8248 -4.9135 -4.6509
# 2 33.3422 112.8667 57.3406 -8.0411 -1.0387 -1.5622
# 3 27.9568 57.3406 139.9369 -10.3818 2.6755 14.1986
# 4 -11.8248 -8.0411 -10.3818 31.0969 -0.0114 0.4069
# 5 -4.9135 -1.0387 2.6755 -0.0114 30.2670 2.9987
# 6 -4.6509 -1.5622 14.1986 0.4069 2.9987 40.6349
#
#
#
# Elastic Compliance Matrix: (Units=1/GPa)
#
#
# Indices 1 2 3 4 5 6 
#
# 1 0.013829 -0.003021 -0.001451 0.003970 0.002095 0.001779
# 2 -0.003021 0.012090 -0.004489 0.000457 0.000156 0.001672
# 3 -0.001451 -0.004489 0.009788 0.001603 -0.000887 -0.003709
# 4 0.003970 0.000457 0.001603 0.034327 0.000578 -0.000475
# 5 0.002095 0.000156 -0.000887 0.000578 0.033655 -0.001934
# 6 0.001779 0.001672 -0.003709 -0.000475 -0.001934 0.026321
#
#
# Mechanical properties :
#
#
# Convention : Reuss Voigt Hill
#
# Bulk Modulus (GPa) = 56.22939 64.14996 60.18968
# Shear Modulus (GPa) = 32.49689 35.16182 33.82935
#
# Velocity S-wave (km/s) = 3.78587 3.93804 3.86270
# Velocity P-wave (km/s) = 6.62650 6.99793 6.81474
#
# Compressibility (1/GPa) = 0.01778429
#
# Stress axis : x y z
#
# Youngs Moduli (GPa) = 72.31164 82.71032 102.16940
#
# Poissons Ratio (x) = 0.24991 0.14822
# Poissons Ratio (y) = 0.21849 0.45866
# Poissons Ratio (z) = 0.10490 0.37130
#
# Static dielectric constant tensor:
#      x y z
#    x 4.268740 -0.243440 -0.195350 
#    y -0.243440 4.325920 0.003120 
#    z -0.195350 0.003120 4.108260 
# 
# 
# High freq. dielectric constant tensor:
#      x y z
#    x 1.905070 -0.012040 -0.011720 
#    y -0.012040 1.897400 -0.003620 
#    z -0.011720 -0.003620 1.901530 
# 
# From -- ./inp_files/348805.got.cif
#   From: 2010.06.25/outbox.cif.g09.slc.cpg/sg2_175_cif.got.tgz:348805.got - 2010.06.27 13:26:56.
