data_PCOD8033903
_publ_section_title
;
Structure prediction by ZEFSAII (Michael W. Deem and Ramdas Pophale) SiO2 
 PCOD8033903
Probable space group: P -1
;
_chemical_formula_sum "Si O2"
_cell_formula_units_Z 16
_cell_length_a 14.264576
_cell_length_b 9.399090
_cell_length_c 8.844499
_cell_angle_alpha 100.882775
_cell_angle_beta 38.434711
_cell_angle_gamma 107.011849
_cell_volume 703.249351
_symmetry_space_group_name_H-M "P -1"
_symmetry_group_IT_number 2
_symmetry_cell_setting 'triclinic'
loop_
_space_group_symop_operation_xyz
x,y,z
-x,-y,-z
loop_
_atom_site_type_symbol
_atom_site_label
_atom_site_fract_x
_atom_site_fract_y
_atom_site_fract_z
Si Si1 0.823425 0.017665 0.706627
Si Si2 0.202146 0.018470 0.831176
Si Si3 0.763852 0.316423 0.961672
Si Si4 0.615595 0.788569 0.131190
Si Si5 0.098068 0.126956 0.689674
Si Si6 0.903088 0.544024 0.344398
Si Si7 0.655946 0.503363 0.899008
Si Si8 0.715360 0.276257 0.357825
O O1 0.793984 0.959149 0.558390
O O2 0.816090 0.186570 0.776353
O O3 0.676510 0.915522 0.957033
O O4 0.000000 0.000000 0.500000
O O5 0.243970 0.876718 0.671249
O O6 0.349348 0.137140 0.733617
O O7 0.128815 0.114020 0.825407
O O8 0.086616 0.956546 0.108198
O O9 0.642824 0.376158 0.019469
O O10 0.920436 0.443009 0.824378
O O11 0.682080 0.267691 0.217175
O O12 0.432006 0.714134 0.351343
O O13 0.703142 0.658639 0.961399
O O14 0.124566 0.299135 0.647274
O O15 0.795182 0.488608 0.612611
O O16 0.856041 0.418372 0.247353
O O17 0.500000 0.500000 0.000000
#
# Coordination Sequence:
#
# PCOD8033903 Si02
#       8
#     2   2   2   2   2   2   2   2
#     4  12  21  46  74 102 139 184 240 295 349 425
#     4  11  25  43  70 106 136 183 231 291 356 418
#     4  12  27  45  75 105 138 195 240 290 356 421
#     4  12  24  46  71  95 146 188 231 292 355 423
#     4  11  24  42  73 102 138 179 234 292 352 413
#     4  12  24  47  71 104 141 186 238 296 347 428
#     4  12  28  49  67 106 145 186 242 293 358 420
#     4  12  26  45  68 104 149 180 236 294 354 425
#
# _framework density 22.751529999999999
#
# number of rings (size 3 to 8) (size 9 to 14) (size 15 to 20)
#    0.000    0.250    7.500    1.125    3.500    2.500 
#    0.000    1.250    0.000    0.000    0.000    0.000 
#    0.000    0.000    0.000    0.000    0.000    0.000 
#
# Total GULP energy -198334.983361 kJ/mol
# GULP energy per Si atom -12395.936460 kJ/mol
# Density = 2.269975 g / cm^3
# Si number density = 22.751530 Si / 1000 Ang^3
#
#
#
# Elastic Constant Matrix: (Units=GPa)
#
#
# Indices 1 2 3 4 5 6 
#
# 1 91.9011 53.0414 28.9714 -2.3068 0.2228 -11.2911
# 2 53.0414 123.1436 0.3959 13.4930 7.7425 12.7478
# 3 28.9714 0.3959 82.0387 -3.3189 1.2697 3.4530
# 4 -2.3068 13.4930 -3.3189 38.5974 4.6008 3.9908
# 5 0.2228 7.7425 1.2697 4.6008 26.5868 -2.9839
# 6 -11.2911 12.7478 3.4530 3.9908 -2.9839 35.2003
#
#
#
# Elastic Compliance Matrix: (Units=1/GPa)
#
#
# Indices 1 2 3 4 5 6 
#
# 1 0.021026 -0.010772 -0.007812 0.002670 0.004158 0.011462
# 2 -0.010772 0.014394 0.004031 -0.003843 -0.004641 -0.009021
# 3 -0.007812 0.004031 0.015221 0.000325 -0.002532 -0.005710
# 4 0.002670 -0.003843 0.000325 0.028040 -0.003916 -0.001295
# 5 0.004158 -0.004641 -0.002532 -0.003916 0.040530 0.007143
# 6 0.011462 -0.009021 -0.005710 -0.001295 0.007143 0.036665
#
#
# Mechanical properties :
#
#
# Convention : Reuss Voigt Hill
#
# Bulk Modulus (GPa) = 46.43581 51.32231 48.87906
# Shear Modulus (GPa) = 26.01974 34.38855 30.20414
#
# Velocity S-wave (km/s) = 3.38546 3.89200 3.64753
# Velocity P-wave (km/s) = 5.97796 6.54244 6.26656
#
# Compressibility (1/GPa) = 0.02153511
#
# Stress axis : x y z
#
# Youngs Moduli (GPa) = 47.55969 69.47230 65.69706
#
# Poissons Ratio (x) = 0.74835 0.51323
# Poissons Ratio (y) = 0.51231 -0.26480
# Poissons Ratio (z) = 0.37154 -0.28002
#
# Static dielectric constant tensor:
#      x y z
#    x 4.027590 0.286300 0.219330 
#    y 0.286300 4.200860 0.142830 
#    z 0.219330 0.142830 4.295910 
# 
# 
# High freq. dielectric constant tensor:
#      x y z
#    x 1.881830 0.014250 0.015430 
#    y 0.014250 1.904930 0.005840 
#    z 0.015430 0.005840 1.909090 
# 
# From -- ./inp_files/261840.got.cif
#   From: 2010.06.25/outbox.cif.g09.slc.cpg/sg2_131_cif.got.tgz:261840.got - 2010.06.27 13:26:56.
