data_PCOD8033216
_publ_section_title
;
Structure prediction by ZEFSAII (Michael W. Deem and Ramdas Pophale) SiO2 
 PCOD8033216
Probable space group: P -1
;
_chemical_formula_sum "Si O2"
_cell_formula_units_Z 16
_cell_length_a 18.704405
_cell_length_b 10.768035
_cell_length_c 9.309153
_cell_angle_alpha 117.519913
_cell_angle_beta 28.921606
_cell_angle_gamma 124.523260
_cell_volume 744.343616
_symmetry_space_group_name_H-M "P -1"
_symmetry_group_IT_number 2
_symmetry_cell_setting 'triclinic'
loop_
_space_group_symop_operation_xyz
x,y,z
-x,-y,-z
loop_
_atom_site_type_symbol
_atom_site_label
_atom_site_fract_x
_atom_site_fract_y
_atom_site_fract_z
Si Si1 0.972127 0.821847 0.435646
Si Si2 0.977289 0.658495 0.630762
Si Si3 0.272686 0.843884 0.386278
Si Si4 0.419451 0.186670 0.267241
Si Si5 0.630393 0.648973 0.295203
Si Si6 0.538228 0.808146 0.314796
Si Si7 0.625610 0.670063 0.846535
Si Si8 0.254930 0.875340 0.773527
O O1 0.019932 0.754878 0.459732
O O2 0.795669 0.706340 0.642911
O O3 0.000000 0.000000 0.500000
O O4 0.076933 0.802894 0.108264
O O5 0.000000 0.500000 0.500000
O O6 0.094827 0.753997 0.598099
O O7 0.800867 0.636038 0.980981
O O8 0.265265 0.842480 0.570843
O O9 0.328490 0.009295 0.306541
O O10 0.391665 0.766196 0.074256
O O11 0.377308 0.216393 0.518874
O O12 0.351972 0.285835 0.336640
O O13 0.500000 0.500000 0.500000
O O14 0.563551 0.665696 0.265002
O O15 0.363452 0.810092 0.644924
O O16 0.678168 0.947407 0.216057
O O17 0.558486 0.790359 0.099245
O O18 0.500000 0.500000 0.000000
#
# Coordination Sequence:
#
# PCOD8033216 Si02
#       8
#     2   2   2   2   2   2   2   2
#     4  12  26  48  75 103 140 193 241 289 354 424
#     4  12  29  47  70 106 147 184 233 300 358 424
#     4  11  25  45  70 105 142 178 237 296 353 419
#     4  11  25  43  72 103 136 187 234 289 351 423
#     4  12  25  45  70  97 142 187 232 282 358 424
#     4  11  23  45  70 100 136 182 241 285 345 416
#     4  12  25  45  69 100 142 186 234 290 346 422
#     4  11  24  43  74 101 137 177 236 300 342 413
#
# _framework density 21.495449000000001
#
# number of rings (size 3 to 8) (size 9 to 14) (size 15 to 20)
#    0.000    0.500    5.000    2.250    7.000    0.500 
#    0.000    1.250    0.000    0.000    0.000    0.000 
#    0.000    0.000    0.000    0.000    0.000    0.000 
#
# Total GULP energy -198330.195159 kJ/mol
# GULP energy per Si atom -12395.637197 kJ/mol
# Density = 2.144652 g / cm^3
# Si number density = 21.495449 Si / 1000 Ang^3
#
#
#
# Elastic Constant Matrix: (Units=GPa)
#
#
# Indices 1 2 3 4 5 6 
#
# 1 106.1138 53.7177 36.6677 -13.4554 1.5817 -7.3517
# 2 53.7177 96.0064 50.7977 -8.3933 -11.4497 -3.8752
# 3 36.6677 50.7977 149.8643 -4.7548 4.7615 -0.4348
# 4 -13.4554 -8.3933 -4.7548 34.4859 10.6190 -3.7129
# 5 1.5817 -11.4497 4.7615 10.6190 29.0014 0.0553
# 6 -7.3517 -3.8752 -0.4348 -3.7129 0.0553 34.1493
#
#
#
# Elastic Compliance Matrix: (Units=1/GPa)
#
#
# Indices 1 2 3 4 5 6 
#
# 1 0.014713 -0.008074 -0.000475 0.005893 -0.006075 0.002896
# 2 -0.008074 0.018263 -0.004576 -0.002164 0.009194 0.000026
# 3 -0.000475 -0.004576 0.008479 0.000905 -0.003503 -0.000409
# 4 0.005893 -0.002164 0.000905 0.035885 -0.014473 0.004960
# 5 -0.006075 0.009194 -0.003503 -0.014473 0.044321 -0.001955
# 6 0.002896 0.000026 -0.000409 0.004960 -0.001955 0.030447
#
#
# Mechanical properties :
#
#
# Convention : Reuss Voigt Hill
#
# Bulk Modulus (GPa) = 65.76200 70.48340 68.12270
# Shear Modulus (GPa) = 27.25919 33.58075 30.41997
#
# Velocity S-wave (km/s) = 3.56496 3.95679 3.76597
# Velocity P-wave (km/s) = 6.89964 7.33048 7.11832
#
# Compressibility (1/GPa) = 0.01520635
#
# Stress axis : x y z
#
# Youngs Moduli (GPa) = 67.96496 54.75666 117.94326
#
# Poissons Ratio (x) = 0.44209 0.05602
# Poissons Ratio (y) = 0.54873 0.53966
# Poissons Ratio (z) = 0.03228 0.25054
#
# Static dielectric constant tensor:
#      x y z
#    x 2.954870 0.111720 0.054640 
#    y 0.111720 3.603440 -0.132460 
#    z 0.054640 -0.132460 3.813260 
# 
# 
# High freq. dielectric constant tensor:
#      x y z
#    x 1.857430 -0.000960 0.002700 
#    y -0.000960 1.841170 0.003460 
#    z 0.002700 0.003460 1.852930 
# 
# From -- ./inp_files/297797.got.cif
#   From: 2010.06.25/outbox.cif.g09.slc.cpg/sg2_149_cif.got.tgz:297797.got - 2010.06.27 13:26:56.
