data_PCOD8033650
_publ_section_title
;
Structure prediction by ZEFSAII (Michael W. Deem and Ramdas Pophale) SiO2 
 PCOD8033650
Probable space group: P -1
;
_chemical_formula_sum "Si O2"
_cell_formula_units_Z 16
_cell_length_a 7.475242
_cell_length_b 17.064723
_cell_length_c 6.716554
_cell_angle_alpha 71.635790
_cell_angle_beta 60.142314
_cell_angle_gamma 92.235320
_cell_volume 684.961038
_symmetry_space_group_name_H-M "P -1"
_symmetry_group_IT_number 2
_symmetry_cell_setting 'triclinic'
loop_
_space_group_symop_operation_xyz
x,y,z
-x,-y,-z
loop_
_atom_site_type_symbol
_atom_site_label
_atom_site_fract_x
_atom_site_fract_y
_atom_site_fract_z
Si Si1 0.589392 0.599270 0.356900
Si Si2 0.021105 0.017525 0.705816
Si Si3 0.571580 0.863174 0.691166
Si Si4 0.939794 0.697545 0.826669
Si Si5 0.739034 0.723489 0.516341
Si Si6 0.646289 0.271933 0.615330
Si Si7 0.840533 0.155002 0.887649
Si Si8 0.778807 0.841241 0.998912
O O1 0.500000 0.500000 0.500000
O O2 0.624855 0.639912 0.525435
O O3 0.415671 0.645232 0.316289
O O4 0.806739 0.618666 0.092894
O O5 0.267333 0.062776 0.584127
O O6 0.862182 0.077123 0.799504
O O7 0.000000 0.000000 0.500000
O O8 0.940638 0.926234 0.941906
O O9 0.578185 0.770792 0.677132
O O10 0.327157 0.873661 0.814339
O O11 0.648980 0.874339 0.869115
O O12 0.866395 0.688328 0.645914
O O13 0.191318 0.699102 0.681786
O O14 0.921256 0.786506 0.856036
O O15 0.919879 0.790941 0.221516
O O16 0.743744 0.221400 0.763668
O O17 0.413751 0.214085 0.706734
#
# Coordination Sequence:
#
# PCOD8033650 Si02
#       8
#     2   2   2   2   2   2   2   2
#     4  11  24  39  58  85 109 135 179 231 283 339
#     4   9  15  23  44  84 119 143 185 233 265 306
#     4   8  15  27  46  74 107 144 182 217 261 313
#     4   9  19  38  57  79 111 146 183 221 270 330
#     4   9  19  37  57  78 110 146 178 223 279 330
#     4   9  18  34  53  75 108 144 181 222 268 324
#     4   9  17  31  53  80 111 151 191 222 264 326
#     4   8  15  27  48  80 113 143 182 227 264 309
#
# _framework density 23.358993999999999
#
# number of rings (size 3 to 8) (size 9 to 14) (size 15 to 20)
#    0.000    3.000    0.000    3.000    0.000    7.500 
#    0.000    2.500    0.000   12.000    0.000   49.000 
#    0.000    0.000    0.000    0.000    0.000    0.000 
#
# Total GULP energy -198281.585128 kJ/mol
# GULP energy per Si atom -12392.599071 kJ/mol
# Density = 2.330583 g / cm^3
# Si number density = 23.358994 Si / 1000 Ang^3
#
#
#
# Elastic Constant Matrix: (Units=GPa)
#
#
# Indices 1 2 3 4 5 6 
#
# 1 63.9158 43.8815 47.3044 2.5267 -24.1840 4.7291
# 2 43.8815 162.2423 80.6101 -28.3177 -22.0334 0.2794
# 3 47.3044 80.6101 181.3398 -6.7285 -47.3246 -10.7567
# 4 2.5267 -28.3177 -6.7285 43.4444 -3.1979 0.6027
# 5 -24.1840 -22.0334 -47.3246 -3.1979 46.8232 5.5176
# 6 4.7291 0.2794 -10.7567 0.6027 5.5176 23.9200
#
#
#
# Elastic Compliance Matrix: (Units=1/GPa)
#
#
# Indices 1 2 3 4 5 6 
#
# 1 0.025098 -0.005040 -0.002736 -0.004435 0.008463 -0.007974
# 2 -0.005040 0.010120 -0.003105 0.006381 -0.000477 -0.000569
# 3 -0.002736 -0.003105 0.009447 0.000014 0.006278 0.003377
# 4 -0.004435 0.006381 0.000014 0.027641 0.002673 -0.000505
# 5 0.008463 -0.000477 0.006278 0.002673 0.032794 -0.006477
# 6 -0.007974 -0.000569 0.003377 -0.000505 -0.006477 0.046415
#
#
# Mechanical properties :
#
#
# Convention : Reuss Voigt Hill
#
# Bulk Modulus (GPa) = 43.66096 83.45444 63.55770
# Shear Modulus (GPa) = 27.63795 38.55096 33.09446
#
# Velocity S-wave (km/s) = 3.44347 4.06688 3.76809
# Velocity P-wave (km/s) = 5.87723 7.60639 6.79702
#
# Compressibility (1/GPa) = 0.02290376
#
# Stress axis : x y z
#
# Youngs Moduli (GPa) = 39.84394 98.81899 105.84853
#
# Poissons Ratio (x) = 0.49805 0.28955
# Poissons Ratio (y) = 0.20082 0.32866
# Poissons Ratio (z) = 0.10899 0.30683
#
# Static dielectric constant tensor:
#      x y z
#    x 4.679730 -0.037620 -0.486230 
#    y -0.037620 3.935930 -0.015950 
#    z -0.486230 -0.015950 5.266950 
# 
# 
# High freq. dielectric constant tensor:
#      x y z
#    x 1.932590 0.003830 -0.008420 
#    y 0.003830 1.890560 0.012150 
#    z -0.008420 0.012150 1.946220 
# 
# From -- ./inp_files/201279.got.cif
#   From: 2010.06.25/outbox.cif.g09.slc.cpg/sg2_101_cif.got.tgz:201279.got - 2010.06.27 13:26:56.
