data_PCOD8033976
_publ_section_title
;
Structure prediction by ZEFSAII (Michael W. Deem and Ramdas Pophale) SiO2 
 PCOD8033976
Probable space group: P -1
;
_chemical_formula_sum "Si O2"
_cell_formula_units_Z 16
_cell_length_a 13.688958
_cell_length_b 9.059899
_cell_length_c 11.493781
_cell_angle_alpha 95.413235
_cell_angle_beta 148.198111
_cell_angle_gamma 73.995415
_cell_volume 693.961684
_symmetry_space_group_name_H-M "P -1"
_symmetry_group_IT_number 2
_symmetry_cell_setting 'triclinic'
loop_
_space_group_symop_operation_xyz
x,y,z
-x,-y,-z
loop_
_atom_site_type_symbol
_atom_site_label
_atom_site_fract_x
_atom_site_fract_y
_atom_site_fract_z
Si Si1 0.511580 0.763589 0.711507
Si Si2 0.770992 0.531753 0.773579
Si Si3 0.649841 0.493706 0.393753
Si Si4 0.710013 0.005704 0.674437
Si Si5 0.883627 0.220479 0.993817
Si Si6 0.946034 0.361007 0.491328
Si Si7 0.323061 0.068010 0.917275
Si Si8 0.285560 0.748127 0.933221
O O1 0.660873 0.687427 0.750155
O O2 0.454104 0.635664 0.715756
O O3 0.315782 0.895366 0.464793
O O4 0.616037 0.847682 0.907954
O O5 0.676825 0.555670 0.552496
O O6 0.745616 0.378332 0.796541
O O7 0.000000 0.500000 0.000000
O O8 0.864322 0.413919 0.542859
O O9 0.513325 0.646126 0.192419
O O10 0.882331 0.832020 0.809610
O O11 0.500000 0.000000 0.500000
O O12 0.796120 0.083989 0.869001
O O13 0.863885 0.252980 0.113779
O O14 0.769736 0.334985 0.239298
O O15 0.000000 0.500000 0.500000
O O16 0.135894 0.196945 0.672507
O O17 0.260510 0.927339 0.891380
O O18 0.500000 0.000000 0.000000
#
# Coordination Sequence:
#
# PCOD8033976 Si02
#       8
#     2   2   2   2   2   2   2   2
#     4  12  24  45  72 103 144 188 242 296 366 437
#     4  12  25  44  73 108 147 193 241 302 367 440
#     4  12  25  47  77 105 147 190 242 303 368 441
#     4  11  24  43  68 105 149 194 241 299 370 441
#     4  11  25  44  70 109 151 192 246 302 370 445
#     4  12  28  49  76 108 142 189 247 301 367 442
#     4  12  28  48  74 107 143 192 248 304 372 438
#     4  12  26  47  74 103 149 191 240 303 368 434
#
# _framework density 23.056028000000001
#
# number of rings (size 3 to 8) (size 9 to 14) (size 15 to 20)
#    0.000    0.250    2.500    6.375    5.250    2.000 
#    0.000    0.000    0.000    0.000    0.000    0.000 
#    0.000    0.000    0.000    0.000    0.000    0.000 
#
# Total GULP energy -198530.468550 kJ/mol
# GULP energy per Si atom -12408.154284 kJ/mol
# Density = 2.300355 g / cm^3
# Si number density = 23.056028 Si / 1000 Ang^3
#
#
#
# Elastic Constant Matrix: (Units=GPa)
#
#
# Indices 1 2 3 4 5 6 
#
# 1 135.8820 43.5673 42.0527 0.6385 2.4472 -19.3895
# 2 43.5673 122.5570 55.1073 -2.4608 -9.9412 -2.5267
# 3 42.0527 55.1073 125.0015 -11.0376 -5.1213 -7.7942
# 4 0.6385 -2.4608 -11.0376 53.8919 0.0567 -1.2053
# 5 2.4472 -9.9412 -5.1213 0.0567 43.4066 -2.3194
# 6 -19.3895 -2.5267 -7.7942 -1.2053 -2.3194 45.8858
#
#
#
# Elastic Compliance Matrix: (Units=1/GPa)
#
#
# Indices 1 2 3 4 5 6 
#
# 1 0.009243 -0.002461 -0.001908 -0.000536 -0.001129 0.003375
# 2 -0.002461 0.010987 -0.004020 -0.000318 0.002127 -0.001019
# 3 -0.001908 -0.004020 0.010668 0.002043 0.000489 0.000863
# 4 -0.000536 -0.000318 0.002043 0.018979 0.000206 0.000612
# 5 -0.001129 0.002127 0.000489 0.000206 0.023696 0.000926
# 6 0.003375 -0.001019 0.000863 0.000612 0.000926 0.023373
#
#
# Mechanical properties :
#
#
# Convention : Reuss Voigt Hill
#
# Bulk Modulus (GPa) = 70.81726 73.87723 72.34725
# Shear Modulus (GPa) = 42.21870 44.81775 43.51822
#
# Velocity S-wave (km/s) = 4.28382 4.41371 4.34925
# Velocity P-wave (km/s) = 7.43304 7.62145 7.52783
#
# Compressibility (1/GPa) = 0.01412085
#
# Stress axis : x y z
#
# Youngs Moduli (GPa) = 108.18775 91.01632 93.73552
#
# Poissons Ratio (x) = 0.22396 0.17884
# Poissons Ratio (y) = 0.26622 0.37684
# Poissons Ratio (z) = 0.20641 0.36591
#
# Static dielectric constant tensor:
#      x y z
#    x 4.255940 -0.011560 0.024240 
#    y -0.011560 4.563630 -0.211980 
#    z 0.024240 -0.211980 4.418110 
# 
# 
# High freq. dielectric constant tensor:
#      x y z
#    x 1.918520 -0.001410 -0.001370 
#    y -0.001410 1.925730 -0.008010 
#    z -0.001370 -0.008010 1.918990 
# 
# From -- ./inp_files/188218.got.cif
#   From: 2010.06.25/outbox.cif.g09.slc.cpg/sg2_95_cif.got.tgz:188218.got - 2010.06.27 13:26:56.
