data_PCOD8033242
_publ_section_title
;
Structure prediction by ZEFSAII (Michael W. Deem and Ramdas Pophale) SiO2 
 PCOD8033242
Probable space group: P -1
;
_chemical_formula_sum "Si O2"
_cell_formula_units_Z 16
_cell_length_a 14.934227
_cell_length_b 24.245099
_cell_length_c 18.734191
_cell_angle_alpha 160.292547
_cell_angle_beta 151.498460
_cell_angle_gamma 18.673478
_cell_volume 727.002549
_symmetry_space_group_name_H-M "P -1"
_symmetry_group_IT_number 2
_symmetry_cell_setting 'triclinic'
loop_
_space_group_symop_operation_xyz
x,y,z
-x,-y,-z
loop_
_atom_site_type_symbol
_atom_site_label
_atom_site_fract_x
_atom_site_fract_y
_atom_site_fract_z
Si Si1 0.842066 0.262331 0.950017
Si Si2 0.912985 0.271845 0.336471
Si Si3 0.071310 0.434971 0.388472
Si Si4 0.699935 0.023183 0.352146
Si Si5 0.874336 0.262483 0.812368
Si Si6 0.163683 0.714678 0.539812
Si Si7 0.415510 0.736913 0.998307
Si Si8 0.820640 0.727754 0.202980
O O1 0.971427 0.204127 0.890879
O O2 0.500000 0.500000 0.000000
O O3 0.989508 0.999536 0.761860
O O4 0.946269 0.342215 0.168320
O O5 0.040899 0.344849 0.472364
O O6 0.863884 0.346994 0.476053
O O7 0.629863 0.380149 0.233970
O O8 0.128356 0.981356 0.130126
O O9 0.402908 0.227117 0.353789
O O10 0.000000 0.500000 0.500000
O O11 0.831483 0.107718 0.568869
O O12 0.662931 0.957093 0.320818
O O13 0.900481 0.804522 0.167168
O O14 0.587940 0.551041 0.958574
O O15 0.500000 0.500000 0.500000
O O16 0.022040 0.683296 0.346930
O O17 0.573722 0.788098 0.139413
O O18 0.000000 0.500000 0.000000
#
# Coordination Sequence:
#
# PCOD8033242 Si02
#       8
#     2   2   2   2   2   2   2   2
#     4  12  29  49  74 105 147 190 241 299 357 425
#     4  11  27  46  70 106 144 186 235 297 357 427
#     4  12  28  47  76 105 144 186 245 293 358 427
#     4  11  24  43  73 102 140 188 241 290 353 427
#     4  11  23  45  71 101 140 191 236 294 354 424
#     4  12  30  48  72 108 152 188 240 298 362 425
#     4  11  24  44  74  99 144 185 239 288 362 422
#     4  12  25  45  73 105 145 190 240 292 362 432
#
# _framework density 22.008175999999999
#
# number of rings (size 3 to 8) (size 9 to 14) (size 15 to 20)
#    0.000    0.500    3.750    3.000   12.250    1.000 
#    0.000    0.000    0.000    0.000    0.000    0.000 
#    0.000    0.000    0.000    0.000    0.000    0.000 
#
# Total GULP energy -198343.077608 kJ/mol
# GULP energy per Si atom -12396.442350 kJ/mol
# Density = 2.195808 g / cm^3
# Si number density = 22.008176 Si / 1000 Ang^3
#
#
#
# Elastic Constant Matrix: (Units=GPa)
#
#
# Indices 1 2 3 4 5 6 
#
# 1 160.8252 71.7874 34.3815 -9.5058 10.0102 -4.4688
# 2 71.7874 178.5762 15.5756 -0.1807 25.4640 -55.4469
# 3 34.3815 15.5756 132.3311 -17.6144 -15.1100 17.8053
# 4 -9.5058 -0.1807 -17.6144 46.4774 5.8865 4.3790
# 5 10.0102 25.4640 -15.1100 5.8865 50.2698 -20.4781
# 6 -4.4688 -55.4469 17.8053 4.3790 -20.4781 65.7752
#
#
#
# Elastic Compliance Matrix: (Units=1/GPa)
#
#
# Indices 1 2 3 4 5 6 
#
# 1 0.008368 -0.003985 -0.001239 0.001694 -0.001448 -0.003019
# 2 -0.003985 0.010167 -0.001720 -0.002088 -0.001147 0.008548
# 3 -0.001239 -0.001720 0.009244 0.003328 0.002030 -0.003626
# 4 0.001694 -0.002088 0.003328 0.024002 -0.003182 -0.005134
# 5 -0.001448 -0.001147 0.002030 -0.003182 0.024249 0.006146
# 6 -0.003019 0.008548 -0.003626 -0.005134 0.006146 0.025440
#
#
# Mechanical properties :
#
#
# Convention : Reuss Voigt Hill
#
# Bulk Modulus (GPa) = 71.98913 79.46906 75.72910
# Shear Modulus (GPa) = 41.67057 55.83700 48.75379
#
# Velocity S-wave (km/s) = 4.35606 5.04243 4.71176
# Velocity P-wave (km/s) = 7.62112 8.37190 8.00532
#
# Compressibility (1/GPa) = 0.01389099
#
# Stress axis : x y z
#
# Youngs Moduli (GPa) = 119.50340 98.35407 108.18146
#
# Poissons Ratio (x) = 0.39195 0.13400
# Poissons Ratio (y) = 0.47623 0.18610
# Poissons Ratio (z) = 0.14802 0.16920
#
# Static dielectric constant tensor:
#      x y z
#    x 3.200350 0.211070 -0.042450 
#    y 0.211070 4.224590 0.101030 
#    z -0.042450 0.101030 4.021650 
# 
# 
# High freq. dielectric constant tensor:
#      x y z
#    x 1.880460 0.005810 0.000920 
#    y 0.005810 1.874440 0.007190 
#    z 0.000920 0.007190 1.868680 
# 
# From -- ./inp_files/574434.got.cif
#   From: 2010.06.25/outbox.cif.g09.slc.cpg/sg2_288_cif.got.tgz:574434.got - 2010.06.27 13:26:56.
