data_PCOD8033899
_publ_section_title
;
Structure prediction by ZEFSAII (Michael W. Deem and Ramdas Pophale) SiO2 
 PCOD8033899
Probable space group: P -1
;
_chemical_formula_sum "Si O2"
_cell_formula_units_Z 14
_cell_length_a 26.585789
_cell_length_b 26.281408
_cell_length_c 14.544305
_cell_angle_alpha 19.785488
_cell_angle_beta 19.283354
_cell_angle_gamma 10.898913
_cell_volume 618.161582
_symmetry_space_group_name_H-M "P -1"
_symmetry_group_IT_number 2
_symmetry_cell_setting 'triclinic'
loop_
_space_group_symop_operation_xyz
x,y,z
-x,-y,-z
loop_
_atom_site_type_symbol
_atom_site_label
_atom_site_fract_x
_atom_site_fract_y
_atom_site_fract_z
Si Si1 0.043356 0.982694 0.097503
Si Si2 0.512536 0.358631 0.644557
Si Si3 0.442815 0.472012 0.890643
Si Si4 0.764740 0.984667 0.451926
Si Si5 0.270708 0.286467 0.457755
Si Si6 0.100487 0.240791 0.999971
Si Si7 0.135746 0.412179 0.816199
O O1 0.791541 0.304186 0.008842
O O2 0.913016 0.933896 0.371625
O O3 0.243487 0.785057 0.174067
O O4 0.232153 0.902641 0.829464
O O5 0.500000 0.500000 0.500000
O O6 0.579557 0.375724 0.402124
O O7 0.226139 0.503678 0.891068
O O8 0.756469 0.038312 0.791413
O O9 0.382886 0.362502 0.134400
O O10 0.445464 0.216476 0.633067
O O11 0.939268 0.690989 0.625306
O O12 0.223045 0.266673 0.676910
O O13 0.000000 0.500000 0.500000
O O14 0.500000 0.000000 0.500000
O O15 0.153130 0.248696 0.001093
O O16 0.000000 0.500000 0.000000
#
# Coordination Sequence:
#
# PCOD8033899 Si02
#       7
#     2   2   2   2   2   2   2
#     4  11  24  42  72  99 133 181 224 297 338 408
#     4  12  27  47  70 103 142 182 230 291 354 420
#     4  12  25  43  72 100 137 177 241 278 353 419
#     4  11  24  45  67 100 141 174 237 283 346 398
#     4  12  25  45  72 103 137 181 234 295 356 419
#     4  12  26  46  73 102 144 186 230 289 358 413
#     4  12  27  44  70 100 144 189 235 279 344 428
#
# _framework density 22.6478
#
# number of rings (size 3 to 8) (size 9 to 14) (size 15 to 20)
#    0.000    0.286    0.000    9.429    6.000    2.286 
#    0.000    0.000    0.000    0.000    0.000    0.000 
#    0.000    0.000    0.000    0.000    0.000    0.000 
#
# Total GULP energy -173721.165508 kJ/mol
# GULP energy per Si atom -12408.654679 kJ/mol
# Density = 2.259625 g / cm^3
# Si number density = 22.647800 Si / 1000 Ang^3
#
#
#
# Elastic Constant Matrix: (Units=GPa)
#
#
# Indices 1 2 3 4 5 6 
#
# 1 108.0850 28.1711 23.3761 8.7027 -5.9183 5.7235
# 2 28.1711 138.7494 32.8687 6.7990 -6.6396 3.1806
# 3 23.3761 32.8687 88.1035 8.7722 0.8907 -0.1930
# 4 8.7027 6.7990 8.7722 48.0685 -2.6360 -3.0688
# 5 -5.9183 -6.6396 0.8907 -2.6360 31.0521 -4.9816
# 6 5.7235 3.1806 -0.1930 -3.0688 -4.9816 43.0757
#
#
#
# Elastic Compliance Matrix: (Units=1/GPa)
#
#
# Indices 1 2 3 4 5 6 
#
# 1 0.010325 -0.001443 -0.002090 -0.001283 0.001418 -0.001202
# 2 -0.001443 0.008227 -0.002667 -0.000352 0.001486 -0.000281
# 3 -0.002090 -0.002667 0.013084 -0.001696 -0.001449 0.000245
# 4 -0.001283 -0.000352 -0.001696 0.021622 0.001877 0.001946
# 5 0.001418 0.001486 -0.001449 0.001877 0.033588 0.003714
# 6 -0.001202 -0.000281 0.000245 0.001946 0.003714 0.023965
#
#
# Mechanical properties :
#
#
# Convention : Reuss Voigt Hill
#
# Bulk Modulus (GPa) = 51.98828 55.97442 53.98135
# Shear Modulus (GPa) = 38.57354 41.14073 39.85714
#
# Velocity S-wave (km/s) = 4.13145 4.26672 4.19963
# Velocity P-wave (km/s) = 6.76487 7.00300 6.88496
#
# Compressibility (1/GPa) = 0.01923510
#
# Stress axis : x y z
#
# Youngs Moduli (GPa) = 96.85519 121.55479 76.42990
#
# Poissons Ratio (x) = 0.17538 0.15977
# Poissons Ratio (y) = 0.13975 0.20383
# Poissons Ratio (z) = 0.20246 0.32417
#
# Static dielectric constant tensor:
#      x y z
#    x 4.146910 0.038980 -0.064020 
#    y 0.038980 4.185750 0.006730 
#    z -0.064020 0.006730 4.217250 
# 
# 
# High freq. dielectric constant tensor:
#      x y z
#    x 1.901110 0.003080 -0.002800 
#    y 0.003080 1.912000 0.002640 
#    z -0.002800 0.002640 1.905010 
# 
# From -- ./inp_files/208596.got.cif
#   From: 2010.06.25/outbox.cif.g09.slc.cpg/sg2_105_cif.got.tgz:208596.got - 2010.06.27 13:26:56.
