data_PCOD8033907
_publ_section_title
;
Structure prediction by ZEFSAII (Michael W. Deem and Ramdas Pophale) SiO2 
 PCOD8033907
Probable space group: P -1
;
_chemical_formula_sum "Si O2"
_cell_formula_units_Z 14
_cell_length_a 16.891475
_cell_length_b 9.585517
_cell_length_c 6.780962
_cell_angle_alpha 78.532933
_cell_angle_beta 78.893630
_cell_angle_gamma 34.412125
_cell_volume 607.287853
_symmetry_space_group_name_H-M "P -1"
_symmetry_group_IT_number 2
_symmetry_cell_setting 'triclinic'
loop_
_space_group_symop_operation_xyz
x,y,z
-x,-y,-z
loop_
_atom_site_type_symbol
_atom_site_label
_atom_site_fract_x
_atom_site_fract_y
_atom_site_fract_z
Si Si1 0.129770 0.690636 0.543818
Si Si2 0.726180 0.378557 0.839347
Si Si3 0.369150 0.732302 0.354586
Si Si4 0.929790 0.756016 0.486435
Si Si5 0.412597 0.150137 0.695234
Si Si6 0.909671 0.036473 0.175554
Si Si7 0.461199 0.854854 0.030124
O O1 0.152024 0.696901 0.296655
O O2 0.276280 0.437377 0.637953
O O3 0.087123 0.895036 0.627031
O O4 0.020693 0.716256 0.613694
O O5 0.685247 0.333604 0.694362
O O6 0.763782 0.246585 0.065238
O O7 0.597697 0.662263 0.879599
O O8 0.500000 0.500000 0.500000
O O9 0.413692 0.765928 0.138411
O O10 0.237275 0.002813 0.449244
O O11 0.000000 0.500000 0.500000
O O12 0.946398 0.817318 0.253367
O O13 0.518112 0.088660 0.795905
O O14 0.500000 0.000000 0.500000
O O15 0.359015 0.087334 0.861758
O O16 0.000000 0.000000 0.000000
#
# Coordination Sequence:
#
# PCOD8033907 Si02
#       7
#     2   2   2   2   2   2   2
#     4  12  24  47  76 108 146 196 258 313 368 451
#     4  12  23  45  78 106 138 195 262 309 366 455
#     4  12  27  48  74 106 156 196 253 314 377 458
#     4  12  29  47  74 113 156 198 244 322 394 436
#     4  11  24  42  73 106 148 195 246 312 374 448
#     4  12  24  46  77 102 139 197 255 304 370 460
#     4  11  25  42  70 110 146 198 249 301 390 447
#
# _framework density 23.053318000000001
#
# number of rings (size 3 to 8) (size 9 to 14) (size 15 to 20)
#    0.000    0.286    5.714    3.429    2.000    2.286 
#    0.000    2.143    0.000    0.000    0.000    0.000 
#    0.000    0.000    0.000    0.000    0.000    0.000 
#
# Total GULP energy -173443.139004 kJ/mol
# GULP energy per Si atom -12388.795643 kJ/mol
# Density = 2.300085 g / cm^3
# Si number density = 23.053318 Si / 1000 Ang^3
#
#
#
# Elastic Constant Matrix: (Units=GPa)
#
#
# Indices 1 2 3 4 5 6 
#
# 1 89.2743 43.6670 39.2397 0.4415 -9.4260 5.9146
# 2 43.6670 144.8427 51.5959 2.7378 -12.4610 11.9587
# 3 39.2397 51.5959 139.1903 -11.5089 -12.0386 5.6719
# 4 0.4415 2.7378 -11.5089 48.7358 2.0488 -7.1936
# 5 -9.4260 -12.4610 -12.0386 2.0488 49.4527 -0.4196
# 6 5.9146 11.9587 5.6719 -7.1936 -0.4196 33.7126
#
#
#
# Elastic Compliance Matrix: (Units=1/GPa)
#
#
# Indices 1 2 3 4 5 6 
#
# 1 0.014122 -0.003059 -0.002761 -0.000822 0.001274 -0.001087
# 2 -0.003059 0.009018 -0.002399 -0.001471 0.001145 -0.002558
# 3 -0.002761 -0.002399 0.009117 0.002316 0.000995 0.000308
# 4 -0.000822 -0.001471 0.002316 0.021920 -0.000830 0.004943
# 5 0.001274 0.001145 0.000995 -0.000830 0.021023 -0.000712
# 6 -0.001087 -0.002558 0.000308 0.004943 -0.000712 0.031755
#
#
# Mechanical properties :
#
#
# Convention : Reuss Voigt Hill
#
# Bulk Modulus (GPa) = 63.21246 71.36804 67.29025
# Shear Modulus (GPa) = 38.86021 42.30053 40.58037
#
# Velocity S-wave (km/s) = 4.11014 4.28822 4.20012
# Velocity P-wave (km/s) = 7.07135 7.45275 7.26455
#
# Compressibility (1/GPa) = 0.01581967
#
# Stress axis : x y z
#
# Youngs Moduli (GPa) = 70.81278 110.88484 109.68518
#
# Poissons Ratio (x) = 0.33921 0.30280
# Poissons Ratio (y) = 0.21662 0.26313
# Poissons Ratio (z) = 0.19549 0.26601
#
# Static dielectric constant tensor:
#      x y z
#    x 4.376560 -0.358800 0.272220 
#    y -0.358800 4.632020 -0.518280 
#    z 0.272220 -0.518280 5.245940 
# 
# 
# High freq. dielectric constant tensor:
#      x y z
#    x 1.903040 -0.011990 -0.002110 
#    y -0.011990 1.929120 -0.020710 
#    z -0.002110 -0.020710 1.926930 
# 
# From -- ./inp_files/106674.got.cif
#   From: 2010.06.25/outbox.cif.g09.slc.cpg/sg2_54_cif.got.tgz:106674.got - 2010.06.27 13:26:56.
