data_PCOD8033421
_publ_section_title
;
Structure prediction by ZEFSAII (Michael W. Deem and Ramdas Pophale) SiO2 
 PCOD8033421
Probable space group: P -1
;
_chemical_formula_sum "Si O2"
_cell_formula_units_Z 16
_cell_length_a 14.468997
_cell_length_b 9.376900
_cell_length_c 11.935817
_cell_angle_alpha 37.173105
_cell_angle_beta 113.548632
_cell_angle_gamma 130.474502
_cell_volume 719.504635
_symmetry_space_group_name_H-M "P -1"
_symmetry_group_IT_number 2
_symmetry_cell_setting 'triclinic'
loop_
_space_group_symop_operation_xyz
x,y,z
-x,-y,-z
loop_
_atom_site_type_symbol
_atom_site_label
_atom_site_fract_x
_atom_site_fract_y
_atom_site_fract_z
Si Si1 0.925392 0.049046 0.162539
Si Si2 0.741630 0.755264 0.057586
Si Si3 0.441931 0.091997 0.080340
Si Si4 0.688055 0.358395 0.894908
Si Si5 0.745722 0.947179 0.532837
Si Si6 0.126278 0.705023 0.832018
Si Si7 0.094325 0.849245 0.315495
Si Si8 0.564009 0.080463 0.360966
O O1 0.874831 0.036786 0.270750
O O2 0.810527 0.823377 0.167094
O O3 0.026273 0.981911 0.251625
O O4 0.990385 0.391994 0.951241
O O5 0.685338 0.426249 0.195321
O O6 0.618214 0.743108 0.018473
O O7 0.849287 0.011098 0.866919
O O8 0.463141 0.983927 0.274653
O O9 0.345898 0.829370 0.115734
O O10 0.572586 0.299242 0.948680
O O11 0.753747 0.682157 0.675963
O O12 0.774436 0.323880 0.038397
O O13 0.840548 0.212439 0.331529
O O14 0.785734 0.049965 0.615566
O O15 0.609474 0.874644 0.494578
O O16 0.000000 0.500000 0.500000
O O17 0.500000 0.000000 0.500000
#
# Coordination Sequence:
#
# PCOD8033421 Si02
#       8
#     2   2   2   2   2   2   2   2
#     4  11  24  44  70  98 136 179 222 283 343 390
#     4  12  24  44  70  98 142 178 222 284 334 408
#     4  11  24  44  70  98 136 179 222 283 343 390
#     4  11  23  46  70  98 135 174 228 287 334 400
#     4  12  24  42  70  96 134 176 224 278 338 400
#     4  11  23  46  70  98 135 174 228 287 334 400
#     4  12  25  42  66 102 138 181 226 272 338 412
#     4  12  25  42  66 102 138 181 226 272 338 412
#
# _framework density 22.23752
#
# number of rings (size 3 to 8) (size 9 to 14) (size 15 to 20)
#    0.000    0.500    3.750    5.250    0.000    3.000 
#    0.000    0.000    0.000    0.000    0.000    0.000 
#    0.000    0.000    0.000    0.000    0.000    0.000 
#
# Total GULP energy -198353.464537 kJ/mol
# GULP energy per Si atom -12397.091534 kJ/mol
# Density = 2.218691 g / cm^3
# Si number density = 22.237520 Si / 1000 Ang^3
#
#
#
# Elastic Constant Matrix: (Units=GPa)
#
#
# Indices 1 2 3 4 5 6 
#
# 1 101.1682 -5.9180 9.4119 3.7955 14.9187 -8.3563
# 2 -5.9180 81.9096 16.5881 7.2426 9.0710 4.1622
# 3 9.4119 16.5881 80.1598 0.7722 -2.2107 -8.2680
# 4 3.7955 7.2426 0.7722 38.1254 0.9574 2.7587
# 5 14.9187 9.0710 -2.2107 0.9574 33.9287 0.9560
# 6 -8.3563 4.1622 -8.2680 2.7587 0.9560 35.2413
#
#
#
# Elastic Compliance Matrix: (Units=1/GPa)
#
#
# Indices 1 2 3 4 5 6 
#
# 1 0.011194 0.001747 -0.001573 -0.001445 -0.005517 0.002342
# 2 0.001747 0.013823 -0.003341 -0.002496 -0.004564 -0.001683
# 3 -0.001573 -0.003341 0.013741 0.000224 0.002385 0.003163
# 4 -0.001445 -0.002496 0.000224 0.026981 0.000616 -0.002124
# 5 -0.005517 -0.004564 0.002385 0.000616 0.033290 -0.001161
# 6 0.002342 -0.001683 0.003163 -0.002124 -0.001161 0.030070
#
#
# Mechanical properties :
#
#
# Convention : Reuss Voigt Hill
#
# Bulk Modulus (GPa) = 30.84034 33.71129 32.27582
# Shear Modulus (GPa) = 34.19021 37.66946 35.92983
#
# Velocity S-wave (km/s) = 3.92535 4.12024 4.02398
# Velocity P-wave (km/s) = 5.86884 6.15042 6.01128
#
# Compressibility (1/GPa) = 0.03242507
#
# Stress axis : x y z
#
# Youngs Moduli (GPa) = 89.33170 72.34310 72.77502
#
# Poissons Ratio (x) = -0.12638 0.11444
# Poissons Ratio (y) = -0.15606 0.24314
# Poissons Ratio (z) = 0.14048 0.24170
#
# Static dielectric constant tensor:
#      x y z
#    x 4.262310 -0.075650 0.144680 
#    y -0.075650 4.096560 0.036550 
#    z 0.144680 0.036550 4.004180 
# 
# 
# High freq. dielectric constant tensor:
#      x y z
#    x 1.891140 -0.003690 0.005620 
#    y -0.003690 1.883130 0.007080 
#    z 0.005620 0.007080 1.869140 
# 
# From -- ./inp_files/83518.got.cif
#   From: 2010.06.25/outbox.cif.g09.slc.cpg/sg2_42_cif.got.tgz:83518.got - 2010.06.27 13:26:56.
