data_PCOD8033767
_publ_section_title
;
Structure prediction by ZEFSAII (Michael W. Deem and Ramdas Pophale) SiO2 
 PCOD8033767
Probable space group: P -1
;
_chemical_formula_sum "Si O2"
_cell_formula_units_Z 14
_cell_length_a 9.940822
_cell_length_b 10.889228
_cell_length_c 17.793315
_cell_angle_alpha 149.564890
_cell_angle_beta 47.546574
_cell_angle_gamma 112.419333
_cell_volume 607.416358
_symmetry_space_group_name_H-M "P -1"
_symmetry_group_IT_number 2
_symmetry_cell_setting 'triclinic'
loop_
_space_group_symop_operation_xyz
x,y,z
-x,-y,-z
loop_
_atom_site_type_symbol
_atom_site_label
_atom_site_fract_x
_atom_site_fract_y
_atom_site_fract_z
Si Si1 0.546266 0.989060 0.785675
Si Si2 0.505518 0.351835 0.132648
Si Si3 0.001589 0.869843 0.135371
Si Si4 0.129677 0.159333 0.537346
Si Si5 0.210878 0.476959 0.438635
Si Si6 0.079570 0.192043 0.031801
Si Si7 0.289362 0.011046 0.561123
O O1 0.664637 0.035156 0.696124
O O2 0.716758 0.675675 0.589052
O O3 0.481314 0.228629 0.999357
O O4 0.337616 0.999434 0.838963
O O5 0.409007 0.277009 0.201254
O O6 0.344213 0.691100 0.363825
O O7 0.753986 0.236769 0.993098
O O8 0.899599 0.795829 0.204985
O O9 0.840259 0.208459 0.363361
O O10 0.996715 0.733796 0.986822
O O11 0.208458 0.165836 0.594214
O O12 0.002046 0.494666 0.735121
O O13 0.000000 0.000000 0.500000
O O14 0.000000 0.500000 0.500000
O O15 0.000000 0.000000 0.000000
O O16 0.500000 0.000000 0.500000
#
# Coordination Sequence:
#
# PCOD8033767 Si02
#       7
#     2   2   2   2   2   2   2
#     4  12  26  43  71 103 143 185 235 290 357 417
#     4  11  24  42  71 101 132 182 240 285 348 419
#     4  11  24  44  70 102 141 185 234 292 345 416
#     4  12  28  47  71 103 146 187 237 293 348 417
#     4  11  24  41  72 101 136 175 234 291 345 415
#     4  12  28  46  72 105 147 184 233 293 363 418
#     4  11  25  44  68  99 139 184 238 284 344 418
#
# _framework density 23.048439999999999
#
# number of rings (size 3 to 8) (size 9 to 14) (size 15 to 20)
#    0.000    0.571    1.429    5.571    6.000   11.429 
#    0.000    0.000    0.000    0.000    0.000    0.000 
#    0.000    0.000    0.000    0.000    0.000    0.000 
#
# Total GULP energy -173592.173778 kJ/mol
# GULP energy per Si atom -12399.440984 kJ/mol
# Density = 2.299598 g / cm^3
# Si number density = 23.048440 Si / 1000 Ang^3
#
#
#
# Elastic Constant Matrix: (Units=GPa)
#
#
# Indices 1 2 3 4 5 6 
#
# 1 124.2352 56.2020 25.7921 -24.7011 -12.3361 7.5737
# 2 56.2020 127.8246 54.9928 -33.7689 -2.7388 6.2409
# 3 25.7921 54.9928 113.1802 -13.8333 3.9996 8.8200
# 4 -24.7011 -33.7689 -13.8333 58.9628 7.6954 -3.3115
# 5 -12.3361 -2.7388 3.9996 7.6954 45.9305 -7.4452
# 6 7.5737 6.2409 8.8200 -3.3115 -7.4452 43.9366
#
#
#
# Elastic Compliance Matrix: (Units=1/GPa)
#
#
# Indices 1 2 3 4 5 6 
#
# 1 0.010505 -0.003956 -0.000283 0.001742 0.002207 -0.000687
# 2 -0.003956 0.012814 -0.004736 0.004659 -0.000658 0.000052
# 3 -0.000283 -0.004736 0.011398 -0.000047 -0.001643 -0.001848
# 4 0.001742 0.004659 -0.000047 0.020708 -0.002695 0.000151
# 5 0.002207 -0.000658 -0.001643 -0.002695 0.023541 0.003829
# 6 -0.000687 0.000052 -0.001848 0.000151 0.003829 0.023902
#
#
# Mechanical properties :
#
#
# Convention : Reuss Voigt Hill
#
# Bulk Modulus (GPa) = 59.64347 71.02375 65.33361
# Shear Modulus (GPa) = 39.55460 44.98286 42.26873
#
# Velocity S-wave (km/s) = 4.14714 4.42256 4.28706
# Velocity P-wave (km/s) = 6.99037 7.54722 7.27413
#
# Compressibility (1/GPa) = 0.01676629
#
# Stress axis : x y z
#
# Youngs Moduli (GPa) = 95.19222 78.03681 87.73696
#
# Poissons Ratio (x) = 0.30871 0.02486
# Poissons Ratio (y) = 0.37657 0.41554
# Poissons Ratio (z) = 0.02698 0.36960
#
# Static dielectric constant tensor:
#      x y z
#    x 3.988750 -0.057160 0.151770 
#    y -0.057160 4.374120 -0.037570 
#    z 0.151770 -0.037570 4.470840 
# 
# 
# High freq. dielectric constant tensor:
#      x y z
#    x 1.915290 -0.002730 0.000870 
#    y -0.002730 1.921030 -0.001490 
#    z 0.000870 -0.001490 1.930830 
# 
# From -- ./inp_files/69072.got.cif
#   From: 2010.06.25/outbox.cif.g09.slc.cpg/sg2_35_cif.got.tgz:69072.got - 2010.06.27 13:26:56.
