data_PCOD8033018
_publ_section_title
;
Structure prediction by ZEFSAII (Michael W. Deem and Ramdas Pophale) SiO2 
 PCOD8033018
Probable space group: P -1
;
_chemical_formula_sum "Si O2"
_cell_formula_units_Z 16
_cell_length_a 10.809500
_cell_length_b 19.416867
_cell_length_c 24.809948
_cell_angle_alpha 12.723465
_cell_angle_beta 131.283965
_cell_angle_gamma 133.300944
_cell_volume 833.279836
_symmetry_space_group_name_H-M "P -1"
_symmetry_group_IT_number 2
_symmetry_cell_setting 'triclinic'
loop_
_space_group_symop_operation_xyz
x,y,z
-x,-y,-z
loop_
_atom_site_type_symbol
_atom_site_label
_atom_site_fract_x
_atom_site_fract_y
_atom_site_fract_z
Si Si1 0.112644 0.537879 0.787144
Si Si2 0.291914 0.677396 0.170211
Si Si3 0.186845 0.082020 0.470794
Si Si4 0.428132 0.691401 0.036525
Si Si5 0.355542 0.192014 0.173109
Si Si6 0.484309 0.819955 0.220982
Si Si7 0.634486 0.222593 0.409126
Si Si8 0.583214 0.934049 0.358707
O O1 0.192626 0.563378 0.731325
O O2 0.909166 0.462713 0.788278
O O3 0.195452 0.897735 0.558560
O O4 0.182499 0.279366 0.038534
O O5 0.322938 0.743910 0.192273
O O6 0.405727 0.433929 0.368980
O O7 0.351713 0.008604 0.899913
O O8 0.260685 0.467013 0.188992
O O9 0.282797 0.926836 0.662167
O O10 0.000000 0.000000 0.500000
O O11 0.545877 0.468232 0.224009
O O12 0.537467 0.942216 0.919000
O O13 0.369411 0.868150 0.833840
O O14 0.301941 0.974467 0.375899
O O15 0.409840 0.990458 0.292173
O O16 0.500000 0.500000 0.000000
O O17 0.500000 0.500000 0.500000
O O18 0.500000 0.000000 0.500000
#
# Coordination Sequence:
#
# PCOD8033018 Si02
#       8
#     2   2   2   2   2   2   2   2
#     4  12  24  39  62  98 137 164 209 262 319 382
#     4  11  25  44  65  96 128 164 215 277 318 371
#     4  12  23  38  59  94 137 163 204 265 323 380
#     4  12  22  39  66  93 123 167 221 255 317 385
#     4  12  21  36  61  89 127 176 208 246 310 387
#     4  11  23  44  71  90 122 170 223 266 324 374
#     4  12  21  38  63  93 129 172 209 252 312 393
#     4  12  21  38  63  90 123 168 209 252 320 378
#
# _framework density 19.201232000000001
#
# number of rings (size 3 to 8) (size 9 to 14) (size 15 to 20)
#    0.000    0.250   10.000    0.000    0.000    1.500 
#    2.250    0.625    0.000    7.500    0.000    0.000 
#    0.000    0.000    0.000    0.000    0.000    0.000 
#
# Total GULP energy -198281.445109 kJ/mol
# GULP energy per Si atom -12392.590319 kJ/mol
# Density = 1.915753 g / cm^3
# Si number density = 19.201232 Si / 1000 Ang^3
#
#
#
# Elastic Constant Matrix: (Units=GPa)
#
#
# Indices 1 2 3 4 5 6 
#
# 1 67.0223 35.2978 42.6007 0.2892 -10.2408 -10.8896
# 2 35.2978 112.1814 53.0269 0.0872 -3.6709 -15.5276
# 3 42.6007 53.0269 126.2603 9.3095 -15.2100 -7.6812
# 4 0.2892 0.0872 9.3095 33.9420 -17.3799 -0.6694
# 5 -10.2408 -3.6709 -15.2100 -17.3799 35.8029 8.2176
# 6 -10.8896 -15.5276 -7.6812 -0.6694 8.2176 27.9020
#
#
#
# Elastic Compliance Matrix: (Units=1/GPa)
#
#
# Indices 1 2 3 4 5 6 
#
# 1 0.021397 -0.003620 -0.005206 0.003601 0.004441 0.003682
# 2 -0.003620 0.012625 -0.004079 -0.000208 -0.002793 0.005308
# 3 -0.005206 -0.004079 0.011726 -0.001867 0.002600 -0.001884
# 4 0.003601 -0.000208 -0.001867 0.040570 0.020923 -0.004413
# 5 0.004441 -0.002793 0.002600 0.020923 0.042745 -0.011193
# 6 0.003682 0.005308 -0.001884 -0.004413 -0.011193 0.042902
#
#
# Mechanical properties :
#
#
# Convention : Reuss Voigt Hill
#
# Bulk Modulus (GPa) = 50.15424 63.03498 56.59461
# Shear Modulus (GPa) = 24.45947 31.16527 27.81237
#
# Velocity S-wave (km/s) = 3.57297 4.03313 3.81000
# Velocity P-wave (km/s) = 6.57256 7.38837 6.99237
#
# Compressibility (1/GPa) = 0.01993849
#
# Stress axis : x y z
#
# Youngs Moduli (GPa) = 46.73592 79.21053 85.28062
#
# Poissons Ratio (x) = 0.28671 0.44395
# Poissons Ratio (y) = 0.16917 0.34786
# Poissons Ratio (z) = 0.24330 0.32310
#
# Static dielectric constant tensor:
#      x y z
#    x 3.660030 -0.294210 0.089790 
#    y -0.294210 3.572570 -0.166310 
#    z 0.089790 -0.166310 4.250740 
# 
# 
# High freq. dielectric constant tensor:
#      x y z
#    x 1.750260 -0.028970 -0.001200 
#    y -0.028970 1.735400 0.008960 
#    z -0.001200 0.008960 1.755430 
# 
# From -- ./inp_files/313937.got.cif
#   From: 2010.06.25/outbox.cif.g09.slc.cpg/sg2_157_cif.got.tgz:313937.got - 2010.06.27 13:26:56.
