data_PCOD8033781
_publ_section_title
;
Structure prediction by ZEFSAII (Michael W. Deem and Ramdas Pophale) SiO2 
 PCOD8033781
Probable space group: P -1
;
_chemical_formula_sum "Si O2"
_cell_formula_units_Z 14
_cell_length_a 8.859818
_cell_length_b 9.337840
_cell_length_c 20.365708
_cell_angle_alpha 58.131004
_cell_angle_beta 149.086933
_cell_angle_gamma 131.575476
_cell_volume 643.770582
_symmetry_space_group_name_H-M "P -1"
_symmetry_group_IT_number 2
_symmetry_cell_setting 'triclinic'
loop_
_space_group_symop_operation_xyz
x,y,z
-x,-y,-z
loop_
_atom_site_type_symbol
_atom_site_label
_atom_site_fract_x
_atom_site_fract_y
_atom_site_fract_z
Si Si1 0.866027 0.164051 0.657573
Si Si2 0.636389 0.764747 0.611783
Si Si3 0.387430 0.464315 0.693172
Si Si4 0.098636 0.185104 0.878587
Si Si5 0.184310 0.729659 0.124709
Si Si6 0.652976 0.172738 0.169928
Si Si7 0.637253 0.744105 0.836817
O O1 0.538005 0.195750 0.526355
O O2 0.065560 0.263709 0.640562
O O3 0.095421 0.257276 0.785447
O O4 0.756210 0.939614 0.666168
O O5 0.357569 0.567567 0.590754
O O6 0.954413 0.740156 0.717227
O O7 0.699027 0.427313 0.805316
O O8 0.440173 0.608864 0.736680
O O9 0.983228 0.298162 0.858888
O O10 0.464091 0.212414 0.028346
O O11 0.822627 0.963592 0.830263
O O12 0.487043 0.945429 0.176278
O O13 0.904962 0.684153 0.976997
O O14 0.620751 0.281620 0.195226
#
# Coordination Sequence:
#
# PCOD8033781 Si02
#       7
#     2   2   2   2   2   2   2
#     4  11  24  42  61  88 123 161 201 249 301 354
#     4  11  24  42  61  88 123 161 201 249 301 354
#     4  12  22  38  62  92 119 158 205 246 297 354
#     4   9  19  40  64  89 122 161 198 243 301 359
#     4   9  19  36  62  94 125 154 197 249 299 356
#     4   9  19  40  64  89 122 161 198 243 301 359
#     4   9  19  36  62  94 125 154 197 249 299 356
#
# _framework density 21.746877000000001
#
# number of rings (size 3 to 8) (size 9 to 14) (size 15 to 20)
#    0.000    2.000    2.857    2.571    0.000    4.000 
#    0.000   10.000    0.000    0.000    0.000    0.000 
#    0.000    0.000    0.000    0.000    0.000    0.000 
#
# Total GULP energy -173552.242881 kJ/mol
# GULP energy per Si atom -12396.588777 kJ/mol
# Density = 2.169738 g / cm^3
# Si number density = 21.746877 Si / 1000 Ang^3
#
#
#
# Elastic Constant Matrix: (Units=GPa)
#
#
# Indices 1 2 3 4 5 6 
#
# 1 79.2764 25.1998 42.6457 -17.5958 6.6701 1.6661
# 2 25.1998 45.3995 11.9698 -9.1083 1.5194 1.7415
# 3 42.6457 11.9698 90.3167 -19.6164 8.5329 -8.6989
# 4 -17.5958 -9.1083 -19.6164 20.5429 4.7649 -1.7039
# 5 6.6701 1.5194 8.5329 4.7649 26.5017 5.4463
# 6 1.6661 1.7415 -8.6989 -1.7039 5.4463 36.0377
#
#
#
# Elastic Compliance Matrix: (Units=1/GPa)
#
#
# Indices 1 2 3 4 5 6 
#
# 1 0.021109 -0.007964 -0.006676 0.009028 -0.004092 -0.001157
# 2 -0.007964 0.027512 0.001920 0.007583 -0.001574 0.000099
# 3 -0.006676 0.001920 0.018877 0.015754 -0.008746 0.006839
# 4 0.009028 0.007583 0.015754 0.081399 -0.024590 0.010584
# 5 -0.004092 -0.001574 -0.008746 -0.024590 0.048206 -0.010294
# 6 -0.001157 0.000099 0.006839 0.010584 -0.010294 0.031504
#
#
# Mechanical properties :
#
#
# Convention : Reuss Voigt Hill
#
# Bulk Modulus (GPa) = 23.77751 41.62479 32.70115
# Shear Modulus (GPa) = 18.65202 25.62825 22.14013
#
# Velocity S-wave (km/s) = 2.93181 3.43662 3.19420
# Velocity P-wave (km/s) = 4.73478 5.91010 5.35479
#
# Compressibility (1/GPa) = 0.04205655
#
# Stress axis : x y z
#
# Youngs Moduli (GPa) = 47.37207 36.34833 52.97552
#
# Poissons Ratio (x) = 0.28949 0.35366
# Poissons Ratio (y) = 0.37729 -0.10170
# Poissons Ratio (z) = 0.31625 -0.06978
#
# Static dielectric constant tensor:
#      x y z
#    x 3.869300 0.078650 0.021440 
#    y 0.078650 3.876130 -0.156870 
#    z 0.021440 -0.156870 3.770360 
# 
# 
# High freq. dielectric constant tensor:
#      x y z
#    x 1.844090 0.004560 0.006400 
#    y 0.004560 1.860630 -0.012190 
#    z 0.006400 -0.012190 1.843640 
# 
# From -- ./inp_files/179752.got.cif
#   From: 2010.06.25/outbox.cif.g09.slc.cpg/sg2_90_cif.got.tgz:179752.got - 2010.06.27 13:26:56.
