data_PCOD8033920
_publ_section_title
;
Structure prediction by ZEFSAII (Michael W. Deem and Ramdas Pophale) SiO2 
 PCOD8033920
Probable space group: P -1
;
_chemical_formula_sum "Si O2"
_cell_formula_units_Z 16
_cell_length_a 25.425525
_cell_length_b 8.503945
_cell_length_c 8.415220
_cell_angle_alpha 99.237401
_cell_angle_beta 49.999738
_cell_angle_gamma 138.468103
_cell_volume 716.699840
_symmetry_space_group_name_H-M "P -1"
_symmetry_group_IT_number 2
_symmetry_cell_setting 'triclinic'
loop_
_space_group_symop_operation_xyz
x,y,z
-x,-y,-z
loop_
_atom_site_type_symbol
_atom_site_label
_atom_site_fract_x
_atom_site_fract_y
_atom_site_fract_z
Si Si1 0.989742 0.133020 0.931008
Si Si2 0.145085 0.252574 0.411444
Si Si3 0.988774 0.308669 0.564487
Si Si4 0.755950 0.319520 0.947502
Si Si5 0.465102 0.775331 0.431045
Si Si6 0.366391 0.734461 0.310168
Si Si7 0.225862 0.740366 0.733967
Si Si8 0.773269 0.893377 0.183027
O O1 0.035143 0.166266 0.669205
O O2 0.087814 0.458103 0.865114
O O3 0.843174 0.920957 0.187137
O O4 0.000000 0.000000 0.000000
O O5 0.217264 0.447569 0.136251
O O6 0.250794 0.438205 0.375805
O O7 0.068423 0.936056 0.485552
O O8 0.000000 0.500000 0.500000
O O9 0.144062 0.581847 0.341752
O O10 0.893502 0.138992 0.868818
O O11 0.788994 0.361344 0.075745
O O12 0.604624 0.966150 0.153398
O O13 0.386026 0.656286 0.406447
O O14 0.363312 0.457671 0.670302
O O15 0.500000 0.000000 0.500000
O O16 0.335160 0.851202 0.449666
O O17 0.500000 0.000000 0.000000
O O18 0.268900 0.009644 0.679636
#
# Coordination Sequence:
#
# PCOD8033920 Si02
#       8
#     2   2   2   2   2   2   2   2
#     4  11  24  43  73 101 140 185 244 294 350 429
#     4  11  24  42  75 102 134 191 247 294 348 426
#     4  12  26  44  71 109 146 184 237 302 361 419
#     4  12  23  45  70 105 142 183 246 289 351 432
#     4  12  26  45  73 104 142 192 244 289 354 436
#     4  11  24  48  73 101 142 190 242 293 356 436
#     4  11  25  44  71 106 142 180 241 305 366 415
#     4  12  26  46  71 107 145 190 233 299 370 420
#
# _framework density 22.324546999999999
#
# number of rings (size 3 to 8) (size 9 to 14) (size 15 to 20)
#    0.000    0.500    5.000    3.750    3.500    0.500 
#    4.500    0.625    0.000    0.000    0.000    0.000 
#    0.000    0.000    0.000    0.000    0.000    0.000 
#
# Total GULP energy -198235.033372 kJ/mol
# GULP energy per Si atom -12389.689586 kJ/mol
# Density = 2.227374 g / cm^3
# Si number density = 22.324547 Si / 1000 Ang^3
#
#
#
# Elastic Constant Matrix: (Units=GPa)
#
#
# Indices 1 2 3 4 5 6 
#
# 1 101.4442 50.8587 46.8268 -4.9758 -7.9339 -2.2799
# 2 50.8587 125.5858 48.2554 -17.7013 -10.8399 -11.1284
# 3 46.8268 48.2554 153.9179 -23.1780 -24.7799 -8.1595
# 4 -4.9758 -17.7013 -23.1780 35.4864 5.2936 1.0674
# 5 -7.9339 -10.8399 -24.7799 5.2936 39.6347 -3.2742
# 6 -2.2799 -11.1284 -8.1595 1.0674 -3.2742 30.9954
#
#
#
# Elastic Compliance Matrix: (Units=1/GPa)
#
#
# Indices 1 2 3 4 5 6 
#
# 1 0.013511 -0.004780 -0.003112 -0.002426 -0.000348 -0.001495
# 2 -0.004780 0.011289 -0.001119 0.003951 0.001184 0.003396
# 3 -0.003112 -0.001119 0.009281 0.004336 0.004470 0.002135
# 4 -0.002426 0.003951 0.004336 0.032753 -0.000974 0.001151
# 5 -0.000348 0.001184 0.004470 -0.000974 0.028794 0.004651
# 6 -0.001495 0.003396 0.002135 0.001151 0.004651 0.034386
#
#
# Mechanical properties :
#
#
# Convention : Reuss Voigt Hill
#
# Bulk Modulus (GPa) = 62.28082 74.75885 68.51983
# Shear Modulus (GPa) = 32.59692 36.89042 34.74367
#
# Velocity S-wave (km/s) = 3.82532 4.06946 3.94928
# Velocity P-wave (km/s) = 6.88979 7.45926 7.18018
#
# Compressibility (1/GPa) = 0.01605631
#
# Stress axis : x y z
#
# Youngs Moduli (GPa) = 74.01356 88.58558 107.75117
#
# Poissons Ratio (x) = 0.42345 0.33538
# Poissons Ratio (y) = 0.35379 0.12061
# Poissons Ratio (z) = 0.23037 0.09916
#
# Static dielectric constant tensor:
#      x y z
#    x 4.635100 0.005270 -0.274760 
#    y 0.005270 3.954020 -0.077110 
#    z -0.274760 -0.077110 4.754830 
# 
# 
# High freq. dielectric constant tensor:
#      x y z
#    x 1.889380 0.003620 -0.001940 
#    y 0.003620 1.857980 -0.012270 
#    z -0.001940 -0.012270 1.898200 
# 
# From -- ./inp_files/356459.got.cif
#   From: 2010.06.25/outbox.cif.g09.slc.cpg/sg2_179_cif.got.tgz:356459.got - 2010.06.27 13:26:56.
