data_PCOD8033287
_publ_section_title
;
Structure prediction by ZEFSAII (Michael W. Deem and Ramdas Pophale) SiO2 
 PCOD8033287
Probable space group: P -1
;
_chemical_formula_sum "Si O2"
_cell_formula_units_Z 14
_cell_length_a 19.197748
_cell_length_b 15.448029
_cell_length_c 8.829042
_cell_angle_alpha 134.411340
_cell_angle_beta 46.352713
_cell_angle_gamma 160.600190
_cell_volume 616.239572
_symmetry_space_group_name_H-M "P -1"
_symmetry_group_IT_number 2
_symmetry_cell_setting 'triclinic'
loop_
_space_group_symop_operation_xyz
x,y,z
-x,-y,-z
loop_
_atom_site_type_symbol
_atom_site_label
_atom_site_fract_x
_atom_site_fract_y
_atom_site_fract_z
Si Si1 0.017033 0.507108 0.662412
Si Si2 0.661145 0.330036 0.549183
Si Si3 0.259700 0.193763 0.964387
Si Si4 0.295453 0.021908 0.900453
Si Si5 0.437506 0.061923 0.237659
Si Si6 0.980612 0.084583 0.315340
Si Si7 0.622576 0.766039 0.655662
O O1 0.223992 0.665918 0.590513
O O2 0.000000 0.500000 0.500000
O O3 0.810578 0.221478 0.699258
O O4 0.081269 0.709918 0.885113
O O5 0.483338 0.142783 0.715633
O O6 0.833158 0.626766 0.680102
O O7 0.571352 0.235589 0.398863
O O8 0.095988 0.087249 0.183622
O O9 0.500000 0.500000 0.000000
O O10 0.234575 0.027942 0.849212
O O11 0.203275 0.141979 0.809565
O O12 0.375339 0.199351 0.129122
O O13 0.472744 0.221082 0.272872
O O14 0.500000 0.000000 0.000000
O O15 0.865521 0.014569 0.546256
O O16 0.500000 0.500000 0.500000
#
# Coordination Sequence:
#
# PCOD8033287 Si02
#       7
#     2   2   2   2   2   2   2
#     4  12  26  48  77 112 146 189 256 308 372 449
#     4  12  25  48  76 106 145 194 250 301 373 443
#     4  11  23  45  73 101 141 194 244 299 364 441
#     4  12  26  44  76 107 148 194 248 308 370 444
#     4  12  29  50  78 108 153 200 247 314 374 444
#     4  11  25  44  74 103 143 192 244 301 371 437
#     4  12  29  49  71 112 156 196 251 310 378 444
#
# _framework density 22.718437000000002
#
# number of rings (size 3 to 8) (size 9 to 14) (size 15 to 20)
#    0.000    0.286    4.286    3.857    8.000    2.857 
#    0.000    0.000    0.000    0.000    0.000    0.000 
#    0.000    0.000    0.000    0.000    0.000    0.000 
#
# Total GULP energy -173535.170461 kJ/mol
# GULP energy per Si atom -12395.369319 kJ/mol
# Density = 2.266673 g / cm^3
# Si number density = 22.718437 Si / 1000 Ang^3
#
#
#
# Elastic Constant Matrix: (Units=GPa)
#
#
# Indices 1 2 3 4 5 6 
#
# 1 122.3281 54.6901 38.8873 -0.7623 -18.4086 7.0788
# 2 54.6901 118.0058 35.1486 15.7903 -6.5946 2.7613
# 3 38.8873 35.1486 121.0652 0.9807 -3.3334 9.7181
# 4 -0.7623 15.7903 0.9807 47.0419 0.5483 -8.2429
# 5 -18.4086 -6.5946 -3.3334 0.5483 38.9428 5.1431
# 6 7.0788 2.7613 9.7181 -8.2429 5.1431 41.6706
#
#
#
# Elastic Compliance Matrix: (Units=1/GPa)
#
#
# Indices 1 2 3 4 5 6 
#
# 1 0.011786 -0.004714 -0.002180 0.001506 0.004760 -0.001471
# 2 -0.004714 0.011738 -0.001845 -0.004028 -0.000301 -0.000306
# 3 -0.002180 -0.001845 0.009623 0.000089 -0.000296 -0.001697
# 4 0.001506 -0.004028 0.000089 0.023475 -0.000920 0.004747
# 5 0.004760 -0.000301 -0.000296 -0.000920 0.028448 -0.004413
# 6 -0.001471 -0.000306 -0.001697 0.004747 -0.004413 0.026147
#
#
# Mechanical properties :
#
#
# Convention : Reuss Voigt Hill
#
# Bulk Modulus (GPa) = 63.81954 68.76123 66.29038
# Shear Modulus (GPa) = 37.33629 41.04260 39.18944
#
# Velocity S-wave (km/s) = 4.05833 4.25500 4.15783
# Velocity P-wave (km/s) = 7.07902 7.38054 7.23135
#
# Compressibility (1/GPa) = 0.01566918
#
# Stress axis : x y z
#
# Youngs Moduli (GPa) = 84.84586 85.19634 103.91476
#
# Poissons Ratio (x) = 0.40161 0.22656
# Poissons Ratio (y) = 0.39996 0.19169
# Poissons Ratio (z) = 0.18499 0.15716
#
# Static dielectric constant tensor:
#      x y z
#    x 4.272360 0.878750 -0.211890 
#    y 0.878750 1.309760 -0.281630 
#    z -0.211890 -0.281630 4.251450 
# 
# 
# High freq. dielectric constant tensor:
#      x y z
#    x 1.905340 0.002010 -0.018020 
#    y 0.002010 1.907440 0.009800 
#    z -0.018020 0.009800 1.903370 
# 
# From -- ./inp_files/46372.got.cif
#   From: 2010.06.25/outbox.cif.g09.slc.cpg/sg2_24_cif.got.tgz:46372.got - 2010.06.27 13:26:56.
