data_PCOD8033665
_publ_section_title
;
Structure prediction by ZEFSAII (Michael W. Deem and Ramdas Pophale) SiO2 
 PCOD8033665
Probable space group: P -1
;
_chemical_formula_sum "Si O2"
_cell_formula_units_Z 16
_cell_length_a 9.135247
_cell_length_b 29.538327
_cell_length_c 5.451829
_cell_angle_alpha 101.345793
_cell_angle_beta 96.169494
_cell_angle_gamma 27.743086
_cell_volume 664.238762
_symmetry_space_group_name_H-M "P -1"
_symmetry_group_IT_number 2
_symmetry_cell_setting 'triclinic'
loop_
_space_group_symop_operation_xyz
x,y,z
-x,-y,-z
loop_
_atom_site_type_symbol
_atom_site_label
_atom_site_fract_x
_atom_site_fract_y
_atom_site_fract_z
Si Si1 0.658645 0.525649 0.592089
Si Si2 0.290659 0.709967 0.530646
Si Si3 0.582451 0.803487 0.995748
Si Si4 0.627987 0.846473 0.540666
Si Si5 0.288080 0.791356 0.961486
Si Si6 0.357119 0.019295 0.742682
Si Si7 0.770038 0.421225 0.156965
Si Si8 0.791590 0.601627 0.127938
O O1 0.541573 0.611215 0.639481
O O2 0.807108 0.463723 0.302667
O O3 0.350800 0.580739 0.658893
O O4 0.960559 0.434420 0.726593
O O5 0.477076 0.671518 0.281704
O O6 0.988824 0.762483 0.463963
O O7 0.168103 0.791048 0.722168
O O8 0.499247 0.857791 0.278776
O O9 0.321078 0.835913 0.937524
O O10 0.610916 0.821045 0.758633
O O11 0.909315 0.688355 0.010905
O O12 0.400160 0.952531 0.670232
O O13 0.640268 0.674834 0.966574
O O14 0.019516 0.864241 0.202473
O O15 0.500000 0.000000 0.500000
O O16 0.500000 0.000000 0.000000
O O17 0.500000 0.500000 0.000000
O O18 0.000000 0.500000 0.000000
#
# Coordination Sequence:
#
# PCOD8033665 Si02
#       8
#     2   2   2   2   2   2   2   2
#     4  11  24  40  64 102 142 199 253 312 372 447
#     4  12  25  45  73 107 148 203 265 318 379 457
#     4  12  29  48  75 113 158 203 254 315 392 460
#     4  12  28  51  80 112 155 200 260 321 389 464
#     4  12  29  48  77 111 152 202 256 323 387 464
#     4  12  27  52  87 120 149 195 259 327 394 461
#     4  11  24  41  67  98 151 203 256 304 380 453
#     4  12  27  41  69 108 152 196 259 317 382 443
#
# _framework density 24.087723
#
# number of rings (size 3 to 8) (size 9 to 14) (size 15 to 20)
#    0.000    0.250    3.750    4.125   12.250    1.000 
#    0.000    0.000    0.000    0.000    0.000    0.000 
#    0.000    0.000    0.000    0.000    0.000    0.000 
#
# Total GULP energy -198289.440449 kJ/mol
# GULP energy per Si atom -12393.090028 kJ/mol
# Density = 2.403290 g / cm^3
# Si number density = 24.087723 Si / 1000 Ang^3
#
#
#
# Elastic Constant Matrix: (Units=GPa)
#
#
# Indices 1 2 3 4 5 6 
#
# 1 133.7125 16.1623 50.5752 12.6937 10.9040 6.8037
# 2 16.1623 82.2402 21.7211 25.8114 4.4530 6.6158
# 3 50.5752 21.7211 138.8167 19.1398 12.8871 8.1710
# 4 12.6937 25.8114 19.1398 42.2850 0.6760 4.2536
# 5 10.9040 4.4530 12.8871 0.6760 43.9489 5.7880
# 6 6.8037 6.6158 8.1710 4.2536 5.7880 29.0212
#
#
#
# Elastic Compliance Matrix: (Units=1/GPa)
#
#
# Indices 1 2 3 4 5 6 
#
# 1 0.008850 -0.000571 -0.002853 -0.000921 -0.001186 -0.000770
# 2 -0.000571 0.015391 -0.000830 -0.008663 -0.000816 -0.001709
# 3 -0.002853 -0.000830 0.008936 -0.002560 -0.001664 -0.000951
# 4 -0.000921 -0.008663 -0.002560 0.030536 0.001636 -0.001890
# 5 -0.001186 -0.000816 -0.001664 0.001636 0.024136 -0.004121
# 6 -0.000770 -0.001709 -0.000951 -0.001890 -0.004121 0.036394
#
#
# Mechanical properties :
#
#
# Convention : Reuss Voigt Hill
#
# Bulk Modulus (GPa) = 40.53192 59.07627 49.80410
# Shear Modulus (GPa) = 35.46743 40.80508 38.13626
#
# Velocity S-wave (km/s) = 3.84139 4.12031 3.98329
# Velocity P-wave (km/s) = 6.04469 6.87129 6.47121
#
# Compressibility (1/GPa) = 0.02467191
#
# Stress axis : x y z
#
# Youngs Moduli (GPa) = 112.99447 64.97106 111.90359
#
# Poissons Ratio (x) = 0.03708 0.31922
# Poissons Ratio (y) = 0.06448 0.09283
# Poissons Ratio (z) = 0.32233 0.05390
#
# Static dielectric constant tensor:
#      x y z
#    x 6.833650 -0.230430 -1.101310 
#    y -0.230430 4.108590 0.173660 
#    z -1.101310 0.173660 4.694850 
# 
# 
# High freq. dielectric constant tensor:
#      x y z
#    x 1.971130 0.001430 0.002630 
#    y 0.001430 1.957160 0.013050 
#    z 0.002630 0.013050 1.958360 
# 
# From -- ./inp_files/56979.got.cif
#   From: 2010.06.25/outbox.cif.g09.slc.cpg/sg2_29_cif.got.tgz:56979.got - 2010.06.27 13:26:56.
