data_PCOD8033905
_publ_section_title
;
Structure prediction by ZEFSAII (Michael W. Deem and Ramdas Pophale) SiO2 
 PCOD8033905
Probable space group: P -1
;
_chemical_formula_sum "Si O2"
_cell_formula_units_Z 14
_cell_length_a 24.949330
_cell_length_b 25.355675
_cell_length_c 13.713462
_cell_angle_alpha 158.710105
_cell_angle_beta 21.879301
_cell_angle_gamma 169.004158
_cell_volume 589.577759
_symmetry_space_group_name_H-M "P -1"
_symmetry_group_IT_number 2
_symmetry_cell_setting 'triclinic'
loop_
_space_group_symop_operation_xyz
x,y,z
-x,-y,-z
loop_
_atom_site_type_symbol
_atom_site_label
_atom_site_fract_x
_atom_site_fract_y
_atom_site_fract_z
Si Si1 0.645330 0.991699 0.491733
Si Si2 0.019018 0.105331 0.358058
Si Si3 0.916962 0.998018 0.738426
Si Si4 0.459347 0.501409 0.959734
Si Si5 0.211467 0.815735 0.200664
Si Si6 0.091397 0.556388 0.592394
Si Si7 0.694854 0.408964 0.897044
O O1 0.350058 0.828722 0.698803
O O2 0.781486 0.119572 0.589041
O O3 0.893523 0.254432 0.449622
O O4 0.526965 0.727731 0.210913
O O5 0.101420 0.147664 0.403721
O O6 0.312486 0.395168 0.305731
O O7 0.840944 0.097168 0.634405
O O8 0.857499 0.824745 0.099899
O O9 0.631519 0.849550 0.963007
O O10 0.000000 0.000000 0.500000
O O11 0.181427 0.328938 0.893419
O O12 0.500000 0.500000 0.000000
O O13 0.000000 0.500000 0.000000
O O14 0.500000 0.000000 0.000000
O O15 0.881425 0.508793 0.844515
O O16 0.271029 0.670450 0.388060
#
# Coordination Sequence:
#
# PCOD8033905 Si02
#       7
#     2   2   2   2   2   2   2
#     4  12  24  42  70 107 139 184 232 281 359 426
#     4  12  26  46  70 104 138 184 231 296 345 403
#     4  12  26  45  71  98 140 189 241 282 342 418
#     4  12  24  42  74 103 141 175 229 294 352 410
#     4  12  28  46  66  96 144 186 229 278 339 427
#     4  11  24  42  73 103 142 178 227 298 360 411
#     4  11  24  46  68 104 139 179 232 296 351 405
#
# _framework density 23.745808
#
# number of rings (size 3 to 8) (size 9 to 14) (size 15 to 20)
#    0.000    0.286    1.429    8.571    2.000    5.714 
#    0.000    0.000    0.000    0.000    0.000    0.000 
#    0.000    0.000    0.000    0.000    0.000    0.000 
#
# Total GULP energy -173598.423402 kJ/mol
# GULP energy per Si atom -12399.887386 kJ/mol
# Density = 2.369176 g / cm^3
# Si number density = 23.745808 Si / 1000 Ang^3
#
#
#
# Elastic Constant Matrix: (Units=GPa)
#
#
# Indices 1 2 3 4 5 6 
#
# 1 137.3935 27.2763 38.2782 -18.4663 -13.1000 -1.8732
# 2 27.2763 122.1321 17.9540 -5.6110 4.4859 -0.9770
# 3 38.2782 17.9540 89.7177 -9.2925 -6.9162 -1.2142
# 4 -18.4663 -5.6110 -9.2925 45.1946 -0.3805 3.1492
# 5 -13.1000 4.4859 -6.9162 -0.3805 32.5246 -2.7815
# 6 -1.8732 -0.9770 -1.2142 3.1492 -2.7815 43.4111
#
#
#
# Elastic Compliance Matrix: (Units=1/GPa)
#
#
# Indices 1 2 3 4 5 6 
#
# 1 0.009149 -0.001584 -0.003024 0.002929 0.003318 0.000275
# 2 -0.001584 0.008808 -0.001232 0.000179 -0.002117 -0.000053
# 3 -0.003024 -0.001232 0.012952 0.001274 0.001740 0.000223
# 4 0.002929 0.000179 0.001274 0.023722 0.001579 -0.001454
# 5 0.003318 -0.002117 0.001740 0.001579 0.032946 0.002141
# 6 0.000275 -0.000053 0.000223 -0.001454 0.002141 0.023295
#
#
# Mechanical properties :
#
#
# Convention : Reuss Voigt Hill
#
# Bulk Modulus (GPa) = 52.00371 57.36224 54.68298
# Shear Modulus (GPa) = 38.77124 41.94172 40.35648
#
# Velocity S-wave (km/s) = 4.04513 4.20727 4.12700
# Velocity P-wave (km/s) = 6.61552 6.91453 6.76668
#
# Compressibility (1/GPa) = 0.01922940
#
# Stress axis : x y z
#
# Youngs Moduli (GPa) = 109.30213 113.52904 77.20936
#
# Poissons Ratio (x) = 0.17982 0.23345
# Poissons Ratio (y) = 0.17313 0.09515
# Poissons Ratio (z) = 0.33049 0.13990
#
# Static dielectric constant tensor:
#      x y z
#    x 4.899500 0.066100 -0.650730 
#    y 0.066100 4.521800 -0.035040 
#    z -0.650730 -0.035040 4.573750 
# 
# 
# High freq. dielectric constant tensor:
#      x y z
#    x 1.953520 0.001260 -0.019470 
#    y 0.001260 1.964760 -0.007100 
#    z -0.019470 -0.007100 1.921040 
# 
# From -- ./inp_files/544595.got.cif
#   From: 2010.06.25/outbox.cif.g09.slc.cpg/sg2_273_cif.got.tgz:544595.got - 2010.06.27 13:26:56.
