data_PCOD8033941
_publ_section_title
;
Structure prediction by ZEFSAII (Michael W. Deem and Ramdas Pophale) SiO2 
 PCOD8033941
Probable space group: P -1
;
_chemical_formula_sum "Si O2"
_cell_formula_units_Z 16
_cell_length_a 9.827527
_cell_length_b 9.322032
_cell_length_c 11.060108
_cell_angle_alpha 89.948996
_cell_angle_beta 88.085732
_cell_angle_gamma 133.964044
_cell_volume 728.493109
_symmetry_space_group_name_H-M "P -1"
_symmetry_group_IT_number 2
_symmetry_cell_setting 'triclinic'
loop_
_space_group_symop_operation_xyz
x,y,z
-x,-y,-z
loop_
_atom_site_type_symbol
_atom_site_label
_atom_site_fract_x
_atom_site_fract_y
_atom_site_fract_z
Si Si1 0.739329 0.036808 0.856849
Si Si2 0.530330 0.154221 0.781506
Si Si3 0.385184 0.726497 0.488904
Si Si4 0.897880 0.714127 0.551939
Si Si5 0.760192 0.915050 0.600897
Si Si6 0.185412 0.755354 0.694312
Si Si7 0.908037 0.534261 0.102302
Si Si8 0.527770 0.351834 0.990614
O O1 0.628524 0.106285 0.861988
O O2 0.958921 0.229813 0.878697
O O3 0.702527 0.935323 0.730481
O O4 0.657393 0.869550 0.959419
O O5 0.634146 0.239261 0.649410
O O6 0.554506 0.323550 0.850007
O O7 0.309294 0.951847 0.773831
O O8 0.246136 0.491911 0.516116
O O9 0.599051 0.835328 0.508716
O O10 0.317409 0.806765 0.576352
O O11 0.781625 0.759862 0.613571
O O12 0.000586 0.703841 0.656236
O O13 0.043010 0.874279 0.447060
O O14 0.115769 0.567451 0.771239
O O15 0.705537 0.442048 0.067478
O O16 0.000000 0.500000 0.000000
O O17 0.500000 0.500000 0.000000
#
# Coordination Sequence:
#
# PCOD8033941 Si02
#       8
#     2   2   2   2   2   2   2   2
#     4  12  24  46  76  97 137 183 234 282 344 409
#     4  12  23  44  74  99 137 185 228 285 337 406
#     4  12  23  43  70  99 140 184 229 274 350 407
#     4  11  25  40  63 105 144 173 229 278 340 412
#     4  11  24  43  66 102 141 183 219 285 348 408
#     4  12  23  44  72 104 137 182 236 284 335 416
#     4  12  25  45  75 100 134 183 233 286 342 401
#     4  12  29  48  70 104 139 178 235 289 345 407
#
# _framework density 21.963145999999998
#
# number of rings (size 3 to 8) (size 9 to 14) (size 15 to 20)
#    0.000    0.250    5.000    4.500    1.750    1.500 
#    2.250    0.000    0.000    0.000    0.000    0.000 
#    0.000    0.000    0.000    0.000    0.000    0.000 
#
# Total GULP energy -198530.113949 kJ/mol
# GULP energy per Si atom -12408.132122 kJ/mol
# Density = 2.191316 g / cm^3
# Si number density = 21.963146 Si / 1000 Ang^3
#
#
#
# Elastic Constant Matrix: (Units=GPa)
#
#
# Indices 1 2 3 4 5 6 
#
# 1 107.7052 39.9969 29.4517 2.6678 0.0974 -25.7265
# 2 39.9969 115.3036 27.0380 10.6081 3.8059 -5.7060
# 3 29.4517 27.0380 105.0383 -3.3656 -3.1054 -15.2698
# 4 2.6678 10.6081 -3.3656 38.1919 -2.7721 -1.0766
# 5 0.0974 3.8059 -3.1054 -2.7721 24.3219 2.4636
# 6 -25.7265 -5.7060 -15.2698 -1.0766 2.4636 36.0733
#
#
#
# Elastic Compliance Matrix: (Units=1/GPa)
#
#
# Indices 1 2 3 4 5 6 
#
# 1 0.013025 -0.003766 -0.001514 0.000198 -0.000453 0.008089
# 2 -0.003766 0.010746 -0.002140 -0.003115 -0.002108 -0.001841
# 3 -0.001514 -0.002140 0.011072 0.001886 0.001644 0.003213
# 4 0.000198 -0.003115 0.001886 0.027503 0.003760 0.001011
# 5 -0.000453 -0.002108 0.001644 0.003760 0.042363 -0.002742
# 6 0.008089 -0.001841 0.003213 0.001011 -0.002742 0.034777
#
#
# Mechanical properties :
#
#
# Convention : Reuss Voigt Hill
#
# Bulk Modulus (GPa) = 49.99226 57.89113 53.94170
# Shear Modulus (GPa) = 31.05750 35.15478 33.10614
#
# Velocity S-wave (km/s) = 3.76450 4.00512 3.88667
# Velocity P-wave (km/s) = 6.45806 6.91401 6.68992
#
# Compressibility (1/GPa) = 0.02000310
#
# Stress axis : x y z
#
# Youngs Moduli (GPa) = 76.77669 93.05743 90.32078
#
# Poissons Ratio (x) = 0.35046 0.13671
# Poissons Ratio (y) = 0.28915 0.19328
# Poissons Ratio (z) = 0.11621 0.19914
#
# Static dielectric constant tensor:
#      x y z
#    x 3.965550 0.028050 0.015950 
#    y 0.028050 4.270250 0.103040 
#    z 0.015950 0.103040 3.919280 
# 
# 
# High freq. dielectric constant tensor:
#      x y z
#    x 1.855140 0.006650 -0.000500 
#    y 0.006650 1.884730 0.003960 
#    z -0.000500 0.003960 1.865850 
# 
# From -- ./inp_files/187302.got.cif
#   From: 2010.06.25/outbox.cif.g09.slc.cpg/sg2_94_cif.got.tgz:187302.got - 2010.06.27 13:26:56.
