data_PCOD8033934
_publ_section_title
;
Structure prediction by ZEFSAII (Michael W. Deem and Ramdas Pophale) SiO2 
 PCOD8033934
Probable space group: P -1
;
_chemical_formula_sum "Si O2"
_cell_formula_units_Z 14
_cell_length_a 9.151858
_cell_length_b 12.283237
_cell_length_c 8.818158
_cell_angle_alpha 81.376688
_cell_angle_beta 46.277819
_cell_angle_gamma 59.789018
_cell_volume 587.215294
_symmetry_space_group_name_H-M "P -1"
_symmetry_group_IT_number 2
_symmetry_cell_setting 'triclinic'
loop_
_space_group_symop_operation_xyz
x,y,z
-x,-y,-z
loop_
_atom_site_type_symbol
_atom_site_label
_atom_site_fract_x
_atom_site_fract_y
_atom_site_fract_z
Si Si1 0.416403 0.315594 0.073342
Si Si2 0.109857 0.760799 0.129813
Si Si3 0.786501 0.054915 0.377950
Si Si4 0.667328 0.742185 0.522443
Si Si5 0.514920 0.905097 0.137425
Si Si6 0.055837 0.757207 0.832154
Si Si7 0.061337 0.516879 0.782657
O O1 0.375342 0.264213 0.269790
O O2 0.165548 0.448733 0.170906
O O3 0.641833 0.331091 0.931783
O O4 0.497383 0.209840 0.904868
O O5 0.911434 0.738084 0.337465
O O6 0.187906 0.715267 0.909074
O O7 0.011087 0.916727 0.178797
O O8 0.562830 0.121676 0.406142
O O9 0.704531 0.021450 0.600300
O O10 0.873347 0.153744 0.328162
O O11 0.704223 0.619057 0.422641
O O12 0.768252 0.841915 0.058402
O O13 0.500000 0.000000 0.000000
O O14 0.122556 0.628945 0.710859
O O15 0.000000 0.500000 0.000000
#
# Coordination Sequence:
#
# PCOD8033934 Si02
#       7
#     2   2   2   2   2   2   2
#     4  11  26  43  68 104 136 177 233 289 337 409
#     4  12  24  43  71 106 139 177 229 287 347 407
#     4  12  25  42  74 104 140 184 228 279 353 411
#     4  12  24  44  73 103 136 184 231 285 345 401
#     4  11  24  43  65 101 145 183 225 282 342 414
#     4  11  24  44  70  99 137 186 227 287 344 406
#     4  11  24  50  71  97 142 183 234 282 345 411
#
# _framework density 23.841339999999999
#
# number of rings (size 3 to 8) (size 9 to 14) (size 15 to 20)
#    0.000    0.571    4.286    3.857    2.000    5.714 
#    0.000    0.000    0.000    0.000    0.000    0.000 
#    0.000    0.000    0.000    0.000    0.000    0.000 
#
# Total GULP energy -173648.654386 kJ/mol
# GULP energy per Si atom -12403.475313 kJ/mol
# Density = 2.378708 g / cm^3
# Si number density = 23.841340 Si / 1000 Ang^3
#
#
#
# Elastic Constant Matrix: (Units=GPa)
#
#
# Indices 1 2 3 4 5 6 
#
# 1 124.4877 27.4303 29.5029 -6.3572 -5.7921 -9.3970
# 2 27.4303 73.1469 11.7715 2.3553 -6.0338 7.3806
# 3 29.5029 11.7715 88.9932 -13.1880 3.7533 -2.0731
# 4 -6.3572 2.3553 -13.1880 39.2169 5.0245 -4.8607
# 5 -5.7921 -6.0338 3.7533 5.0245 34.0958 -12.2922
# 6 -9.3970 7.3806 -2.0731 -4.8607 -12.2922 39.4067
#
#
#
# Elastic Compliance Matrix: (Units=1/GPa)
#
#
# Indices 1 2 3 4 5 6 
#
# 1 0.009898 -0.003485 -0.002684 0.001053 0.002577 0.003805
# 2 -0.003485 0.015795 -0.001474 -0.002655 0.001402 -0.003757
# 3 -0.002684 -0.001474 0.013095 0.004416 -0.002812 -0.000008
# 4 0.001053 -0.002655 0.004416 0.028202 -0.003747 0.003290
# 5 0.002577 0.001402 -0.002812 -0.003747 0.034684 0.010561
# 6 0.003805 -0.003757 -0.000008 0.003290 0.010561 0.030687
#
#
# Mechanical properties :
#
#
# Convention : Reuss Voigt Hill
#
# Bulk Modulus (GPa) = 42.55139 47.11523 44.83331
# Shear Modulus (GPa) = 32.15802 37.07209 34.61505
#
# Velocity S-wave (km/s) = 3.67663 3.94756 3.81450
# Velocity P-wave (km/s) = 5.99249 6.37044 6.18436
#
# Compressibility (1/GPa) = 0.02350100
#
# Stress axis : x y z
#
# Youngs Moduli (GPa) = 101.03104 63.30930 76.36746
#
# Poissons Ratio (x) = 0.22064 0.20500
# Poissons Ratio (y) = 0.35210 0.11257
# Poissons Ratio (z) = 0.27121 0.09332
#
# Static dielectric constant tensor:
#      x y z
#    x 4.617000 -0.005570 -0.183330 
#    y -0.005570 4.625060 0.284140 
#    z -0.183330 0.284140 4.292870 
# 
# 
# High freq. dielectric constant tensor:
#      x y z
#    x 1.958640 0.002640 -0.002020 
#    y 0.002640 1.939720 0.001930 
#    z -0.002020 0.001930 1.941480 
# 
# From -- ./inp_files/186300.got.cif
#   From: 2010.06.25/outbox.cif.g09.slc.cpg/sg2_94_cif.got.tgz:186300.got - 2010.06.27 13:26:56.
