data_PCOD8033922
_publ_section_title
;
Structure prediction by ZEFSAII (Michael W. Deem and Ramdas Pophale) SiO2 
 PCOD8033922
Probable space group: P -1
;
_chemical_formula_sum "Si O2"
_cell_formula_units_Z 12
_cell_length_a 11.575146
_cell_length_b 12.273235
_cell_length_c 5.027602
_cell_angle_alpha 94.254547
_cell_angle_beta 114.129156
_cell_angle_gamma 124.434243
_cell_volume 491.397511
_symmetry_space_group_name_H-M "P -1"
_symmetry_group_IT_number 2
_symmetry_cell_setting 'triclinic'
loop_
_space_group_symop_operation_xyz
x,y,z
-x,-y,-z
loop_
_atom_site_type_symbol
_atom_site_label
_atom_site_fract_x
_atom_site_fract_y
_atom_site_fract_z
Si Si1 0.225046 0.731233 0.308324
Si Si2 0.358863 0.329900 0.291698
Si Si3 0.411738 0.115100 0.413334
Si Si4 0.930569 0.550740 0.636176
Si Si5 0.844919 0.728168 0.416821
Si Si6 0.219178 0.928911 0.697105
O O1 0.408537 0.841560 0.372192
O O2 0.192644 0.584284 0.307245
O O3 0.214041 0.799064 0.576679
O O4 0.083204 0.695484 0.965291
O O5 0.500000 0.500000 0.500000
O O6 0.437286 0.254134 0.373162
O O7 0.206195 0.254801 0.340761
O O8 0.286677 0.302376 0.924524
O O9 0.313469 0.054609 0.587799
O O10 0.312652 0.989782 0.076718
O O11 0.832037 0.588553 0.391386
O O12 0.000000 0.500000 0.500000
O O13 0.032366 0.871745 0.545426
#
# Coordination Sequence:
#
# PCOD8033922 Si02
#       6
#     2   2   2   2   2   2
#     4  11  25  45  70 110 146 179 240 299 352 421
#     4  12  28  49  74 104 140 188 234 298 350 415
#     4  12  28  45  73 104 146 191 236 284 358 424
#     4  11  24  42  77 105 136 187 233 297 363 401
#     4  12  26  48  73 103 146 180 244 288 345 428
#     4  12  26  46  72 106 143 193 232 291 354 415
#
# _framework density 24.420148999999999
#
# number of rings (size 3 to 8) (size 9 to 14) (size 15 to 20)
#    0.000    0.333    1.667    6.500    7.000    4.000 
#    0.000    0.000    0.000    0.000    0.000    0.000 
#    0.000    0.000    0.000    0.000    0.000    0.000 
#
# Total GULP energy -148872.710129 kJ/mol
# GULP energy per Si atom -12406.059177 kJ/mol
# Density = 2.436457 g / cm^3
# Si number density = 24.420149 Si / 1000 Ang^3
#
#
#
# Elastic Constant Matrix: (Units=GPa)
#
#
# Indices 1 2 3 4 5 6 
#
# 1 94.7305 9.3829 13.1193 10.9281 -0.1149 12.4688
# 2 9.3829 80.8379 26.8604 15.8380 13.0492 8.1622
# 3 13.1193 26.8604 75.4590 13.6540 8.9011 9.2336
# 4 10.9281 15.8380 13.6540 45.0698 1.4751 0.6213
# 5 -0.1149 13.0492 8.9011 1.4751 38.0424 3.1574
# 6 12.4688 8.1622 9.2336 0.6213 3.1574 49.7173
#
#
#
# Elastic Compliance Matrix: (Units=1/GPa)
#
#
# Indices 1 2 3 4 5 6 
#
# 1 0.011360 -0.000328 -0.001220 -0.002258 0.000735 -0.002587
# 2 -0.000328 0.015311 -0.004037 -0.003926 -0.004042 -0.001376
# 3 -0.001220 -0.004037 0.015914 -0.003014 -0.002075 -0.001817
# 4 -0.002258 -0.003926 -0.003014 0.024977 0.000961 0.001397
# 5 0.000735 -0.004042 -0.002075 0.000961 0.028201 -0.000938
# 6 -0.002587 -0.001376 -0.001817 0.001397 -0.000938 0.021368
#
#
# Mechanical properties :
#
#
# Convention : Reuss Voigt Hill
#
# Bulk Modulus (GPa) = 31.83343 38.86140 35.34742
# Shear Modulus (GPa) = 36.03028 40.01022 38.02025
#
# Velocity S-wave (km/s) = 3.84530 4.05212 3.95006
# Velocity P-wave (km/s) = 5.72531 6.15151 5.94223
#
# Compressibility (1/GPa) = 0.03141352
#
# Stress axis : x y z
#
# Youngs Moduli (GPa) = 88.03170 65.31404 62.83840
#
# Poissons Ratio (x) = 0.02144 0.07664
# Poissons Ratio (y) = 0.02890 0.25370
# Poissons Ratio (z) = 0.10737 0.26370
#
# Static dielectric constant tensor:
#      x y z
#    x 4.377080 -0.028020 -0.000310 
#    y -0.028020 5.691710 -0.213100 
#    z -0.000310 -0.213100 4.470750 
# 
# 
# High freq. dielectric constant tensor:
#      x y z
#    x 1.972190 0.006460 -0.001390 
#    y 0.006460 1.993640 -0.000740 
#    z -0.001390 -0.000740 1.969470 
# 
# From -- ./inp_files/70908.got.cif
#   From: 2010.06.25/outbox.cif.g09.slc.cpg/sg2_36_cif.got.tgz:70908.got - 2010.06.27 13:26:56.
