data_PCOD8033585
_publ_section_title
;
Structure prediction by ZEFSAII (Michael W. Deem and Ramdas Pophale) SiO2 
 PCOD8033585
Probable space group: P -1
;
_chemical_formula_sum "Si O2"
_cell_formula_units_Z 12
_cell_length_a 14.350130
_cell_length_b 9.091604
_cell_length_c 11.280324
_cell_angle_alpha 123.527425
_cell_angle_beta 42.752491
_cell_angle_gamma 150.300415
_cell_volume 478.714476
_symmetry_space_group_name_H-M "P -1"
_symmetry_group_IT_number 2
_symmetry_cell_setting 'triclinic'
loop_
_space_group_symop_operation_xyz
x,y,z
-x,-y,-z
loop_
_atom_site_type_symbol
_atom_site_label
_atom_site_fract_x
_atom_site_fract_y
_atom_site_fract_z
Si Si1 0.574339 0.247824 0.899289
Si Si2 0.852526 0.659212 0.613819
Si Si3 0.965469 0.283448 0.005943
Si Si4 0.607345 0.653573 0.156423
Si Si5 0.857632 0.288255 0.796386
Si Si6 0.757493 0.758504 0.320259
O O1 0.668125 0.342271 0.718542
O O2 0.664563 0.154242 0.822928
O O3 0.676610 0.531496 0.992808
O O4 0.285620 0.943576 0.056906
O O5 0.682056 0.628072 0.697014
O O6 0.972969 0.681486 0.403793
O O7 0.052354 0.942598 0.641807
O O8 0.992182 0.381397 0.159931
O O9 0.717948 0.909992 0.071376
O O10 0.000000 0.500000 0.000000
O O11 0.179326 0.381075 0.809780
O O12 0.737046 0.820154 0.235105
O O13 0.500000 0.500000 0.500000
#
# Coordination Sequence:
#
# PCOD8033585 Si02
#       6
#     2   2   2   2   2   2
#     4  11  23  47  75 109 155 205 249 314 387 456
#     4  12  27  47  80 112 151 204 260 306 385 465
#     4  12  27  50  76 113 158 200 257 322 381 453
#     4  12  26  52  79 109 157 207 251 317 388 456
#     4  11  26  45  74 115 157 195 256 323 379 448
#     4  12  28  50  80 114 154 203 258 314 387 460
#
# _framework density 25.067133999999999
#
# number of rings (size 3 to 8) (size 9 to 14) (size 15 to 20)
#    0.000    0.333    3.333    4.500    7.000    2.000 
#    3.000    0.000    0.000    0.000    0.000    0.000 
#    0.000    0.000    0.000    0.000    0.000    0.000 
#
# Total GULP energy -148685.372533 kJ/mol
# GULP energy per Si atom -12390.447711 kJ/mol
# Density = 2.501008 g / cm^3
# Si number density = 25.067134 Si / 1000 Ang^3
#
#
#
# Elastic Constant Matrix: (Units=GPa)
#
#
# Indices 1 2 3 4 5 6 
#
# 1 73.3628 46.2205 43.4044 -16.0006 -26.0927 -6.9296
# 2 46.2205 120.2654 49.7360 -6.1961 -4.7540 3.6983
# 3 43.4044 49.7360 177.6784 -15.2649 -19.4235 2.2469
# 4 -16.0006 -6.1961 -15.2649 40.1065 -1.7091 3.3823
# 5 -26.0927 -4.7540 -19.4235 -1.7091 39.6597 -5.6321
# 6 -6.9296 3.6983 2.2469 3.3823 -5.6321 47.0235
#
#
#
# Elastic Compliance Matrix: (Units=1/GPa)
#
#
# Indices 1 2 3 4 5 6 
#
# 1 0.030992 -0.010073 -0.001790 0.010373 0.019757 0.007065
# 2 -0.010073 0.012708 -0.002031 -0.002860 -0.006644 -0.002977
# 3 -0.001790 -0.002031 0.007012 0.001755 0.002043 -0.000321
# 4 0.010373 -0.002860 0.001755 0.029620 0.008700 0.000581
# 5 0.019757 -0.006644 0.002043 0.008700 0.039855 0.007484
# 6 0.007065 -0.002977 -0.000321 0.000581 0.007484 0.023411
#
#
# Mechanical properties :
#
#
# Convention : Reuss Voigt Hill
#
# Bulk Modulus (GPa) = 43.62030 72.22537 57.92284
# Shear Modulus (GPa) = 27.92883 40.82102 34.37492
#
# Velocity S-wave (km/s) = 3.34153 4.03981 3.70714
# Velocity P-wave (km/s) = 5.68567 7.11585 6.44058
#
# Compressibility (1/GPa) = 0.02292511
#
# Stress axis : x y z
#
# Youngs Moduli (GPa) = 32.26588 78.69357 142.61064
#
# Poissons Ratio (x) = 0.79266 0.25525
# Poissons Ratio (y) = 0.32501 0.28963
# Poissons Ratio (z) = 0.05775 0.15982
#
# Static dielectric constant tensor:
#      x y z
#    x 3.186150 -1.213240 -0.801500 
#    y -1.213240 3.619260 -0.920560 
#    z -0.801500 -0.920560 4.099860 
# 
# 
# High freq. dielectric constant tensor:
#      x y z
#    x 2.016000 0.002890 -0.001360 
#    y 0.002890 2.003090 -0.009590 
#    z -0.001360 -0.009590 2.001260 
# 
# From -- ./inp_files/196361.got.cif
#   From: 2010.06.25/outbox.cif.g09.slc.cpg/sg2_99_cif.got.tgz:196361.got - 2010.06.27 13:26:56.
