data_PCOD8033030
_publ_section_title
;
Structure prediction by ZEFSAII (Michael W. Deem and Ramdas Pophale) SiO2 
 PCOD8033030
Probable space group: P -1
;
_chemical_formula_sum "Si O2"
_cell_formula_units_Z 16
_cell_length_a 8.672447
_cell_length_b 12.677769
_cell_length_c 8.664518
_cell_angle_alpha 90.579432
_cell_angle_beta 126.585863
_cell_angle_gamma 76.953392
_cell_volume 735.701628
_symmetry_space_group_name_H-M "P -1"
_symmetry_group_IT_number 2
_symmetry_cell_setting 'triclinic'
loop_
_space_group_symop_operation_xyz
x,y,z
-x,-y,-z
loop_
_atom_site_type_symbol
_atom_site_label
_atom_site_fract_x
_atom_site_fract_y
_atom_site_fract_z
Si Si1 0.540196 0.745364 0.279314
Si Si2 0.893135 0.657371 0.680236
Si Si3 0.119392 0.130831 0.151710
Si Si4 0.850287 0.032009 0.550522
Si Si5 0.659300 0.410798 0.000474
Si Si6 0.520988 0.005745 0.830270
Si Si7 0.195624 0.767447 0.278422
Si Si8 0.721273 0.470227 0.698625
O O1 0.772544 0.680056 0.446475
O O2 0.441578 0.688039 0.087644
O O3 0.430403 0.742528 0.378173
O O4 0.523925 0.867579 0.226699
O O5 0.813180 0.766396 0.739532
O O6 0.847217 0.554121 0.734587
O O7 0.129486 0.633613 0.784500
O O8 0.265200 0.063509 0.105596
O O9 0.093129 0.051813 0.274032
O O10 0.909597 0.178802 0.942116
O O11 0.631316 0.042364 0.357468
O O12 0.862758 0.151818 0.611315
O O13 0.000000 0.000000 0.500000
O O14 0.706047 0.465703 0.872960
O O15 0.500000 0.500000 0.000000
O O16 0.500000 0.000000 0.000000
O O17 0.153304 0.650913 0.290353
O O18 0.500000 0.500000 0.500000
#
# Coordination Sequence:
#
# PCOD8033030 Si02
#       8
#     2   2   2   2   2   2   2   2
#     4  11  23  47  70 101 144 181 238 287 358 421
#     4  12  23  46  76 102 137 194 234 283 361 421
#     4  12  24  44  76  99 141 192 229 296 358 418
#     4  12  26  45  69 106 140 182 241 289 354 426
#     4  11  26  46  70 103 140 184 235 301 345 413
#     4  12  27  44  69 107 141 186 236 292 357 428
#     4  11  23  44  72 100 138 188 230 296 348 417
#     4  11  23  46  71 101 138 182 240 281 348 425
#
# _framework density 21.747945999999999
#
# number of rings (size 3 to 8) (size 9 to 14) (size 15 to 20)
#    0.000    0.500    7.500    2.625    1.750    1.500 
#    4.500    0.000    0.000    0.000    0.000    0.000 
#    0.000    0.000    0.000    0.000    0.000    0.000 
#
# Total GULP energy -198385.901307 kJ/mol
# GULP energy per Si atom -12399.118832 kJ/mol
# Density = 2.169845 g / cm^3
# Si number density = 21.747946 Si / 1000 Ang^3
#
#
#
# Elastic Constant Matrix: (Units=GPa)
#
#
# Indices 1 2 3 4 5 6 
#
# 1 91.9942 68.7298 32.3247 5.7863 3.0684 -15.6971
# 2 68.7298 182.0182 54.9177 6.1485 -12.0593 -2.0879
# 3 32.3247 54.9177 106.1314 1.2986 30.2186 -4.8475
# 4 5.7863 6.1485 1.2986 35.6454 -3.8296 2.9582
# 5 3.0684 -12.0593 30.2186 -3.8296 35.2438 1.1715
# 6 -15.6971 -2.0879 -4.8475 2.9582 1.1715 32.4612
#
#
#
# Elastic Compliance Matrix: (Units=1/GPa)
#
#
# Indices 1 2 3 4 5 6 
#
# 1 0.017751 -0.006673 -0.000357 -0.002866 -0.004117 0.008511
# 2 -0.006673 0.010541 -0.006444 0.000896 0.009942 -0.003952
# 3 -0.000357 -0.006444 0.018149 -0.001670 -0.018014 0.002925
# 4 -0.002866 0.000896 -0.001670 0.029367 0.005326 -0.004446
# 5 -0.004117 0.009942 -0.018014 0.005326 0.048367 -0.006272
# 6 0.008511 -0.003952 0.002925 -0.004446 -0.006272 0.035736
#
#
# Mechanical properties :
#
#
# Convention : Reuss Voigt Hill
#
# Bulk Modulus (GPa) = 51.30521 76.89867 64.10194
# Shear Modulus (GPa) = 25.85874 35.61487 30.73681
#
# Velocity S-wave (km/s) = 3.45196 4.05114 3.76349
# Velocity P-wave (km/s) = 6.28729 7.57087 6.95874
#
# Compressibility (1/GPa) = 0.01949120
#
# Stress axis : x y z
#
# Youngs Moduli (GPa) = 56.33342 94.86532 55.10000
#
# Poissons Ratio (x) = 0.63307 0.01970
# Poissons Ratio (y) = 0.37593 0.35508
# Poissons Ratio (z) = 0.02014 0.61134
#
# Static dielectric constant tensor:
#      x y z
#    x 3.772800 -0.017250 0.241640 
#    y -0.017250 4.324030 0.065180 
#    z 0.241640 0.065180 4.110740 
# 
# 
# High freq. dielectric constant tensor:
#      x y z
#    x 1.831710 -0.000360 0.018950 
#    y -0.000360 1.877060 0.001530 
#    z 0.018950 0.001530 1.868760 
# 
# From -- ./inp_files/187970.got.cif
#   From: 2010.06.25/outbox.cif.g09.slc.cpg/sg2_94_cif.got.tgz:187970.got - 2010.06.27 13:26:56.
