data_PCOD8033149
_publ_section_title
;
Structure prediction by ZEFSAII (Michael W. Deem and Ramdas Pophale) SiO2 
 PCOD8033149
Probable space group: P -1
;
_chemical_formula_sum "Si O2"
_cell_formula_units_Z 16
_cell_length_a 8.705623
_cell_length_b 8.590263
_cell_length_c 17.498383
_cell_angle_alpha 121.913911
_cell_angle_beta 95.967201
_cell_angle_gamma 48.610532
_cell_volume 768.901442
_symmetry_space_group_name_H-M "P -1"
_symmetry_group_IT_number 2
_symmetry_cell_setting 'triclinic'
loop_
_space_group_symop_operation_xyz
x,y,z
-x,-y,-z
loop_
_atom_site_type_symbol
_atom_site_label
_atom_site_fract_x
_atom_site_fract_y
_atom_site_fract_z
Si Si1 0.092569 0.142770 0.889806
Si Si2 0.032120 0.583719 0.600555
Si Si3 0.458150 0.444860 0.564514
Si Si4 0.816845 0.570224 0.100762
Si Si5 0.736749 0.879098 0.390248
Si Si6 0.443649 0.862136 0.273494
Si Si7 0.061455 0.643205 0.218652
Si Si8 0.491098 0.436944 0.245174
O O1 0.221384 0.228895 0.908987
O O2 0.969955 0.201256 0.817970
O O3 0.266887 0.836258 0.840473
O O4 0.914675 0.311332 0.993308
O O5 0.203397 0.602652 0.600840
O O6 0.114490 0.378748 0.617527
O O7 0.000000 0.500000 0.500000
O O8 0.803611 0.867702 0.691488
O O9 0.500000 0.500000 0.500000
O O10 0.517933 0.542330 0.657873
O O11 0.615647 0.132860 0.502263
O O12 0.584717 0.714740 0.164985
O O13 0.995237 0.488763 0.153099
O O14 0.546571 0.929917 0.349996
O O15 0.893238 0.851817 0.330577
O O16 0.438107 0.678175 0.270686
O O17 0.311740 0.441341 0.209162
#
# Coordination Sequence:
#
# PCOD8033149 Si02
#       8
#     2   2   2   2   2   2   2   2
#     4   9  20  43  67  91 129 158 208 261 307 368
#     4  12  25  41  66  86 124 171 212 253 301 371
#     4  12  27  42  62  94 130 165 207 266 307 363
#     4   8  20  45  68  88 128 162 206 258 307 377
#     4  11  23  45  62  90 126 171 213 242 307 380
#     4  11  24  42  64  94 126 164 209 257 307 368
#     4   9  22  38  67  94 121 162 208 252 310 375
#     4  12  25  38  64  94 131 161 206 263 315 363
#
# _framework density 20.808909
#
# number of rings (size 3 to 8) (size 9 to 14) (size 15 to 20)
#    0.750    0.750    2.500    1.875    7.000    1.500 
#    0.000    0.625    0.000    0.000    0.000    0.000 
#    0.000    0.000    0.000    0.000    0.000    0.000 
#
# Total GULP energy -198385.541731 kJ/mol
# GULP energy per Si atom -12399.096358 kJ/mol
# Density = 2.076155 g / cm^3
# Si number density = 20.808909 Si / 1000 Ang^3
#
#
#
# Elastic Constant Matrix: (Units=GPa)
#
#
# Indices 1 2 3 4 5 6 
#
# 1 75.5172 43.7894 48.1605 -2.8508 -13.7521 -18.6775
# 2 43.7894 115.2756 54.3578 19.3426 -11.8150 -18.7496
# 3 48.1605 54.3578 140.4951 15.8355 -25.9760 -18.4127
# 4 -2.8508 19.3426 15.8355 30.3521 1.8511 0.0170
# 5 -13.7521 -11.8150 -25.9760 1.8511 27.0673 1.4979
# 6 -18.6775 -18.7496 -18.4127 0.0170 1.4979 30.6457
#
#
#
# Elastic Compliance Matrix: (Units=1/GPa)
#
#
# Indices 1 2 3 4 5 6 
#
# 1 0.022499 -0.006275 -0.004741 0.008387 0.003189 0.006864
# 2 -0.006275 0.014048 -0.001407 -0.008932 0.001993 0.003833
# 3 -0.004741 -0.001407 0.012029 -0.006362 0.008787 0.003051
# 4 0.008387 -0.008932 -0.006362 0.043266 -0.008493 -0.003784
# 5 0.003189 0.001993 0.008787 -0.008493 0.048111 0.006095
# 6 0.006864 0.003833 0.003051 -0.003784 0.006095 0.040697
#
#
# Mechanical properties :
#
#
# Convention : Reuss Voigt Hill
#
# Bulk Modulus (GPa) = 42.13974 69.32261 55.73117
# Shear Modulus (GPa) = 23.42947 29.94502 26.68724
#
# Velocity S-wave (km/s) = 3.35913 3.79759 3.58507
# Velocity P-wave (km/s) = 5.94473 7.25363 6.63155
#
# Compressibility (1/GPa) = 0.02373057
#
# Stress axis : x y z
#
# Youngs Moduli (GPa) = 44.44586 71.18282 83.13432
#
# Poissons Ratio (x) = 0.44669 0.39413
# Poissons Ratio (y) = 0.27891 0.11695
# Poissons Ratio (z) = 0.21071 0.10014
#
# Static dielectric constant tensor:
#      x y z
#    x 3.662370 -0.104420 -0.051680 
#    y -0.104420 3.645350 -0.048500 
#    z -0.051680 -0.048500 3.799000 
# 
# 
# High freq. dielectric constant tensor:
#      x y z
#    x 1.796760 -0.004890 -0.008890 
#    y -0.004890 1.803950 -0.000340 
#    z -0.008890 -0.000340 1.822820 
# 
# From -- ./inp_files/556405.got.cif
#   From: 2010.06.25/outbox.cif.g09.slc.cpg/sg2_279_cif.got.tgz:556405.got - 2010.06.27 13:26:56.
