data_PCOD8033231
_publ_section_title
;
Structure prediction by ZEFSAII (Michael W. Deem and Ramdas Pophale) SiO2 
 PCOD8033231
Probable space group: P -1
;
_chemical_formula_sum "Si O2"
_cell_formula_units_Z 14
_cell_length_a 9.015145
_cell_length_b 22.052022
_cell_length_c 8.259887
_cell_angle_alpha 145.483348
_cell_angle_beta 122.569016
_cell_angle_gamma 45.718443
_cell_volume 663.375789
_symmetry_space_group_name_H-M "P -1"
_symmetry_group_IT_number 2
_symmetry_cell_setting 'triclinic'
loop_
_space_group_symop_operation_xyz
x,y,z
-x,-y,-z
loop_
_atom_site_type_symbol
_atom_site_label
_atom_site_fract_x
_atom_site_fract_y
_atom_site_fract_z
Si Si1 0.669001 0.525069 0.719826
Si Si2 0.840303 0.982852 0.770835
Si Si3 0.706545 0.495721 0.056084
Si Si4 0.912933 0.756962 0.133880
Si Si5 0.626289 0.900319 0.718530
Si Si6 0.496423 0.192757 0.828299
Si Si7 0.883278 0.665569 0.570409
O O1 0.500000 0.500000 0.500000
O O2 0.884605 0.451996 0.587515
O O3 0.720224 0.489344 0.857659
O O4 0.548514 0.672486 0.944718
O O5 0.945665 0.871842 0.451521
O O6 0.721516 0.955747 0.777453
O O7 0.694110 0.116815 0.892225
O O8 0.000000 0.000000 0.000000
O O9 0.729452 0.612193 0.387720
O O10 0.500000 0.500000 0.000000
O O11 0.899095 0.370091 0.963186
O O12 0.699289 0.795586 0.175002
O O13 0.891705 0.740171 0.894544
O O14 0.462460 0.882750 0.481859
O O15 0.804496 0.764198 0.593738
O O16 0.500000 0.000000 0.000000
#
# Coordination Sequence:
#
# PCOD8033231 Si02
#       7
#     2   2   2   2   2   2   2
#     4  12  26  43  70 104 140 180 229 283 340 410
#     4  11  26  46  69 101 135 180 229 287 339 407
#     4  12  26  44  69 105 140 179 229 282 347 406
#     4  11  24  44  71  99 138 184 225 277 345 407
#     4  11  23  45  70  97 132 182 229 278 338 408
#     4  11  23  45  70  96 139 181 226 275 347 410
#     4  12  24  46  71 103 140 181 230 283 342 408
#
# _framework density 21.104175999999999
#
# number of rings (size 3 to 8) (size 9 to 14) (size 15 to 20)
#    0.000    0.571    2.857    6.857    6.000    1.143 
#    2.571    1.429    0.000    0.000    0.000    0.000 
#    0.000    0.000    0.000    0.000    0.000    0.000 
#
# Total GULP energy -173567.072481 kJ/mol
# GULP energy per Si atom -12397.648034 kJ/mol
# Density = 2.105614 g / cm^3
# Si number density = 21.104176 Si / 1000 Ang^3
#
#
#
# Elastic Constant Matrix: (Units=GPa)
#
#
# Indices 1 2 3 4 5 6 
#
# 1 72.1896 33.2023 68.4119 -9.4590 -5.1011 7.4538
# 2 33.2023 53.0620 -50.1863 -46.3092 -0.7121 -29.8851
# 3 68.4119 -50.1863 57.4990 -58.2614 -2.3147 -41.9603
# 4 -9.4590 -46.3092 -58.2614 31.4215 -2.1202 -8.0755
# 5 -5.1011 -0.7121 -2.3147 -2.1202 31.4682 -2.8365
# 6 7.4538 -29.8851 -41.9603 -8.0755 -2.8365 18.5234
#
#
#
# Elastic Compliance Matrix: (Units=1/GPa)
#
#
# Indices 1 2 3 4 5 6 
#
# 1 0.013471 0.002970 0.000105 0.010004 0.003336 0.004481
# 2 0.002970 0.005786 -0.005701 -0.002742 -0.000537 -0.006053
# 3 0.000105 -0.005701 0.002513 -0.005305 -0.000824 -0.005986
# 4 0.010004 -0.002742 -0.005305 0.017829 0.001244 -0.012504
# 5 0.003336 -0.000537 -0.000824 0.001244 0.032459 0.001436
# 6 0.004481 -0.006053 -0.005986 -0.012504 0.001436 0.023625
#
#
# Mechanical properties :
#
#
# Convention : Reuss Voigt Hill
#
# Bulk Modulus (GPa) = 60.54438 31.73407 46.13922
# Shear Modulus (GPa) = 46.97435 25.03748 36.00591
#
# Velocity S-wave (km/s) = 4.72299 3.44812 4.13498
# Velocity P-wave (km/s) = 7.64806 5.56077 6.68637
#
# Compressibility (1/GPa) = 0.01651681
#
# Stress axis : x y z
#
# Youngs Moduli (GPa) = 74.23502 172.84303 397.89207
#
# Poissons Ratio (x) = -0.51328 -0.04187
# Poissons Ratio (y) = -0.22045 2.26848
# Poissons Ratio (z) = -0.00781 0.98542
#
# Static dielectric constant tensor:
#      x y z
#    x 3.959210 -0.049800 -0.004520 
#    y -0.049800 4.238830 -0.189920 
#    z -0.004520 -0.189920 4.355870 
# 
# 
# High freq. dielectric constant tensor:
#      x y z
#    x 1.811960 0.010510 0.000840 
#    y 0.010510 1.852350 -0.004890 
#    z 0.000840 -0.004890 1.850620 
# 
# From -- ./inp_files/186299.got.cif
#   From: 2010.06.25/outbox.cif.g09.slc.cpg/sg2_94_cif.got.tgz:186299.got - 2010.06.27 13:26:56.
