data_PCOD8033486
_publ_section_title
;
Structure prediction by ZEFSAII (Michael W. Deem and Ramdas Pophale) SiO2 
 PCOD8033486
Probable space group: P -1
;
_chemical_formula_sum "Si O2"
_cell_formula_units_Z 16
_cell_length_a 12.011988
_cell_length_b 8.723949
_cell_length_c 11.967864
_cell_angle_alpha 130.852096
_cell_angle_beta 56.953128
_cell_angle_gamma 95.943573
_cell_volume 729.032228
_symmetry_space_group_name_H-M "P -1"
_symmetry_group_IT_number 2
_symmetry_cell_setting 'triclinic'
loop_
_space_group_symop_operation_xyz
x,y,z
-x,-y,-z
loop_
_atom_site_type_symbol
_atom_site_label
_atom_site_fract_x
_atom_site_fract_y
_atom_site_fract_z
Si Si1 0.366146 0.071596 0.025463
Si Si2 0.985327 0.281865 0.091731
Si Si3 0.769741 0.751167 0.382426
Si Si4 0.116031 0.885758 0.474342
Si Si5 0.694429 0.856379 0.227401
Si Si6 0.059942 0.080923 0.188234
Si Si7 0.490840 0.745197 0.607783
Si Si8 0.638743 0.555734 0.940507
O O1 0.205625 0.099070 0.167446
O O2 0.364094 0.303736 0.099470
O O3 0.500000 0.000000 0.000000
O O4 0.395293 0.890915 0.828243
O O5 0.978884 0.258922 0.219315
O O6 0.919655 0.538824 0.215881
O O7 0.151525 0.167337 0.913252
O O8 0.903335 0.158364 0.004879
O O9 0.703921 0.767346 0.303859
O O10 0.654068 0.728817 0.521045
O O11 0.786012 0.977074 0.501540
O O12 0.213157 0.655064 0.255494
O O13 0.048504 0.870125 0.624131
O O14 0.000000 0.000000 0.500000
O O15 0.586918 0.117661 0.396859
O O16 0.636598 0.697001 0.117609
O O17 0.500000 0.500000 0.500000
O O18 0.500000 0.500000 0.000000
#
# Coordination Sequence:
#
# PCOD8033486 Si02
#       8
#     2   2   2   2   2   2   2   2
#     4  11  26  47  69 101 140 190 230 284 362 425
#     4  11  23  46  74 106 142 184 235 293 362 418
#     4  12  26  42  74 105 139 185 240 296 351 424
#     4  12  28  44  70 108 139 183 236 293 356 419
#     4  11  23  48  68 102 145 186 238 287 363 420
#     4  11  25  45  75 101 146 181 240 293 356 422
#     4  11  25  45  69 104 139 183 243 293 344 419
#     4  11  26  47  68  97 147 188 231 287 355 420
#
# _framework density 21.946902999999999
#
# number of rings (size 3 to 8) (size 9 to 14) (size 15 to 20)
#    0.000    0.750    3.750    3.750    7.000    3.500 
#    0.000    0.000    0.000    0.000    0.000    0.000 
#    0.000    0.000    0.000    0.000    0.000    0.000 
#
# Total GULP energy -198325.323658 kJ/mol
# GULP energy per Si atom -12395.332729 kJ/mol
# Density = 2.189695 g / cm^3
# Si number density = 21.946903 Si / 1000 Ang^3
#
#
#
# Elastic Constant Matrix: (Units=GPa)
#
#
# Indices 1 2 3 4 5 6 
#
# 1 131.8612 54.7976 23.6734 4.9399 -12.1279 9.7688
# 2 54.7976 125.1178 54.2586 18.5175 -6.6817 9.0610
# 3 23.6734 54.2586 85.2745 15.6936 -17.6090 -1.0652
# 4 4.9399 18.5175 15.6936 46.0031 -1.2375 -7.9094
# 5 -12.1279 -6.6817 -17.6090 -1.2375 28.7621 -4.4163
# 6 9.7688 9.0610 -1.0652 -7.9094 -4.4163 53.2236
#
#
#
# Elastic Compliance Matrix: (Units=1/GPa)
#
#
# Indices 1 2 3 4 5 6 
#
# 1 0.009610 -0.004357 0.000713 0.000457 0.003395 -0.000658
# 2 -0.004357 0.013682 -0.007805 -0.002903 -0.003937 -0.002444
# 3 0.000713 -0.007805 0.019200 -0.002856 0.010430 0.002023
# 4 0.000457 -0.002903 -0.002856 0.024495 -0.000571 0.003946
# 5 0.003395 -0.003937 0.010430 -0.000571 0.042210 0.003674
# 6 -0.000658 -0.002444 0.002023 0.003946 0.003674 0.020257
#
#
# Mechanical properties :
#
#
# Convention : Reuss Voigt Hill
#
# Bulk Modulus (GPa) = 51.03655 67.52365 59.28010
# Shear Modulus (GPa) = 31.46970 39.56603 35.51786
#
# Velocity S-wave (km/s) = 3.79080 4.25055 4.02724
# Velocity P-wave (km/s) = 6.51654 7.41102 6.97812
#
# Compressibility (1/GPa) = 0.01959380
#
# Stress axis : x y z
#
# Youngs Moduli (GPa) = 104.05612 73.08986 52.08347
#
# Poissons Ratio (x) = 0.31844 -0.03714
# Poissons Ratio (y) = 0.45335 0.40653
# Poissons Ratio (z) = -0.07420 0.57049
#
# Static dielectric constant tensor:
#      x y z
#    x 8.787750 -2.930630 -0.063640 
#    y -2.930630 5.888850 -0.061990 
#    z -0.063640 -0.061990 3.942440 
# 
# 
# High freq. dielectric constant tensor:
#      x y z
#    x 1.875530 0.004780 -0.011720 
#    y 0.004780 1.876590 0.002740 
#    z -0.011720 0.002740 1.859420 
# 
# From -- ./inp_files/381088.got.cif
#   From: 2010.06.25/outbox.cif.g09.slc.cpg/sg2_191_cif.got.tgz:381088.got - 2010.06.27 13:26:56.
