data_PCOD8033364
_publ_section_title
;
Structure prediction by ZEFSAII (Michael W. Deem and Ramdas Pophale) SiO2 
 PCOD8033364
Probable space group: P -1
;
_chemical_formula_sum "Si O2"
_cell_formula_units_Z 16
_cell_length_a 6.747948
_cell_length_b 9.471262
_cell_length_c 13.531770
_cell_angle_alpha 111.148481
_cell_angle_beta 113.413732
_cell_angle_gamma 68.320462
_cell_volume 713.889684
_symmetry_space_group_name_H-M "P -1"
_symmetry_group_IT_number 2
_symmetry_cell_setting 'triclinic'
loop_
_space_group_symop_operation_xyz
x,y,z
-x,-y,-z
loop_
_atom_site_type_symbol
_atom_site_label
_atom_site_fract_x
_atom_site_fract_y
_atom_site_fract_z
Si Si1 0.108592 0.445760 0.655940
Si Si2 0.408993 0.871132 0.717785
Si Si3 0.877627 0.244217 0.009923
Si Si4 0.739761 0.023868 0.077690
Si Si5 0.800045 0.585069 0.793964
Si Si6 0.975048 0.256577 0.419007
Si Si7 0.593182 0.337121 0.792156
Si Si8 0.625484 0.015371 0.629915
O O1 0.103095 0.296537 0.549963
O O2 0.325413 0.396693 0.755331
O O3 0.883049 0.491104 0.686360
O O4 0.120677 0.592089 0.628766
O O5 0.253451 0.958633 0.798602
O O6 0.623821 0.748275 0.774719
O O7 0.482840 0.992744 0.691964
O O8 0.247064 0.791822 0.602072
O O9 0.666729 0.304128 0.911460
O O10 0.782935 0.175205 0.069674
O O11 0.064381 0.122710 0.953599
O O12 0.985298 0.381933 0.100728
O O13 0.500000 0.000000 0.000000
O O14 0.693154 0.476755 0.812049
O O15 0.142060 0.118826 0.355733
O O16 0.671198 0.185748 0.696712
O O17 0.500000 0.000000 0.500000
#
# Coordination Sequence:
#
# PCOD8033364 Si02
#       8
#     2   2   2   2   2   2   2   2
#     4  11  25  44  72 106 141 191 245 293 361 432
#     4  12  25  44  79 102 142 194 242 291 361 439
#     4  11  26  45  74 108 152 185 241 306 354 432
#     4  11  23  45  78 110 141 193 245 291 368 431
#     4  12  26  45  72 105 144 199 242 285 362 438
#     4  11  24  46  74 101 142 192 243 297 359 435
#     4  12  27  47  69 109 148 187 238 309 359 419
#     4  12  27  48  74 110 147 185 243 307 365 420
#
# _framework density 22.412427999999998
#
# number of rings (size 3 to 8) (size 9 to 14) (size 15 to 20)
#    0.000    0.500    5.000    2.625    3.500    4.500 
#    0.000    0.000    0.000    0.000    0.000    0.000 
#    0.000    0.000    0.000    0.000    0.000    0.000 
#
# Total GULP energy -198463.214225 kJ/mol
# GULP energy per Si atom -12403.950889 kJ/mol
# Density = 2.236142 g / cm^3
# Si number density = 22.412428 Si / 1000 Ang^3
#
#
#
# Elastic Constant Matrix: (Units=GPa)
#
#
# Indices 1 2 3 4 5 6 
#
# 1 100.3208 22.1408 43.3189 -0.7653 -0.4422 2.1239
# 2 22.1408 80.4146 36.6931 4.1207 -0.3825 6.7733
# 3 43.3189 36.6931 111.4030 -9.8421 8.3067 4.4456
# 4 -0.7653 4.1207 -9.8421 30.6260 -0.2237 -4.0799
# 5 -0.4422 -0.3825 8.3067 -0.2237 50.9246 1.6984
# 6 2.1239 6.7733 4.4456 -4.0799 1.6984 27.5690
#
#
#
# Elastic Compliance Matrix: (Units=1/GPa)
#
#
# Indices 1 2 3 4 5 6 
#
# 1 0.012170 -0.001252 -0.004463 -0.000970 0.000823 -0.000105
# 2 -0.001252 0.015557 -0.004938 -0.004185 0.001014 -0.003611
# 3 -0.004463 -0.004938 0.012905 0.004726 -0.002170 0.000309
# 4 -0.000970 -0.004185 0.004726 0.035455 -0.000843 0.005640
# 5 0.000823 0.001014 -0.002170 -0.000843 0.020046 -0.001322
# 6 -0.000105 -0.003611 0.000309 0.005640 -0.001322 0.038034
#
#
# Mechanical properties :
#
#
# Convention : Reuss Voigt Hill
#
# Bulk Modulus (GPa) = 51.74412 55.16046 53.45229
# Shear Modulus (GPa) = 30.88033 34.48964 32.68498
#
# Velocity S-wave (km/s) = 3.71593 3.92709 3.82297
# Velocity P-wave (km/s) = 6.44579 6.72515 6.58695
#
# Compressibility (1/GPa) = 0.01932587
#
# Stress axis : x y z
#
# Youngs Moduli (GPa) = 82.17059 64.27920 77.48735
#
# Poissons Ratio (x) = 0.08048 0.34580
# Poissons Ratio (y) = 0.10288 0.38267
# Poissons Ratio (z) = 0.36670 0.31744
#
# Static dielectric constant tensor:
#      x y z
#    x 4.059440 -0.060020 0.082380 
#    y -0.060020 4.125620 0.172090 
#    z 0.082380 0.172090 4.253060 
# 
# 
# High freq. dielectric constant tensor:
#      x y z
#    x 1.890760 -0.002090 0.009940 
#    y -0.002090 1.883890 0.007570 
#    z 0.009940 0.007570 1.893650 
# 
# From -- ./inp_files/273395.got.cif
#   From: 2010.06.25/outbox.cif.g09.slc.cpg/sg2_137_cif.got.tgz:273395.got - 2010.06.27 13:26:56.
