data_PCOD8033871
_publ_section_title
;
Structure prediction by ZEFSAII (Michael W. Deem and Ramdas Pophale) SiO2 
 PCOD8033871
Probable space group: P -1
;
_chemical_formula_sum "Si O2"
_cell_formula_units_Z 16
_cell_length_a 11.114283
_cell_length_b 8.996487
_cell_length_c 14.660245
_cell_angle_alpha 39.548030
_cell_angle_beta 126.696006
_cell_angle_gamma 109.276270
_cell_volume 723.458458
_symmetry_space_group_name_H-M "P -1"
_symmetry_group_IT_number 2
_symmetry_cell_setting 'triclinic'
loop_
_space_group_symop_operation_xyz
x,y,z
-x,-y,-z
loop_
_atom_site_type_symbol
_atom_site_label
_atom_site_fract_x
_atom_site_fract_y
_atom_site_fract_z
Si Si1 0.169950 0.493324 0.114945
Si Si2 0.208012 0.623107 0.408920
Si Si3 0.621989 0.966646 0.491439
Si Si4 0.402762 0.133970 0.676010
Si Si5 0.141326 0.221076 0.785914
Si Si6 0.735867 0.169382 0.848679
Si Si7 0.660420 0.202939 0.048519
Si Si8 0.348408 0.542733 0.691128
O O1 0.231109 0.224190 0.308649
O O2 0.194698 0.667944 0.126052
O O3 0.256843 0.573782 0.027251
O O4 0.000000 0.500000 0.000000
O O5 0.247345 0.347394 0.521352
O O6 0.214003 0.801588 0.244976
O O7 0.336265 0.637399 0.536216
O O8 0.042659 0.703748 0.345779
O O9 0.566528 0.881468 0.410914
O O10 0.500000 0.000000 0.500000
O O11 0.650322 0.226413 0.356050
O O12 0.549403 0.210214 0.751686
O O13 0.372402 0.887696 0.822155
O O14 0.194505 0.465340 0.685675
O O15 0.232706 0.027903 0.844970
O O16 0.183950 0.108849 0.958944
O O17 0.493395 0.309109 0.875858
#
# Coordination Sequence:
#
# PCOD8033871 Si02
#       8
#     2   2   2   2   2   2   2   2
#     4  11  26  47  70 102 149 189 225 288 369 415
#     4  12  24  42  72 107 141 183 242 293 340 431
#     4  12  27  47  69 108 141 186 235 293 356 422
#     4  12  25  47  76 105 142 185 245 293 348 425
#     4  11  24  42  70 107 141 181 237 293 357 415
#     4  11  24  46  74 102 139 190 239 287 348 424
#     4  11  24  47  73 103 140 191 236 292 356 421
#     4  12  24  45  71 102 144 188 236 291 357 417
#
# _framework density 22.11599
#
# number of rings (size 3 to 8) (size 9 to 14) (size 15 to 20)
#    0.000    0.500    5.000    3.750    3.500    0.500 
#    4.500    1.250    0.000    0.000    0.000    0.000 
#    0.000    0.000    0.000    0.000    0.000    0.000 
#
# Total GULP energy -198245.099550 kJ/mol
# GULP energy per Si atom -12390.318722 kJ/mol
# Density = 2.206565 g / cm^3
# Si number density = 22.115990 Si / 1000 Ang^3
#
#
#
# Elastic Constant Matrix: (Units=GPa)
#
#
# Indices 1 2 3 4 5 6 
#
# 1 107.4723 30.8591 58.3904 11.0900 -3.1249 9.0117
# 2 30.8591 82.5954 51.2797 1.3538 2.8238 -2.2109
# 3 58.3904 51.2797 132.7640 14.6124 -5.4263 -1.4796
# 4 11.0900 1.3538 14.6124 35.6630 -0.2509 -4.1533
# 5 -3.1249 2.8238 -5.4263 -0.2509 44.4376 -3.6998
# 6 9.0117 -2.2109 -1.4796 -4.1533 -3.6998 25.3163
#
#
#
# Elastic Compliance Matrix: (Units=1/GPa)
#
#
# Indices 1 2 3 4 5 6 
#
# 1 0.013260 -0.002088 -0.004787 -0.002739 -0.000004 -0.005632
# 2 -0.002088 0.016570 -0.005819 0.002629 -0.001727 0.002029
# 3 -0.004787 -0.005819 0.012316 -0.003134 0.001656 0.001643
# 4 -0.002739 0.002629 -0.003134 0.030782 -0.000064 0.006062
# 5 -0.000004 -0.001727 0.001656 -0.000064 0.023091 0.003311
# 6 -0.005632 0.002029 0.001643 0.006062 0.003311 0.043257
#
#
# Mechanical properties :
#
#
# Convention : Reuss Voigt Hill
#
# Bulk Modulus (GPa) = 59.67209 67.09891 63.38550
# Shear Modulus (GPa) = 29.36875 33.23688 31.30281
#
# Velocity S-wave (km/s) = 3.64805 3.88086 3.76625
# Velocity P-wave (km/s) = 6.69211 7.10541 6.90185
#
# Compressibility (1/GPa) = 0.01675825
#
# Stress axis : x y z
#
# Youngs Moduli (GPa) = 75.41694 60.34823 81.19507
#
# Poissons Ratio (x) = 0.12600 0.38866
# Poissons Ratio (y) = 0.15746 0.47250
# Poissons Ratio (z) = 0.36100 0.35119
#
# Static dielectric constant tensor:
#      x y z
#    x 3.980140 -0.278750 0.041560 
#    y -0.278750 1.493880 1.829610 
#    z 0.041560 1.829610 2.886180 
# 
# 
# High freq. dielectric constant tensor:
#      x y z
#    x 1.871060 0.010100 -0.013450 
#    y 0.010100 1.838210 -0.005020 
#    z -0.013450 -0.005020 1.900390 
# 
# From -- ./inp_files/392641.got.cif
#   From: 2010.06.25/outbox.cif.g09.slc.cpg/sg2_197_cif.got.tgz:392641.got - 2010.06.27 13:26:56.
