data_PCOD8033583
_publ_section_title
;
Structure prediction by ZEFSAII (Michael W. Deem and Ramdas Pophale) SiO2 
 PCOD8033583
Probable space group: P -1
;
_chemical_formula_sum "Si O2"
_cell_formula_units_Z 14
_cell_length_a 9.843079
_cell_length_b 9.474133
_cell_length_c 15.212840
_cell_angle_alpha 136.502073
_cell_angle_beta 39.011129
_cell_angle_gamma 134.084073
_cell_volume 585.437484
_symmetry_space_group_name_H-M "P -1"
_symmetry_group_IT_number 2
_symmetry_cell_setting 'triclinic'
loop_
_space_group_symop_operation_xyz
x,y,z
-x,-y,-z
loop_
_atom_site_type_symbol
_atom_site_label
_atom_site_fract_x
_atom_site_fract_y
_atom_site_fract_z
Si Si1 0.437696 0.683346 0.560579
Si Si2 0.238838 0.864147 0.421839
Si Si3 0.004719 0.906402 0.240647
Si Si4 0.351089 0.219709 0.099001
Si Si5 0.475608 0.348850 0.696044
Si Si6 0.792116 0.326465 0.831973
Si Si7 0.024939 0.238145 0.127597
O O1 0.500000 0.500000 0.500000
O O2 0.408680 0.630053 0.447798
O O3 0.213298 0.719308 0.727641
O O4 0.640237 0.900575 0.571375
O O5 0.412081 0.780634 0.353513
O O6 0.142109 0.713359 0.319202
O O7 0.035474 0.886544 0.596513
O O8 0.790795 0.784232 0.232865
O O9 0.034808 0.732115 0.215842
O O10 0.235606 0.997520 0.109182
O O11 0.489071 0.410190 0.179541
O O12 0.148328 0.278357 0.178066
O O13 0.532881 0.188318 0.922288
O O14 0.825512 0.583779 0.936397
O O15 0.000000 0.000000 0.000000
#
# Coordination Sequence:
#
# PCOD8033583 Si02
#       7
#     2   2   2   2   2   2   2
#     4  11  25  45  76 113 146 190 249 312 368 435
#     4  11  23  47  75 102 146 189 250 303 362 447
#     4  11  26  47  73 106 147 194 240 312 375 424
#     4  12  27  45  75 106 150 196 246 300 371 446
#     4  11  25  47  75 105 148 190 251 302 361 448
#     4  12  27  47  71 109 148 193 248 305 368 445
#     4  12  26  46  77 106 149 200 247 300 377 440
#
# _framework density 23.913741999999999
#
# number of rings (size 3 to 8) (size 9 to 14) (size 15 to 20)
#    0.000    0.571    1.429    7.286    8.000    1.714 
#    5.143    0.000    0.000    0.000    0.000    0.000 
#    0.000    0.000    0.000    0.000    0.000    0.000 
#
# Total GULP energy -173661.801245 kJ/mol
# GULP energy per Si atom -12404.414375 kJ/mol
# Density = 2.385931 g / cm^3
# Si number density = 23.913742 Si / 1000 Ang^3
#
#
#
# Elastic Constant Matrix: (Units=GPa)
#
#
# Indices 1 2 3 4 5 6 
#
# 1 104.9630 54.0493 35.9387 13.6880 -2.9231 -18.9209
# 2 54.0493 125.6252 30.2537 3.0806 12.6903 -9.6363
# 3 35.9387 30.2537 83.4868 -0.8260 4.5127 12.5668
# 4 13.6880 3.0806 -0.8260 42.3848 -1.7155 -4.4616
# 5 -2.9231 12.6903 4.5127 -1.7155 29.9169 1.8034
# 6 -18.9209 -9.6363 12.5668 -4.4616 1.8034 37.8686
#
#
#
# Elastic Compliance Matrix: (Units=1/GPa)
#
#
# Indices 1 2 3 4 5 6 
#
# 1 0.016790 -0.005212 -0.006909 -0.004097 0.004135 0.008676
# 2 -0.005212 0.011189 -0.001703 0.000753 -0.005024 0.001136
# 3 -0.006909 -0.001703 0.017083 0.001636 -0.001877 -0.009272
# 4 -0.004097 0.000753 0.001636 0.024966 0.000434 0.000522
# 5 0.004135 -0.005024 -0.001877 0.000434 0.036285 -0.000266
# 6 0.008676 0.001136 -0.009272 0.000522 -0.000266 0.034182
#
#
# Mechanical properties :
#
#
# Convention : Reuss Voigt Hill
#
# Bulk Modulus (GPa) = 57.42607 61.61760 59.52184
# Shear Modulus (GPa) = 28.74438 34.95627 31.85033
#
# Velocity S-wave (km/s) = 3.47075 3.82745 3.65346
# Velocity P-wave (km/s) = 6.33462 6.73462 6.53768
#
# Compressibility (1/GPa) = 0.01741369
#
# Stress axis : x y z
#
# Youngs Moduli (GPa) = 59.55971 89.37513 58.53914
#
# Poissons Ratio (x) = 0.46579 0.40445
# Poissons Ratio (y) = 0.31040 0.09970
# Poissons Ratio (z) = 0.41150 0.15222
#
# Static dielectric constant tensor:
#      x y z
#    x 4.304290 -0.054800 0.058630 
#    y -0.054800 4.458750 -0.055950 
#    z 0.058630 -0.055950 4.388660 
# 
# 
# High freq. dielectric constant tensor:
#      x y z
#    x 1.954640 -0.006540 -0.002980 
#    y -0.006540 1.960360 -0.004160 
#    z -0.002980 -0.004160 1.947840 
# 
# From -- ./inp_files/293834.got.cif
#   From: 2010.06.25/outbox.cif.g09.slc.cpg/sg2_147_cif.got.tgz:293834.got - 2010.06.27 13:26:56.
