data_PCOD8033078
_publ_section_title
;
Structure prediction by ZEFSAII (Michael W. Deem and Ramdas Pophale) SiO2 
 PCOD8033078
Probable space group: P -1
;
_chemical_formula_sum "Si O2"
_cell_formula_units_Z 16
_cell_length_a 18.940646
_cell_length_b 7.755347
_cell_length_c 10.560659
_cell_angle_alpha 43.627898
_cell_angle_beta 139.170682
_cell_angle_gamma 108.855044
_cell_volume 606.958196
_symmetry_space_group_name_H-M "P -1"
_symmetry_group_IT_number 2
_symmetry_cell_setting 'triclinic'
loop_
_space_group_symop_operation_xyz
x,y,z
-x,-y,-z
loop_
_atom_site_type_symbol
_atom_site_label
_atom_site_fract_x
_atom_site_fract_y
_atom_site_fract_z
Si Si1 0.958783 0.028264 0.634184
Si Si2 0.591801 0.494039 0.733365
Si Si3 0.641951 0.025012 0.737063
Si Si4 0.368252 0.027188 0.778833
Si Si5 0.796587 0.449631 0.395741
Si Si6 0.219724 0.671323 0.296920
Si Si7 0.009975 0.391869 0.309692
Si Si8 0.731677 0.792323 0.707627
O O1 0.931657 0.817274 0.622008
O O2 0.073211 0.850800 0.977794
O O3 0.839457 0.233177 0.449865
O O4 0.988905 0.230573 0.482407
O O5 0.500000 0.500000 0.500000
O O6 0.508125 0.771731 0.564479
O O7 0.703818 0.523999 0.808841
O O8 0.652111 0.198672 0.048479
O O9 0.705043 0.223115 0.747644
O O10 0.691443 0.929116 0.716070
O O11 0.686920 0.762152 0.035994
O O12 0.259408 0.343788 0.495649
O O13 0.352845 0.975401 0.637224
O O14 0.500000 0.000000 0.000000
O O15 0.751628 0.316783 0.518939
O O16 0.905526 0.484746 0.589453
O O17 0.877395 0.665283 0.945364
#
# Coordination Sequence:
#
# PCOD8033078 Si02
#       8
#     2   2   2   2   2   2   2   2
#     4  11  23  44  73 106 147 194 244 300 364 438
#     4  12  26  47  79 104 143 193 247 299 371 441
#     4  12  26  48  75 108 150 188 245 309 365 439
#     4  12  25  48  73 104 144 190 247 301 363 436
#     4  12  26  47  76 110 151 201 241 302 377 437
#     4  12  25  46  75 105 147 197 242 301 372 434
#     4  11  24  46  75 106 153 193 242 304 367 437
#     4  12  26  48  75 108 146 193 244 308 368 437
#
# _framework density 26.360961
#
# number of rings (size 3 to 8) (size 9 to 14) (size 15 to 20)
#    0.000    0.250    6.250    2.625    0.000    4.000 
#    4.500    0.000    0.000    0.000    0.000    0.000 
#    0.000    0.000    0.000    0.000    0.000    0.000 
#
# Total GULP energy -198466.714643 kJ/mol
# GULP energy per Si atom -12404.169665 kJ/mol
# Density = 2.630096 g / cm^3
# Si number density = 26.360961 Si / 1000 Ang^3
#
#
#
# Elastic Constant Matrix: (Units=GPa)
#
#
# Indices 1 2 3 4 5 6 
#
# 1 41.1134 -12.4837 11.2602 1.3468 -12.7700 -2.6321
# 2 -12.4837 45.2965 2.9075 7.2086 4.7489 -18.5733
# 3 11.2602 2.9075 145.3536 -5.8863 -17.9936 0.4142
# 4 1.3468 7.2086 -5.8863 39.8146 -4.9683 1.5380
# 5 -12.7700 4.7489 -17.9936 -4.9683 53.8771 1.6683
# 6 -2.6321 -18.5733 0.4142 1.5380 1.6683 48.6328
#
#
#
# Elastic Compliance Matrix: (Units=1/GPa)
#
#
# Indices 1 2 3 4 5 6 
#
# 1 0.030161 0.010676 -0.002052 -0.002840 0.005086 0.005643
# 2 0.010676 0.031863 -0.002044 -0.007190 -0.002028 0.013061
# 3 -0.002052 -0.002044 0.007455 0.001882 0.002391 -0.001097
# 4 -0.002840 -0.007190 0.001882 0.027346 0.003232 -0.003891
# 5 0.005086 -0.002028 0.002391 0.003232 0.021083 -0.001345
# 6 0.005643 0.013061 -0.001097 -0.003891 -0.001345 0.026034
#
#
# Mechanical properties :
#
#
# Convention : Reuss Voigt Hill
#
# Bulk Modulus (GPa) = 12.10068 26.12573 19.11321
# Shear Modulus (GPa) = 31.58035 43.80353 37.69194
#
# Velocity S-wave (km/s) = 3.46496 4.08080 3.78542
# Velocity P-wave (km/s) = 4.53964 5.66887 5.13539
#
# Compressibility (1/GPa) = 0.08263996
#
# Stress axis : x y z
#
# Youngs Moduli (GPa) = 33.15587 31.38479 134.13906
#
# Poissons Ratio (x) = -0.33507 0.27519
# Poissons Ratio (y) = -0.35398 0.27416
# Poissons Ratio (z) = 0.06802 0.06415
#
# Static dielectric constant tensor:
#      x y z
#    x 5.477590 0.169900 -0.206580 
#    y 0.169900 5.235460 -0.135500 
#    z -0.206580 -0.135500 5.327180 
# 
# 
# High freq. dielectric constant tensor:
#      x y z
#    x 2.065720 -0.002370 -0.013680 
#    y -0.002370 2.070100 -0.000440 
#    z -0.013680 -0.000440 2.062570 
# 
# From -- ./inp_files/469777.got.cif
#   From: 2010.06.25/outbox.cif.g09.slc.cpg/sg2_235_cif.got.tgz:469777.got - 2010.06.27 13:26:56.
