data_PCOD8033407
_publ_section_title
;
Structure prediction by ZEFSAII (Michael W. Deem and Ramdas Pophale) SiO2 
 PCOD8033407
Probable space group: P -1
;
_chemical_formula_sum "Si O2"
_cell_formula_units_Z 16
_cell_length_a 13.608055
_cell_length_b 13.174698
_cell_length_c 7.732541
_cell_angle_alpha 95.721965
_cell_angle_beta 147.588659
_cell_angle_gamma 97.793621
_cell_volume 673.654026
_symmetry_space_group_name_H-M "P -1"
_symmetry_group_IT_number 2
_symmetry_cell_setting 'triclinic'
loop_
_space_group_symop_operation_xyz
x,y,z
-x,-y,-z
loop_
_atom_site_type_symbol
_atom_site_label
_atom_site_fract_x
_atom_site_fract_y
_atom_site_fract_z
Si Si1 0.927827 0.206919 0.381484
Si Si2 0.810733 0.390107 0.150546
Si Si3 0.452363 0.005528 0.233765
Si Si4 0.396496 0.680619 0.805839
Si Si5 0.246503 0.114985 0.745446
Si Si6 0.003684 0.301286 0.867534
Si Si7 0.114767 0.937676 0.258479
Si Si8 0.649988 0.469125 0.602221
O O1 0.883148 0.291243 0.201762
O O2 0.067023 0.153424 0.498320
O O3 0.047950 0.281240 0.732883
O O4 0.709677 0.113795 0.094125
O O5 0.656691 0.364347 0.082857
O O6 0.000000 0.500000 0.500000
O O7 0.725767 0.402749 0.840614
O O8 0.657546 0.032351 0.446708
O O9 0.500000 0.000000 0.500000
O O10 0.364639 0.101193 0.089407
O O11 0.449301 0.602382 0.731484
O O12 0.212396 0.695356 0.441565
O O13 0.590349 0.798382 0.127470
O O14 0.137591 0.986855 0.493897
O O15 0.009786 0.196294 0.965936
O O16 0.174679 0.419291 0.199087
O O17 0.000000 0.000000 0.000000
O O18 0.500000 0.500000 0.500000
#
# Coordination Sequence:
#
# PCOD8033407 Si02
#       8
#     2   2   2   2   2   2   2   2
#     4  11  24  44  72 100 143 189 235 299 359 433
#     4  11  25  47  72 103 141 189 243 293 365 432
#     4  12  26  43  68 105 141 188 239 293 363 435
#     4  11  25  46  75 104 144 192 236 303 364 424
#     4  12  25  47  72 102 146 190 234 300 370 425
#     4  11  23  46  70 101 142 189 232 296 364 418
#     4  12  26  45  72 107 143 186 241 291 362 438
#     4  12  27  48  74 107 143 189 248 301 360 436
#
# _framework density 23.751062999999998
#
# number of rings (size 3 to 8) (size 9 to 14) (size 15 to 20)
#    0.000    0.500    5.000    4.125    3.500    3.500 
#    0.000    0.000    0.000    0.000    0.000    0.000 
#    0.000    0.000    0.000    0.000    0.000    0.000 
#
# Total GULP energy -198245.728258 kJ/mol
# GULP energy per Si atom -12390.358016 kJ/mol
# Density = 2.369700 g / cm^3
# Si number density = 23.751063 Si / 1000 Ang^3
#
#
#
# Elastic Constant Matrix: (Units=GPa)
#
#
# Indices 1 2 3 4 5 6 
#
# 1 87.7950 40.1437 16.1783 -13.8835 2.8470 -6.0672
# 2 40.1437 157.1700 41.7799 -18.7240 14.1382 10.2922
# 3 16.1783 41.7799 69.3356 -11.5649 9.4733 10.4142
# 4 -13.8835 -18.7240 -11.5649 42.3071 -4.4570 5.2117
# 5 2.8470 14.1382 9.4733 -4.4570 44.0495 0.2713
# 6 -6.0672 10.2922 10.4142 5.2117 0.2713 46.1152
#
#
#
# Elastic Compliance Matrix: (Units=1/GPa)
#
#
# Indices 1 2 3 4 5 6 
#
# 1 0.013573 -0.003019 -0.001391 0.002498 0.000628 0.002488
# 2 -0.003019 0.008586 -0.003696 0.001840 -0.001569 -0.001678
# 3 -0.001391 -0.003696 0.018401 0.003167 -0.002337 -0.003858
# 4 0.002498 0.001840 0.003167 0.026745 0.001296 -0.003827
# 5 0.000628 -0.001569 -0.002337 0.001296 0.023794 0.000674
# 6 0.002488 -0.001678 -0.003858 -0.003827 0.000674 0.023686
#
#
# Mechanical properties :
#
#
# Convention : Reuss Voigt Hill
#
# Bulk Modulus (GPa) = 41.06924 56.72271 48.89597
# Shear Modulus (GPa) = 35.94148 40.90760 38.42454
#
# Velocity S-wave (km/s) = 3.89428 4.15462 4.02656
# Velocity P-wave (km/s) = 6.12778 6.85190 6.49993
#
# Compressibility (1/GPa) = 0.02434913
#
# Stress axis : x y z
#
# Youngs Moduli (GPa) = 73.67345 116.46234 54.34395
#
# Poissons Ratio (x) = 0.35160 0.07558
# Poissons Ratio (y) = 0.22242 0.20087
# Poissons Ratio (z) = 0.10247 0.43047
#
# Static dielectric constant tensor:
#      x y z
#    x 4.280020 0.265130 -0.105920 
#    y 0.265130 5.278320 -0.062550 
#    z -0.105920 -0.062550 4.495150 
# 
# 
# High freq. dielectric constant tensor:
#      x y z
#    x 1.935760 0.001580 0.008610 
#    y 0.001580 1.962570 0.000540 
#    z 0.008610 0.000540 1.936720 
# 
# From -- ./inp_files/307854.got.cif
#   From: 2010.06.25/outbox.cif.g09.slc.cpg/sg2_154_cif.got.tgz:307854.got - 2010.06.27 13:26:56.
