data_PCOD8033990
_publ_section_title
;
Structure prediction by ZEFSAII (Michael W. Deem and Ramdas Pophale) SiO2 
 PCOD8033990
Probable space group: P -1
;
_chemical_formula_sum "Si O2"
_cell_formula_units_Z 16
_cell_length_a 10.866365
_cell_length_b 11.112621
_cell_length_c 6.794169
_cell_angle_alpha 62.503539
_cell_angle_beta 86.451894
_cell_angle_gamma 89.348429
_cell_volume 726.214279
_symmetry_space_group_name_H-M "P -1"
_symmetry_group_IT_number 2
_symmetry_cell_setting 'triclinic'
loop_
_space_group_symop_operation_xyz
x,y,z
-x,-y,-z
loop_
_atom_site_type_symbol
_atom_site_label
_atom_site_fract_x
_atom_site_fract_y
_atom_site_fract_z
Si Si1 0.646074 0.876567 0.101196
Si Si2 0.521054 0.633118 0.520711
Si Si3 0.079087 0.375312 0.522765
Si Si4 0.449367 0.930119 0.752864
Si Si5 0.850575 0.751317 0.992324
Si Si6 0.961839 0.159741 0.399391
Si Si7 0.698398 0.283548 0.279755
Si Si8 0.718882 0.564594 0.852597
O O1 0.606005 0.731413 0.305930
O O2 0.654421 0.977636 0.208123
O O3 0.556726 0.920788 0.905211
O O4 0.782180 0.883031 0.984894
O O5 0.500000 0.500000 0.500000
O O6 0.388295 0.699947 0.530833
O O7 0.584384 0.592003 0.753699
O O8 0.185077 0.439515 0.330262
O O9 0.000000 0.500000 0.500000
O O10 0.014402 0.243424 0.521356
O O11 0.133043 0.339972 0.752846
O O12 0.385155 0.786902 0.825562
O O13 0.500000 0.000000 0.500000
O O14 0.749781 0.686968 0.903449
O O15 0.980011 0.777723 0.852562
O O16 0.815379 0.188438 0.389714
O O17 0.000000 0.000000 0.500000
O O18 0.736223 0.428178 0.078617
#
# Coordination Sequence:
#
# PCOD8033990 Si02
#       8
#     2   2   2   2   2   2   2   2
#     4  11  24  43  69 101 130 185 232 279 349 423
#     4  12  24  41  72 107 141 179 231 293 360 422
#     4  11  24  46  75  99 139 187 240 290 352 423
#     4  11  25  44  68  98 141 184 227 280 356 417
#     4  11  24  46  72  97 138 179 240 284 350 415
#     4  11  29  46  70 105 143 191 237 296 353 418
#     4  12  25  45  69  99 150 178 233 296 356 416
#     4  11  24  44  71 104 138 181 232 299 358 418
#
# _framework density 22.032063999999998
#
# number of rings (size 3 to 8) (size 9 to 14) (size 15 to 20)
#    0.000    0.750    2.500    4.125    5.250    2.500 
#    4.500    0.000    0.000    0.000    0.000    0.000 
#    0.000    0.000    0.000    0.000    0.000    0.000 
#
# Total GULP energy -198269.313899 kJ/mol
# GULP energy per Si atom -12391.832119 kJ/mol
# Density = 2.198192 g / cm^3
# Si number density = 22.032064 Si / 1000 Ang^3
#
#
#
# Elastic Constant Matrix: (Units=GPa)
#
#
# Indices 1 2 3 4 5 6 
#
# 1 109.2219 37.3285 21.4444 18.4532 -3.5633 -31.4985
# 2 37.3285 132.1951 17.5240 17.4778 -5.5681 -24.8984
# 3 21.4444 17.5240 89.0799 17.3499 0.9007 -9.9154
# 4 18.4532 17.4778 17.3499 38.8802 -4.3223 -4.8140
# 5 -3.5633 -5.5681 0.9007 -4.3223 33.0126 1.1897
# 6 -31.4985 -24.8984 -9.9154 -4.8140 1.1897 41.0376
#
#
#
# Elastic Compliance Matrix: (Units=1/GPa)
#
#
# Indices 1 2 3 4 5 6 
#
# 1 0.012938 -0.001396 -0.001152 -0.003925 0.000378 0.008334
# 2 -0.001396 0.009173 -0.000517 -0.002629 0.000921 0.004034
# 3 -0.001152 -0.000517 0.012714 -0.004867 -0.001244 0.001340
# 4 -0.003925 -0.002629 -0.004867 0.031038 0.003410 -0.002241
# 5 0.000378 0.000921 -0.001244 0.003410 0.030966 0.000051
# 6 0.008334 0.004034 0.001340 -0.002241 0.000051 0.033271
#
#
# Mechanical properties :
#
#
# Convention : Reuss Voigt Hill
#
# Bulk Modulus (GPa) = 34.84741 53.67673 44.26207
# Shear Modulus (GPa) = 34.29446 39.53274 36.91360
#
# Velocity S-wave (km/s) = 3.94962 4.24055 4.09767
# Velocity P-wave (km/s) = 6.05395 6.95645 6.52083
#
# Compressibility (1/GPa) = 0.02869654
#
# Stress axis : x y z
#
# Youngs Moduli (GPa) = 77.29305 109.00989 78.65066
#
# Poissons Ratio (x) = 0.15219 0.09058
# Poissons Ratio (y) = 0.10791 0.04065
# Poissons Ratio (z) = 0.08901 0.05634
#
# Static dielectric constant tensor:
#      x y z
#    x 4.173130 -0.106660 -0.069960 
#    y -0.106660 4.353500 0.265150 
#    z -0.069960 0.265150 4.083630 
# 
# 
# High freq. dielectric constant tensor:
#      x y z
#    x 1.868780 -0.017070 -0.002980 
#    y -0.017070 1.883710 0.013200 
#    z -0.002980 0.013200 1.874910 
# 
# From -- ./inp_files/68547.got.cif
#   From: 2010.06.25/outbox.cif.g09.slc.cpg/sg2_35_cif.got.tgz:68547.got - 2010.06.27 13:26:56.
