data_PCOD8033269
_publ_section_title
;
Structure prediction by ZEFSAII (Michael W. Deem and Ramdas Pophale) SiO2 
 PCOD8033269
Probable space group: P -1
;
_chemical_formula_sum "Si O2"
_cell_formula_units_Z 12
_cell_length_a 20.606561
_cell_length_b 16.181331
_cell_length_c 4.956807
_cell_angle_alpha 114.276034
_cell_angle_beta 120.505914
_cell_angle_gamma 19.922199
_cell_volume 472.760570
_symmetry_space_group_name_H-M "P -1"
_symmetry_group_IT_number 2
_symmetry_cell_setting 'triclinic'
loop_
_space_group_symop_operation_xyz
x,y,z
-x,-y,-z
loop_
_atom_site_type_symbol
_atom_site_label
_atom_site_fract_x
_atom_site_fract_y
_atom_site_fract_z
Si Si1 0.720610 0.940079 0.945210
Si Si2 0.457659 0.672907 0.915841
Si Si3 0.083448 0.648726 0.159531
Si Si4 0.532799 0.066334 0.232850
Si Si5 0.079188 0.847614 0.701453
Si Si6 0.203396 0.922605 0.198720
O O1 0.569334 0.192141 0.876533
O O2 0.661895 0.925643 0.594589
O O3 0.675740 0.956299 0.170712
O O4 0.960013 0.704500 0.119554
O O5 0.691930 0.378318 0.030568
O O6 0.316325 0.770506 0.950029
O O7 0.381481 0.749283 0.551112
O O8 0.958042 0.813896 0.841245
O O9 0.312263 0.362731 0.184038
O O10 0.079640 0.742471 0.464832
O O11 0.500000 0.000000 0.000000
O O12 0.929478 0.014023 0.879507
O O13 0.000000 0.000000 0.500000
#
# Coordination Sequence:
#
# PCOD8033269 Si02
#       6
#     2   2   2   2   2   2
#     4  11  23  45  72 101 143 182 231 282 352 417
#     4  11  24  45  72 100 138 189 232 286 345 416
#     4  11  26  46  75 101 143 191 233 285 353 417
#     4  12  27  45  73 108 140 179 232 292 352 417
#     4  12  27  45  72 108 142 186 240 291 345 414
#     4  11  24  46  68 103 136 188 236 286 349 409
#
# _framework density 25.382825
#
# number of rings (size 3 to 8) (size 9 to 14) (size 15 to 20)
#    0.000    0.667    5.000    3.500    2.333    3.333 
#    0.000    0.000    0.000    0.000    0.000    0.000 
#    0.000    0.000    0.000    0.000    0.000    0.000 
#
# Total GULP energy -148828.829143 kJ/mol
# GULP energy per Si atom -12402.402429 kJ/mol
# Density = 2.532505 g / cm^3
# Si number density = 25.382825 Si / 1000 Ang^3
#
#
#
# Elastic Constant Matrix: (Units=GPa)
#
#
# Indices 1 2 3 4 5 6 
#
# 1 115.6995 44.5391 18.8260 0.8872 7.7864 -29.9172
# 2 44.5391 73.2128 30.8096 0.0418 -2.2109 -14.6208
# 3 18.8260 30.8096 104.6885 -12.8325 -3.5662 -3.6515
# 4 0.8872 0.0418 -12.8325 41.4860 -0.7261 1.5318
# 5 7.7864 -2.2109 -3.5662 -0.7261 54.5913 7.6187
# 6 -29.9172 -14.6208 -3.6515 1.5318 7.6187 36.0318
#
#
#
# Elastic Compliance Matrix: (Units=1/GPa)
#
#
# Indices 1 2 3 4 5 6 
#
# 1 0.013987 -0.006458 -0.000506 -0.000873 -0.003662 0.009753
# 2 -0.006458 0.020069 -0.004808 -0.001428 0.001105 0.002121
# 3 -0.000506 -0.004808 0.011481 0.003640 0.000892 -0.001551
# 4 -0.000873 -0.001428 0.003640 0.025349 0.000951 -0.002215
# 5 -0.003662 0.001105 0.000892 0.000951 0.019898 -0.006750
# 6 0.009753 0.002121 -0.001551 -0.002215 -0.006750 0.038076
#
#
# Mechanical properties :
#
#
# Convention : Reuss Voigt Hill
#
# Bulk Modulus (GPa) = 45.47377 53.55001 49.51189
# Shear Modulus (GPa) = 31.30201 39.71690 35.50946
#
# Velocity S-wave (km/s) = 3.51550 3.95994 3.74432
# Velocity P-wave (km/s) = 5.86791 6.48467 6.18398
#
# Compressibility (1/GPa) = 0.02199070
#
# Stress axis : x y z
#
# Youngs Moduli (GPa) = 71.49747 49.82846 87.10272
#
# Poissons Ratio (x) = 0.32180 0.04409
# Poissons Ratio (y) = 0.46174 0.41882
# Poissons Ratio (z) = 0.03619 0.23959
#
# Static dielectric constant tensor:
#      x y z
#    x 4.792800 -0.158670 0.165220 
#    y -0.158670 4.877510 0.139190 
#    z 0.165220 0.139190 4.856820 
# 
# 
# High freq. dielectric constant tensor:
#      x y z
#    x 2.027100 -0.019970 0.010990 
#    y -0.019970 2.012310 0.003640 
#    z 0.010990 0.003640 2.034940 
# 
# From -- ./inp_files/119609.got.cif
#   From: 2010.06.25/outbox.cif.g09.slc.cpg/sg2_60_cif.got.tgz:119609.got - 2010.06.27 13:26:56.
