data_PCOD8033975
_publ_section_title
;
Structure prediction by ZEFSAII (Michael W. Deem and Ramdas Pophale) SiO2 
 PCOD8033975
Probable space group: P -1
;
_chemical_formula_sum "Si O2"
_cell_formula_units_Z 16
_cell_length_a 17.637005
_cell_length_b 14.218171
_cell_length_c 11.972688
_cell_angle_alpha 31.386160
_cell_angle_beta 128.607381
_cell_angle_gamma 148.980506
_cell_volume 738.173607
_symmetry_space_group_name_H-M "P -1"
_symmetry_group_IT_number 2
_symmetry_cell_setting 'triclinic'
loop_
_space_group_symop_operation_xyz
x,y,z
-x,-y,-z
loop_
_atom_site_type_symbol
_atom_site_label
_atom_site_fract_x
_atom_site_fract_y
_atom_site_fract_z
Si Si1 0.014240 0.733057 0.278932
Si Si2 0.567362 0.723543 0.238396
Si Si3 0.607890 0.441117 0.431272
Si Si4 0.358933 0.422217 0.917968
Si Si5 0.858268 0.373949 0.926447
Si Si6 0.936749 0.754061 0.425227
Si Si7 0.365114 0.782642 0.945112
Si Si8 0.196895 0.404981 0.962878
O O1 0.924671 0.676871 0.362707
O O2 0.000000 0.500000 0.500000
O O3 0.929809 0.678802 0.145265
O O4 0.197699 0.069151 0.104975
O O5 0.500000 0.500000 0.500000
O O6 0.575836 0.605221 0.258924
O O7 0.455639 0.728461 0.102764
O O8 0.744715 0.048319 0.105999
O O9 0.589302 0.386885 0.336613
O O10 0.786286 0.655884 0.416902
O O11 0.488263 0.132411 0.701872
O O12 0.500000 0.500000 0.000000
O O13 0.338158 0.532237 0.888097
O O14 0.939368 0.587205 0.678042
O O15 0.758082 0.368429 0.913980
O O16 0.000000 0.500000 0.000000
O O17 0.101898 0.105022 0.243771
O O18 0.272818 0.647493 0.879365
#
# Coordination Sequence:
#
# PCOD8033975 Si02
#       8
#     2   2   2   2   2   2   2   2
#     4  11  25  44  70 102 141 186 233 291 351 418
#     4  12  26  48  73 100 143 187 233 294 353 407
#     4  12  24  46  76  99 142 188 232 292 351 419
#     4  11  24  43  68 105 137 181 236 282 351 422
#     4  12  29  46  72 108 140 184 244 287 350 425
#     4  11  24  47  72  98 144 188 235 291 351 418
#     4  12  28  48  71 107 143 185 238 292 350 423
#     4  11  25  47  69 103 143 181 231 293 352 413
#
# _framework density 21.675118999999999
#
# number of rings (size 3 to 8) (size 9 to 14) (size 15 to 20)
#    0.000    0.500    5.000    2.625    8.750    3.000 
#    0.000    0.000    0.000    0.000    0.000    0.000 
#    0.000    0.000    0.000    0.000    0.000    0.000 
#
# Total GULP energy -198482.170233 kJ/mol
# GULP energy per Si atom -12405.135640 kJ/mol
# Density = 2.162579 g / cm^3
# Si number density = 21.675119 Si / 1000 Ang^3
#
#
#
# Elastic Constant Matrix: (Units=GPa)
#
#
# Indices 1 2 3 4 5 6 
#
# 1 101.5523 42.9583 39.9133 -13.4143 9.6072 0.0548
# 2 42.9583 120.6157 38.7708 9.5105 0.4947 5.5670
# 3 39.9133 38.7708 127.7287 10.6782 -1.5087 3.2809
# 4 -13.4143 9.5105 10.6782 27.8244 -2.8870 4.0703
# 5 9.6072 0.4947 -1.5087 -2.8870 40.3573 2.1438
# 6 0.0548 5.5670 3.2809 4.0703 2.1438 39.9973
#
#
#
# Elastic Compliance Matrix: (Units=1/GPa)
#
#
# Indices 1 2 3 4 5 6 
#
# 1 0.015179 -0.004870 -0.004160 0.010253 -0.002982 0.000115
# 2 -0.004870 0.010909 -0.001309 -0.005377 0.000639 -0.000891
# 3 -0.004160 -0.001309 0.009982 -0.005262 0.001011 -0.000150
# 4 0.010253 -0.005377 -0.005262 0.045340 0.000858 -0.003494
# 5 -0.002982 0.000639 0.001011 0.000858 0.025666 -0.001631
# 6 0.000115 -0.000891 -0.000150 -0.003494 -0.001631 0.025581
#
#
# Mechanical properties :
#
#
# Convention : Reuss Voigt Hill
#
# Bulk Modulus (GPa) = 64.97633 65.90908 65.44270
# Shear Modulus (GPa) = 31.55234 36.85276 34.20255
#
# Velocity S-wave (km/s) = 3.81949 4.12786 3.97667
# Velocity P-wave (km/s) = 7.03519 7.29333 7.16542
#
# Compressibility (1/GPa) = 0.01539022
#
# Stress axis : x y z
#
# Youngs Moduli (GPa) = 65.88147 91.66911 100.17813
#
# Poissons Ratio (x) = 0.44646 0.41675
# Poissons Ratio (y) = 0.32086 0.13117
# Poissons Ratio (z) = 0.27407 0.12003
#
# Static dielectric constant tensor:
#      x y z
#    x 4.145380 0.001150 -0.137220 
#    y 0.001150 3.826350 0.039250 
#    z -0.137220 0.039250 4.050140 
# 
# 
# High freq. dielectric constant tensor:
#      x y z
#    x 1.862010 0.001820 -0.007910 
#    y 0.001820 1.854520 0.005050 
#    z -0.007910 0.005050 1.862500 
# 
# From -- ./inp_files/206225.got.cif
#   From: 2010.06.25/outbox.cif.g09.slc.cpg/sg2_104_cif.got.tgz:206225.got - 2010.06.27 13:26:56.
