data_PCOD8033062
_publ_section_title
;
Structure prediction by ZEFSAII (Michael W. Deem and Ramdas Pophale) SiO2 
 PCOD8033062
Probable space group: P -1
;
_chemical_formula_sum "Si O2"
_cell_formula_units_Z 12
_cell_length_a 14.578303
_cell_length_b 9.479101
_cell_length_c 14.135651
_cell_angle_alpha 146.522308
_cell_angle_beta 29.163028
_cell_angle_gamma 137.526810
_cell_volume 524.760308
_symmetry_space_group_name_H-M "P -1"
_symmetry_group_IT_number 2
_symmetry_cell_setting 'triclinic'
loop_
_space_group_symop_operation_xyz
x,y,z
-x,-y,-z
loop_
_atom_site_type_symbol
_atom_site_label
_atom_site_fract_x
_atom_site_fract_y
_atom_site_fract_z
Si Si1 0.183467 0.898893 0.189028
Si Si2 0.006043 0.800695 0.798349
Si Si3 0.341980 0.458265 0.342701
Si Si4 0.870880 0.941791 0.349906
Si Si5 0.273626 0.656361 0.164327
Si Si6 0.422409 0.487700 0.666788
O O1 0.159502 0.781551 0.249995
O O2 0.997006 0.830737 0.258306
O O3 0.221532 0.200777 0.328900
O O4 0.361215 0.771165 0.908317
O O5 0.204123 0.660902 0.536300
O O6 0.829574 0.606734 0.859467
O O7 0.989881 0.939385 0.789089
O O8 0.000000 0.000000 0.000000
O O9 0.417482 0.584661 0.443295
O O10 0.511980 0.403279 0.087114
O O11 0.751275 0.713773 0.280710
O O12 0.729818 0.148344 0.635352
O O13 0.500000 0.500000 0.500000
#
# Coordination Sequence:
#
# PCOD8033062 Si02
#       6
#     2   2   2   2   2   2
#     4  11  23  44  73 101 136 177 229 284 337 399
#     4  12  28  46  68  99 143 184 225 278 343 407
#     4  11  25  46  70  99 140 181 227 280 339 402
#     4  12  25  44  70 104 138 179 229 276 342 407
#     4  11  24  46  73 100 137 179 229 282 340 400
#     4  11  24  40  70 106 135 175 229 281 340 399
#
# _framework density 22.867581000000001
#
# number of rings (size 3 to 8) (size 9 to 14) (size 15 to 20)
#    0.000    0.667    1.667    7.500    4.667    3.333 
#    0.000    0.000    0.000    0.000    0.000    0.000 
#    0.000    0.000    0.000    0.000    0.000    0.000 
#
# Total GULP energy -148876.415368 kJ/mol
# GULP energy per Si atom -12406.367947 kJ/mol
# Density = 2.281553 g / cm^3
# Si number density = 22.867581 Si / 1000 Ang^3
#
#
#
# Elastic Constant Matrix: (Units=GPa)
#
#
# Indices 1 2 3 4 5 6 
#
# 1 64.8079 25.6970 16.3622 0.1815 13.5318 4.9265
# 2 25.6970 107.1175 12.1806 1.1850 -0.1679 -8.0597
# 3 16.3622 12.1806 85.7790 -1.8859 13.9257 -13.6240
# 4 0.1815 1.1850 -1.8859 34.8890 -3.8875 8.8011
# 5 13.5318 -0.1679 13.9257 -3.8875 39.6143 -10.5125
# 6 4.9265 -8.0597 -13.6240 8.8011 -10.5125 41.2918
#
#
#
# Elastic Compliance Matrix: (Units=1/GPa)
#
#
# Indices 1 2 3 4 5 6 
#
# 1 0.020219 -0.005021 -0.002925 0.000688 -0.007537 -0.006423
# 2 -0.005021 0.010872 -0.000507 -0.000935 0.002765 0.003457
# 3 -0.002925 -0.000507 0.013360 -0.000577 -0.002667 0.004102
# 4 0.000688 -0.000935 -0.000577 0.030468 0.001190 -0.006646
# 5 -0.007537 0.002765 -0.002667 0.001190 0.031064 0.008214
# 6 -0.006423 0.003457 0.004102 -0.006646 0.008214 0.030520
#
#
# Mechanical properties :
#
#
# Convention : Reuss Voigt Hill
#
# Bulk Modulus (GPa) = 36.30229 40.68712 38.49471
# Shear Modulus (GPa) = 30.75202 36.72331 33.73766
#
# Velocity S-wave (km/s) = 3.67111 4.01173 3.84519
# Velocity P-wave (km/s) = 5.82056 6.26815 6.04850
#
# Compressibility (1/GPa) = 0.02754647
#
# Stress axis : x y z
#
# Youngs Moduli (GPa) = 49.45724 91.97643 74.85228
#
# Poissons Ratio (x) = 0.46178 0.21897
# Poissons Ratio (y) = 0.24830 0.03791
# Poissons Ratio (z) = 0.14468 0.04659
#
# Static dielectric constant tensor:
#      x y z
#    x 4.208900 0.045610 0.124290 
#    y 0.045610 4.111180 0.114160 
#    z 0.124290 0.114160 4.272410 
# 
# 
# High freq. dielectric constant tensor:
#      x y z
#    x 1.906930 0.000770 0.012460 
#    y 0.000770 1.906530 -0.002950 
#    z 0.012460 -0.002950 1.913710 
# 
# From -- ./inp_files/148732.got.cif
#   From: 2010.06.25/outbox.cif.g09.slc.cpg/sg2_75_cif.got.tgz:148732.got - 2010.06.27 13:26:56.
