data_PCOD8033671
_publ_section_title
;
Structure prediction by ZEFSAII (Michael W. Deem and Ramdas Pophale) SiO2 
 PCOD8033671
Probable space group: P -1
;
_chemical_formula_sum "Si O2"
_cell_formula_units_Z 16
_cell_length_a 15.457304
_cell_length_b 14.661490
_cell_length_c 14.750672
_cell_angle_alpha 20.185302
_cell_angle_beta 140.248440
_cell_angle_gamma 141.283904
_cell_volume 711.078149
_symmetry_space_group_name_H-M "P -1"
_symmetry_group_IT_number 2
_symmetry_cell_setting 'triclinic'
loop_
_space_group_symop_operation_xyz
x,y,z
-x,-y,-z
loop_
_atom_site_type_symbol
_atom_site_label
_atom_site_fract_x
_atom_site_fract_y
_atom_site_fract_z
Si Si1 0.664765 0.617342 0.712063
Si Si2 0.912116 0.687173 0.711351
Si Si3 0.156783 0.022354 0.133103
Si Si4 0.941941 0.626958 0.587649
Si Si5 0.880791 0.805412 0.862509
Si Si6 0.433574 0.402051 0.942535
Si Si7 0.718494 0.334498 0.551913
Si Si8 0.491471 0.925211 0.832371
O O1 0.762472 0.623614 0.698495
O O2 0.750025 0.632361 0.860660
O O3 0.608591 0.882967 0.407398
O O4 0.544273 0.325076 0.889732
O O5 0.879389 0.592067 0.670337
O O6 0.000000 0.000000 0.500000
O O7 0.000000 0.500000 0.000000
O O8 0.175108 0.067335 0.213323
O O9 0.194399 0.749727 0.382197
O O10 0.266975 0.270630 0.941605
O O11 0.000000 0.000000 0.000000
O O12 0.819000 0.589457 0.448525
O O13 0.036438 0.937330 0.369997
O O14 0.025089 0.398896 0.845252
O O15 0.424697 0.616414 0.654839
O O16 0.500000 0.500000 0.000000
O O17 0.525305 0.206269 0.160603
O O18 0.656111 0.102781 0.796099
#
# Coordination Sequence:
#
# PCOD8033671 Si02
#       8
#     2   2   2   2   2   2   2   2
#     4  12  23  43  72 101 137 173 232 293 337 424
#     4  12  23  46  70 109 138 171 225 291 363 419
#     4  11  24  40  66 104 140 183 235 288 351 419
#     4  12  25  45  70 101 143 181 219 288 363 417
#     4  12  25  40  69 105 139 176 229 282 356 411
#     4  11  25  45  67  97 143 192 241 288 335 411
#     4  11  26  45  69  95 151 185 235 284 347 414
#     4  11  25  44  67  97 138 185 231 278 345 399
#
# _framework density 22.501044
#
# number of rings (size 3 to 8) (size 9 to 14) (size 15 to 20)
#    0.000    0.500    5.000    3.000    5.250    2.000 
#    0.000    1.250    0.000    0.000    0.000    0.000 
#    0.000    0.000    0.000    0.000    0.000    0.000 
#
# Total GULP energy -198287.192661 kJ/mol
# GULP energy per Si atom -12392.949541 kJ/mol
# Density = 2.244983 g / cm^3
# Si number density = 22.501044 Si / 1000 Ang^3
#
#
#
# Elastic Constant Matrix: (Units=GPa)
#
#
# Indices 1 2 3 4 5 6 
#
# 1 132.0927 15.8684 29.6333 -2.3594 12.0875 1.5093
# 2 15.8684 67.5694 22.9321 -0.4934 4.2358 -7.1407
# 3 29.6333 22.9321 125.2843 -7.0415 14.4085 4.9782
# 4 -2.3594 -0.4934 -7.0415 30.3107 5.2480 -8.3442
# 5 12.0875 4.2358 14.4085 5.2480 40.1002 -2.2301
# 6 1.5093 -7.1407 4.9782 -8.3442 -2.2301 40.2994
#
#
#
# Elastic Compliance Matrix: (Units=1/GPa)
#
#
# Indices 1 2 3 4 5 6 
#
# 1 0.008245 -0.001364 -0.001437 0.000515 -0.001913 -0.000372
# 2 -0.001364 0.016435 -0.002770 0.000488 -0.000205 0.003395
# 3 -0.001437 -0.002770 0.009346 0.002172 -0.002990 -0.001307
# 4 0.000515 0.000488 0.002172 0.036411 -0.005361 0.007041
# 5 -0.001913 -0.000205 -0.002990 -0.005361 0.027357 0.000809
# 6 -0.000372 0.003395 -0.001307 0.007041 0.000809 0.027094
#
#
# Mechanical properties :
#
#
# Convention : Reuss Voigt Hill
#
# Bulk Modulus (GPa) = 43.69587 51.31266 47.50426
# Shear Modulus (GPa) = 34.80491 39.24290 37.02390
#
# Velocity S-wave (km/s) = 3.93722 4.18071 4.06079
# Velocity P-wave (km/s) = 6.33487 6.79401 6.56845
#
# Compressibility (1/GPa) = 0.02288546
#
# Stress axis : x y z
#
# Youngs Moduli (GPa) = 121.28321 60.84523 106.99232
#
# Poissons Ratio (x) = 0.08302 0.15372
# Poissons Ratio (y) = 0.16548 0.29632
# Poissons Ratio (z) = 0.17425 0.16851
#
# Static dielectric constant tensor:
#      x y z
#    x 5.978980 -0.277770 0.183290 
#    y -0.277770 4.008190 -0.343690 
#    z 0.183290 -0.343690 4.128290 
# 
# 
# High freq. dielectric constant tensor:
#      x y z
#    x 1.908960 0.009550 0.004570 
#    y 0.009550 1.869140 -0.021520 
#    z 0.004570 -0.021520 1.889080 
# 
# From -- ./inp_files/533998.got.cif
#   From: 2010.06.25/outbox.cif.g09.slc.cpg/sg2_267_cif.got.tgz:533998.got - 2010.06.27 13:26:56.
