data_PCOD8033123
_publ_section_title
;
Structure prediction by ZEFSAII (Michael W. Deem and Ramdas Pophale) SiO2 
 PCOD8033123
Probable space group: P -1
;
_chemical_formula_sum "Si O2"
_cell_formula_units_Z 16
_cell_length_a 14.553512
_cell_length_b 18.732820
_cell_length_c 8.880833
_cell_angle_alpha 138.535803
_cell_angle_beta 140.158931
_cell_angle_gamma 27.317153
_cell_volume 693.016595
_symmetry_space_group_name_H-M "P -1"
_symmetry_group_IT_number 2
_symmetry_cell_setting 'triclinic'
loop_
_space_group_symop_operation_xyz
x,y,z
-x,-y,-z
loop_
_atom_site_type_symbol
_atom_site_label
_atom_site_fract_x
_atom_site_fract_y
_atom_site_fract_z
Si Si1 0.481369 0.169518 0.132156
Si Si2 0.405040 0.119587 0.257520
Si Si3 0.072577 0.294758 0.363426
Si Si4 0.129190 0.430607 0.898320
Si Si5 0.826937 0.945064 0.670619
Si Si6 0.216949 0.823361 0.530569
Si Si7 0.735433 0.446439 0.933489
Si Si8 0.264998 0.780538 0.865544
O O1 0.342653 0.222974 0.193255
O O2 0.607052 0.208977 0.393382
O O3 0.352470 0.255502 0.951414
O O4 0.637573 0.981672 0.999323
O O5 0.252691 0.241379 0.393097
O O6 0.654837 0.995341 0.415129
O O7 0.023730 0.411861 0.611896
O O8 0.163780 0.134388 0.295538
O O9 0.853906 0.395361 0.160178
O O10 0.169964 0.525983 0.030599
O O11 0.000000 0.500000 0.000000
O O12 0.063464 0.813028 0.687553
O O13 0.754484 0.105526 0.872065
O O14 0.220077 0.696791 0.297272
O O15 0.270086 0.816064 0.758205
O O16 0.000000 0.000000 0.500000
O O17 0.485463 0.598102 0.891567
#
# Coordination Sequence:
#
# PCOD8033123 Si02
#       8
#     2   2   2   2   2   2   2   2
#     4  11  24  43  72 110 139 193 242 303 367 428
#     4  11  23  44  75 110 145 187 252 311 364 433
#     4  12  26  46  74 107 146 198 244 304 372 438
#     4  12  27  45  72 108 148 189 243 303 373 437
#     4  11  24  43  74 105 148 198 242 303 363 445
#     4  12  25  46  75 103 148 194 250 300 368 443
#     4  12  27  47  74 106 153 195 240 310 367 444
#     4  11  25  44  69 108 149 193 248 296 368 443
#
# _framework density 23.08747
#
# number of rings (size 3 to 8) (size 9 to 14) (size 15 to 20)
#    0.000    0.500    2.500    5.625    1.750    4.500 
#    0.000    0.000    0.000    0.000    0.000    0.000 
#    0.000    0.000    0.000    0.000    0.000    0.000 
#
# Total GULP energy -198443.708785 kJ/mol
# GULP energy per Si atom -12402.731799 kJ/mol
# Density = 2.303492 g / cm^3
# Si number density = 23.087470 Si / 1000 Ang^3
#
#
#
# Elastic Constant Matrix: (Units=GPa)
#
#
# Indices 1 2 3 4 5 6 
#
# 1 98.3072 17.7173 50.2509 8.1868 -1.1274 1.6072
# 2 17.7173 102.1033 40.6665 -5.6235 2.0849 4.6147
# 3 50.2509 40.6665 114.0096 0.6424 2.0426 3.2618
# 4 8.1868 -5.6235 0.6424 44.7528 2.9216 -0.4099
# 5 -1.1274 2.0849 2.0426 2.9216 39.0206 -0.0085
# 6 1.6072 4.6147 3.2618 -0.4099 -0.0085 47.6295
#
#
#
# Elastic Compliance Matrix: (Units=1/GPa)
#
#
# Indices 1 2 3 4 5 6 
#
# 1 0.013408 -0.000143 -0.005859 -0.002445 0.000885 -0.000058
# 2 -0.000143 0.011561 -0.004036 0.001564 -0.000528 -0.000825
# 3 -0.005859 -0.004036 0.012811 0.000421 -0.000656 -0.000285
# 4 -0.002445 0.001564 0.000421 0.023108 -0.001906 0.000101
# 5 0.000885 -0.000528 -0.000656 -0.001906 0.025858 0.000054
# 6 -0.000058 -0.000825 -0.000285 0.000101 0.000054 0.021098
#
#
# Mechanical properties :
#
#
# Convention : Reuss Voigt Hill
#
# Bulk Modulus (GPa) = 56.48925 59.07661 57.78293
# Shear Modulus (GPa) = 37.36352 39.99960 38.68156
#
# Velocity S-wave (km/s) = 4.02723 4.16688 4.09765
# Velocity P-wave (km/s) = 6.79304 6.98528 6.88983
#
# Compressibility (1/GPa) = 0.01770248
#
# Stress axis : x y z
#
# Youngs Moduli (GPa) = 74.58505 86.50035 78.05917
#
# Poissons Ratio (x) = 0.01238 0.45734
# Poissons Ratio (y) = 0.01067 0.31507
# Poissons Ratio (z) = 0.43698 0.34914
#
# Static dielectric constant tensor:
#      x y z
#    x 4.457440 0.143780 0.257130 
#    y 0.143780 4.289530 -0.225950 
#    z 0.257130 -0.225950 4.226870 
# 
# 
# High freq. dielectric constant tensor:
#      x y z
#    x 1.919660 0.010450 0.004800 
#    y 0.010450 1.922130 -0.008240 
#    z 0.004800 -0.008240 1.917480 
# 
# From -- ./inp_files/318166.got.cif
#   From: 2010.06.25/outbox.cif.g09.slc.cpg/sg2_160_cif.got.tgz:318166.got - 2010.06.27 13:26:56.
