data_PCOD8033651
_publ_section_title
;
Structure prediction by ZEFSAII (Michael W. Deem and Ramdas Pophale) SiO2 
 PCOD8033651
Probable space group: P -1
;
_chemical_formula_sum "Si O2"
_cell_formula_units_Z 10
_cell_length_a 8.704497
_cell_length_b 7.160202
_cell_length_c 8.155176
_cell_angle_alpha 102.178451
_cell_angle_beta 78.436831
_cell_angle_gamma 90.396640
_cell_volume 486.424772
_symmetry_space_group_name_H-M "P -1"
_symmetry_group_IT_number 2
_symmetry_cell_setting 'triclinic'
loop_
_space_group_symop_operation_xyz
x,y,z
-x,-y,-z
loop_
_atom_site_type_symbol
_atom_site_label
_atom_site_fract_x
_atom_site_fract_y
_atom_site_fract_z
Si Si1 0.494949 0.333413 0.683105
Si Si2 0.674942 0.666576 0.598244
Si Si3 0.933123 0.195689 0.974603
Si Si4 0.366055 0.956776 0.148354
Si Si5 0.154049 0.431091 0.761509
O O1 0.621402 0.498891 0.699621
O O2 0.470311 0.279121 0.485613
O O3 0.558933 0.150670 0.732358
O O4 0.326175 0.407841 0.806503
O O5 0.826950 0.596867 0.444883
O O6 0.716706 0.846679 0.733088
O O7 0.761742 0.169808 0.933197
O O8 0.046564 0.264059 0.819279
O O9 0.922092 0.359374 0.147009
O O10 0.000000 0.000000 0.000000
O O11 0.500000 0.000000 0.000000
#
# Coordination Sequence:
#
# PCOD8033651 Si02
#       5
#     2   2   2   2   2
#     4   9  20  41  65  86 120 155 199 242 301 352
#     4   9  21  40  65  89 118 158 195 247 300 351
#     4  11  24  39  58  88 124 160 195 245 299 349
#     4  12  24  36  64  96 117 153 205 249 290 352
#     4   9  21  41  60  82 122 161 191 240 301 352
#
# _framework density 20.558164999999999
#
# number of rings (size 3 to 8) (size 9 to 14) (size 15 to 20)
#    1.200    0.800    0.000    3.000    0.000    8.800 
#    0.000    2.000    0.000    0.000    0.000    0.000 
#    0.000    0.000    0.000    0.000    0.000    0.000 
#
# Total GULP energy -123967.511552 kJ/mol
# GULP energy per Si atom -12396.751155 kJ/mol
# Density = 2.051137 g / cm^3
# Si number density = 20.558165 Si / 1000 Ang^3
#
#
#
# Elastic Constant Matrix: (Units=GPa)
#
#
# Indices 1 2 3 4 5 6 
#
# 1 76.0265 36.5048 32.4384 -9.9542 -29.4576 21.4646
# 2 36.5048 129.0773 49.6796 -0.2104 -15.3634 22.0556
# 3 32.4384 49.6796 94.2869 6.7982 -24.3713 15.8489
# 4 -9.9542 -0.2104 6.7982 32.8987 2.4367 -6.8608
# 5 -29.4576 -15.3634 -24.3713 2.4367 35.1558 -8.6147
# 6 21.4646 22.0556 15.8489 -6.8608 -8.6147 32.5599
#
#
#
# Elastic Compliance Matrix: (Units=1/GPa)
#
#
# Indices 1 2 3 4 5 6 
#
# 1 0.024216 -0.002947 -0.001790 0.004869 0.015470 -0.007977
# 2 -0.002947 0.010710 -0.004403 -0.000566 -0.001720 -0.003742
# 3 -0.001790 -0.004403 0.016346 -0.005106 0.007558 -0.002870
# 4 0.004869 -0.000566 -0.005106 0.034368 -0.000426 0.006789
# 5 0.015470 -0.001720 0.007558 -0.000426 0.045754 -0.000697
# 6 -0.007977 -0.003742 -0.002870 0.006789 -0.000697 0.041150
#
#
# Mechanical properties :
#
#
# Convention : Reuss Voigt Hill
#
# Bulk Modulus (GPa) = 30.31183 59.62626 44.96904
# Shear Modulus (GPa) = 24.77436 32.17408 28.47422
#
# Velocity S-wave (km/s) = 3.47520 3.96033 3.72567
# Velocity P-wave (km/s) = 5.55690 7.06958 6.35838
#
# Compressibility (1/GPa) = 0.03299042
#
# Stress axis : x y z
#
# Youngs Moduli (GPa) = 41.29521 93.37487 61.17674
#
# Poissons Ratio (x) = 0.27522 0.10948
# Poissons Ratio (y) = 0.12172 0.26939
# Poissons Ratio (z) = 0.07390 0.41117
#
# Static dielectric constant tensor:
#      x y z
#    x 3.574010 0.206930 -0.160190 
#    y 0.206930 3.665290 -0.031710 
#    z -0.160190 -0.031710 3.561540 
# 
# 
# High freq. dielectric constant tensor:
#      x y z
#    x 1.789140 0.016800 -0.014620 
#    y 0.016800 1.810600 -0.001340 
#    z -0.014620 -0.001340 1.795220 
# 
# From -- ./inp_files/15769.got.cif
#   From: 2010.06.25/outbox.cif.g09.slc.cpg/sg2_8_cif.got.tgz:15769.got - 2010.06.27 13:26:56.
