data_PCOD8033992
_publ_section_title
;
Structure prediction by ZEFSAII (Michael W. Deem and Ramdas Pophale) SiO2 
 PCOD8033992
Probable space group: P -1
;
_chemical_formula_sum "Si O2"
_cell_formula_units_Z 16
_cell_length_a 10.314799
_cell_length_b 11.463139
_cell_length_c 9.479989
_cell_angle_alpha 122.683883
_cell_angle_beta 108.062620
_cell_angle_gamma 50.728371
_cell_volume 729.492411
_symmetry_space_group_name_H-M "P -1"
_symmetry_group_IT_number 2
_symmetry_cell_setting 'triclinic'
loop_
_space_group_symop_operation_xyz
x,y,z
-x,-y,-z
loop_
_atom_site_type_symbol
_atom_site_label
_atom_site_fract_x
_atom_site_fract_y
_atom_site_fract_z
Si Si1 0.660812 0.467952 0.332294
Si Si2 0.613917 0.745289 0.297600
Si Si3 0.266978 0.022668 0.929192
Si Si4 0.630328 0.749587 0.993597
Si Si5 0.980275 0.860374 0.839565
Si Si6 0.655036 0.489804 0.659161
Si Si7 0.815391 0.095179 0.445350
Si Si8 0.262848 0.054207 0.434430
O O1 0.590285 0.622918 0.302417
O O2 0.838468 0.314829 0.231025
O O3 0.665580 0.536167 0.532165
O O4 0.532706 0.415419 0.275833
O O5 0.749127 0.773017 0.428322
O O6 0.436720 0.925939 0.329787
O O7 0.666090 0.672186 0.111085
O O8 0.291274 0.145402 0.925493
O O9 0.134266 0.146659 0.086251
O O10 0.436352 0.869547 0.959086
O O11 0.197836 0.942567 0.748166
O O12 0.732986 0.573611 0.823151
O O13 0.892246 0.906581 0.686705
O O14 0.000000 0.000000 0.000000
O O15 0.742392 0.290659 0.572941
O O16 0.724165 0.035358 0.471871
O O17 0.000000 0.000000 0.500000
#
# Coordination Sequence:
#
# PCOD8033992 Si02
#       8
#     2   2   2   2   2   2   2   2
#     4  11  25  44  71  98 140 178 225 286 345 408
#     4  11  24  44  69 101 136 181 227 285 338 402
#     4  11  24  44  70 101 139 182 233 277 341 414
#     4  11  24  43  72 101 137 182 230 285 336 403
#     4  12  25  45  69 104 138 180 230 284 346 404
#     4  11  24  44  70 103 132 181 232 277 344 414
#     4  12  24  46  71  99 139 182 227 283 344 411
#     4  11  24  43  69 101 136 179 232 278 341 410
#
# _framework density 21.933057999999999
#
# number of rings (size 3 to 8) (size 9 to 14) (size 15 to 20)
#    0.000    0.750    3.750    4.500    1.750    3.000 
#    2.250    1.250    0.000    0.000    0.000    0.000 
#    0.000    0.000    0.000    0.000    0.000    0.000 
#
# Total GULP energy -198334.218482 kJ/mol
# GULP energy per Si atom -12395.888655 kJ/mol
# Density = 2.188314 g / cm^3
# Si number density = 21.933058 Si / 1000 Ang^3
#
#
#
# Elastic Constant Matrix: (Units=GPa)
#
#
# Indices 1 2 3 4 5 6 
#
# 1 71.3382 37.9196 37.0087 2.0465 -6.5248 -2.3254
# 2 37.9196 82.2376 54.3724 3.1419 -9.7934 -1.0152
# 3 37.0087 54.3724 140.7203 0.3307 3.5458 9.6606
# 4 2.0465 3.1419 0.3307 36.3709 5.9033 -1.5899
# 5 -6.5248 -9.7934 3.5458 5.9033 39.8947 -11.2828
# 6 -2.3254 -1.0152 9.6606 -1.5899 -11.2828 30.1037
#
#
#
# Elastic Compliance Matrix: (Units=1/GPa)
#
#
# Indices 1 2 3 4 5 6 
#
# 1 0.019414 -0.006692 -0.002807 -0.000804 0.002801 0.003182
# 2 -0.006692 0.020477 -0.006607 -0.002127 0.006097 0.004467
# 3 -0.002807 -0.006607 0.010907 0.001165 -0.004832 -0.005689
# 4 -0.000804 -0.002127 0.001165 0.028523 -0.005252 -0.000970
# 5 0.002801 0.006097 -0.004832 -0.005252 0.032111 0.013730
# 6 0.003182 0.004467 -0.005689 -0.000970 0.013730 0.040535
#
#
# Mechanical properties :
#
#
# Convention : Reuss Voigt Hill
#
# Bulk Modulus (GPa) = 53.80776 61.43307 57.62041
# Shear Modulus (GPa) = 26.26395 32.27354 29.26875
#
# Velocity S-wave (km/s) = 3.46419 3.84012 3.65699
# Velocity P-wave (km/s) = 6.37077 6.90885 6.64526
#
# Compressibility (1/GPa) = 0.01858468
#
# Stress axis : x y z
#
# Youngs Moduli (GPa) = 51.50839 48.83636 91.68389
#
# Poissons Ratio (x) = 0.32683 0.25737
# Poissons Ratio (y) = 0.34471 0.60576
# Poissons Ratio (z) = 0.14459 0.32267
#
# Static dielectric constant tensor:
#      x y z
#    x 4.324040 -0.125470 -0.359630 
#    y -0.125470 3.758180 0.296240 
#    z -0.359630 0.296240 4.285320 
# 
# 
# High freq. dielectric constant tensor:
#      x y z
#    x 1.866490 0.012020 -0.006160 
#    y 0.012020 1.851280 -0.000230 
#    z -0.006160 -0.000230 1.877130 
# 
# From -- ./inp_files/263113.got.cif
#   From: 2010.06.25/outbox.cif.g09.slc.cpg/sg2_132_cif.got.tgz:263113.got - 2010.06.27 13:26:56.
