data_PCOD8033458
_publ_section_title
;
Structure prediction by ZEFSAII (Michael W. Deem and Ramdas Pophale) SiO2 
 PCOD8033458
Probable space group: P -1
;
_chemical_formula_sum "Si O2"
_cell_formula_units_Z 16
_cell_length_a 14.468832
_cell_length_b 8.548442
_cell_length_c 12.942528
_cell_angle_alpha 78.402843
_cell_angle_beta 67.997114
_cell_angle_gamma 29.484823
_cell_volume 702.533919
_symmetry_space_group_name_H-M "P -1"
_symmetry_group_IT_number 2
_symmetry_cell_setting 'triclinic'
loop_
_space_group_symop_operation_xyz
x,y,z
-x,-y,-z
loop_
_atom_site_type_symbol
_atom_site_label
_atom_site_fract_x
_atom_site_fract_y
_atom_site_fract_z
Si Si1 0.356383 0.562737 0.599866
Si Si2 0.052004 0.942604 0.206542
Si Si3 0.983525 0.680223 0.716481
Si Si4 0.440460 0.836126 0.228279
Si Si5 0.398079 0.243663 0.236671
Si Si6 0.324434 0.686712 0.964043
Si Si7 0.162300 0.237254 0.877820
Si Si8 0.303898 0.362511 0.494096
O O1 0.500000 0.500000 0.500000
O O2 0.485866 0.285143 0.668296
O O3 0.291006 0.552487 0.529049
O O4 0.139614 0.911245 0.706781
O O5 0.274206 0.557911 0.192360
O O6 0.980409 0.206688 0.253412
O O7 0.109636 0.918924 0.070020
O O8 0.050169 0.432758 0.789803
O O9 0.117325 0.504575 0.580093
O O10 0.750783 0.008916 0.733774
O O11 0.601768 0.558701 0.109647
O O12 0.362118 0.127012 0.208830
O O13 0.304161 0.383013 0.370596
O O14 0.643275 0.918728 0.173270
O O15 0.253437 0.931449 0.887107
O O16 0.500000 0.500000 0.000000
O O17 0.000000 0.500000 0.000000
O O18 0.500000 0.000000 0.500000
#
# Coordination Sequence:
#
# PCOD8033458 Si02
#       8
#     2   2   2   2   2   2   2   2
#     4  11  28  46  70 105 140 181 242 299 347 414
#     4  11  25  49  71 102 144 189 232 284 362 412
#     4  11  24  44  73 104 138 188 233 287 350 424
#     4  12  27  45  68 107 145 177 242 290 341 421
#     4  12  26  45  71 105 141 188 231 293 347 420
#     4  12  24  47  74 103 141 186 232 288 349 421
#     4  12  23  44  76  99 140 187 234 280 362 417
#     4  11  23  46  72  97 143 184 233 285 360 414
#
# _framework density 22.774701
#
# number of rings (size 3 to 8) (size 9 to 14) (size 15 to 20)
#    0.000    0.500    6.250    0.750    5.250    4.500 
#    0.000    0.000    0.000    0.000    0.000    0.000 
#    0.000    0.000    0.000    0.000    0.000    0.000 
#
# Total GULP energy -198220.530625 kJ/mol
# GULP energy per Si atom -12388.783164 kJ/mol
# Density = 2.272287 g / cm^3
# Si number density = 22.774701 Si / 1000 Ang^3
#
#
#
# Elastic Constant Matrix: (Units=GPa)
#
#
# Indices 1 2 3 4 5 6 
#
# 1 63.8653 21.6182 66.3422 8.5051 -5.1016 4.5940
# 2 21.6182 96.3506 23.0900 6.2051 -2.7306 5.2525
# 3 66.3422 23.0900 137.0905 23.8534 -26.3290 2.6897
# 4 8.5051 6.2051 23.8534 40.6139 -11.8973 -8.7836
# 5 -5.1016 -2.7306 -26.3290 -11.8973 36.2384 11.8878
# 6 4.5940 5.2525 2.6897 -8.7836 11.8878 38.2534
#
#
#
# Elastic Compliance Matrix: (Units=1/GPa)
#
#
# Indices 1 2 3 4 5 6 
#
# 1 0.034812 -0.003848 -0.018057 0.001630 -0.008144 0.000523
# 2 -0.003848 0.011352 0.000333 -0.001279 0.000667 -0.001621
# 3 -0.018057 0.000333 0.019020 -0.005068 0.010870 -0.003756
# 4 0.001630 -0.001279 -0.005068 0.030004 0.004377 0.005865
# 5 -0.008144 0.000667 0.010870 0.004377 0.039490 -0.011145
# 6 0.000523 -0.001621 -0.003756 0.005865 -0.011145 0.031376
#
#
# Mechanical properties :
#
#
# Convention : Reuss Voigt Hill
#
# Bulk Modulus (GPa) = 45.37153 57.71191 51.54172
# Shear Modulus (GPa) = 23.09007 35.43819 29.26413
#
# Velocity S-wave (km/s) = 3.18755 3.94894 3.58850
# Velocity P-wave (km/s) = 5.78899 6.79614 6.31268
#
# Compressibility (1/GPa) = 0.02204025
#
# Stress axis : x y z
#
# Youngs Moduli (GPa) = 28.72564 88.08969 52.57670
#
# Poissons Ratio (x) = 0.33896 0.94936
# Poissons Ratio (y) = 0.11053 -0.01749
# Poissons Ratio (z) = 0.51869 -0.02930
#
# Static dielectric constant tensor:
#      x y z
#    x 3.967560 -0.002220 -0.315290 
#    y -0.002220 4.177620 0.128650 
#    z -0.315290 0.128650 4.344610 
# 
# 
# High freq. dielectric constant tensor:
#      x y z
#    x 1.881850 -0.002190 -0.017330 
#    y -0.002190 1.908020 0.010620 
#    z -0.017330 0.010620 1.918540 
# 
# From -- ./inp_files/307238.got.cif
#   From: 2010.06.25/outbox.cif.g09.slc.cpg/sg2_154_cif.got.tgz:307238.got - 2010.06.27 13:26:56.
