data_PCOD8033588
_publ_section_title
;
Structure prediction by ZEFSAII (Michael W. Deem and Ramdas Pophale) SiO2 
 PCOD8033588
Probable space group: P -1
;
_chemical_formula_sum "Si O2"
_cell_formula_units_Z 16
_cell_length_a 11.152650
_cell_length_b 22.893789
_cell_length_c 5.370477
_cell_angle_alpha 71.223605
_cell_angle_beta 57.042990
_cell_angle_gamma 34.292382
_cell_volume 624.199454
_symmetry_space_group_name_H-M "P -1"
_symmetry_group_IT_number 2
_symmetry_cell_setting 'triclinic'
loop_
_space_group_symop_operation_xyz
x,y,z
-x,-y,-z
loop_
_atom_site_type_symbol
_atom_site_label
_atom_site_fract_x
_atom_site_fract_y
_atom_site_fract_z
Si Si1 0.192781 0.682888 0.334558
Si Si2 0.682023 0.555729 0.123549
Si Si3 0.204461 0.773226 0.804099
Si Si4 0.760445 0.124116 0.085779
Si Si5 0.289914 0.241941 0.674958
Si Si6 0.768775 0.871356 0.891819
Si Si7 0.135752 0.568171 0.426264
Si Si8 0.584558 0.714447 0.145445
O O1 0.385831 0.642504 0.378475
O O2 0.255961 0.588953 0.358569
O O3 0.904536 0.800187 0.580971
O O4 0.256989 0.688329 0.984189
O O5 0.834080 0.488842 0.298926
O O6 0.719527 0.616645 0.942445
O O7 0.759755 0.491258 0.876479
O O8 0.153344 0.837338 0.003666
O O9 0.452040 0.711372 0.480407
O O10 0.950699 0.859034 0.814486
O O11 0.580354 0.156108 0.448544
O O12 0.627288 0.169383 0.906195
O O13 0.000000 0.000000 0.000000
O O14 0.214411 0.311689 0.905318
O O15 0.155402 0.312921 0.474820
O O16 0.248309 0.183950 0.840302
O O17 0.500000 0.000000 0.000000
#
# Coordination Sequence:
#
# PCOD8033588 Si02
#       8
#     2   2   2   2   2   2   2   2
#     4  12  25  48  75 113 160 193 263 319 379 473
#     4  12  26  47  82 110 152 211 265 312 394 466
#     4  11  23  47  76 106 154 197 257 310 386 451
#     4  11  27  47  79 105 148 208 257 312 386 469
#     4  11  29  47  71 114 160 191 255 324 384 458
#     4  12  28  46  79 114 156 203 249 323 396 454
#     4  12  28  47  78 117 153 208 255 331 396 447
#     4  11  26  48  75 109 154 200 259 318 375 474
#
# _framework density 25.632835
#
# number of rings (size 3 to 8) (size 9 to 14) (size 15 to 20)
#    0.000    0.500    3.750    2.250   10.500    2.500 
#    0.000    0.000    0.000    0.000    0.000    0.000 
#    0.000    0.000    0.000    0.000    0.000    0.000 
#
# Total GULP energy -198272.866090 kJ/mol
# GULP energy per Si atom -12392.054131 kJ/mol
# Density = 2.557449 g / cm^3
# Si number density = 25.632835 Si / 1000 Ang^3
#
#
#
# Elastic Constant Matrix: (Units=GPa)
#
#
# Indices 1 2 3 4 5 6 
#
# 1 129.9472 34.3936 3.0355 0.1505 11.1113 -8.9817
# 2 34.3936 132.2567 32.7903 -3.0800 6.3057 -7.1268
# 3 3.0355 32.7903 79.1685 -1.2571 3.3770 -7.5186
# 4 0.1505 -3.0800 -1.2571 38.8538 -5.9122 0.1970
# 5 11.1113 6.3057 3.3770 -5.9122 41.3625 -2.9526
# 6 -8.9817 -7.1268 -7.5186 0.1970 -2.9526 38.3070
#
#
#
# Elastic Compliance Matrix: (Units=1/GPa)
#
#
# Indices 1 2 3 4 5 6 
#
# 1 0.008555 -0.002264 0.000838 -0.000495 -0.001978 0.001599
# 2 -0.002264 0.009100 -0.003618 0.000554 -0.000375 0.000421
# 3 0.000838 -0.003618 0.014344 0.000060 -0.000673 0.002287
# 4 -0.000495 0.000554 0.000060 0.026366 0.003823 0.000158
# 5 -0.001978 -0.000375 -0.000673 0.003823 0.025458 0.001277
# 6 0.001599 0.000421 0.002287 0.000158 0.001277 0.027105
#
#
# Mechanical properties :
#
#
# Convention : Reuss Voigt Hill
#
# Bulk Modulus (GPa) = 45.63478 53.53457 49.58467
# Shear Modulus (GPa) = 38.96546 41.78154 40.37350
#
# Velocity S-wave (km/s) = 3.90313 4.04171 3.97302
# Velocity P-wave (km/s) = 6.17693 6.53537 6.35867
#
# Compressibility (1/GPa) = 0.02191311
#
# Stress axis : x y z
#
# Youngs Moduli (GPa) = 116.88773 109.88976 69.71401
#
# Poissons Ratio (x) = 0.24874 -0.05841
# Poissons Ratio (y) = 0.26458 0.25220
# Poissons Ratio (z) = -0.09794 0.39754
#
# Static dielectric constant tensor:
#      x y z
#    x 4.013260 -1.400220 1.983940 
#    y -1.400220 2.833910 2.477590 
#    z 1.983940 2.477590 1.454730 
# 
# 
# High freq. dielectric constant tensor:
#      x y z
#    x 2.049900 0.001620 -0.001170 
#    y 0.001620 2.017080 0.000930 
#    z -0.001170 0.000930 2.025920 
# 
# From -- ./inp_files/84284.got.cif
#   From: 2010.06.25/outbox.cif.g09.slc.cpg/sg2_43_cif.got.tgz:84284.got - 2010.06.27 13:26:56.
