data_PCOD8033384
_publ_section_title
;
Structure prediction by ZEFSAII (Michael W. Deem and Ramdas Pophale) SiO2 
 PCOD8033384
Probable space group: P -1
;
_chemical_formula_sum "Si O2"
_cell_formula_units_Z 12
_cell_length_a 15.876664
_cell_length_b 15.473332
_cell_length_c 6.758188
_cell_angle_alpha 133.854974
_cell_angle_beta 57.078726
_cell_angle_gamma 153.510829
_cell_volume 518.613952
_symmetry_space_group_name_H-M "P -1"
_symmetry_group_IT_number 2
_symmetry_cell_setting 'triclinic'
loop_
_space_group_symop_operation_xyz
x,y,z
-x,-y,-z
loop_
_atom_site_type_symbol
_atom_site_label
_atom_site_fract_x
_atom_site_fract_y
_atom_site_fract_z
Si Si1 0.311453 0.421734 0.311237
Si Si2 0.722363 0.074402 0.347503
Si Si3 0.717103 0.855827 0.293301
Si Si4 0.146199 0.446425 0.291287
Si Si5 0.476760 0.974473 0.757009
Si Si6 0.923035 0.798022 0.368083
O O1 0.540018 0.674814 0.387254
O O2 0.188425 0.407070 0.363458
O O3 0.263910 0.363564 0.512487
O O4 0.240266 0.231104 0.985640
O O5 0.584576 0.958015 0.145505
O O6 0.944141 0.307211 0.365334
O O7 0.669481 0.893695 0.229481
O O8 0.679730 0.136888 0.660559
O O9 0.906834 0.090760 0.544231
O O10 0.311330 0.714039 0.481438
O O11 0.144190 0.363116 0.966951
O O12 0.500000 0.000000 0.000000
O O13 0.000000 0.000000 0.500000
#
# Coordination Sequence:
#
# PCOD8033384 Si02
#       6
#     2   2   2   2   2   2
#     4  11  24  44  69 104 149 179 235 277 346 425
#     4  11  25  47  73 100 141 178 239 291 343 418
#     4  11  23  46  68 105 146 187 224 287 346 414
#     4  12  25  45  72 107 137 182 234 284 352 417
#     4  11  28  50  70 101 136 185 239 294 349 402
#     4  12  25  42  72 107 146 185 224 283 350 418
#
# _framework density 23.138597000000001
#
# number of rings (size 3 to 8) (size 9 to 14) (size 15 to 20)
#    0.000    0.667    5.000    2.000    2.333    5.333 
#    0.000    0.000    0.000    0.000    0.000    0.000 
#    0.000    0.000    0.000    0.000    0.000    0.000 
#
# Total GULP energy -148828.075234 kJ/mol
# GULP energy per Si atom -12402.339603 kJ/mol
# Density = 2.308593 g / cm^3
# Si number density = 23.138597 Si / 1000 Ang^3
#
#
#
# Elastic Constant Matrix: (Units=GPa)
#
#
# Indices 1 2 3 4 5 6 
#
# 1 113.4163 36.1458 8.3736 -17.4074 -3.5730 -10.1954
# 2 36.1458 132.3224 73.2540 -31.7283 2.5207 0.8432
# 3 8.3736 73.2540 107.5997 -20.6958 11.1541 1.6092
# 4 -17.4074 -31.7283 -20.6958 44.6695 -6.2129 -6.6698
# 5 -3.5730 2.5207 11.1541 -6.2129 30.3780 -10.6332
# 6 -10.1954 0.8432 1.6092 -6.6698 -10.6332 42.2036
#
#
#
# Elastic Compliance Matrix: (Units=1/GPa)
#
#
# Indices 1 2 3 4 5 6 
#
# 1 0.010676 -0.002924 0.001511 0.003808 0.003111 0.003966
# 2 -0.002924 0.014634 -0.008995 0.005705 0.003287 0.001074
# 3 0.001511 -0.008995 0.015996 0.000689 -0.005257 -0.001281
# 4 0.003808 0.005705 0.000689 0.030622 0.008720 0.007816
# 5 0.003111 0.003287 -0.005257 0.008720 0.041147 0.012631
# 6 0.003966 0.001074 -0.001281 0.007816 0.012631 0.029098
#
#
# Mechanical properties :
#
#
# Convention : Reuss Voigt Hill
#
# Bulk Modulus (GPa) = 48.80376 65.43169 57.11772
# Shear Modulus (GPa) = 29.44289 39.15457 34.29873
#
# Velocity S-wave (km/s) = 3.57102 4.11807 3.85426
# Velocity P-wave (km/s) = 6.17581 7.13799 6.67426
#
# Compressibility (1/GPa) = 0.02049023
#
# Stress axis : x y z
#
# Youngs Moduli (GPa) = 93.66439 68.33320 62.51393
#
# Poissons Ratio (x) = 0.19981 -0.09443
# Poissons Ratio (y) = 0.27388 0.56231
# Poissons Ratio (z) = -0.14149 0.61465
#
# Static dielectric constant tensor:
#      x y z
#    x 4.534570 -0.011460 -0.051220 
#    y -0.011460 4.324600 -0.191940 
#    z -0.051220 -0.191940 3.944360 
# 
# 
# High freq. dielectric constant tensor:
#      x y z
#    x 1.933040 -0.002600 -0.001100 
#    y -0.002600 1.930650 -0.021400 
#    z -0.001100 -0.021400 1.893700 
# 
# From -- ./inp_files/26398.got.cif
#   From: 2010.06.25/outbox.cif.g09.slc.cpg/sg2_14_cif.got.tgz:26398.got - 2010.06.27 13:26:56.
