data_PCOD8033519
_publ_section_title
;
Structure prediction by ZEFSAII (Michael W. Deem and Ramdas Pophale) SiO2 
 PCOD8033519
Probable space group: P -1
;
_chemical_formula_sum "Si O2"
_cell_formula_units_Z 16
_cell_length_a 8.646104
_cell_length_b 5.232999
_cell_length_c 15.323100
_cell_angle_alpha 87.891298
_cell_angle_beta 105.165505
_cell_angle_gamma 74.530785
_cell_volume 640.662810
_symmetry_space_group_name_H-M "P -1"
_symmetry_group_IT_number 2
_symmetry_cell_setting 'triclinic'
loop_
_space_group_symop_operation_xyz
x,y,z
-x,-y,-z
loop_
_atom_site_type_symbol
_atom_site_label
_atom_site_fract_x
_atom_site_fract_y
_atom_site_fract_z
Si Si1 0.718906 0.384943 0.817258
Si Si2 0.611159 0.502164 0.338667
Si Si3 0.284420 0.139775 0.881678
Si Si4 0.358595 0.856685 0.497059
Si Si5 0.673935 0.914052 0.914836
Si Si6 0.157649 0.710988 0.772361
Si Si7 0.880604 0.748475 0.429902
Si Si8 0.880983 0.156327 0.680293
O O1 0.546509 0.378071 0.746827
O O2 0.709283 0.661301 0.859109
O O3 0.857377 0.336030 0.762035
O O4 0.764494 0.131804 0.892621
O O5 0.561407 0.392944 0.425052
O O6 0.744445 0.277322 0.304507
O O7 0.699045 0.726739 0.374201
O O8 0.190413 0.410900 0.814570
O O9 0.479016 0.065635 0.889852
O O10 0.216289 0.893763 0.848856
O O11 0.251802 0.193102 0.978959
O O12 0.299178 0.784918 0.394356
O O13 0.500000 0.000000 0.500000
O O14 0.177354 0.012030 0.511744
O O15 0.959069 0.843293 0.722777
O O16 0.000000 0.500000 0.500000
O O17 0.976070 0.778370 0.356488
#
# Coordination Sequence:
#
# PCOD8033519 Si02
#       8
#     2   2   2   2   2   2   2   2
#     4  12  28  45  74 113 153 195 251 314 376 449
#     4  12  25  45  72 104 146 198 258 307 365 439
#     4  11  23  46  80 112 144 192 250 312 384 449
#     4  12  28  47  71 105 150 199 254 313 367 437
#     4  11  24  48  76 113 150 190 249 318 376 453
#     4  12  24  44  77 111 147 196 251 308 370 457
#     4  12  25  45  70  97 144 200 257 304 370 440
#     4  12  28  48  70 111 154 204 248 310 380 445
#
# _framework density 24.974138
#
# number of rings (size 3 to 8) (size 9 to 14) (size 15 to 20)
#    0.000    0.250    5.000    3.375    5.250    5.000 
#    0.000    3.750    0.000    0.000    0.000    0.000 
#    0.000    0.000    0.000    0.000    0.000    0.000 
#
# Total GULP energy -198390.136169 kJ/mol
# GULP energy per Si atom -12399.383511 kJ/mol
# Density = 2.491730 g / cm^3
# Si number density = 24.974138 Si / 1000 Ang^3
#
#
#
# Elastic Constant Matrix: (Units=GPa)
#
#
# Indices 1 2 3 4 5 6 
#
# 1 62.8212 3.5817 23.1197 -4.8101 -25.6245 1.3872
# 2 3.5817 103.7416 44.7130 -2.2810 -21.6938 -0.0979
# 3 23.1197 44.7130 136.9917 1.8114 -22.5708 -7.3301
# 4 -4.8101 -2.2810 1.8114 41.4342 -6.2319 -4.5910
# 5 -25.6245 -21.6938 -22.5708 -6.2319 39.5080 3.4049
# 6 1.3872 -0.0979 -7.3301 -4.5910 3.4049 39.4599
#
#
#
# Elastic Compliance Matrix: (Units=1/GPa)
#
#
# Indices 1 2 3 4 5 6 
#
# 1 0.024330 0.004138 -0.002758 0.005565 0.017546 -0.002224
# 2 0.004138 0.012818 -0.003639 0.002434 0.008131 -0.001208
# 3 -0.002758 -0.003639 0.009258 -0.000553 0.001273 0.001633
# 4 0.005565 0.002434 -0.000553 0.026463 0.008629 0.002042
# 5 0.017546 0.008131 0.001273 0.008629 0.043513 -0.003111
# 6 -0.002224 -0.001208 0.001633 0.002042 -0.003111 0.026227
#
#
# Mechanical properties :
#
#
# Convention : Reuss Voigt Hill
#
# Bulk Modulus (GPa) = 23.87416 49.59812 36.73614
# Shear Modulus (GPa) = 31.03889 39.55645 35.29767
#
# Velocity S-wave (km/s) = 3.52922 3.98414 3.76356
# Velocity P-wave (km/s) = 5.11737 6.40838 5.79892
#
# Compressibility (1/GPa) = 0.04188629
#
# Stress axis : x y z
#
# Youngs Moduli (GPa) = 41.10223 78.01720 108.01986
#
# Poissons Ratio (x) = -0.32286 0.29797
# Poissons Ratio (y) = -0.17009 0.39310
# Poissons Ratio (z) = 0.11338 0.28391
#
# Static dielectric constant tensor:
#      x y z
#    x 4.430290 -0.344620 -0.080990 
#    y -0.344620 4.764610 -0.005210 
#    z -0.080990 -0.005210 4.959320 
# 
# 
# High freq. dielectric constant tensor:
#      x y z
#    x 1.993490 -0.014860 -0.007160 
#    y -0.014860 2.000090 0.004720 
#    z -0.007160 0.004720 2.014230 
# 
# From -- ./inp_files/39173.got.cif
#   From: 2010.06.25/outbox.cif.g09.slc.cpg/sg2_20_cif.got.tgz:39173.got - 2010.06.27 13:26:56.
