data_PCOD8033202
_publ_section_title
;
Structure prediction by ZEFSAII (Michael W. Deem and Ramdas Pophale) SiO2 
 PCOD8033202
Probable space group: P -1
;
_chemical_formula_sum "Si O2"
_cell_formula_units_Z 16
_cell_length_a 12.203285
_cell_length_b 9.276193
_cell_length_c 11.718283
_cell_angle_alpha 120.748203
_cell_angle_beta 42.359978
_cell_angle_gamma 130.479307
_cell_volume 678.557114
_symmetry_space_group_name_H-M "P -1"
_symmetry_group_IT_number 2
_symmetry_cell_setting 'triclinic'
loop_
_space_group_symop_operation_xyz
x,y,z
-x,-y,-z
loop_
_atom_site_type_symbol
_atom_site_label
_atom_site_fract_x
_atom_site_fract_y
_atom_site_fract_z
Si Si1 0.771352 0.079880 0.268859
Si Si2 0.468541 0.166609 0.142939
Si Si3 0.594505 0.276980 0.627382
Si Si4 0.486346 0.301469 0.954249
Si Si5 0.958314 0.701866 0.234310
Si Si6 0.826443 0.709558 0.578885
Si Si7 0.753357 0.297104 0.151618
Si Si8 0.937665 0.912459 0.793258
O O1 0.725568 0.201265 0.443892
O O2 0.787447 0.168954 0.166821
O O3 0.969688 0.106170 0.167719
O O4 0.617055 0.859095 0.303868
O O5 0.262391 0.144830 0.305623
O O6 0.546008 0.208397 0.228664
O O7 0.566579 0.320084 0.027682
O O8 0.500000 0.000000 0.000000
O O9 0.604373 0.261590 0.751380
O O10 0.661785 0.493215 0.623367
O O11 0.500000 0.500000 0.000000
O O12 0.273545 0.135374 0.040273
O O13 0.964935 0.736254 0.379416
O O14 0.786157 0.497941 0.257966
O O15 0.941202 0.870537 0.252384
O O16 0.133852 0.685099 0.044597
O O17 0.940776 0.769816 0.634096
#
# Coordination Sequence:
#
# PCOD8033202 Si02
#       8
#     2   2   2   2   2   2   2   2
#     4  11  26  45  72 103 142 179 237 288 342 413
#     4  11  24  43  72 103 136 183 233 284 343 411
#     4  11  23  45  69 103 140 182 229 289 344 408
#     4  11  23  45  71 101 135 179 233 285 346 412
#     4  11  25  44  68 100 143 183 232 283 347 416
#     4  11  24  47  71 102 142 182 236 284 349 412
#     4  11  25  46  66 102 142 186 227 288 344 412
#     4  11  25  44  72 104 133 185 231 292 344 411
#
# _framework density 23.579445
#
# number of rings (size 3 to 8) (size 9 to 14) (size 15 to 20)
#    0.000    1.000    3.750    3.375    1.750    9.000 
#    0.000    0.000    0.000    0.000    0.000    0.000 
#    0.000    0.000    0.000    0.000    0.000    0.000 
#
# Total GULP energy -198222.875457 kJ/mol
# GULP energy per Si atom -12388.929716 kJ/mol
# Density = 2.352578 g / cm^3
# Si number density = 23.579445 Si / 1000 Ang^3
#
#
#
# Elastic Constant Matrix: (Units=GPa)
#
#
# Indices 1 2 3 4 5 6 
#
# 1 137.9137 39.7866 8.7659 -7.2334 23.3358 -6.3155
# 2 39.7866 143.8922 5.0477 10.7671 4.0949 -9.2363
# 3 8.7659 5.0477 124.3653 1.6202 33.4623 -8.0890
# 4 -7.2334 10.7671 1.6202 33.6040 -1.3500 6.3850
# 5 23.3358 4.0949 33.4623 -1.3500 27.9893 -5.6470
# 6 -6.3155 -9.2363 -8.0890 6.3850 -5.6470 27.7368
#
#
#
# Elastic Compliance Matrix: (Units=1/GPa)
#
#
# Indices 1 2 3 4 5 6 
#
# 1 0.009740 -0.002718 0.002102 0.002599 -0.010264 -0.000762
# 2 -0.002718 0.008143 -0.000438 -0.003705 0.002073 0.003240
# 3 0.002102 -0.000438 0.012375 -0.000813 -0.016362 0.000798
# 4 0.002599 -0.003705 -0.000813 0.033160 -0.000804 -0.008676
# 5 -0.010264 0.002073 -0.016362 -0.000804 0.064914 0.006982
# 6 -0.000762 0.003240 0.000798 -0.008676 0.006982 0.040610
#
#
# Mechanical properties :
#
#
# Convention : Reuss Voigt Hill
#
# Bulk Modulus (GPa) = 35.52335 57.04130 46.28232
# Shear Modulus (GPa) = 27.71118 41.37074 34.54096
#
# Velocity S-wave (km/s) = 3.43188 4.19325 3.83152
# Velocity P-wave (km/s) = 5.54994 6.90566 6.26458
#
# Compressibility (1/GPa) = 0.02815050
#
# Stress axis : x y z
#
# Youngs Moduli (GPa) = 102.67396 122.80803 80.80587
#
# Poissons Ratio (x) = 0.33380 -0.16986
# Poissons Ratio (y) = 0.27907 0.03537
# Poissons Ratio (z) = -0.21583 0.05375
#
# Static dielectric constant tensor:
#      x y z
#    x 3.630610 0.085760 0.338550 
#    y 0.085760 4.605500 -0.166770 
#    z 0.338550 -0.166770 5.096870 
# 
# 
# High freq. dielectric constant tensor:
#      x y z
#    x 1.905710 -0.002180 0.028040 
#    y -0.002180 1.942980 0.014980 
#    z 0.028040 0.014980 1.945860 
# 
# From -- ./inp_files/419698.got.cif
#   From: 2010.06.25/outbox.cif.g09.slc.cpg/sg2_210_cif.got.tgz:419698.got - 2010.06.27 13:26:56.
