data_PCOD8033477
_publ_section_title
;
Structure prediction by ZEFSAII (Michael W. Deem and Ramdas Pophale) SiO2 
 PCOD8033477
Probable space group: P -1
;
_chemical_formula_sum "Si O2"
_cell_formula_units_Z 16
_cell_length_a 12.802575
_cell_length_b 22.187240
_cell_length_c 18.748186
_cell_angle_alpha 16.722714
_cell_angle_beta 28.689209
_cell_angle_gamma 30.866437
_cell_volume 729.187966
_symmetry_space_group_name_H-M "P -1"
_symmetry_group_IT_number 2
_symmetry_cell_setting 'triclinic'
loop_
_space_group_symop_operation_xyz
x,y,z
-x,-y,-z
loop_
_atom_site_type_symbol
_atom_site_label
_atom_site_fract_x
_atom_site_fract_y
_atom_site_fract_z
Si Si1 0.262794 0.742335 0.304492
Si Si2 0.081605 0.903979 0.678783
Si Si3 0.825574 0.359447 0.294095
Si Si4 0.730363 0.621984 0.189479
Si Si5 0.462427 0.766562 0.873542
Si Si6 0.161997 0.994774 0.677675
Si Si7 0.246902 0.956664 0.928041
Si Si8 0.526655 0.293740 0.418024
O O1 0.502786 0.782066 0.145365
O O2 0.233108 0.502494 0.616173
O O3 0.075580 0.904398 0.268771
O O4 0.257927 0.768236 0.192674
O O5 0.300434 0.874018 0.536083
O O6 0.133756 0.845108 0.796687
O O7 0.966021 0.139738 0.476660
O O8 0.929081 0.749247 0.910366
O O9 0.716956 0.454564 0.323848
O O10 0.620774 0.337135 0.390133
O O11 0.000000 0.500000 0.000000
O O12 0.692493 0.823712 0.640100
O O13 0.410173 0.878770 0.853758
O O14 0.270554 0.848002 0.841545
O O15 0.475249 0.514290 0.156814
O O16 0.312217 0.169798 0.685827
O O17 0.000000 0.000000 0.000000
#
# Coordination Sequence:
#
# PCOD8033477 Si02
#       8
#     2   2   2   2   2   2   2   2
#     4  11  24  47  66 100 141 186 221 288 352 402
#     4  12  24  43  72 107 136 182 236 280 347 413
#     4  12  24  42  72 105 143 176 229 287 344 414
#     4  11  25  44  71 100 143 185 226 287 349 413
#     4  11  25  48  72 101 134 185 237 288 343 402
#     4  11  23  46  73  97 142 180 234 292 335 414
#     4  12  26  48  71  98 145 184 230 291 346 410
#     4  12  26  42  73 106 138 184 236 284 344 414
#
# _framework density 21.942215999999998
#
# number of rings (size 3 to 8) (size 9 to 14) (size 15 to 20)
#    0.000    0.500    5.000    3.375    1.750    2.500 
#    6.750    0.000    0.000    0.000    0.000    0.000 
#    0.000    0.000    0.000    0.000    0.000    0.000 
#
# Total GULP energy -198412.809321 kJ/mol
# GULP energy per Si atom -12400.800583 kJ/mol
# Density = 2.189228 g / cm^3
# Si number density = 21.942216 Si / 1000 Ang^3
#
#
#
# Elastic Constant Matrix: (Units=GPa)
#
#
# Indices 1 2 3 4 5 6 
#
# 1 151.7449 49.9576 67.4258 -6.5785 4.6389 -4.5454
# 2 49.9576 98.0056 42.6123 -1.9359 -0.6067 -8.2754
# 3 67.4258 42.6123 97.4814 0.2751 -2.8133 -4.8877
# 4 -6.5785 -1.9359 0.2751 27.8285 -1.0419 1.2940
# 5 4.6389 -0.6067 -2.8133 -1.0419 45.1341 3.5250
# 6 -4.5454 -8.2754 -4.8877 1.2940 3.5250 36.3791
#
#
#
# Elastic Compliance Matrix: (Units=1/GPa)
#
#
# Indices 1 2 3 4 5 6 
#
# 1 0.010249 -0.002580 -0.006011 0.002253 -0.001406 -0.000058
# 2 -0.002580 0.013439 -0.003980 0.000264 0.000033 0.002187
# 3 -0.006011 -0.003980 0.016227 -0.001823 0.001499 0.000443
# 4 0.002253 0.000264 -0.001823 0.036585 0.000602 -0.001263
# 5 -0.001406 0.000033 0.001499 0.000602 0.022578 -0.002176
# 6 -0.000058 0.002187 0.000443 -0.001263 -0.002176 0.028294
#
#
# Mechanical properties :
#
#
# Convention : Reuss Voigt Hill
#
# Bulk Modulus (GPa) = 67.69448 74.13592 70.91520
# Shear Modulus (GPa) = 31.75810 34.35074 33.05442
#
# Velocity S-wave (km/s) = 3.80853 3.96094 3.88549
# Velocity P-wave (km/s) = 7.08930 7.40128 7.24697
#
# Compressibility (1/GPa) = 0.01477225
#
# Stress axis : x y z
#
# Youngs Moduli (GPa) = 97.56724 74.40810 61.62614
#
# Poissons Ratio (x) = 0.19197 0.37045
# Poissons Ratio (y) = 0.25172 0.24530
# Poissons Ratio (z) = 0.58651 0.29618
#
# Static dielectric constant tensor:
#      x y z
#    x 4.284160 -0.086450 0.146520 
#    y -0.086450 4.004390 0.135530 
#    z 0.146520 0.135530 3.968830 
# 
# 
# High freq. dielectric constant tensor:
#      x y z
#    x 1.875960 -0.008960 0.012190 
#    y -0.008960 1.870520 0.010100 
#    z 0.012190 0.010100 1.859060 
# 
# From -- ./inp_files/570653.got.cif
#   From: 2010.06.25/outbox.cif.g09.slc.cpg/sg2_286_cif.got.tgz:570653.got - 2010.06.27 13:26:56.
