data_PCOD8033435
_publ_section_title
;
Structure prediction by ZEFSAII (Michael W. Deem and Ramdas Pophale) SiO2 
 PCOD8033435
Probable space group: P -1
;
_chemical_formula_sum "Si O2"
_cell_formula_units_Z 14
_cell_length_a 10.061630
_cell_length_b 9.798367
_cell_length_c 14.002962
_cell_angle_alpha 51.047649
_cell_angle_beta 50.110973
_cell_angle_gamma 41.088394
_cell_volume 666.630770
_symmetry_space_group_name_H-M "P -1"
_symmetry_group_IT_number 2
_symmetry_cell_setting 'triclinic'
loop_
_space_group_symop_operation_xyz
x,y,z
-x,-y,-z
loop_
_atom_site_type_symbol
_atom_site_label
_atom_site_fract_x
_atom_site_fract_y
_atom_site_fract_z
Si Si1 0.846942 0.969464 0.020731
Si Si2 0.028527 0.419010 0.741289
Si Si3 0.764143 0.392855 0.347612
Si Si4 0.665534 0.155560 0.640122
Si Si5 0.696977 0.946557 0.369356
Si Si6 0.993340 0.952157 0.749204
Si Si7 0.566116 0.811860 0.790419
O O1 0.891371 0.745088 0.134328
O O2 0.591563 0.161792 0.064041
O O3 0.890526 0.967439 0.890659
O O4 0.000000 0.000000 0.000000
O O5 0.769815 0.563353 0.790144
O O6 0.080884 0.589440 0.662955
O O7 0.151223 0.294737 0.641319
O O8 0.743835 0.214230 0.485030
O O9 0.551969 0.625527 0.322597
O O10 0.868687 0.297909 0.237733
O O11 0.817048 0.091188 0.688886
O O12 0.634178 0.972910 0.704882
O O13 0.500000 0.000000 0.500000
O O14 0.587019 0.122357 0.259115
O O15 0.853793 0.970342 0.349666
#
# Coordination Sequence:
#
# PCOD8033435 Si02
#       7
#     2   2   2   2   2   2   2
#     4  11  24  49  65  97 146 177 232 286 331 401
#     4  11  24  45  72  97 134 189 220 276 349 400
#     4  11  24  44  71 101 140 175 227 282 348 405
#     4  11  24  44  70 103 138 176 224 288 347 397
#     4  11  25  44  66 103 140 174 228 282 339 410
#     4  12  25  43  72 101 136 178 233 283 334 406
#     4  11  23  46  71  94 139 187 222 281 348 398
#
# _framework density 21.001132999999999
#
# number of rings (size 3 to 8) (size 9 to 14) (size 15 to 20)
#    0.000    0.857    7.143    1.286    4.000    4.571 
#    0.000    0.000    0.000    0.000    0.000    0.000 
#    0.000    0.000    0.000    0.000    0.000    0.000 
#
# Total GULP energy -173527.609724 kJ/mol
# GULP energy per Si atom -12394.829266 kJ/mol
# Density = 2.095333 g / cm^3
# Si number density = 21.001133 Si / 1000 Ang^3
#
#
#
# Elastic Constant Matrix: (Units=GPa)
#
#
# Indices 1 2 3 4 5 6 
#
# 1 107.8987 27.5028 23.3614 15.5240 -8.8718 1.5714
# 2 27.5028 122.7238 58.4420 43.7373 -6.7618 -8.4833
# 3 23.3614 58.4420 78.3977 31.7731 -10.2270 -9.3168
# 4 15.5240 43.7373 31.7731 32.6026 3.6055 -4.8306
# 5 -8.8718 -6.7618 -10.2270 3.6055 31.4664 3.1894
# 6 1.5714 -8.4833 -9.3168 -4.8306 3.1894 39.5762
#
#
#
# Elastic Compliance Matrix: (Units=1/GPa)
#
#
# Indices 1 2 3 4 5 6 
#
# 1 0.010441 -0.000327 -0.000917 -0.004212 0.003207 -0.001473
# 2 -0.000327 0.017568 -0.004514 -0.019509 0.004454 -0.000024
# 3 -0.000917 -0.004514 0.025571 -0.019132 0.009069 0.002022
# 4 -0.004212 -0.019509 -0.019132 0.080269 -0.021097 0.002979
# 5 0.003207 0.004454 0.009069 -0.021097 0.039288 -0.002779
# 6 -0.001473 -0.000024 0.002022 0.002979 -0.002779 0.026385
#
#
# Mechanical properties :
#
#
# Convention : Reuss Voigt Hill
#
# Bulk Modulus (GPa) = 23.77356 58.62585 41.19971
# Shear Modulus (GPa) = 22.21648 34.04330 28.12989
#
# Velocity S-wave (km/s) = 3.25602 4.03056 3.66382
# Velocity P-wave (km/s) = 5.04780 7.04533 6.12850
#
# Compressibility (1/GPa) = 0.04206353
#
# Stress axis : x y z
#
# Youngs Moduli (GPa) = 95.77564 56.92293 39.10746
#
# Poissons Ratio (x) = 0.01863 0.03586
# Poissons Ratio (y) = 0.03134 0.17652
# Poissons Ratio (z) = 0.08783 0.25693
#
# Static dielectric constant tensor:
#      x y z
#    x 4.300050 -0.012960 0.183710 
#    y -0.012960 4.145880 0.569580 
#    z 0.183710 0.569580 4.562360 
# 
# 
# High freq. dielectric constant tensor:
#      x y z
#    x 1.835010 -0.007770 -0.012570 
#    y -0.007770 1.834680 0.020410 
#    z -0.012570 0.020410 1.813810 
# 
# From -- ./inp_files/199921.got.cif
#   From: 2010.06.25/outbox.cif.g09.slc.cpg/sg2_100_cif.got.tgz:199921.got - 2010.06.27 13:26:56.
