data_PCOD8033580
_publ_section_title
;
Structure prediction by ZEFSAII (Michael W. Deem and Ramdas Pophale) SiO2 
 PCOD8033580
Probable space group: P -1
;
_chemical_formula_sum "Si O2"
_cell_formula_units_Z 16
_cell_length_a 25.295903
_cell_length_b 6.356219
_cell_length_c 8.881279
_cell_angle_alpha 76.981030
_cell_angle_beta 140.435725
_cell_angle_gamma 126.221993
_cell_volume 655.960171
_symmetry_space_group_name_H-M "P -1"
_symmetry_group_IT_number 2
_symmetry_cell_setting 'triclinic'
loop_
_space_group_symop_operation_xyz
x,y,z
-x,-y,-z
loop_
_atom_site_type_symbol
_atom_site_label
_atom_site_fract_x
_atom_site_fract_y
_atom_site_fract_z
Si Si1 0.123174 0.624369 0.143476
Si Si2 0.446669 0.303079 0.558600
Si Si3 0.767395 0.794094 0.850923
Si Si4 0.818695 0.165707 0.449284
Si Si5 0.316281 0.690516 0.469836
Si Si6 0.988943 0.185996 0.667104
Si Si7 0.136791 0.363222 0.693053
Si Si8 0.594339 0.531792 0.119949
O O1 0.091765 0.633036 0.247136
O O2 0.245133 0.723903 0.415933
O O3 0.136819 0.862306 0.030988
O O4 0.047001 0.316284 0.937709
O O5 0.500000 0.500000 0.500000
O O6 0.356287 0.320449 0.414177
O O7 0.386774 0.964520 0.463051
O O8 0.553735 0.446866 0.874609
O O9 0.770296 0.607972 0.765330
O O10 0.795701 0.727526 0.082456
O O11 0.781531 0.326434 0.263605
O O12 0.877935 0.138288 0.448666
O O13 0.714356 0.858295 0.340624
O O14 0.397438 0.690794 0.753103
O O15 0.071921 0.387715 0.677317
O O16 0.950276 0.874356 0.588978
O O17 0.500000 0.500000 0.000000
#
# Coordination Sequence:
#
# PCOD8033580 Si02
#       8
#     2   2   2   2   2   2   2   2
#     4  11  25  46  74 104 143 188 241 290 360 429
#     4  11  27  42  72 108 137 186 244 302 357 425
#     4  11  24  46  71 103 143 190 236 292 366 428
#     4  12  28  45  73 111 142 190 249 303 345 437
#     4  11  23  47  73  99 144 194 231 298 361 429
#     4  11  27  48  71 106 152 191 238 297 366 435
#     4  11  28  46  74 105 148 196 235 297 373 421
#     4  12  25  50  71 102 146 191 241 295 364 425
#
# _framework density 24.391724
#
# number of rings (size 3 to 8) (size 9 to 14) (size 15 to 20)
#    0.000    0.750    3.750    1.875   10.500    2.000 
#    0.000    0.000    0.000    0.000    0.000    0.000 
#    0.000    0.000    0.000    0.000    0.000    0.000 
#
# Total GULP energy -198261.785196 kJ/mol
# GULP energy per Si atom -12391.361575 kJ/mol
# Density = 2.433621 g / cm^3
# Si number density = 24.391724 Si / 1000 Ang^3
#
#
#
# Elastic Constant Matrix: (Units=GPa)
#
#
# Indices 1 2 3 4 5 6 
#
# 1 92.6229 40.7551 28.8600 -4.4788 -18.3618 -13.7047
# 2 40.7551 134.2271 44.0671 -28.3128 -3.6674 4.0326
# 3 28.8600 44.0671 94.0083 -3.5595 -13.4920 -10.4641
# 4 -4.4788 -28.3128 -3.5595 44.7992 -5.8215 -6.2672
# 5 -18.3618 -3.6674 -13.4920 -5.8215 29.3669 2.8388
# 6 -13.7047 4.0326 -10.4641 -6.2672 2.8388 31.4763
#
#
#
# Elastic Compliance Matrix: (Units=1/GPa)
#
#
# Indices 1 2 3 4 5 6 
#
# 1 0.015580 -0.004253 -0.000842 0.000792 0.008357 0.006452
# 2 -0.004253 0.011493 -0.004517 0.005751 -0.001819 -0.003516
# 3 -0.000842 -0.004517 0.014180 -0.000565 0.004890 0.004373
# 4 0.000792 0.005751 -0.000565 0.027372 0.005961 0.004332
# 5 0.008357 -0.001819 0.004890 0.005961 0.042200 0.002878
# 6 0.006452 -0.003516 0.004373 0.004332 0.002878 0.037086
#
#
# Mechanical properties :
#
#
# Convention : Reuss Voigt Hill
#
# Bulk Modulus (GPa) = 45.39142 60.91364 53.15253
# Shear Modulus (GPa) = 28.65718 34.94020 31.79869
#
# Velocity S-wave (km/s) = 3.43136 3.78889 3.61455
# Velocity P-wave (km/s) = 5.86078 6.64592 6.26566
#
# Compressibility (1/GPa) = 0.02203060
#
# Stress axis : x y z
#
# Youngs Moduli (GPa) = 64.18678 87.00813 70.52107
#
# Poissons Ratio (x) = 0.37000 0.05937
# Poissons Ratio (y) = 0.27296 0.31852
# Poissons Ratio (z) = 0.05404 0.39299
#
# Static dielectric constant tensor:
#      x y z
#    x 4.742780 -0.065100 1.004110 
#    y -0.065100 4.417140 0.270390 
#    z 1.004110 0.270390 7.346120 
# 
# 
# High freq. dielectric constant tensor:
#      x y z
#    x 1.964950 -0.011480 -0.000360 
#    y -0.011480 1.972500 -0.003330 
#    z -0.000360 -0.003330 1.972270 
# 
# From -- ./inp_files/355992.got.cif
#   From: 2010.06.25/outbox.cif.g09.slc.cpg/sg2_178_cif.got.tgz:355992.got - 2010.06.27 13:26:56.
