data_PCOD8033229
_publ_section_title
;
Structure prediction by ZEFSAII (Michael W. Deem and Ramdas Pophale) SiO2 
 PCOD8033229
Probable space group: P -1
;
_chemical_formula_sum "Si O2"
_cell_formula_units_Z 16
_cell_length_a 14.662524
_cell_length_b 9.002275
_cell_length_c 8.755588
_cell_angle_alpha 125.986837
_cell_angle_beta 83.686918
_cell_angle_gamma 64.435517
_cell_volume 731.529714
_symmetry_space_group_name_H-M "P -1"
_symmetry_group_IT_number 2
_symmetry_cell_setting 'triclinic'
loop_
_space_group_symop_operation_xyz
x,y,z
-x,-y,-z
loop_
_atom_site_type_symbol
_atom_site_label
_atom_site_fract_x
_atom_site_fract_y
_atom_site_fract_z
Si Si1 0.463199 0.413569 0.586974
Si Si2 0.886793 0.019484 0.052028
Si Si3 0.209006 0.225935 0.494842
Si Si4 0.270393 0.498241 0.480284
Si Si5 0.962214 0.527435 0.850481
Si Si6 0.277028 0.774342 0.072823
Si Si7 0.745042 0.533780 0.881954
Si Si8 0.617929 0.933487 0.370426
O O1 0.500000 0.500000 0.500000
O O2 0.382799 0.358898 0.487123
O O3 0.585664 0.182061 0.485255
O O4 0.396922 0.588732 0.847573
O O5 0.803195 0.225862 0.311596
O O6 0.830655 0.083061 0.934902
O O7 0.908805 0.786843 0.964292
O O8 0.000000 0.000000 0.000000
O O9 0.201506 0.397536 0.475188
O O10 0.270094 0.223357 0.636376
O O11 0.076001 0.332036 0.614108
O O12 0.286934 0.960345 0.262298
O O13 0.302201 0.458092 0.272129
O O14 0.871159 0.474806 0.813407
O O15 0.000000 0.500000 0.000000
O O16 0.248706 0.656437 0.132571
O O17 0.649667 0.788093 0.122497
O O18 0.500000 0.000000 0.500000
#
# Coordination Sequence:
#
# PCOD8033229 Si02
#       8
#     2   2   2   2   2   2   2   2
#     4  11  27  47  72 100 139 183 234 289 350 410
#     4  11  23  45  70  94 141 186 225 281 343 403
#     4  12  26  46  71 104 140 187 232 282 352 408
#     4  11  26  45  69 105 140 179 234 285 347 416
#     4  12  26  44  73 103 144 185 233 284 344 417
#     4  11  27  46  68 105 142 179 235 285 346 419
#     4  12  27  44  70 108 142 182 235 282 351 411
#     4  12  24  49  72  96 141 185 227 294 346 407
#
# _framework density 21.871976
#
# number of rings (size 3 to 8) (size 9 to 14) (size 15 to 20)
#    0.000    0.500    5.000    2.250   10.500    3.500 
#    0.000    0.000    0.000    0.000    0.000    0.000 
#    0.000    0.000    0.000    0.000    0.000    0.000 
#
# Total GULP energy -198436.499896 kJ/mol
# GULP energy per Si atom -12402.281243 kJ/mol
# Density = 2.182219 g / cm^3
# Si number density = 21.871976 Si / 1000 Ang^3
#
#
#
# Elastic Constant Matrix: (Units=GPa)
#
#
# Indices 1 2 3 4 5 6 
#
# 1 62.5926 9.6072 32.0845 1.1571 -14.6677 14.4236
# 2 9.6072 142.2533 56.9806 5.9302 -5.6810 16.2588
# 3 32.0845 56.9806 150.1876 -5.2279 2.7209 2.3247
# 4 1.1571 5.9302 -5.2279 38.0918 2.0627 -1.0588
# 5 -14.6677 -5.6810 2.7209 2.0627 34.2700 -0.2038
# 6 14.4236 16.2588 2.3247 -1.0588 -0.2038 41.8028
#
#
#
# Elastic Compliance Matrix: (Units=1/GPa)
#
#
# Indices 1 2 3 4 5 6 
#
# 1 0.023329 0.002391 -0.006051 -0.002746 0.010976 -0.008659
# 2 0.002391 0.009198 -0.004071 -0.002342 0.002987 -0.004221
# 3 -0.006051 -0.004071 0.009607 0.002449 -0.004156 0.003179
# 4 -0.002746 -0.002342 0.002449 0.027287 -0.003386 0.002397
# 5 0.010976 0.002987 -0.004156 -0.003386 0.034879 -0.004633
# 6 -0.008659 -0.004221 0.003179 0.002397 -0.004633 0.028413
#
#
# Mechanical properties :
#
#
# Convention : Reuss Voigt Hill
#
# Bulk Modulus (GPa) = 37.49284 61.37535 49.43409
# Shear Modulus (GPa) = 31.83375 39.92366 35.87871
#
# Velocity S-wave (km/s) = 3.81919 4.27703 4.05457
# Velocity P-wave (km/s) = 6.05206 7.24657 6.67608
#
# Compressibility (1/GPa) = 0.02667176
#
# Stress axis : x y z
#
# Youngs Moduli (GPa) = 42.86456 108.71664 104.09193
#
# Poissons Ratio (x) = -0.25992 0.62989
# Poissons Ratio (y) = -0.10248 0.42374
# Poissons Ratio (z) = 0.25939 0.44257
#
# Static dielectric constant tensor:
#      x y z
#    x 3.892950 0.280610 0.019920 
#    y 0.280610 3.887900 -0.060630 
#    z 0.019920 -0.060630 4.017900 
# 
# 
# High freq. dielectric constant tensor:
#      x y z
#    x 1.860000 0.004480 -0.004110 
#    y 0.004480 1.878250 -0.001770 
#    z -0.004110 -0.001770 1.867940 
# 
# From -- ./inp_files/208536.got.cif
#   From: 2010.06.25/outbox.cif.g09.slc.cpg/sg2_105_cif.got.tgz:208536.got - 2010.06.27 13:26:56.
