data_PCOD8033142
_publ_section_title
;
Structure prediction by ZEFSAII (Michael W. Deem and Ramdas Pophale) SiO2 
 PCOD8033142
Probable space group: P -1
;
_chemical_formula_sum "Si O2"
_cell_formula_units_Z 12
_cell_length_a 15.008662
_cell_length_b 12.229096
_cell_length_c 8.950011
_cell_angle_alpha 134.350231
_cell_angle_beta 37.637974
_cell_angle_gamma 150.788248
_cell_volume 489.406186
_symmetry_space_group_name_H-M "P -1"
_symmetry_group_IT_number 2
_symmetry_cell_setting 'triclinic'
loop_
_space_group_symop_operation_xyz
x,y,z
-x,-y,-z
loop_
_atom_site_type_symbol
_atom_site_label
_atom_site_fract_x
_atom_site_fract_y
_atom_site_fract_z
Si Si1 0.660586 0.983497 0.750540
Si Si2 0.475856 0.394693 0.243308
Si Si3 0.735694 0.088523 0.412818
Si Si4 0.897966 0.748335 0.544425
Si Si5 0.939692 0.868419 0.103807
Si Si6 0.378063 0.674755 0.293031
O O1 0.543274 0.740307 0.726355
O O2 0.742367 0.026995 0.513191
O O3 0.884885 0.171462 0.726224
O O4 0.500000 0.000000 0.000000
O O5 0.271748 0.353570 0.461509
O O6 0.686185 0.651655 0.248210
O O7 0.484776 0.319493 0.998920
O O8 0.729704 0.267647 0.597977
O O9 0.522079 0.851637 0.402184
O O10 0.938009 0.200114 0.146046
O O11 0.801400 0.572297 0.637166
O O12 0.974423 0.973506 0.716675
O O13 0.000000 0.000000 0.000000
#
# Coordination Sequence:
#
# PCOD8033142 Si02
#       6
#     2   2   2   2   2   2
#     4  12  27  46  68 104 149 187 228 286 360 422
#     4  12  25  45  73 106 145 183 230 293 357 410
#     4  11  24  45  72 110 137 185 239 289 349 418
#     4  12  26  47  74 105 141 185 239 290 346 416
#     4  12  23  43  77 104 134 185 243 287 340 416
#     4  11  23  44  77 103 141 183 240 293 343 413
#
# _framework density 24.519511999999999
#
# number of rings (size 3 to 8) (size 9 to 14) (size 15 to 20)
#    0.000    0.333    6.667    2.000    2.333    2.000 
#    3.000    0.833    0.000    0.000    0.000    0.000 
#    0.000    0.000    0.000    0.000    0.000    0.000 
#
# Total GULP energy -148796.969976 kJ/mol
# GULP energy per Si atom -12399.747498 kJ/mol
# Density = 2.446370 g / cm^3
# Si number density = 24.519512 Si / 1000 Ang^3
#
#
#
# Elastic Constant Matrix: (Units=GPa)
#
#
# Indices 1 2 3 4 5 6 
#
# 1 104.4432 75.7328 28.0781 -21.5479 -20.5957 -6.2158
# 2 75.7328 154.5072 41.6751 -21.6331 -18.8914 2.0256
# 3 28.0781 41.6751 104.5559 -16.9522 -31.4273 13.4109
# 4 -21.5479 -21.6331 -16.9522 34.4436 13.1447 -3.4151
# 5 -20.5957 -18.8914 -31.4273 13.1447 42.6166 -8.2098
# 6 -6.2158 2.0256 13.4109 -3.4151 -8.2098 43.6433
#
#
#
# Elastic Compliance Matrix: (Units=1/GPa)
#
#
# Indices 1 2 3 4 5 6 
#
# 1 0.016768 -0.007046 -0.000181 0.004790 0.004125 0.003921
# 2 -0.007046 0.010638 -0.002304 0.001434 -0.000998 -0.000865
# 3 -0.000181 -0.002304 0.013490 0.001862 0.007792 -0.002453
# 4 0.004790 0.001434 0.001862 0.036540 -0.006628 0.001656
# 5 0.004125 -0.000998 0.007792 -0.006628 0.033585 0.004038
# 6 0.003921 -0.000865 -0.002453 0.001656 0.004038 0.025154
#
#
# Mechanical properties :
#
#
# Convention : Reuss Voigt Hill
#
# Bulk Modulus (GPa) = 45.80439 72.71982 59.26210
# Shear Modulus (GPa) = 30.76638 38.67541 34.72090
#
# Velocity S-wave (km/s) = 3.54612 3.97587 3.76713
# Velocity P-wave (km/s) = 5.95718 7.12735 6.56837
#
# Compressibility (1/GPa) = 0.02183197
#
# Stress axis : x y z
#
# Youngs Moduli (GPa) = 59.63905 94.00541 74.12868
#
# Poissons Ratio (x) = 0.66240 0.01341
# Poissons Ratio (y) = 0.42024 0.17082
# Poissons Ratio (z) = 0.01079 0.21662
#
# Static dielectric constant tensor:
#      x y z
#    x 4.522440 -0.053470 -0.397740 
#    y -0.053470 4.440180 -0.240880 
#    z -0.397740 -0.240880 5.190370 
# 
# 
# High freq. dielectric constant tensor:
#      x y z
#    x 1.984140 -0.001280 -0.017320 
#    y -0.001280 1.980450 -0.013810 
#    z -0.017320 -0.013810 1.973190 
# 
# From -- ./inp_files/158140.got.cif
#   From: 2010.06.25/outbox.cif.g09.slc.cpg/sg2_80_cif.got.tgz:158140.got - 2010.06.27 13:26:56.
