data_PCOD8033400
_publ_section_title
;
Structure prediction by ZEFSAII (Michael W. Deem and Ramdas Pophale) SiO2 
 PCOD8033400
Probable space group: P -1
;
_chemical_formula_sum "Si O2"
_cell_formula_units_Z 14
_cell_length_a 8.731582
_cell_length_b 11.489989
_cell_length_c 9.023856
_cell_angle_alpha 63.285636
_cell_angle_beta 107.955376
_cell_angle_gamma 71.345447
_cell_volume 647.741512
_symmetry_space_group_name_H-M "P -1"
_symmetry_group_IT_number 2
_symmetry_cell_setting 'triclinic'
loop_
_space_group_symop_operation_xyz
x,y,z
-x,-y,-z
loop_
_atom_site_type_symbol
_atom_site_label
_atom_site_fract_x
_atom_site_fract_y
_atom_site_fract_z
Si Si1 0.658371 0.508745 0.955360
Si Si2 0.136477 0.924320 0.944634
Si Si3 0.206368 0.360758 0.683060
Si Si4 0.958807 0.799009 0.744445
Si Si5 0.465034 0.590975 0.289720
Si Si6 0.323144 0.212619 0.107178
Si Si7 0.724745 0.917510 0.313464
O O1 0.626522 0.483565 0.791526
O O2 0.614963 0.678930 0.863289
O O3 0.500000 0.500000 0.000000
O O4 0.874826 0.378071 0.142315
O O5 0.045719 0.886633 0.801275
O O6 0.201421 0.033993 0.834464
O O7 0.317905 0.773387 0.154974
O O8 0.000000 0.000000 0.000000
O O9 0.339937 0.430055 0.701339
O O10 0.279506 0.232118 0.649381
O O11 0.000000 0.500000 0.500000
O O12 0.198503 0.290227 0.878184
O O13 0.800121 0.809790 0.798053
O O14 0.863538 0.881822 0.514243
O O15 0.500000 0.500000 0.500000
O O16 0.511069 0.049631 0.217324
#
# Coordination Sequence:
#
# PCOD8033400 Si02
#       7
#     2   2   2   2   2   2   2
#     4  11  23  46  69  97 139 182 227 282 337 404
#     4  11  25  46  71 100 139 182 224 288 340 407
#     4  12  27  45  71 100 139 184 227 282 345 409
#     4  11  26  42  70 105 135 183 230 275 348 408
#     4  11  27  44  69 102 135 181 230 276 343 406
#     4  12  24  46  70 101 140 179 229 288 338 404
#     4  12  26  46  70 102 141 178 230 285 346 404
#
# _framework density 21.61356
#
# number of rings (size 3 to 8) (size 9 to 14) (size 15 to 20)
#    0.000    0.571    2.857    4.286   10.000    1.143 
#    0.000    0.000    0.000    0.000    0.000    0.000 
#    0.000    0.000    0.000    0.000    0.000    0.000 
#
# Total GULP energy -173648.840447 kJ/mol
# GULP energy per Si atom -12403.488603 kJ/mol
# Density = 2.156437 g / cm^3
# Si number density = 21.613560 Si / 1000 Ang^3
#
#
#
# Elastic Constant Matrix: (Units=GPa)
#
#
# Indices 1 2 3 4 5 6 
#
# 1 116.3662 25.3025 39.4338 -18.4131 2.1148 -20.4621
# 2 25.3025 111.0921 41.7582 -20.8427 12.7851 -7.6775
# 3 39.4338 41.7582 171.0105 -3.8642 6.8995 -16.2866
# 4 -18.4131 -20.8427 -3.8642 30.8634 -6.2007 1.7805
# 5 2.1148 12.7851 6.8995 -6.2007 39.6312 1.4566
# 6 -20.4621 -7.6775 -16.2866 1.7805 1.4566 44.0515
#
#
#
# Elastic Compliance Matrix: (Units=1/GPa)
#
#
# Indices 1 2 3 4 5 6 
#
# 1 0.010980 -0.000469 -0.001926 0.005895 0.000674 0.004046
# 2 -0.000469 0.011591 -0.002410 0.006750 -0.002265 0.000713
# 3 -0.001926 -0.002410 0.006993 -0.002126 -0.000720 0.001380
# 4 0.005895 0.006750 -0.002126 0.040985 0.004242 0.001332
# 5 0.000674 -0.002265 -0.000720 0.004242 0.026768 -0.001404
# 6 0.004046 0.000713 0.001380 0.001332 -0.001404 0.025207
#
#
# Mechanical properties :
#
#
# Convention : Reuss Voigt Hill
#
# Bulk Modulus (GPa) = 50.11770 67.93976 59.02873
# Shear Modulus (GPa) = 36.02675 42.37417 39.20046
#
# Velocity S-wave (km/s) = 4.08715 4.43260 4.26337
# Velocity P-wave (km/s) = 6.74622 7.59601 7.18369
#
# Compressibility (1/GPa) = 0.01995303
#
# Stress axis : x y z
#
# Youngs Moduli (GPa) = 91.07285 86.27658 143.00405
#
# Poissons Ratio (x) = 0.04045 0.27545
# Poissons Ratio (y) = 0.04270 0.34469
# Poissons Ratio (z) = 0.17542 0.20796
#
# Static dielectric constant tensor:
#      x y z
#    x 4.123160 0.329950 0.328550 
#    y 0.329950 4.657180 0.438470 
#    z 0.328550 0.438470 4.246820 
# 
# 
# High freq. dielectric constant tensor:
#      x y z
#    x 1.856710 0.000110 0.006240 
#    y 0.000110 1.864860 0.004120 
#    z 0.006240 0.004120 1.859320 
# 
# From -- ./inp_files/147383.got.cif
#   From: 2010.06.25/outbox.cif.g09.slc.cpg/sg2_74_cif.got.tgz:147383.got - 2010.06.27 13:26:56.
