data_PCOD8033571
_publ_section_title
;
Structure prediction by ZEFSAII (Michael W. Deem and Ramdas Pophale) SiO2 
 PCOD8033571
Probable space group: P -1
;
_chemical_formula_sum "Si O2"
_cell_formula_units_Z 12
_cell_length_a 7.879772
_cell_length_b 14.206065
_cell_length_c 11.006823
_cell_angle_alpha 34.238615
_cell_angle_beta 46.769493
_cell_angle_gamma 56.311515
_cell_volume 504.893049
_symmetry_space_group_name_H-M "P -1"
_symmetry_group_IT_number 2
_symmetry_cell_setting 'triclinic'
loop_
_space_group_symop_operation_xyz
x,y,z
-x,-y,-z
loop_
_atom_site_type_symbol
_atom_site_label
_atom_site_fract_x
_atom_site_fract_y
_atom_site_fract_z
Si Si1 0.253025 0.050933 0.113592
Si Si2 0.531520 0.664524 0.886408
Si Si3 0.290036 0.177454 0.602777
Si Si4 0.752280 0.280230 0.397222
Si Si5 0.109802 0.829889 0.031062
Si Si6 0.199359 0.360952 0.968936
O O1 0.307501 0.221576 0.979738
O O2 0.071928 0.086546 0.059628
O O3 0.153899 0.889887 0.408252
O O4 0.500000 0.000000 0.000000
O O5 0.658081 0.798138 0.591747
O O6 0.269612 0.701315 0.020259
O O7 0.695353 0.646173 0.940374
O O8 0.500000 0.500000 0.000000
O O9 0.491928 0.258074 0.499998
O O10 0.279392 0.977412 0.843184
O O11 0.043992 0.251437 0.695095
O O12 0.922602 0.320595 0.156815
O O13 0.758042 0.446529 0.304906
#
# Coordination Sequence:
#
# PCOD8033571 Si02
#       6
#     2   2   2   2   2   2
#     4  12  25  46  73 104 148 190 237 300 366 429
#     4  12  25  46  73 104 148 190 237 300 366 429
#     4  11  23  47  73 105 143 188 244 299 361 431
#     4  11  23  47  73 105 143 188 244 299 361 431
#     4  11  26  45  75 107 141 192 248 295 366 437
#     4  11  26  45  75 107 141 192 248 295 366 437
#
# _framework density 23.767409000000001
#
# number of rings (size 3 to 8) (size 9 to 14) (size 15 to 20)
#    0.000    0.667    3.333    4.000    4.667    1.333 
#    0.000    0.000    0.000    0.000    0.000    0.000 
#    0.000    0.000    0.000    0.000    0.000    0.000 
#
# Total GULP energy -148730.985623 kJ/mol
# GULP energy per Si atom -12394.248802 kJ/mol
# Density = 2.371331 g / cm^3
# Si number density = 23.767409 Si / 1000 Ang^3
#
#
#
# Elastic Constant Matrix: (Units=GPa)
#
#
# Indices 1 2 3 4 5 6 
#
# 1 50.2896 30.9349 29.3611 -0.2381 -14.1749 1.2661
# 2 30.9349 199.8048 39.0951 0.4904 -20.6078 1.9404
# 3 29.3611 39.0951 69.3689 -0.1728 -23.6306 0.2406
# 4 -0.2381 0.4904 -0.1728 51.4031 0.3273 -11.4169
# 5 -14.1749 -20.6078 -23.6306 0.3273 42.1451 -0.4062
# 6 1.2661 1.9404 0.2406 -11.4169 -0.4062 37.4065
#
#
#
# Elastic Compliance Matrix: (Units=1/GPa)
#
#
# Indices 1 2 3 4 5 6 
#
# 1 0.027555 -0.002103 -0.009482 -0.000070 0.002916 -0.000752
# 2 -0.002103 0.005839 -0.002063 -0.000134 0.000990 -0.000249
# 3 -0.009482 -0.002063 0.022450 0.000087 0.008393 0.000401
# 4 -0.000070 -0.000134 0.000087 0.020873 -0.000141 0.006378
# 5 0.002916 0.000990 0.008393 -0.000141 0.029900 0.000078
# 6 -0.000752 -0.000249 0.000401 0.006378 0.000078 0.028717
#
#
# Mechanical properties :
#
#
# Convention : Reuss Voigt Hill
#
# Bulk Modulus (GPa) = 35.02881 57.58282 46.30581
# Shear Modulus (GPa) = 29.04548 40.86242 34.95395
#
# Velocity S-wave (km/s) = 3.49961 4.15090 3.83909
# Velocity P-wave (km/s) = 5.57672 6.87412 6.25913
#
# Compressibility (1/GPa) = 0.02854793
#
# Stress axis : x y z
#
# Youngs Moduli (GPa) = 36.29135 171.26442 44.54432
#
# Poissons Ratio (x) = 0.36010 0.42237
# Poissons Ratio (y) = 0.07631 0.09190
# Poissons Ratio (z) = 0.34411 0.35333
#
# Static dielectric constant tensor:
#      x y z
#    x 4.348440 0.029760 0.133640 
#    y 0.029760 5.455900 -0.004530 
#    z 0.133640 -0.004530 5.350130 
# 
# 
# High freq. dielectric constant tensor:
#      x y z
#    x 1.939290 0.000030 -0.020070 
#    y 0.000030 1.948790 0.000500 
#    z -0.020070 0.000500 1.947580 
# 
# From -- ./inp_files/244595.got.cif
#   From: 2010.06.25/outbox.cif.g09.slc.cpg/sg2_123_cif.got.tgz:244595.got - 2010.06.27 13:26:56.
