data_PCOD8033128
_publ_section_title
;
Structure prediction by ZEFSAII (Michael W. Deem and Ramdas Pophale) SiO2 
 PCOD8033128
Probable space group: P -1
;
_chemical_formula_sum "Si O2"
_cell_formula_units_Z 16
_cell_length_a 10.775890
_cell_length_b 15.872579
_cell_length_c 18.125095
_cell_angle_alpha 156.787316
_cell_angle_beta 37.049030
_cell_angle_gamma 144.165960
_cell_volume 696.201714
_symmetry_space_group_name_H-M "P -1"
_symmetry_group_IT_number 2
_symmetry_cell_setting 'triclinic'
loop_
_space_group_symop_operation_xyz
x,y,z
-x,-y,-z
loop_
_atom_site_type_symbol
_atom_site_label
_atom_site_fract_x
_atom_site_fract_y
_atom_site_fract_z
Si Si1 0.492979 0.053386 0.344486
Si Si2 0.959949 0.752031 0.538394
Si Si3 0.254927 0.388313 0.725487
Si Si4 0.711937 0.368023 0.617157
Si Si5 0.594808 0.830223 0.861210
Si Si6 0.221696 0.122228 0.036248
Si Si7 0.890346 0.358061 0.768051
Si Si8 0.250518 0.266685 0.798785
O O1 0.372979 0.218677 0.499543
O O2 0.682916 0.195135 0.423557
O O3 0.321445 0.859755 0.318117
O O4 0.583835 0.936331 0.143102
O O5 0.068845 0.620878 0.436900
O O6 0.947183 0.626941 0.365479
O O7 0.717062 0.720932 0.656001
O O8 0.097052 0.014422 0.680442
O O9 0.391413 0.643645 0.845017
O O10 0.228942 0.357888 0.800860
O O11 0.013282 0.328026 0.759645
O O12 0.732390 0.611051 0.770380
O O13 0.503781 0.286156 0.705357
O O14 0.768291 0.950288 0.941001
O O15 0.500000 0.000000 0.000000
O O16 0.000000 0.000000 0.000000
O O17 0.819268 0.581301 0.985456
#
# Coordination Sequence:
#
# PCOD8033128 Si02
#       8
#     2   2   2   2   2   2   2   2
#     4  11  23  44  76 102 135 190 250 290 347 427
#     4  12  28  43  72 108 149 186 237 303 363 427
#     4  11  24  46  73  98 146 191 243 291 355 437
#     4  11  24  48  71 106 143 186 239 299 358 422
#     4  12  28  51  71 107 152 190 233 310 370 421
#     4  12  27  48  78 106 142 198 246 292 359 444
#     4  12  24  41  73 109 138 192 240 295 357 431
#     4  11  23  47  69 103 143 186 239 295 356 419
#
# _framework density 22.981843999999999
#
# number of rings (size 3 to 8) (size 9 to 14) (size 15 to 20)
#    0.000    0.500    6.250    2.625    3.500    5.000 
#    0.000    0.000    0.000    0.000    0.000    0.000 
#    0.000    0.000    0.000    0.000    0.000    0.000 
#
# Total GULP energy -198454.339034 kJ/mol
# GULP energy per Si atom -12403.396190 kJ/mol
# Density = 2.292954 g / cm^3
# Si number density = 22.981844 Si / 1000 Ang^3
#
#
#
# Elastic Constant Matrix: (Units=GPa)
#
#
# Indices 1 2 3 4 5 6 
#
# 1 91.2608 18.4466 49.8369 -0.4380 -6.5172 -2.6255
# 2 18.4466 56.1007 19.2417 0.0468 9.1150 -8.3749
# 3 49.8369 19.2417 136.4681 -10.2598 2.2798 -13.8907
# 4 -0.4380 0.0468 -10.2598 44.2676 -3.0474 0.9079
# 5 -6.5172 9.1150 2.2798 -3.0474 37.4597 -0.1077
# 6 -2.6255 -8.3749 -13.8907 0.9079 -0.1077 31.4792
#
#
#
# Elastic Compliance Matrix: (Units=1/GPa)
#
#
# Indices 1 2 3 4 5 6 
#
# 1 0.014802 -0.004022 -0.005170 -0.000743 0.003802 -0.002082
# 2 -0.004022 0.021160 -0.000982 -0.000791 -0.005839 0.004864
# 3 -0.005170 -0.000982 0.009897 0.002095 -0.001082 0.003611
# 4 -0.000743 -0.000791 0.002095 0.023195 0.001823 -0.000011
# 5 0.003802 -0.005839 -0.001082 0.001823 0.028987 -0.001667
# 6 -0.002082 0.004864 0.003611 -0.000011 -0.001667 0.034475
#
#
# Mechanical properties :
#
#
# Convention : Reuss Voigt Hill
#
# Bulk Modulus (GPa) = 39.19684 50.98667 45.09175
# Shear Modulus (GPa) = 30.98548 35.72824 33.35686
#
# Velocity S-wave (km/s) = 3.67585 3.94716 3.81392
# Velocity P-wave (km/s) = 5.92523 6.55799 6.24962
#
# Compressibility (1/GPa) = 0.02551226
#
# Stress axis : x y z
#
# Youngs Moduli (GPa) = 67.55967 47.25979 101.03878
#
# Poissons Ratio (x) = 0.19007 0.52234
# Poissons Ratio (y) = 0.27171 0.09918
# Poissons Ratio (z) = 0.34926 0.04639
#
# Static dielectric constant tensor:
#      x y z
#    x 4.185090 0.090100 -0.059000 
#    y 0.090100 4.105180 -0.135340 
#    z -0.059000 -0.135340 4.423030 
# 
# 
# High freq. dielectric constant tensor:
#      x y z
#    x 1.902750 0.003750 -0.003230 
#    y 0.003750 1.901850 -0.003450 
#    z -0.003230 -0.003450 1.926450 
# 
# From -- ./inp_files/570776.got.cif
#   From: 2010.06.25/outbox.cif.g09.slc.cpg/sg2_286_cif.got.tgz:570776.got - 2010.06.27 13:26:56.
