data_PCOD8033416
_publ_section_title
;
Structure prediction by ZEFSAII (Michael W. Deem and Ramdas Pophale) SiO2 
 PCOD8033416
Probable space group: P -1
;
_chemical_formula_sum "Si O2"
_cell_formula_units_Z 14
_cell_length_a 8.923686
_cell_length_b 11.350666
_cell_length_c 11.034662
_cell_angle_alpha 47.657402
_cell_angle_beta 113.021491
_cell_angle_gamma 138.014877
_cell_volume 538.879251
_symmetry_space_group_name_H-M "P -1"
_symmetry_group_IT_number 2
_symmetry_cell_setting 'triclinic'
loop_
_space_group_symop_operation_xyz
x,y,z
-x,-y,-z
loop_
_atom_site_type_symbol
_atom_site_label
_atom_site_fract_x
_atom_site_fract_y
_atom_site_fract_z
Si Si1 0.996192 0.517003 0.831241
Si Si2 0.487029 0.240574 0.856807
Si Si3 0.498621 0.390686 0.407496
Si Si4 0.632067 0.445804 0.142534
Si Si5 0.049840 0.387965 0.507869
Si Si6 0.665815 0.976521 0.798636
Si Si7 0.687616 0.021388 0.254383
O O1 0.112318 0.419602 0.922715
O O2 0.044452 0.644494 0.633627
O O3 0.721299 0.299169 0.913992
O O4 0.106741 0.705151 0.844943
O O5 0.580902 0.482738 0.689724
O O6 0.317525 0.048752 0.836040
O O7 0.339929 0.142012 0.003192
O O8 0.632764 0.464120 0.273203
O O9 0.290989 0.119906 0.551363
O O10 0.684069 0.478050 0.510729
O O11 0.496098 0.192449 0.243581
O O12 0.500000 0.500000 0.000000
O O13 0.000000 0.500000 0.500000
O O14 0.916681 0.151542 0.696797
O O15 0.566965 0.081456 0.732273
#
# Coordination Sequence:
#
# PCOD8033416 Si02
#       7
#     2   2   2   2   2   2   2
#     4  11  25  46  80 102 143 199 240 291 369 434
#     4  12  26  48  69 109 155 185 236 305 366 424
#     4  12  24  45  73 106 148 187 245 307 348 431
#     4  11  23  46  70 107 143 184 244 305 354 427
#     4  12  22  44  77 105 138 195 246 293 363 428
#     4  11  24  45  70 106 142 189 244 296 360 429
#     4  11  24  44  73 104 142 194 244 289 354 442
#
# _framework density 25.979845999999998
#
# number of rings (size 3 to 8) (size 9 to 14) (size 15 to 20)
#    0.000    0.571    5.714    1.714    0.000    5.714 
#    5.143    0.000    0.000    0.000    0.000    0.000 
#    0.000    0.000    0.000    0.000    0.000    0.000 
#
# Total GULP energy -173525.702283 kJ/mol
# GULP energy per Si atom -12394.693020 kJ/mol
# Density = 2.592071 g / cm^3
# Si number density = 25.979846 Si / 1000 Ang^3
#
#
#
# Elastic Constant Matrix: (Units=GPa)
#
#
# Indices 1 2 3 4 5 6 
#
# 1 79.9209 20.0269 17.2810 12.9340 3.0367 -2.7301
# 2 20.0269 78.6354 15.8252 17.9204 -11.6194 -12.6386
# 3 17.2810 15.8252 82.1750 11.0028 6.9082 0.7876
# 4 12.9340 17.9204 11.0028 45.9569 -2.2648 -6.2504
# 5 3.0367 -11.6194 6.9082 -2.2648 47.9210 2.0108
# 6 -2.7301 -12.6386 0.7876 -6.2504 2.0108 43.1437
#
#
#
# Elastic Compliance Matrix: (Units=1/GPa)
#
#
# Indices 1 2 3 4 5 6 
#
# 1 0.014104 -0.002876 -0.001959 -0.002477 -0.001417 -0.000207
# 2 -0.002876 0.016075 -0.002307 -0.004194 0.004056 0.003773
# 3 -0.001959 -0.002307 0.013519 -0.002073 -0.002430 -0.001234
# 4 -0.002477 -0.004194 -0.002073 0.024918 0.000523 0.002238
# 5 -0.001417 0.004056 -0.002430 0.000523 0.022308 0.000179
# 6 -0.000207 0.003773 -0.001234 0.002238 0.000179 0.024609
#
#
# Mechanical properties :
#
#
# Convention : Reuss Voigt Hill
#
# Bulk Modulus (GPa) = 33.99682 38.55527 36.27605
# Shear Modulus (GPa) = 35.81075 39.91087 37.86081
#
# Velocity S-wave (km/s) = 3.71672 3.92372 3.82162
# Velocity P-wave (km/s) = 5.61541 5.94980 5.78502
#
# Compressibility (1/GPa) = 0.02941452
#
# Stress axis : x y z
#
# Youngs Moduli (GPa) = 70.90009 62.20878 73.96918
#
# Poissons Ratio (x) = 0.17891 0.14494
# Poissons Ratio (y) = 0.20391 0.17061
# Poissons Ratio (z) = 0.13893 0.14349
#
# Static dielectric constant tensor:
#      x y z
#    x 5.045140 0.036840 -0.324730 
#    y 0.036840 4.819340 -0.111470 
#    z -0.324730 -0.111470 5.279510 
# 
# 
# High freq. dielectric constant tensor:
#      x y z
#    x 2.029890 -0.018330 -0.011970 
#    y -0.018330 2.032300 0.006330 
#    z -0.011970 0.006330 2.059920 
# 
# From -- ./inp_files/392203.got.cif
#   From: 2010.06.25/outbox.cif.g09.slc.cpg/sg2_197_cif.got.tgz:392203.got - 2010.06.27 13:26:56.
