data_PCOD8033878
_publ_section_title
;
Structure prediction by ZEFSAII (Michael W. Deem and Ramdas Pophale) SiO2 
 PCOD8033878
Probable space group: P -1
;
_chemical_formula_sum "Si O2"
_cell_formula_units_Z 16
_cell_length_a 10.372165
_cell_length_b 9.299444
_cell_length_c 11.942952
_cell_angle_alpha 53.462738
_cell_angle_beta 128.225325
_cell_angle_gamma 103.057435
_cell_volume 708.351967
_symmetry_space_group_name_H-M "P -1"
_symmetry_group_IT_number 2
_symmetry_cell_setting 'triclinic'
loop_
_space_group_symop_operation_xyz
x,y,z
-x,-y,-z
loop_
_atom_site_type_symbol
_atom_site_label
_atom_site_fract_x
_atom_site_fract_y
_atom_site_fract_z
Si Si1 0.800492 0.553962 0.852505
Si Si2 0.643902 0.887026 0.203999
Si Si3 0.687457 0.952306 0.581163
Si Si4 0.587353 0.335144 0.699883
Si Si5 0.351850 0.806822 0.763767
Si Si6 0.850149 0.097520 0.795882
Si Si7 0.717602 0.568352 0.053850
Si Si8 0.062294 0.326684 0.690418
O O1 0.743189 0.742674 0.661505
O O2 0.722835 0.394747 0.828493
O O3 0.720051 0.597501 0.910186
O O4 0.000000 0.500000 0.000000
O O5 0.565821 0.727119 0.290991
O O6 0.803715 0.814772 0.245022
O O7 0.701541 0.022208 0.260706
O O8 0.500000 0.000000 0.000000
O O9 0.500000 0.000000 0.500000
O O10 0.700031 0.106741 0.425629
O O11 0.807171 0.952933 0.752311
O O12 0.500000 0.500000 0.500000
O O13 0.687110 0.172521 0.750220
O O14 0.250402 0.648907 0.801484
O O15 0.544098 0.700956 0.938751
O O16 0.900137 0.253208 0.673531
O O17 0.000000 0.000000 0.000000
O O18 0.863624 0.631476 0.169984
O O19 0.000000 0.500000 0.500000
#
# Coordination Sequence:
#
# PCOD8033878 Si02
#       8
#     2   2   2   2   2   2   2   2
#     4  12  26  45  68 102 144 182 225 289 358 410
#     4  12  24  44  70 104 135 182 240 285 338 417
#     4  12  24  44  73 101 134 186 242 280 335 425
#     4  12  26  44  70 103 137 180 235 285 336 412
#     4  11  24  42  71 101 134 179 238 291 333 408
#     4  12  26  46  69 102 141 184 224 286 357 409
#     4  11  24  44  69  98 139 183 229 285 355 407
#     4  12  26  45  70 102 145 184 226 288 359 417
#
# _framework density 22.587641999999999
#
# number of rings (size 3 to 8) (size 9 to 14) (size 15 to 20)
#    0.000    0.250    2.500    7.500    1.750    2.000 
#    0.000    1.875    0.000    0.000    0.000    0.000 
#    0.000    0.000    0.000    0.000    0.000    0.000 
#
# Total GULP energy -198407.959414 kJ/mol
# GULP energy per Si atom -12400.497463 kJ/mol
# Density = 2.253623 g / cm^3
# Si number density = 22.587642 Si / 1000 Ang^3
#
#
#
# Elastic Constant Matrix: (Units=GPa)
#
#
# Indices 1 2 3 4 5 6 
#
# 1 69.9911 15.3303 -2.7598 -0.9949 -9.2240 3.0839
# 2 15.3303 117.2312 12.8681 7.0075 -7.3357 -1.5819
# 3 -2.7598 12.8681 100.9922 -8.2278 -13.3930 -6.5329
# 4 -0.9949 7.0075 -8.2278 47.4667 2.0300 -6.1001
# 5 -9.2240 -7.3357 -13.3930 2.0300 39.5933 -5.4790
# 6 3.0839 -1.5819 -6.5329 -6.1001 -5.4790 32.3174
#
#
#
# Elastic Compliance Matrix: (Units=1/GPa)
#
#
# Indices 1 2 3 4 5 6 
#
# 1 0.015250 -0.001945 0.001129 0.000574 0.003458 -0.000628
# 2 -0.001945 0.009074 -0.001199 -0.001597 0.000938 0.000245
# 3 0.001129 -0.001199 0.011026 0.002348 0.004093 0.003200
# 4 0.000574 -0.001597 0.002348 0.022305 0.000121 0.004572
# 5 0.003458 0.000938 0.004093 0.000121 0.028358 0.005374
# 6 -0.000628 0.000245 0.003200 0.004572 0.005374 0.033436
#
#
# Mechanical properties :
#
#
# Convention : Reuss Voigt Hill
#
# Bulk Modulus (GPa) = 31.92761 37.67685 34.80223
# Shear Modulus (GPa) = 37.33646 41.39386 39.36516
#
# Velocity S-wave (km/s) = 4.07007 4.28552 4.17918
# Velocity P-wave (km/s) = 6.02105 6.41904 6.22322
#
# Compressibility (1/GPa) = 0.03132085
#
# Stress axis : x y z
#
# Youngs Moduli (GPa) = 65.57585 110.21078 90.69069
#
# Poissons Ratio (x) = 0.21431 -0.10241
# Poissons Ratio (y) = 0.12751 0.10874
# Poissons Ratio (z) = -0.07405 0.13215
#
# Static dielectric constant tensor:
#      x y z
#    x 4.314180 0.229880 -0.136770 
#    y 0.229880 3.275050 -0.307850 
#    z -0.136770 -0.307850 4.400320 
# 
# 
# High freq. dielectric constant tensor:
#      x y z
#    x 1.888770 0.003760 -0.008520 
#    y 0.003760 1.906460 -0.001430 
#    z -0.008520 -0.001430 1.907290 
# 
# From -- ./inp_files/419221.got.cif
#   From: 2010.06.25/outbox.cif.g09.slc.cpg/sg2_210_cif.got.tgz:419221.got - 2010.06.27 13:26:56.
