data_PCOD8033915
_publ_section_title
;
Structure prediction by ZEFSAII (Michael W. Deem and Ramdas Pophale) SiO2 
 PCOD8033915
Probable space group: P -1
;
_chemical_formula_sum "Si O2"
_cell_formula_units_Z 10
_cell_length_a 12.816531
_cell_length_b 9.771985
_cell_length_c 20.693935
_cell_angle_alpha 149.117144
_cell_angle_beta 22.745124
_cell_angle_gamma 133.902718
_cell_volume 447.191800
_symmetry_space_group_name_H-M "P -1"
_symmetry_group_IT_number 2
_symmetry_cell_setting 'triclinic'
loop_
_space_group_symop_operation_xyz
x,y,z
-x,-y,-z
loop_
_atom_site_type_symbol
_atom_site_label
_atom_site_fract_x
_atom_site_fract_y
_atom_site_fract_z
Si Si1 0.812415 0.566170 0.068132
Si Si2 0.682968 0.627567 0.907076
Si Si3 0.654088 0.646467 0.781876
Si Si4 0.409840 0.231437 0.515828
Si Si5 0.391331 0.273406 0.394047
O O1 0.536463 0.487138 0.201499
O O2 0.657790 0.925708 0.286559
O O3 0.000000 0.500000 0.000000
O O4 0.053573 0.347602 0.786761
O O5 0.653188 0.566789 0.824883
O O6 0.030909 0.444458 0.657274
O O7 0.500000 0.500000 0.000000
O O8 0.556978 0.985504 0.135478
O O9 0.000000 0.500000 0.500000
O O10 0.500000 0.000000 0.000000
O O11 0.457897 0.158157 0.382946
O O12 0.474041 0.503984 0.609318
#
# Coordination Sequence:
#
# PCOD8033915 Si02
#       5
#     2   2   2   2   2
#     4  12  27  46  73  99 145 192 239 284 352 428
#     4  12  25  44  73 102 144 186 241 288 363 421
#     4  12  28  47  72 106 146 186 238 294 358 427
#     4  11  24  45  70 105 141 179 243 291 353 414
#     4  11  24  42  74 103 138 182 233 302 348 420
#
# _framework density 22.361771000000001
#
# number of rings (size 3 to 8) (size 9 to 14) (size 15 to 20)
#    0.000    0.400    0.000    8.400    8.400    3.200 
#    0.000    0.000    0.000    0.000    0.000    0.000 
#    0.000    0.000    0.000    0.000    0.000    0.000 
#
# Total GULP energy -124082.701762 kJ/mol
# GULP energy per Si atom -12408.270176 kJ/mol
# Density = 2.231087 g / cm^3
# Si number density = 22.361771 Si / 1000 Ang^3
#
#
#
# Elastic Constant Matrix: (Units=GPa)
#
#
# Indices 1 2 3 4 5 6 
#
# 1 130.7519 73.2274 47.6173 0.0991 -14.8175 2.7564
# 2 73.2274 121.6360 61.5887 -2.6069 -17.5259 -3.0430
# 3 47.6173 61.5887 178.4733 1.3036 -12.4339 -1.2614
# 4 0.0991 -2.6069 1.3036 54.8570 -2.2671 -4.5990
# 5 -14.8175 -17.5259 -12.4339 -2.2671 45.9626 -1.6841
# 6 2.7564 -3.0430 -1.2614 -4.5990 -1.6841 39.8829
#
#
#
# Elastic Compliance Matrix: (Units=1/GPa)
#
#
# Indices 1 2 3 4 5 6 
#
# 1 0.011764 -0.006571 -0.000808 -0.000385 0.001000 -0.001342
# 2 -0.006571 0.014092 -0.002926 0.000997 0.002574 0.001660
# 3 -0.000808 -0.002926 0.006863 -0.000278 0.000468 0.000037
# 4 -0.000385 0.000997 -0.000278 0.018524 0.001178 0.002280
# 5 0.001000 0.002574 0.000468 0.001178 0.023292 0.001261
# 6 -0.001342 0.001660 0.000037 0.002280 0.001261 0.025610
#
#
# Mechanical properties :
#
#
# Convention : Reuss Voigt Hill
#
# Bulk Modulus (GPa) = 82.57949 88.41422 85.49685
# Shear Modulus (GPa) = 40.06645 44.70235 42.38440
#
# Velocity S-wave (km/s) = 4.23749 4.47593 4.35834
# Velocity P-wave (km/s) = 7.80710 8.14468 7.97767
#
# Compressibility (1/GPa) = 0.01210955
#
# Stress axis : x y z
#
# Youngs Moduli (GPa) = 85.00247 70.96018 145.69991
#
# Poissons Ratio (x) = 0.46627 0.11776
# Poissons Ratio (y) = 0.55854 0.42635
# Poissons Ratio (z) = 0.06870 0.20765
#
# Static dielectric constant tensor:
#      x y z
#    x 4.275650 -0.026110 0.022220 
#    y -0.026110 3.935280 0.048840 
#    z 0.022220 0.048840 4.213420 
# 
# 
# High freq. dielectric constant tensor:
#      x y z
#    x 1.890670 -0.002810 -0.005590 
#    y -0.002810 1.897240 -0.000450 
#    z -0.005590 -0.000450 1.903450 
# 
# From -- ./inp_files/16521.got.cif
#   From: 2010.06.25/outbox.cif.g09.slc.cpg/sg2_9_cif.got.tgz:16521.got - 2010.06.27 13:26:56.
