data_PCOD8033487
_publ_section_title
;
Structure prediction by ZEFSAII (Michael W. Deem and Ramdas Pophale) SiO2 
 PCOD8033487
Probable space group: P -1
;
_chemical_formula_sum "Si O2"
_cell_formula_units_Z 14
_cell_length_a 11.841422
_cell_length_b 7.798967
_cell_length_c 8.990609
_cell_angle_alpha 50.127195
_cell_angle_beta 111.029066
_cell_angle_gamma 106.735971
_cell_volume 592.835740
_symmetry_space_group_name_H-M "P -1"
_symmetry_group_IT_number 2
_symmetry_cell_setting 'triclinic'
loop_
_space_group_symop_operation_xyz
x,y,z
-x,-y,-z
loop_
_atom_site_type_symbol
_atom_site_label
_atom_site_fract_x
_atom_site_fract_y
_atom_site_fract_z
Si Si1 0.178403 0.621857 0.112284
Si Si2 0.115593 0.437956 0.499408
Si Si3 0.354303 0.022097 0.096627
Si Si4 0.561043 0.789011 0.476871
Si Si5 0.233200 0.170675 0.241666
Si Si6 0.023539 0.963982 0.702064
Si Si7 0.374620 0.424200 0.669348
O O1 0.105751 0.511256 0.281612
O O2 0.228986 0.431956 0.137860
O O3 0.287772 0.799070 0.116603
O O4 0.081698 0.737063 0.899656
O O5 0.245372 0.530894 0.578292
O O6 0.000000 0.500000 0.500000
O O7 0.117845 0.171027 0.675467
O O8 0.266064 0.138300 0.103702
O O9 0.477502 0.962903 0.266369
O O10 0.398240 0.205285 0.894512
O O11 0.662900 0.924087 0.551319
O O12 0.480703 0.617330 0.642037
O O13 0.628846 0.643778 0.468892
O O14 0.105456 0.026890 0.281907
O O15 0.000000 0.000000 0.500000
#
# Coordination Sequence:
#
# PCOD8033487 Si02
#       7
#     2   2   2   2   2   2   2
#     4  12  25  49  73 105 152 192 237 304 366 432
#     4  12  25  44  76 109 143 188 244 302 361 433
#     4  12  26  45  76 108 139 194 246 299 360 430
#     4  11  23  49  71 102 151 190 242 299 358 432
#     4  12  27  47  71 110 149 187 246 302 359 437
#     4  12  26  46  71 105 145 195 238 294 373 430
#     4  11  23  46  74 108 142 192 246 293 369 430
#
# _framework density 23.615307999999999
#
# number of rings (size 3 to 8) (size 9 to 14) (size 15 to 20)
#    0.000    0.286    5.714    3.000    2.000    1.714 
#    0.000    0.000    0.000    0.000    0.000    0.000 
#    0.000    0.000    0.000    0.000    0.000    0.000 
#
# Total GULP energy -173620.573705 kJ/mol
# GULP energy per Si atom -12401.469550 kJ/mol
# Density = 2.356156 g / cm^3
# Si number density = 23.615308 Si / 1000 Ang^3
#
#
#
# Elastic Constant Matrix: (Units=GPa)
#
#
# Indices 1 2 3 4 5 6 
#
# 1 122.4323 14.8272 43.5387 -5.4201 10.4430 7.6927
# 2 14.8272 48.7525 32.5556 -1.6411 -2.1315 1.4593
# 3 43.5387 32.5556 132.5532 -25.0311 4.6176 14.2293
# 4 -5.4201 -1.6411 -25.0311 28.9589 3.3495 1.7489
# 5 10.4430 -2.1315 4.6176 3.3495 30.6429 3.9744
# 6 7.6927 1.4593 14.2293 1.7489 3.9744 41.3725
#
#
#
# Elastic Compliance Matrix: (Units=1/GPa)
#
#
# Indices 1 2 3 4 5 6 
#
# 1 0.009548 -0.001187 -0.002749 -0.000299 -0.002824 -0.000504
# 2 -0.001187 0.025653 -0.007276 -0.005585 0.003675 0.001701
# 3 -0.002749 -0.007276 0.012712 0.010540 -0.002138 -0.003844
# 4 -0.000299 -0.005585 0.010540 0.044258 -0.006109 -0.004656
# 5 -0.002824 0.003675 -0.002138 -0.006109 0.035099 -0.001983
# 6 -0.000504 0.001701 -0.003844 -0.004656 -0.001983 0.025914
#
#
# Mechanical properties :
#
#
# Convention : Reuss Voigt Hill
#
# Bulk Modulus (GPa) = 39.23143 53.95347 46.59245
# Shear Modulus (GPa) = 27.15861 34.38264 30.77063
#
# Velocity S-wave (km/s) = 3.39491 3.81983 3.61362
# Velocity P-wave (km/s) = 5.65827 6.50778 6.09783
#
# Compressibility (1/GPa) = 0.02548977
#
# Stress axis : x y z
#
# Youngs Moduli (GPa) = 104.73019 38.98143 78.66849
#
# Poissons Ratio (x) = 0.04627 0.21624
# Poissons Ratio (y) = 0.12431 0.57240
# Poissons Ratio (z) = 0.28787 0.28363
#
# Static dielectric constant tensor:
#      x y z
#    x 4.852100 0.847910 -0.451710 
#    y 0.847910 5.440770 -0.851500 
#    z -0.451710 -0.851500 4.711150 
# 
# 
# High freq. dielectric constant tensor:
#      x y z
#    x 1.953390 0.011320 0.006280 
#    y 0.011320 1.923780 -0.008340 
#    z 0.006280 -0.008340 1.940960 
# 
# From -- ./inp_files/236891.got.cif
#   From: 2010.06.25/outbox.cif.g09.slc.cpg/sg2_119_cif.got.tgz:236891.got - 2010.06.27 13:26:56.
