data_PCOD8033827
_publ_section_title
;
Structure prediction by ZEFSAII (Michael W. Deem and Ramdas Pophale) SiO2 
 PCOD8033827
Probable space group: P -1
;
_chemical_formula_sum "Si O2"
_cell_formula_units_Z 14
_cell_length_a 6.597080
_cell_length_b 8.721728
_cell_length_c 13.608434
_cell_angle_alpha 87.605056
_cell_angle_beta 81.014398
_cell_angle_gamma 51.281365
_cell_volume 601.831374
_symmetry_space_group_name_H-M "P -1"
_symmetry_group_IT_number 2
_symmetry_cell_setting 'triclinic'
loop_
_space_group_symop_operation_xyz
x,y,z
-x,-y,-z
loop_
_atom_site_type_symbol
_atom_site_label
_atom_site_fract_x
_atom_site_fract_y
_atom_site_fract_z
Si Si1 0.349584 0.415657 0.487242
Si Si2 0.926535 0.460326 0.147217
Si Si3 0.377516 0.458406 0.098284
Si Si4 0.248648 0.931275 0.417152
Si Si5 0.078991 0.879226 0.898266
Si Si6 0.144931 0.316706 0.353481
Si Si7 0.676396 0.235463 0.784922
O O1 0.500000 0.500000 0.500000
O O2 0.490225 0.204658 0.533974
O O3 0.341100 0.364036 0.373512
O O4 0.065913 0.579311 0.547287
O O5 0.626946 0.665636 0.165401
O O6 0.129111 0.478933 0.075592
O O7 0.946776 0.292502 0.090993
O O8 0.031796 0.397483 0.252382
O O9 0.265322 0.620252 0.187517
O O10 0.604382 0.240243 0.133915
O O11 0.500000 0.500000 0.000000
O O12 0.274840 0.790544 0.333714
O O13 0.259571 0.091018 0.358845
O O14 0.000000 0.000000 0.500000
O O15 0.895013 0.021674 0.821085
O O16 0.000000 0.000000 0.000000
#
# Coordination Sequence:
#
# PCOD8033827 Si02
#       7
#     2   2   2   2   2   2   2
#     4  11  24  42  68  97 144 181 233 291 345 404
#     4  11  26  44  75 101 146 189 235 293 360 425
#     4  11  26  48  71 106 141 183 236 296 365 425
#     4  12  24  43  71 104 142 186 233 291 346 414
#     4  11  24  48  72 107 140 181 241 296 357 432
#     4  11  24  43  66 101 135 188 235 282 348 420
#     4  11  25  46  70 104 149 184 243 291 355 428
#
# _framework density 23.262329999999999
#
# number of rings (size 3 to 8) (size 9 to 14) (size 15 to 20)
#    0.000    0.857    5.714    0.429    2.000    5.143 
#    2.571    0.000    0.000    0.000    0.000    0.000 
#    0.000    0.000    0.000    0.000    0.000    0.000 
#
# Total GULP energy -173460.247523 kJ/mol
# GULP energy per Si atom -12390.017680 kJ/mol
# Density = 2.320938 g / cm^3
# Si number density = 23.262330 Si / 1000 Ang^3
#
#
#
# Elastic Constant Matrix: (Units=GPa)
#
#
# Indices 1 2 3 4 5 6 
#
# 1 123.2561 29.4049 22.9524 13.0330 20.3391 -3.7873
# 2 29.4049 129.0601 15.5222 1.3021 7.7559 -18.6459
# 3 22.9524 15.5222 81.0037 18.3051 19.4281 4.5165
# 4 13.0330 1.3021 18.3051 49.6189 1.0745 13.1738
# 5 20.3391 7.7559 19.4281 1.0745 39.0891 2.1710
# 6 -3.7873 -18.6459 4.5165 13.1738 2.1710 35.1163
#
#
#
# Elastic Compliance Matrix: (Units=1/GPa)
#
#
# Indices 1 2 3 4 5 6 
#
# 1 0.009679 -0.001593 -0.000942 -0.002461 -0.004268 0.001506
# 2 -0.001593 0.009041 -0.001265 -0.000690 -0.000600 0.005088
# 3 -0.000942 -0.001265 0.015723 -0.005266 -0.006907 -0.000393
# 4 -0.002461 -0.000690 -0.005266 0.025242 0.003877 -0.009664
# 5 -0.004268 -0.000600 -0.006907 0.003877 0.031432 -0.003288
# 6 0.001506 0.005088 -0.000393 -0.009664 -0.003288 0.035220
#
#
# Mechanical properties :
#
#
# Convention : Reuss Voigt Hill
#
# Bulk Modulus (GPa) = 37.25196 52.11988 44.68592
# Shear Modulus (GPa) = 34.99313 42.46090 38.72701
#
# Velocity S-wave (km/s) = 3.88272 4.27700 4.08462
# Velocity P-wave (km/s) = 6.01243 6.84428 6.44179
#
# Compressibility (1/GPa) = 0.02684423
#
# Stress axis : x y z
#
# Youngs Moduli (GPa) = 103.31210 110.60121 63.60181
#
# Poissons Ratio (x) = 0.17621 0.05988
# Poissons Ratio (y) = 0.16459 0.08046
# Poissons Ratio (z) = 0.09727 0.13991
#
# Static dielectric constant tensor:
#      x y z
#    x 3.810310 -0.194030 0.246400 
#    y -0.194030 4.723520 -0.055040 
#    z 0.246400 -0.055040 4.105280 
# 
# 
# High freq. dielectric constant tensor:
#      x y z
#    x 1.916270 -0.007640 0.035960 
#    y -0.007640 1.935670 0.002910 
#    z 0.035960 0.002910 1.927640 
# 
# From -- ./inp_files/480536.got.cif
#   From: 2010.06.25/outbox.cif.g09.slc.cpg/sg2_241_cif.got.tgz:480536.got - 2010.06.27 13:26:56.
