data_PCOD8033453
_publ_section_title
;
Structure prediction by ZEFSAII (Michael W. Deem and Ramdas Pophale) SiO2 
 PCOD8033453
Probable space group: P -1
;
_chemical_formula_sum "Si O2"
_cell_formula_units_Z 12
_cell_length_a 14.703833
_cell_length_b 14.475199
_cell_length_c 9.110611
_cell_angle_alpha 51.127362
_cell_angle_beta 45.250526
_cell_angle_gamma 20.377017
_cell_volume 475.391139
_symmetry_space_group_name_H-M "P -1"
_symmetry_group_IT_number 2
_symmetry_cell_setting 'triclinic'
loop_
_space_group_symop_operation_xyz
x,y,z
-x,-y,-z
loop_
_atom_site_type_symbol
_atom_site_label
_atom_site_fract_x
_atom_site_fract_y
_atom_site_fract_z
Si Si1 0.636713 0.455178 0.193513
Si Si2 0.505963 0.321108 0.417005
Si Si3 0.212813 0.218168 0.518300
Si Si4 0.882814 0.970328 0.712147
Si Si5 0.099249 0.739941 0.205583
Si Si6 0.368885 0.003398 0.241992
O O1 0.483585 0.456078 0.416942
O O2 0.437295 0.736590 0.153429
O O3 0.691396 0.374249 0.039332
O O4 0.929493 0.238935 0.161597
O O5 0.291457 0.513079 0.334173
O O6 0.415078 0.277962 0.655427
O O7 0.850353 0.028677 0.271956
O O8 0.242011 0.176975 0.351591
O O9 0.000000 0.500000 0.500000
O O10 0.065764 0.221590 0.743855
O O11 0.500000 0.000000 0.500000
O O12 0.867331 0.879909 0.695666
O O13 0.000000 0.000000 0.500000
O O14 0.500000 0.000000 0.000000
#
# Coordination Sequence:
#
# PCOD8033453 Si02
#       6
#     2   2   2   2   2   2
#     4  12  25  43  79 105 154 191 252 306 385 448
#     4  11  23  46  72 111 148 194 245 317 369 449
#     4  11  26  48  72 102 148 199 249 308 368 441
#     4  12  27  48  73 111 154 200 248 313 377 450
#     4  11  24  43  74 108 146 192 258 308 378 438
#     4  11  28  49  80 110 155 202 255 309 381 453
#
# _framework density 25.242373000000001
#
# number of rings (size 3 to 8) (size 9 to 14) (size 15 to 20)
#    0.000    0.667    1.667    5.500    7.000    1.333 
#    0.000    8.333    0.000    0.000    0.000    0.000 
#    0.000    0.000    0.000    0.000    0.000    0.000 
#
# Total GULP energy -148677.114651 kJ/mol
# GULP energy per Si atom -12389.759554 kJ/mol
# Density = 2.518492 g / cm^3
# Si number density = 25.242373 Si / 1000 Ang^3
#
#
#
# Elastic Constant Matrix: (Units=GPa)
#
#
# Indices 1 2 3 4 5 6 
#
# 1 192.7030 61.0691 48.8913 -20.2985 7.7772 -1.8459
# 2 61.0691 155.4519 36.8219 -32.3857 21.3600 -11.1681
# 3 48.8913 36.8219 105.0828 -15.2141 9.8901 -2.8487
# 4 -20.2985 -32.3857 -15.2141 31.5047 -4.9394 8.7404
# 5 7.7772 21.3600 9.8901 -4.9394 40.4782 -7.8512
# 6 -1.8459 -11.1681 -2.8487 8.7404 -7.8512 54.8683
#
#
#
# Elastic Compliance Matrix: (Units=1/GPa)
#
#
# Indices 1 2 3 4 5 6 
#
# 1 0.006450 -0.001792 -0.002211 0.001421 0.000334 -0.000441
# 2 -0.001792 0.009420 -0.001063 0.007443 -0.003434 0.000125
# 3 -0.002211 -0.001063 0.011470 0.002885 -0.001537 -0.000375
# 4 0.001421 0.007443 0.002885 0.043050 -0.000669 -0.005241
# 5 0.000334 -0.003434 -0.001537 -0.000669 0.027378 0.003257
# 6 -0.000441 0.000125 -0.000375 -0.005241 0.003257 0.019517
#
#
# Mechanical properties :
#
#
# Convention : Reuss Voigt Hill
#
# Bulk Modulus (GPa) = 58.11123 82.97802 70.54463
# Shear Modulus (GPa) = 37.55093 45.80060 41.67577
#
# Velocity S-wave (km/s) = 3.86115 4.26424 4.06769
# Velocity P-wave (km/s) = 6.55356 7.56233 7.07595
#
# Compressibility (1/GPa) = 0.01720838
#
# Stress axis : x y z
#
# Youngs Moduli (GPa) = 155.03778 106.15758 87.18720
#
# Poissons Ratio (x) = 0.19021 0.19275
# Poissons Ratio (y) = 0.27780 0.09268
# Poissons Ratio (z) = 0.34276 0.11285
#
# Static dielectric constant tensor:
#      x y z
#    x 4.705470 0.270820 -0.219640 
#    y 0.270820 4.471650 0.105960 
#    z -0.219640 0.105960 4.890260 
# 
# 
# High freq. dielectric constant tensor:
#      x y z
#    x 2.024010 0.004100 0.007370 
#    y 0.004100 2.019740 -0.011390 
#    z 0.007370 -0.011390 1.997840 
# 
# From -- ./inp_files/314560.got.cif
#   From: 2010.06.25/outbox.cif.g09.slc.cpg/sg2_158_cif.got.tgz:314560.got - 2010.06.27 13:26:56.
