data_PCOD8033672
_publ_section_title
;
Structure prediction by ZEFSAII (Michael W. Deem and Ramdas Pophale) SiO2 
 PCOD8033672
Probable space group: P -1
;
_chemical_formula_sum "Si O2"
_cell_formula_units_Z 14
_cell_length_a 17.468851
_cell_length_b 9.574589
_cell_length_c 5.378513
_cell_angle_alpha 99.027320
_cell_angle_beta 99.480035
_cell_angle_gamma 38.012053
_cell_volume 545.883156
_symmetry_space_group_name_H-M "P -1"
_symmetry_group_IT_number 2
_symmetry_cell_setting 'triclinic'
loop_
_space_group_symop_operation_xyz
x,y,z
-x,-y,-z
loop_
_atom_site_type_symbol
_atom_site_label
_atom_site_fract_x
_atom_site_fract_y
_atom_site_fract_z
Si Si1 0.172642 0.837238 0.181476
Si Si2 0.492448 0.674870 0.061918
Si Si3 0.776211 0.922631 0.838803
Si Si4 0.677264 0.531555 0.478410
Si Si5 0.461849 0.947955 0.753128
Si Si6 0.813631 0.708604 0.311679
Si Si7 0.088839 0.722418 0.718767
O O1 0.298904 0.622624 0.342260
O O2 0.194149 0.953221 0.079204
O O3 0.142882 0.748207 0.964779
O O4 0.052439 0.031956 0.354553
O O5 0.625924 0.533754 0.201273
O O6 0.373065 0.887892 0.228941
O O7 0.500000 0.500000 0.000000
O O8 0.470889 0.773544 0.808073
O O9 0.845325 0.757739 0.587279
O O10 0.818336 0.792564 0.084981
O O11 0.569237 0.802537 0.557168
O O12 0.814648 0.405294 0.495329
O O13 0.319012 0.180245 0.670392
O O14 0.500000 0.000000 0.000000
O O15 0.912333 0.441338 0.246965
#
# Coordination Sequence:
#
# PCOD8033672 Si02
#       7
#     2   2   2   2   2   2   2
#     4  11  27  48  71 101 141 194 249 300 355 429
#     4  11  24  40  66 104 142 185 227 293 364 434
#     4  11  26  47  73 110 146 189 240 302 368 432
#     4  12  23  42  74 104 137 184 240 294 360 430
#     4  11  24  40  66 104 142 185 227 293 364 434
#     4  11  26  47  73 110 146 189 240 302 368 432
#     4  11  27  48  71 101 141 194 249 300 355 429
#
# _framework density 25.646511
#
# number of rings (size 3 to 8) (size 9 to 14) (size 15 to 20)
#    0.000    0.857    1.429    4.714   12.000    3.429 
#    0.000    0.000    0.000    0.000    0.000    0.000 
#    0.000    0.000    0.000    0.000    0.000    0.000 
#
# Total GULP energy -173552.056252 kJ/mol
# GULP energy per Si atom -12396.575447 kJ/mol
# Density = 2.558814 g / cm^3
# Si number density = 25.646511 Si / 1000 Ang^3
#
#
#
# Elastic Constant Matrix: (Units=GPa)
#
#
# Indices 1 2 3 4 5 6 
#
# 1 57.6206 8.1947 -2.8297 13.6898 -0.7763 2.6465
# 2 8.1947 132.1193 10.8361 15.8484 8.2124 -1.0477
# 3 -2.8297 10.8361 88.0518 8.0461 4.0179 4.3099
# 4 13.6898 15.8484 8.0461 29.5473 -2.1352 2.2947
# 5 -0.7763 8.2124 4.0179 -2.1352 29.0385 3.7124
# 6 2.6465 -1.0477 4.3099 2.2947 3.7124 44.0740
#
#
#
# Elastic Compliance Matrix: (Units=1/GPa)
#
#
# Indices 1 2 3 4 5 6 
#
# 1 0.019733 -0.000218 0.001571 -0.009404 -0.000213 -0.000836
# 2 -0.000218 0.008338 -0.000536 -0.004478 -0.002712 0.000725
# 3 0.001571 -0.000536 0.011934 -0.003734 -0.001612 -0.000944
# 4 -0.009404 -0.004478 -0.003734 0.042108 0.004855 -0.001778
# 5 -0.000213 -0.002712 -0.001612 0.004855 0.036187 -0.003195
# 6 -0.000836 0.000725 -0.000944 -0.001778 -0.003195 0.023211
#
#
# Mechanical properties :
#
#
# Convention : Reuss Voigt Hill
#
# Bulk Modulus (GPa) = 24.01588 34.46599 29.24093
# Shear Modulus (GPa) = 32.51905 37.97131 35.24518
#
# Velocity S-wave (km/s) = 3.56472 3.85198 3.71113
# Velocity P-wave (km/s) = 5.13103 5.76643 5.45799
#
# Compressibility (1/GPa) = 0.04163912
#
# Stress axis : x y z
#
# Youngs Moduli (GPa) = 50.67693 119.93582 83.79222
#
# Poissons Ratio (x) = 0.02616 -0.13163
# Poissons Ratio (y) = 0.01105 0.04489
# Poissons Ratio (z) = -0.07961 0.06425
#
# Static dielectric constant tensor:
#      x y z
#    x 5.392670 -0.315810 -1.980420 
#    y -0.315810 5.142230 0.335470 
#    z -1.980420 0.335470 7.227190 
# 
# 
# High freq. dielectric constant tensor:
#      x y z
#    x 2.031170 0.000390 -0.013790 
#    y 0.000390 2.053530 0.008260 
#    z -0.013790 0.008260 2.000270 
# 
# From -- ./inp_files/69808.got.cif
#   From: 2010.06.25/outbox.cif.g09.slc.cpg/sg2_35_cif.got.tgz:69808.got - 2010.06.27 13:26:56.
