data_PCOD8033753
_publ_section_title
;
Structure prediction by ZEFSAII (Michael W. Deem and Ramdas Pophale) SiO2 
 PCOD8033753
Probable space group: P -1
;
_chemical_formula_sum "Si O2"
_cell_formula_units_Z 16
_cell_length_a 20.521636
_cell_length_b 18.113695
_cell_length_c 5.111836
_cell_angle_alpha 106.740889
_cell_angle_beta 73.784390
_cell_angle_gamma 158.533547
_cell_volume 665.573030
_symmetry_space_group_name_H-M "P -1"
_symmetry_group_IT_number 2
_symmetry_cell_setting 'triclinic'
loop_
_space_group_symop_operation_xyz
x,y,z
-x,-y,-z
loop_
_atom_site_type_symbol
_atom_site_label
_atom_site_fract_x
_atom_site_fract_y
_atom_site_fract_z
Si Si1 0.854673 0.608903 0.885557
Si Si2 0.629999 0.576152 0.569688
Si Si3 0.890175 0.547282 0.282761
Si Si4 0.221890 0.051942 0.836556
Si Si5 0.289309 0.968785 0.353458
Si Si6 0.539476 0.091774 0.299802
Si Si7 0.503079 0.306858 0.159301
Si Si8 0.191698 0.187028 0.867575
O O1 0.864490 0.589817 0.557742
O O2 0.847476 0.531663 0.023028
O O3 0.679531 0.476482 0.966952
O O4 0.028625 0.843980 0.981784
O O5 0.500000 0.500000 0.500000
O O6 0.552524 0.407050 0.469400
O O7 0.797246 0.756763 0.364562
O O8 0.670982 0.636739 0.886619
O O9 0.748767 0.333088 0.300248
O O10 0.094738 0.730851 0.247417
O O11 0.227544 0.132993 0.726423
O O12 0.260979 0.011735 0.615687
O O13 0.370550 0.222707 0.062473
O O14 0.408937 0.028090 0.407826
O O15 0.403258 0.120905 0.137021
O O16 0.500000 0.000000 0.500000
O O17 0.500000 0.000000 0.000000
O O18 0.000000 0.000000 0.000000
#
# Coordination Sequence:
#
# PCOD8033753 Si02
#       8
#     2   2   2   2   2   2   2   2
#     4  11  24  41  70 106 137 180 239 297 346 416
#     4  12  26  44  67  99 142 187 244 299 368 428
#     4  11  24  47  71 106 143 176 233 284 347 428
#     4  11  25  44  72 103 143 191 247 300 356 425
#     4  11  26  45  76 104 144 188 239 290 354 421
#     4  12  28  48  76 108 148 183 225 287 356 428
#     4  12  24  42  74  99 141 191 244 302 360 415
#     4  12  27  48  68 102 148 193 244 308 368 429
#
# _framework density 24.039435999999998
#
# number of rings (size 3 to 8) (size 9 to 14) (size 15 to 20)
#    0.000    0.500    3.750    3.750    3.500    3.000 
#    0.000    0.000    0.000    0.000    0.000    0.000 
#    0.000    0.000    0.000    0.000    0.000    0.000 
#
# Total GULP energy -198375.292535 kJ/mol
# GULP energy per Si atom -12398.455783 kJ/mol
# Density = 2.398472 g / cm^3
# Si number density = 24.039436 Si / 1000 Ang^3
#
#
#
# Elastic Constant Matrix: (Units=GPa)
#
#
# Indices 1 2 3 4 5 6 
#
# 1 104.8281 49.7295 13.4758 2.2050 -4.7475 -8.1160
# 2 49.7295 172.0926 26.0800 0.2008 -6.1447 8.6447
# 3 13.4758 26.0800 78.7847 0.4888 -7.8811 -3.7537
# 4 2.2050 0.2008 0.4888 31.7989 -4.1002 -2.9121
# 5 -4.7475 -6.1447 -7.8811 -4.1002 36.7500 -10.5667
# 6 -8.1160 8.6447 -3.7537 -2.9121 -10.5667 41.7365
#
#
#
# Elastic Compliance Matrix: (Units=1/GPa)
#
#
# Indices 1 2 3 4 5 6 
#
# 1 0.011542 -0.003359 -0.000528 -0.000243 0.001743 0.003317
# 2 -0.003359 0.007186 -0.001954 -0.000048 -0.000349 -0.002409
# 3 -0.000528 -0.001954 0.013876 0.000488 0.003333 0.002428
# 4 -0.000243 -0.000048 0.000488 0.032375 0.004669 0.003448
# 5 0.001743 -0.000349 0.003333 0.004669 0.031181 0.008931
# 6 0.003317 -0.002409 0.002428 0.003448 0.008931 0.027824
#
#
# Mechanical properties :
#
#
# Convention : Reuss Voigt Hill
#
# Bulk Modulus (GPa) = 47.79776 59.36399 53.58088
# Shear Modulus (GPa) = 35.05314 39.81842 37.43578
#
# Velocity S-wave (km/s) = 3.82272 4.07428 3.95050
# Velocity P-wave (km/s) = 6.27777 6.84697 6.56854
#
# Compressibility (1/GPa) = 0.02092148
#
# Stress axis : x y z
#
# Youngs Moduli (GPa) = 86.64177 139.15496 72.06679
#
# Poissons Ratio (x) = 0.46746 0.03807
# Poissons Ratio (y) = 0.29105 0.14080
# Poissons Ratio (z) = 0.04577 0.27187
#
# Static dielectric constant tensor:
#      x y z
#    x 4.376880 -0.078230 0.385850 
#    y -0.078230 5.293010 -0.618300 
#    z 0.385850 -0.618300 5.162640 
# 
# 
# High freq. dielectric constant tensor:
#      x y z
#    x 1.940510 0.006710 0.001050 
#    y 0.006710 1.984950 -0.012870 
#    z 0.001050 -0.012870 1.949820 
# 
# From -- ./inp_files/120109.got.cif
#   From: 2010.06.25/outbox.cif.g09.slc.cpg/sg2_61_cif.got.tgz:120109.got - 2010.06.27 13:26:56.
