data_PCOD8033324
_publ_section_title
;
Structure prediction by ZEFSAII (Michael W. Deem and Ramdas Pophale) SiO2 
 PCOD8033324
Probable space group: P -1
;
_chemical_formula_sum "Si O2"
_cell_formula_units_Z 14
_cell_length_a 9.241612
_cell_length_b 9.522947
_cell_length_c 8.469767
_cell_angle_alpha 88.118384
_cell_angle_beta 116.493758
_cell_angle_gamma 81.405446
_cell_volume 655.447808
_symmetry_space_group_name_H-M "P -1"
_symmetry_group_IT_number 2
_symmetry_cell_setting 'triclinic'
loop_
_space_group_symop_operation_xyz
x,y,z
-x,-y,-z
loop_
_atom_site_type_symbol
_atom_site_label
_atom_site_fract_x
_atom_site_fract_y
_atom_site_fract_z
Si Si1 0.249572 0.152676 0.904061
Si Si2 0.830336 0.548356 0.000087
Si Si3 0.591324 0.134372 0.553026
Si Si4 0.589689 0.153255 0.909229
Si Si5 0.259731 0.646782 0.781923
Si Si6 0.071202 0.864058 0.441647
Si Si7 0.524727 0.578449 0.667608
O O1 0.226247 0.282052 0.011489
O O2 0.399635 0.155069 0.857280
O O3 0.074302 0.175007 0.732420
O O4 0.294065 0.002876 0.022743
O O5 0.831507 0.464771 0.168670
O O6 0.702601 0.504463 0.816046
O O7 0.000000 0.500000 0.000000
O O8 0.588254 0.200749 0.724732
O O9 0.781349 0.097532 0.594069
O O10 0.495828 0.252284 0.382330
O O11 0.500000 0.000000 0.500000
O O12 0.665378 0.255563 0.059884
O O13 0.129997 0.736651 0.597232
O O14 0.402254 0.553294 0.749912
O O15 0.000000 0.000000 0.500000
O O16 0.500000 0.500000 0.500000
#
# Coordination Sequence:
#
# PCOD8033324 Si02
#       7
#     2   2   2   2   2   2   2
#     4  11  25  43  71  98 138 175 229 285 342 397
#     4  12  28  44  67 103 140 177 229 281 347 409
#     4  11  25  41  72 102 132 175 235 278 337 406
#     4  11  23  45  74  98 131 181 232 280 342 407
#     4  11  25  46  69  98 135 183 228 276 346 412
#     4  11  24  45  67 102 139 174 224 288 340 401
#     4  11  25  47  68  95 138 183 226 275 337 415
#
# _framework density 21.359442999999999
#
# number of rings (size 3 to 8) (size 9 to 14) (size 15 to 20)
#    0.000    0.857    2.857    3.000   12.000    4.571 
#    0.000    0.000    0.000    0.000    0.000    0.000 
#    0.000    0.000    0.000    0.000    0.000    0.000 
#
# Total GULP energy -173616.475644 kJ/mol
# GULP energy per Si atom -12401.176832 kJ/mol
# Density = 2.131083 g / cm^3
# Si number density = 21.359443 Si / 1000 Ang^3
#
#
#
# Elastic Constant Matrix: (Units=GPa)
#
#
# Indices 1 2 3 4 5 6 
#
# 1 164.3716 51.8547 70.1767 -9.8232 -2.6110 -17.2242
# 2 51.8547 83.1255 17.1364 6.2559 -2.9822 -10.6682
# 3 70.1767 17.1364 117.0724 1.3683 7.3020 -6.9788
# 4 -9.8232 6.2559 1.3683 35.0901 -7.3055 -2.0978
# 5 -2.6110 -2.9822 7.3020 -7.3055 45.6521 0.6094
# 6 -17.2242 -10.6682 -6.9788 -2.0978 0.6094 35.3916
#
#
#
# Elastic Compliance Matrix: (Units=1/GPa)
#
#
# Indices 1 2 3 4 5 6 
#
# 1 0.010886 -0.005552 -0.005724 0.004823 0.001911 0.002748
# 2 -0.005552 0.015830 0.001196 -0.004342 -0.000197 0.002051
# 3 -0.005724 0.001196 0.011983 -0.002839 -0.002618 -0.000185
# 4 0.004823 -0.004342 -0.002839 0.032023 0.005540 0.002281
# 5 0.001911 -0.000197 -0.002618 0.005540 0.023303 0.000281
# 6 0.002748 0.002051 -0.000185 0.002281 0.000281 0.030305
#
#
# Mechanical properties :
#
#
# Convention : Reuss Voigt Hill
#
# Bulk Modulus (GPa) = 53.94101 71.43389 62.68745
# Shear Modulus (GPa) = 33.18524 38.25355 35.71939
#
# Velocity S-wave (km/s) = 3.94592 4.23654 4.09381
# Velocity P-wave (km/s) = 6.78743 7.57941 7.19432
#
# Compressibility (1/GPa) = 0.01853877
#
# Stress axis : x y z
#
# Youngs Moduli (GPa) = 91.86220 63.17155 83.44938
#
# Poissons Ratio (x) = 0.35075 0.47769
# Poissons Ratio (y) = 0.51005 -0.09984
# Poissons Ratio (z) = 0.52585 -0.07558
#
# Static dielectric constant tensor:
#      x y z
#    x 3.682350 -0.040720 -0.258500 
#    y -0.040720 4.023990 -0.178550 
#    z -0.258500 -0.178550 3.899480 
# 
# 
# High freq. dielectric constant tensor:
#      x y z
#    x 1.841470 -0.008700 -0.001610 
#    y -0.008700 1.848030 -0.003310 
#    z -0.001610 -0.003310 1.854330 
# 
# From -- ./inp_files/156573.got.cif
#   From: 2010.06.25/outbox.cif.g09.slc.cpg/sg2_79_cif.got.tgz:156573.got - 2010.06.27 13:26:56.
