data_PCOD8033268
_publ_section_title
;
Structure prediction by ZEFSAII (Michael W. Deem and Ramdas Pophale) SiO2 
 PCOD8033268
Probable space group: P -1
;
_chemical_formula_sum "Si O2"
_cell_formula_units_Z 16
_cell_length_a 9.055732
_cell_length_b 13.379880
_cell_length_c 8.201106
_cell_angle_alpha 115.723979
_cell_angle_beta 112.134959
_cell_angle_gamma 56.635603
_cell_volume 734.967416
_symmetry_space_group_name_H-M "P -1"
_symmetry_group_IT_number 2
_symmetry_cell_setting 'triclinic'
loop_
_space_group_symop_operation_xyz
x,y,z
-x,-y,-z
loop_
_atom_site_type_symbol
_atom_site_label
_atom_site_fract_x
_atom_site_fract_y
_atom_site_fract_z
Si Si1 0.343245 0.569465 0.113297
Si Si2 0.344995 0.118612 0.438670
Si Si3 0.033225 0.340797 0.149342
Si Si4 0.144346 0.932322 0.656757
Si Si5 0.703517 0.925805 0.971765
Si Si6 0.967074 0.260840 0.419498
Si Si7 0.743973 0.517312 0.671026
Si Si8 0.527401 0.274826 0.524451
O O1 0.350677 0.471940 0.186211
O O2 0.366774 0.686750 0.272060
O O3 0.500000 0.500000 0.000000
O O4 0.146518 0.624267 0.997324
O O5 0.389173 0.233801 0.517155
O O6 0.167616 0.182100 0.524375
O O7 0.500000 0.000000 0.500000
O O8 0.296190 0.065063 0.217242
O O9 0.990640 0.315033 0.296018
O O10 0.088882 0.451440 0.240296
O O11 0.203900 0.222675 0.055995
O O12 0.103431 0.841744 0.692936
O O13 0.338382 0.848935 0.601353
O O14 0.164730 0.028317 0.856175
O O15 0.000000 0.000000 0.500000
O O16 0.500000 0.000000 0.000000
O O17 0.829094 0.371762 0.553625
O O18 0.583945 0.604243 0.547385
#
# Coordination Sequence:
#
# PCOD8033268 Si02
#       8
#     2   2   2   2   2   2   2   2
#     4  12  28  43  69 108 139 181 238 299 358 432
#     4  11  25  45  70 107 143 189 241 291 355 424
#     4  11  25  46  68 106 142 182 238 295 354 429
#     4  12  25  44  75 103 143 192 240 295 356 422
#     4  11  23  45  72 101 142 188 246 291 352 419
#     4  11  25  43  75 102 139 191 233 291 359 427
#     4  12  24  48  73  98 143 188 232 286 373 426
#     4  12  24  48  68 103 143 187 232 298 358 429
#
# _framework density 21.769670999999999
#
# number of rings (size 3 to 8) (size 9 to 14) (size 15 to 20)
#    0.000    0.500    5.000    3.375    3.500    3.000 
#    2.250    0.000    0.000    0.000    0.000    0.000 
#    0.000    0.000    0.000    0.000    0.000    0.000 
#
# Total GULP energy -198342.685471 kJ/mol
# GULP energy per Si atom -12396.417842 kJ/mol
# Density = 2.172012 g / cm^3
# Si number density = 21.769671 Si / 1000 Ang^3
#
#
#
# Elastic Constant Matrix: (Units=GPa)
#
#
# Indices 1 2 3 4 5 6 
#
# 1 100.1551 30.7143 31.7486 -4.0375 -0.1200 0.4578
# 2 30.7143 115.9566 36.5029 -6.6808 0.1054 -14.2704
# 3 31.7486 36.5029 105.1236 -4.8932 23.9289 7.9235
# 4 -4.0375 -6.6808 -4.8932 29.0400 -3.8532 7.3689
# 5 -0.1200 0.1054 23.9289 -3.8532 41.0351 1.2627
# 6 0.4578 -14.2704 7.9235 7.3689 1.2627 56.8752
#
#
#
# Elastic Compliance Matrix: (Units=1/GPa)
#
#
# Indices 1 2 3 4 5 6 
#
# 1 0.011675 -0.002077 -0.003190 0.000960 0.002000 -0.000339
# 2 -0.002077 0.010810 -0.003807 0.001068 0.002192 0.003072
# 3 -0.003190 -0.003807 0.013841 0.000664 -0.007923 -0.002768
# 4 0.000960 0.001068 0.000664 0.036525 0.003185 -0.004635
# 5 0.002000 0.002192 -0.007923 0.003185 0.029271 0.000575
# 6 -0.000339 0.003072 -0.002768 -0.004635 0.000575 0.019329
#
#
# Mechanical properties :
#
#
# Convention : Reuss Voigt Hill
#
# Bulk Modulus (GPa) = 55.01001 57.68520 56.34761
# Shear Modulus (GPa) = 34.32653 40.20802 37.26728
#
# Velocity S-wave (km/s) = 3.97521 4.30231 4.14199
# Velocity P-wave (km/s) = 6.81129 7.15788 6.98674
#
# Compressibility (1/GPa) = 0.01817851
#
# Stress axis : x y z
#
# Youngs Moduli (GPa) = 85.65173 92.50548 72.24801
#
# Poissons Ratio (x) = 0.19209 0.23048
# Poissons Ratio (y) = 0.17786 0.27508
# Poissons Ratio (z) = 0.27323 0.35221
#
# Static dielectric constant tensor:
#      x y z
#    x 4.567910 0.318580 -0.053050 
#    y 0.318580 4.737320 -0.116380 
#    z -0.053050 -0.116380 4.050220 
# 
# 
# High freq. dielectric constant tensor:
#      x y z
#    x 1.877840 -0.009350 0.012190 
#    y -0.009350 1.865590 0.004950 
#    z 0.012190 0.004950 1.849660 
# 
# From -- ./inp_files/188338.got.cif
#   From: 2010.06.25/outbox.cif.g09.slc.cpg/sg2_95_cif.got.tgz:188338.got - 2010.06.27 13:26:56.
