data_PCOD8033524
_publ_section_title
;
Structure prediction by ZEFSAII (Michael W. Deem and Ramdas Pophale) SiO2 
 PCOD8033524
Probable space group: P -1
;
_chemical_formula_sum "Si O2"
_cell_formula_units_Z 12
_cell_length_a 13.579876
_cell_length_b 9.475376
_cell_length_c 17.325445
_cell_angle_alpha 42.538007
_cell_angle_beta 156.877390
_cell_angle_gamma 144.411229
_cell_volume 508.890704
_symmetry_space_group_name_H-M "P -1"
_symmetry_group_IT_number 2
_symmetry_cell_setting 'triclinic'
loop_
_space_group_symop_operation_xyz
x,y,z
-x,-y,-z
loop_
_atom_site_type_symbol
_atom_site_label
_atom_site_fract_x
_atom_site_fract_y
_atom_site_fract_z
Si Si1 0.872403 0.955593 0.841889
Si Si2 0.191076 0.098153 0.778457
Si Si3 0.705343 0.512411 0.412371
Si Si4 0.157904 0.384596 0.776406
Si Si5 0.661434 0.691369 0.472539
Si Si6 0.212283 0.787533 0.045625
O O1 0.528801 0.763693 0.668827
O O2 0.947105 0.218749 0.760403
O O3 0.042827 0.874011 0.941730
O O4 0.000000 0.000000 0.000000
O O5 0.387969 0.318159 0.772088
O O6 0.078292 0.222324 0.707800
O O7 0.963519 0.896570 0.639230
O O8 0.318851 0.954209 0.976639
O O9 0.693484 0.554598 0.477467
O O10 0.034317 0.569783 0.603541
O O11 0.500000 0.500000 0.000000
O O12 0.500000 0.500000 0.500000
O O13 0.500780 0.836150 0.276107
O O14 0.000000 0.500000 0.000000
#
# Coordination Sequence:
#
# PCOD8033524 Si02
#       6
#     2   2   2   2   2   2
#     4  11  25  43  71 104 138 193 236 293 354 427
#     4  11  26  45  72 102 144 187 234 301 351 422
#     4  12  26  46  71 111 142 187 244 291 362 424
#     4  11  26  48  71 104 144 189 239 297 356 424
#     4  12  25  46  73 105 146 191 234 298 353 429
#     4  11  23  47  69 102 146 187 238 287 363 419
#
# _framework density 23.580701999999999
#
# number of rings (size 3 to 8) (size 9 to 14) (size 15 to 20)
#    0.000    0.667    3.333    3.500    9.333    0.667 
#    3.000    0.000    0.000    0.000    0.000    0.000 
#    0.000    0.000    0.000    0.000    0.000    0.000 
#
# Total GULP energy -148666.131675 kJ/mol
# GULP energy per Si atom -12388.844306 kJ/mol
# Density = 2.352703 g / cm^3
# Si number density = 23.580702 Si / 1000 Ang^3
#
#
#
# Elastic Constant Matrix: (Units=GPa)
#
#
# Indices 1 2 3 4 5 6 
#
# 1 91.2181 35.6936 40.5584 -2.0303 -33.2160 3.2206
# 2 35.6936 122.4386 39.6115 -2.7099 -19.6738 25.2974
# 3 40.5584 39.6115 141.6030 -8.1052 -8.9222 6.1994
# 4 -2.0303 -2.7099 -8.1052 47.9322 -0.7589 -6.7646
# 5 -33.2160 -19.6738 -8.9222 -0.7589 48.6380 -6.2393
# 6 3.2206 25.2974 6.1994 -6.7646 -6.2393 45.9461
#
#
#
# Elastic Compliance Matrix: (Units=1/GPa)
#
#
# Indices 1 2 3 4 5 6 
#
# 1 0.017334 -0.002654 -0.003639 0.000446 0.010387 0.002214
# 2 -0.002654 0.010949 -0.002000 -0.000576 0.001541 -0.005448
# 3 -0.003639 -0.002000 0.008620 0.001184 -0.001677 0.000140
# 4 0.000446 -0.000576 0.001184 0.021552 0.001067 0.003444
# 5 0.010387 0.001541 -0.001677 0.001067 0.028327 0.002653
# 6 0.002214 -0.005448 0.000140 0.003444 0.002653 0.025457
#
#
# Mechanical properties :
#
#
# Convention : Reuss Voigt Hill
#
# Bulk Modulus (GPa) = 49.22354 65.22074 57.22214
# Shear Modulus (GPa) = 36.87406 44.46300 40.66853
#
# Velocity S-wave (km/s) = 3.95870 4.34702 4.15740
# Velocity P-wave (km/s) = 6.46645 7.27420 6.88219
#
# Compressibility (1/GPa) = 0.02031548
#
# Stress axis : x y z
#
# Youngs Moduli (GPa) = 57.69145 91.33568 116.01249
#
# Poissons Ratio (x) = 0.24242 0.42219
# Poissons Ratio (y) = 0.15313 0.23201
# Poissons Ratio (z) = 0.20995 0.18266
#
# Static dielectric constant tensor:
#      x y z
#    x 4.337800 0.355740 -0.434050 
#    y 0.355740 4.418550 -0.316080 
#    z -0.434050 -0.316080 4.778210 
# 
# 
# High freq. dielectric constant tensor:
#      x y z
#    x 1.938090 -0.000970 -0.021580 
#    y -0.000970 1.951120 -0.012620 
#    z -0.021580 -0.012620 1.936010 
# 
# From -- ./inp_files/399881.got.cif
#   From: 2010.06.25/outbox.cif.g09.slc.cpg/sg2_200_cif.got.tgz:399881.got - 2010.06.27 13:26:56.
