data_PCOD8033418
_publ_section_title
;
Structure prediction by ZEFSAII (Michael W. Deem and Ramdas Pophale) SiO2 
 PCOD8033418
Probable space group: P -1
;
_chemical_formula_sum "Si O2"
_cell_formula_units_Z 16
_cell_length_a 11.788053
_cell_length_b 13.807475
_cell_length_c 14.398825
_cell_angle_alpha 47.304318
_cell_angle_beta 68.179846
_cell_angle_gamma 30.866927
_cell_volume 733.399184
_symmetry_space_group_name_H-M "P -1"
_symmetry_group_IT_number 2
_symmetry_cell_setting 'triclinic'
loop_
_space_group_symop_operation_xyz
x,y,z
-x,-y,-z
loop_
_atom_site_type_symbol
_atom_site_label
_atom_site_fract_x
_atom_site_fract_y
_atom_site_fract_z
Si Si1 0.379771 0.311808 0.696951
Si Si2 0.230841 0.903175 0.794289
Si Si3 0.626603 0.521876 0.588106
Si Si4 0.505673 0.193621 0.385990
Si Si5 0.744491 0.341766 0.355965
Si Si6 0.055916 0.340489 0.007712
Si Si7 0.313448 0.550788 0.909610
Si Si8 0.081826 0.420790 0.302730
O O1 0.470685 0.293337 0.586328
O O2 0.218218 0.567057 0.648272
O O3 0.170633 0.395041 0.683583
O O4 0.642569 0.000411 0.864889
O O5 0.378577 0.864615 0.707943
O O6 0.184973 0.807398 0.820768
O O7 0.389123 0.742143 0.947840
O O8 0.940540 0.233448 0.690772
O O9 0.491722 0.692565 0.614683
O O10 0.511334 0.485813 0.632640
O O11 0.200698 0.436775 0.305854
O O12 0.678522 0.911962 0.559909
O O13 0.674563 0.459705 0.198139
O O14 0.000000 0.000000 0.500000
O O15 0.857682 0.408173 0.031459
O O16 0.000000 0.500000 0.000000
O O17 0.014091 0.456700 0.850238
#
# Coordination Sequence:
#
# PCOD8033418 Si02
#       8
#     2   2   2   2   2   2   2   2
#     4  12  25  42  66 102 135 180 232 270 334 416
#     4  11  23  46  70  99 136 169 228 290 336 400
#     4  12  24  42  72 100 131 178 223 278 344 397
#     4  11  23  46  70  97 134 176 227 288 332 398
#     4  12  24  43  71 101 139 177 221 280 342 410
#     4  12  25  43  65  97 141 183 224 275 334 408
#     4  11  24  44  70  99 135 178 218 283 350 390
#     4  11  24  44  68  94 138 179 225 279 335 397
#
# _framework density 21.816222
#
# number of rings (size 3 to 8) (size 9 to 14) (size 15 to 20)
#    0.000    0.500    3.750    5.250    0.000    3.000 
#    0.000    0.000    0.000    0.000    0.000    0.000 
#    0.000    0.000    0.000    0.000    0.000    0.000 
#
# Total GULP energy -198461.016713 kJ/mol
# GULP energy per Si atom -12403.813545 kJ/mol
# Density = 2.176657 g / cm^3
# Si number density = 21.816222 Si / 1000 Ang^3
#
#
#
# Elastic Constant Matrix: (Units=GPa)
#
#
# Indices 1 2 3 4 5 6 
#
# 1 75.4840 21.8345 1.6642 -11.6547 -5.1823 -18.5586
# 2 21.8345 78.9372 27.6115 4.9796 1.5633 -9.4335
# 3 1.6642 27.6115 109.6078 0.8401 7.5462 6.0142
# 4 -11.6547 4.9796 0.8401 37.1751 -0.6107 -6.6019
# 5 -5.1823 1.5633 7.5462 -0.6107 33.2774 4.2006
# 6 -18.5586 -9.4335 6.0142 -6.6019 4.2006 38.6184
#
#
#
# Elastic Compliance Matrix: (Units=1/GPa)
#
#
# Indices 1 2 3 4 5 6 
#
# 1 0.018034 -0.004560 0.000201 0.007828 0.002030 0.008639
# 2 -0.004560 0.015729 -0.003910 -0.003140 -0.000849 0.001815
# 3 0.000201 -0.003910 0.010359 -0.000083 -0.001847 -0.002285
# 4 0.007828 -0.003140 -0.000083 0.031257 0.000918 0.008251
# 5 0.002030 -0.000849 -0.001847 0.000918 0.031116 -0.002172
# 6 0.008639 0.001815 -0.002285 0.008251 -0.002172 0.032492
#
#
# Mechanical properties :
#
#
# Convention : Reuss Voigt Hill
#
# Bulk Modulus (GPa) = 36.25357 40.69437 38.47397
# Shear Modulus (GPa) = 30.35439 36.00876 33.18158
#
# Velocity S-wave (km/s) = 3.73415 4.06710 3.90418
# Velocity P-wave (km/s) = 5.93680 6.38348 6.16419
#
# Compressibility (1/GPa) = 0.02758349
#
# Stress axis : x y z
#
# Youngs Moduli (GPa) = 55.44930 63.57543 96.53820
#
# Poissons Ratio (x) = 0.28993 -0.01943
# Poissons Ratio (y) = 0.25287 0.37749
# Poissons Ratio (z) = -0.01116 0.24859
#
# Static dielectric constant tensor:
#      x y z
#    x 4.176680 -0.170300 0.017450 
#    y -0.170300 3.700050 0.058190 
#    z 0.017450 0.058190 4.107830 
# 
# 
# High freq. dielectric constant tensor:
#      x y z
#    x 1.873550 -0.017560 0.002950 
#    y -0.017560 1.848130 0.006500 
#    z 0.002950 0.006500 1.874540 
# 
# From -- ./inp_files/371012.got.cif
#   From: 2010.06.25/outbox.cif.g09.slc.cpg/sg2_186_cif.got.tgz:371012.got - 2010.06.27 13:26:56.
