data_PCOD8033750
_publ_section_title
;
Structure prediction by ZEFSAII (Michael W. Deem and Ramdas Pophale) SiO2 
 PCOD8033750
Probable space group: P -1
;
_chemical_formula_sum "Si O2"
_cell_formula_units_Z 16
_cell_length_a 9.414758
_cell_length_b 22.993436
_cell_length_c 20.376359
_cell_angle_alpha 160.710807
_cell_angle_beta 149.351294
_cell_angle_gamma 40.245746
_cell_volume 711.016191
_symmetry_space_group_name_H-M "P -1"
_symmetry_group_IT_number 2
_symmetry_cell_setting 'triclinic'
loop_
_space_group_symop_operation_xyz
x,y,z
-x,-y,-z
loop_
_atom_site_type_symbol
_atom_site_label
_atom_site_fract_x
_atom_site_fract_y
_atom_site_fract_z
Si Si1 0.605346 0.173558 0.773531
Si Si2 0.732558 0.195151 0.285020
Si Si3 0.164957 0.385121 0.863065
Si Si4 0.201646 0.031638 0.255240
Si Si5 0.058605 0.267528 0.260024
Si Si6 0.352859 0.635486 0.707313
Si Si7 0.578597 0.308197 0.610028
Si Si8 0.923049 0.541364 0.817263
O O1 0.330594 0.247566 0.754778
O O2 0.711120 0.114360 0.820708
O O3 0.500000 0.000000 0.500000
O O4 0.878962 0.330469 0.021873
O O5 0.660844 0.283171 0.283391
O O6 0.747921 0.342023 0.505414
O O7 0.049654 0.163169 0.373767
O O8 0.500000 0.000000 0.000000
O O9 0.839265 0.269103 0.630675
O O10 0.137114 0.524862 0.943370
O O11 0.328180 0.493287 0.106391
O O12 0.493060 0.154650 0.468400
O O13 0.973989 0.922442 0.993238
O O14 0.128636 0.431050 0.408251
O O15 0.312807 0.305038 0.453988
O O16 0.749932 0.245162 0.150681
O O17 0.684144 0.633429 0.848864
#
# Coordination Sequence:
#
# PCOD8033750 Si02
#       8
#     2   2   2   2   2   2   2   2
#     4  12  27  46  68  99 139 183 231 275 327 407
#     4  12  25  41  67 103 141 173 216 273 343 413
#     4  11  26  45  72  93 132 183 235 272 335 396
#     4  12  25  42  69 101 137 173 225 282 346 394
#     4  11  24  43  71 101 137 172 222 290 340 400
#     4  11  24  41  70 101 133 172 222 270 352 396
#     4  11  24  46  70  98 133 178 228 286 334 396
#     4  12  24  46  70  96 139 181 223 277 335 407
#
# _framework density 22.503003
#
# number of rings (size 3 to 8) (size 9 to 14) (size 15 to 20)
#    0.000    0.500    2.500    5.625    3.500    1.500 
#    0.000    0.000    0.000    0.000    0.000    0.000 
#    0.000    0.000    0.000    0.000    0.000    0.000 
#
# Total GULP energy -198471.223807 kJ/mol
# GULP energy per Si atom -12404.451488 kJ/mol
# Density = 2.245179 g / cm^3
# Si number density = 22.503003 Si / 1000 Ang^3
#
#
#
# Elastic Constant Matrix: (Units=GPa)
#
#
# Indices 1 2 3 4 5 6 
#
# 1 129.8791 68.7383 47.5749 0.0779 20.9333 -10.0753
# 2 68.7383 156.8572 32.9045 -11.1507 9.3439 -11.2108
# 3 47.5749 32.9045 103.0495 3.7865 5.0205 -4.8375
# 4 0.0779 -11.1507 3.7865 18.2210 8.3216 5.9687
# 5 20.9333 9.3439 5.0205 8.3216 40.9743 2.1815
# 6 -10.0753 -11.2108 -4.8375 5.9687 2.1815 47.2199
#
#
#
# Elastic Compliance Matrix: (Units=1/GPa)
#
#
# Indices 1 2 3 4 5 6 
#
# 1 0.012270 -0.004131 -0.004039 0.000029 -0.004914 0.001447
# 2 -0.004131 0.008939 -0.001099 0.006059 -0.001045 0.000410
# 3 -0.004039 -0.001099 0.012016 -0.004082 0.001642 0.000548
# 4 0.000029 0.006059 -0.004082 0.068286 -0.014395 -0.006940
# 5 -0.004914 -0.001045 0.001642 -0.014395 0.029914 -0.000691
# 6 0.001447 0.000410 0.000548 -0.006940 -0.000691 0.022549
#
#
# Mechanical properties :
#
#
# Convention : Reuss Voigt Hill
#
# Bulk Modulus (GPa) = 68.09948 76.46901 72.28424
# Shear Modulus (GPa) = 28.18377 37.32093 32.75235
#
# Velocity S-wave (km/s) = 3.54283 4.07687 3.81920
# Velocity P-wave (km/s) = 6.86029 7.49777 7.18611
#
# Compressibility (1/GPa) = 0.01468440
#
# Stress axis : x y z
#
# Youngs Moduli (GPa) = 81.50066 111.87371 83.22526
#
# Poissons Ratio (x) = 0.46219 0.33616
# Poissons Ratio (y) = 0.33671 0.09149
# Poissons Ratio (z) = 0.32920 0.12298
#
# Static dielectric constant tensor:
#      x y z
#    x 4.401630 -0.015400 0.174230 
#    y -0.015400 4.106010 0.060630 
#    z 0.174230 0.060630 4.036590 
# 
# 
# High freq. dielectric constant tensor:
#      x y z
#    x 1.908070 0.001480 0.008720 
#    y 0.001480 1.893700 0.002720 
#    z 0.008720 0.002720 1.881010 
# 
# From -- ./inp_files/592008.got.cif
#   From: 2010.06.25/outbox.cif.g09.slc.cpg/sg2_297_cif.got.tgz:592008.got - 2010.06.27 13:26:56.
