data_PCOD8033897
_publ_section_title
;
Structure prediction by ZEFSAII (Michael W. Deem and Ramdas Pophale) SiO2 
 PCOD8033897
Probable space group: P -1
;
_chemical_formula_sum "Si O2"
_cell_formula_units_Z 14
_cell_length_a 12.821115
_cell_length_b 18.215353
_cell_length_c 10.698263
_cell_angle_alpha 142.190696
_cell_angle_beta 33.966556
_cell_angle_gamma 156.041933
_cell_volume 561.121250
_symmetry_space_group_name_H-M "P -1"
_symmetry_group_IT_number 2
_symmetry_cell_setting 'triclinic'
loop_
_space_group_symop_operation_xyz
x,y,z
-x,-y,-z
loop_
_atom_site_type_symbol
_atom_site_label
_atom_site_fract_x
_atom_site_fract_y
_atom_site_fract_z
Si Si1 0.465449 0.236845 0.402667
Si Si2 0.912035 0.037572 0.796063
Si Si3 0.823728 0.533457 0.243478
Si Si4 0.581802 0.402522 0.039979
Si Si5 0.113293 0.714081 0.782473
Si Si6 0.969298 0.841636 0.633695
Si Si7 0.544222 0.150913 0.605741
O O1 0.603240 0.402003 0.397057
O O2 0.706655 0.275506 0.282847
O O3 0.256383 0.207414 0.664620
O O4 0.256936 0.045344 0.278717
O O5 0.820445 0.874605 0.744427
O O6 0.803415 0.105586 0.061681
O O7 0.679234 0.495583 0.204533
O O8 0.013091 0.740349 0.374683
O O9 0.000000 0.500000 0.000000
O O10 0.251556 0.287224 0.203924
O O11 0.582952 0.258860 0.828461
O O12 0.779826 0.547932 0.927428
O O13 0.176867 0.699020 0.558412
O O14 0.266532 0.041490 0.650622
O O15 0.500000 0.000000 0.500000
#
# Coordination Sequence:
#
# PCOD8033897 Si02
#       7
#     2   2   2   2   2   2   2
#     4  11  24  42  72 110 157 182 250 294 382 423
#     4  11  25  43  73 114 150 192 244 311 362 439
#     4  12  25  42  75 108 146 191 239 310 367 432
#     4  12  26  47  71 109 151 191 245 302 371 436
#     4  12  26  46  76 107 149 199 246 301 368 437
#     4  12  26  48  76 109 148 193 252 303 372 436
#     4  12  28  51  73 104 149 200 250 300 368 444
#
# _framework density 24.950043000000001
#
# number of rings (size 3 to 8) (size 9 to 14) (size 15 to 20)
#    0.000    0.286    4.286    4.286    6.000    0.000 
#    0.000    1.429    0.000    0.000    0.000    0.000 
#    0.000    0.000    0.000    0.000    0.000    0.000 
#
# Total GULP energy -173552.080007 kJ/mol
# GULP energy per Si atom -12396.577143 kJ/mol
# Density = 2.489326 g / cm^3
# Si number density = 24.950043 Si / 1000 Ang^3
#
#
#
# Elastic Constant Matrix: (Units=GPa)
#
#
# Indices 1 2 3 4 5 6 
#
# 1 62.0946 10.3640 21.5783 1.6623 1.5195 -12.8861
# 2 10.3640 99.5992 24.1385 -19.6082 13.0681 -15.5069
# 3 21.5783 24.1385 110.9240 4.7873 5.6791 -7.1850
# 4 1.6623 -19.6082 4.7873 54.4335 -10.2936 4.7355
# 5 1.5195 13.0681 5.6791 -10.2936 30.6578 -2.2023
# 6 -12.8861 -15.5069 -7.1850 4.7355 -2.2023 25.9942
#
#
#
# Elastic Compliance Matrix: (Units=1/GPa)
#
#
# Indices 1 2 3 4 5 6 
#
# 1 0.019028 -0.000087 -0.003064 -0.001119 -0.000087 0.008730
# 2 -0.000087 0.012695 -0.002348 0.003637 -0.003324 0.005937
# 3 -0.003064 -0.002348 0.010287 -0.001934 -0.001391 0.000158
# 4 -0.001119 0.003637 -0.001934 0.021183 0.005812 -0.002286
# 5 -0.000087 -0.003324 -0.001391 0.005812 0.036220 -0.000401
# 6 0.008730 0.005937 0.000158 -0.002286 -0.000401 0.046766
#
#
# Mechanical properties :
#
#
# Convention : Reuss Voigt Hill
#
# Bulk Modulus (GPa) = 32.24627 42.75327 37.49977
# Shear Modulus (GPa) = 29.84828 36.65289 33.25058
#
# Velocity S-wave (km/s) = 3.46254 3.83698 3.65456
# Velocity P-wave (km/s) = 5.37940 6.06652 5.73326
#
# Compressibility (1/GPa) = 0.03101133
#
# Stress axis : x y z
#
# Youngs Moduli (GPa) = 52.55503 78.77226 97.20887
#
# Poissons Ratio (x) = 0.00685 0.29788
# Poissons Ratio (y) = 0.00457 0.22823
# Poissons Ratio (z) = 0.16105 0.18495
#
# Static dielectric constant tensor:
#      x y z
#    x 4.948090 0.521070 0.258540 
#    y 0.521070 5.043760 -0.055970 
#    z 0.258540 -0.055970 4.742050 
# 
# 
# High freq. dielectric constant tensor:
#      x y z
#    x 1.967700 -0.010270 -0.003640 
#    y -0.010270 2.003780 -0.007840 
#    z -0.003640 -0.007840 2.009700 
# 
# From -- ./inp_files/457721.got.cif
#   From: 2010.06.25/outbox.cif.g09.slc.cpg/sg2_229_cif.got.tgz:457721.got - 2010.06.27 13:26:56.
