data_PCOD8033617
_publ_section_title
;
Structure prediction by ZEFSAII (Michael W. Deem and Ramdas Pophale) SiO2 
 PCOD8033617
Probable space group: P -1
;
_chemical_formula_sum "Si O2"
_cell_formula_units_Z 16
_cell_length_a 19.412198
_cell_length_b 8.139973
_cell_length_c 9.334022
_cell_angle_alpha 112.812457
_cell_angle_beta 68.091249
_cell_angle_gamma 147.584715
_cell_volume 725.645381
_symmetry_space_group_name_H-M "P -1"
_symmetry_group_IT_number 2
_symmetry_cell_setting 'triclinic'
loop_
_space_group_symop_operation_xyz
x,y,z
-x,-y,-z
loop_
_atom_site_type_symbol
_atom_site_label
_atom_site_fract_x
_atom_site_fract_y
_atom_site_fract_z
Si Si1 0.508635 0.099178 0.180186
Si Si2 0.694248 0.696055 0.098702
Si Si3 0.463298 0.089783 0.659740
Si Si4 0.025548 0.704701 0.171794
Si Si5 0.216712 0.817331 0.641179
Si Si6 0.100503 0.176073 0.104339
Si Si7 0.261339 0.801855 0.291415
Si Si8 0.683473 0.786367 0.823051
O O1 0.584165 0.432988 0.210742
O O2 0.576890 0.082631 0.218209
O O3 0.370636 0.875660 0.281305
O O4 0.500000 0.000000 0.000000
O O5 0.790228 0.003615 0.219914
O O6 0.765067 0.653043 0.986332
O O7 0.645463 0.707175 0.996445
O O8 0.588197 0.463844 0.705628
O O9 0.500000 0.000000 0.500000
O O10 0.340065 0.954281 0.652920
O O11 0.920818 0.525827 0.317483
O O12 0.024336 0.900727 0.177965
O O13 0.164810 0.957470 0.223158
O O14 0.000000 0.500000 0.000000
O O15 0.223446 0.846022 0.473621
O O16 0.134734 0.440435 0.224735
O O17 0.000000 0.000000 0.000000
O O18 0.323608 0.035561 0.189747
#
# Coordination Sequence:
#
# PCOD8033617 Si02
#       8
#     2   2   2   2   2   2   2   2
#     4  12  23  43  72 102 137 181 244 293 348 426
#     4  11  25  44  73 102 139 187 239 292 356 428
#     4  12  27  47  71 106 149 188 238 304 368 418
#     4  11  23  48  74 103 142 187 240 295 354 434
#     4  12  28  46  72 108 147 187 236 299 367 423
#     4  11  24  44  71 103 140 186 241 290 349 432
#     4  12  27  45  70 107 146 184 238 299 358 425
#     4  11  25  47  73 100 144 193 240 289 357 431
#
# _framework density 22.049337000000001
#
# number of rings (size 3 to 8) (size 9 to 14) (size 15 to 20)
#    0.000    0.500    6.250    2.250    5.250    3.000 
#    0.000    0.000    0.000    0.000    0.000    0.000 
#    0.000    0.000    0.000    0.000    0.000    0.000 
#
# Total GULP energy -198228.369478 kJ/mol
# GULP energy per Si atom -12389.273092 kJ/mol
# Density = 2.199915 g / cm^3
# Si number density = 22.049337 Si / 1000 Ang^3
#
#
#
# Elastic Constant Matrix: (Units=GPa)
#
#
# Indices 1 2 3 4 5 6 
#
# 1 83.0526 34.8224 16.1837 2.0999 21.0307 -11.2000
# 2 34.8224 143.7751 33.4860 2.4578 9.0955 -15.3685
# 3 16.1837 33.4860 100.0197 5.8815 6.0614 -13.8519
# 4 2.0999 2.4578 5.8815 36.5152 -2.7040 -4.4564
# 5 21.0307 9.0955 6.0614 -2.7040 28.9329 -3.6321
# 6 -11.2000 -15.3685 -13.8519 -4.4564 -3.6321 48.4836
#
#
#
# Elastic Compliance Matrix: (Units=1/GPa)
#
#
# Indices 1 2 3 4 5 6 
#
# 1 0.016388 -0.002917 -0.000712 -0.001214 -0.010741 0.001741
# 2 -0.002917 0.008293 -0.002131 0.000131 0.000144 0.001369
# 3 -0.000712 -0.002131 0.011275 -0.001444 -0.001037 0.002171
# 4 -0.001214 0.000131 -0.001444 0.028255 0.004067 0.002250
# 5 -0.010741 0.000144 -0.001037 0.004067 0.043031 0.000866
# 6 0.001741 0.001369 0.002171 0.002250 0.000866 0.022354
#
#
# Mechanical properties :
#
#
# Convention : Reuss Voigt Hill
#
# Bulk Modulus (GPa) = 40.92296 55.09241 48.00768
# Shear Modulus (GPa) = 33.49849 38.94336 36.22092
#
# Velocity S-wave (km/s) = 3.90199 4.20717 4.05745
# Velocity P-wave (km/s) = 6.23704 6.97428 6.61594
#
# Compressibility (1/GPa) = 0.02443616
#
# Stress axis : x y z
#
# Youngs Moduli (GPa) = 61.02198 120.58084 88.69073
#
# Poissons Ratio (x) = 0.35173 0.06311
# Poissons Ratio (y) = 0.17800 0.18903
# Poissons Ratio (z) = 0.04342 0.25700
#
# Static dielectric constant tensor:
#      x y z
#    x 4.223480 0.207000 -0.099930 
#    y 0.207000 4.737380 -0.125180 
#    z -0.099930 -0.125180 4.000770 
# 
# 
# High freq. dielectric constant tensor:
#      x y z
#    x 1.869930 -0.006910 0.007740 
#    y -0.006910 1.888860 0.003220 
#    z 0.007740 0.003220 1.855490 
# 
# From -- ./inp_files/327411.got.cif
#   From: 2010.06.25/outbox.cif.g09.slc.cpg/sg2_164_cif.got.tgz:327411.got - 2010.06.27 13:26:56.
