data_PCOD8033972
_publ_section_title
;
Structure prediction by ZEFSAII (Michael W. Deem and Ramdas Pophale) SiO2 
 PCOD8033972
Probable space group: P -1
;
_chemical_formula_sum "Si O2"
_cell_formula_units_Z 16
_cell_length_a 11.520594
_cell_length_b 14.453079
_cell_length_c 9.059162
_cell_angle_alpha 148.086853
_cell_angle_beta 113.700862
_cell_angle_gamma 77.196190
_cell_volume 707.511187
_symmetry_space_group_name_H-M "P -1"
_symmetry_group_IT_number 2
_symmetry_cell_setting 'triclinic'
loop_
_space_group_symop_operation_xyz
x,y,z
-x,-y,-z
loop_
_atom_site_type_symbol
_atom_site_label
_atom_site_fract_x
_atom_site_fract_y
_atom_site_fract_z
Si Si1 0.654500 0.864934 0.825049
Si Si2 0.365830 0.851722 0.240785
Si Si3 0.053258 0.304899 0.652517
Si Si4 0.065268 0.366248 0.438314
Si Si5 0.312041 0.490356 0.559413
Si Si6 0.372397 0.852033 0.578923
Si Si7 0.200216 0.581609 0.317181
Si Si8 0.846266 0.006035 0.849247
O O1 0.605974 0.662276 0.599601
O O2 0.530165 0.901378 0.722970
O O3 0.776480 0.905473 0.825149
O O4 0.683531 0.998101 0.160389
O O5 0.319163 0.832972 0.359949
O O6 0.500000 0.000000 0.500000
O O7 0.252883 0.902052 0.159066
O O8 0.382834 0.661431 0.926437
O O9 0.108238 0.441567 0.727187
O O10 0.105239 0.125618 0.417805
O O11 0.894418 0.279515 0.530277
O O12 0.111857 0.392027 0.955131
O O13 0.186483 0.357658 0.390412
O O14 0.000000 0.500000 0.500000
O O15 0.976232 0.165946 0.163217
O O16 0.270982 0.554327 0.468285
O O17 0.317197 0.661003 0.372318
#
# Coordination Sequence:
#
# PCOD8033972 Si02
#       8
#     2   2   2   2   2   2   2   2
#     4  11  26  46  71 102 142 185 238 287 358 413
#     4  12  26  47  73 102 144 183 243 289 349 423
#     4  11  24  43  68 103 143 186 234 292 351 414
#     4  12  22  41  72 100 139 181 234 289 347 416
#     4  12  26  44  72 104 138 189 236 290 353 422
#     4  11  26  46  69 100 142 189 227 297 349 418
#     4  11  26  45  68 102 149 184 233 294 353 417
#     4  12  25  43  73 106 139 189 238 291 348 422
#
# _framework density 22.614481999999999
#
# number of rings (size 3 to 8) (size 9 to 14) (size 15 to 20)
#    0.000    0.500    5.000    2.625    5.250    2.000 
#    0.000    1.250    0.000    0.000    0.000    0.000 
#    0.000    0.000    0.000    0.000    0.000    0.000 
#
# Total GULP energy -198249.315468 kJ/mol
# GULP energy per Si atom -12390.582217 kJ/mol
# Density = 2.256301 g / cm^3
# Si number density = 22.614482 Si / 1000 Ang^3
#
#
#
# Elastic Constant Matrix: (Units=GPa)
#
#
# Indices 1 2 3 4 5 6 
#
# 1 80.1095 8.7840 23.9692 7.8896 -0.4787 18.3561
# 2 8.7840 98.0008 50.0564 -0.9768 -1.3330 22.5275
# 3 23.9692 50.0564 125.2214 8.1077 -12.6733 7.6903
# 4 7.8896 -0.9768 8.1077 42.7681 4.3242 -6.9014
# 5 -0.4787 -1.3330 -12.6733 4.3242 31.2281 7.0130
# 6 18.3561 22.5275 7.6903 -6.9014 7.0130 35.2167
#
#
#
# Elastic Compliance Matrix: (Units=1/GPa)
#
#
# Indices 1 2 3 4 5 6 
#
# 1 0.015910 0.002446 -0.002892 -0.004235 0.002114 -0.010477
# 2 0.002446 0.015282 -0.005849 -0.000680 0.000665 -0.010039
# 3 -0.002892 -0.005849 0.011334 -0.001925 0.004223 0.001556
# 4 -0.004235 -0.000680 -0.001925 0.026752 -0.006746 0.009649
# 5 0.002114 0.000665 0.004223 -0.006746 0.037244 -0.011188
# 6 -0.010477 -0.010039 0.001556 0.009649 -0.011188 0.044058
#
#
# Mechanical properties :
#
#
# Convention : Reuss Voigt Hill
#
# Bulk Modulus (GPa) = 33.40385 52.10565 42.75475
# Shear Modulus (GPa) = 28.87684 36.54405 32.71045
#
# Velocity S-wave (km/s) = 3.57728 4.02426 3.80733
# Velocity P-wave (km/s) = 5.64496 6.68459 6.18665
#
# Compressibility (1/GPa) = 0.02993667
#
# Stress axis : x y z
#
# Youngs Moduli (GPa) = 62.85210 65.43472 88.22995
#
# Poissons Ratio (x) = -0.16004 0.25512
# Poissons Ratio (y) = -0.15372 0.51609
# Poissons Ratio (z) = 0.18174 0.38275
#
# Static dielectric constant tensor:
#      x y z
#    x 4.421730 -0.015000 0.099710 
#    y -0.015000 4.117020 -0.200270 
#    z 0.099710 -0.200270 4.148570 
# 
# 
# High freq. dielectric constant tensor:
#      x y z
#    x 1.898040 -0.000040 -0.005000 
#    y -0.000040 1.902290 -0.000650 
#    z -0.005000 -0.000650 1.893390 
# 
# From -- ./inp_files/274927.got.cif
#   From: 2010.06.25/outbox.cif.g09.slc.cpg/sg2_138_cif.got.tgz:274927.got - 2010.06.27 13:26:56.
