data_PCOD8033839
_publ_section_title
;
Structure prediction by ZEFSAII (Michael W. Deem and Ramdas Pophale) SiO2 
 PCOD8033839
Probable space group: P -1
;
_chemical_formula_sum "Si O2"
_cell_formula_units_Z 16
_cell_length_a 12.584867
_cell_length_b 12.437734
_cell_length_c 11.940908
_cell_angle_alpha 124.641190
_cell_angle_beta 114.096810
_cell_angle_gamma 30.188031
_cell_volume 757.490675
_symmetry_space_group_name_H-M "P -1"
_symmetry_group_IT_number 2
_symmetry_cell_setting 'triclinic'
loop_
_space_group_symop_operation_xyz
x,y,z
-x,-y,-z
loop_
_atom_site_type_symbol
_atom_site_label
_atom_site_fract_x
_atom_site_fract_y
_atom_site_fract_z
Si Si1 0.667761 0.399818 0.601089
Si Si2 0.476841 0.801842 0.908117
Si Si3 0.061818 0.807968 0.777334
Si Si4 0.794856 0.616800 0.436369
Si Si5 0.344462 0.724356 0.981176
Si Si6 0.902059 0.958283 0.555090
Si Si7 0.354117 0.054340 0.617044
Si Si8 0.763684 0.774519 0.076889
O O1 0.500000 0.500000 0.500000
O O2 0.568959 0.619162 0.745994
O O3 0.896045 0.232058 0.553110
O O4 0.717120 0.237846 0.613497
O O5 0.451954 0.747871 0.981959
O O6 0.262774 0.071098 0.921600
O O7 0.627125 0.781761 0.982187
O O8 0.128286 0.596940 0.692671
O O9 0.268393 0.698532 0.835659
O O10 0.995919 0.909604 0.685500
O O11 0.860169 0.024524 0.896740
O O12 0.699513 0.765735 0.369493
O O13 0.000000 0.500000 0.500000
O O14 0.609920 0.783308 0.551590
O O15 0.500000 0.500000 0.000000
O O16 0.790702 0.922743 0.485366
O O17 0.298368 0.126942 0.765328
O O18 0.000000 0.500000 0.000000
#
# Coordination Sequence:
#
# PCOD8033839 Si02
#       8
#     2   2   2   2   2   2   2   2
#     4  11  24  42  70 102 137 179 225 286 341 420
#     4  11  26  44  68  99 135 180 229 278 343 408
#     4  11  26  43  68 103 134 179 226 288 348 410
#     4  11  26  43  71 102 138 174 235 290 345 415
#     4  11  27  45  71  99 142 182 230 282 348 420
#     4  11  24  42  69 102 137 172 232 281 350 413
#     4  11  26  43  70 100 134 185 227 287 349 411
#     4  11  27  45  70  97 140 180 230 281 342 416
#
# _framework density 21.122373
#
# number of rings (size 3 to 8) (size 9 to 14) (size 15 to 20)
#    0.000    1.000    1.250    3.000   12.250    5.000 
#    0.000    0.000    0.000    0.000    0.000    0.000 
#    0.000    0.000    0.000    0.000    0.000    0.000 
#
# Total GULP energy -198403.836251 kJ/mol
# GULP energy per Si atom -12400.239766 kJ/mol
# Density = 2.107430 g / cm^3
# Si number density = 21.122373 Si / 1000 Ang^3
#
#
#
# Elastic Constant Matrix: (Units=GPa)
#
#
# Indices 1 2 3 4 5 6 
#
# 1 105.4830 59.0545 37.8448 10.1940 1.3652 20.8468
# 2 59.0545 158.9998 60.7180 6.1014 6.1088 19.9016
# 3 37.8448 60.7180 114.1548 0.1157 9.3240 12.6498
# 4 10.1940 6.1014 0.1157 36.1471 3.8279 -5.2710
# 5 1.3652 6.1088 9.3240 3.8279 33.5194 1.9293
# 6 20.8468 19.9016 12.6498 -5.2710 1.9293 42.7284
#
#
#
# Elastic Compliance Matrix: (Units=1/GPa)
#
#
# Indices 1 2 3 4 5 6 
#
# 1 0.013572 -0.003476 -0.002220 -0.004104 0.001450 -0.004917
# 2 -0.003476 0.009167 -0.003514 -0.000751 -0.000373 -0.001609
# 3 -0.002220 -0.003514 0.011627 0.001399 -0.002638 -0.000431
# 4 -0.004104 -0.000751 0.001399 0.030206 -0.003871 0.005839
# 5 0.001450 -0.000373 -0.002638 -0.003871 0.031112 -0.001635
# 6 -0.004917 -0.001609 -0.000431 0.005839 -0.001635 0.027474
#
#
# Mechanical properties :
#
#
# Convention : Reuss Voigt Hill
#
# Bulk Modulus (GPa) = 62.71022 77.09691 69.90357
# Shear Modulus (GPa) = 34.03832 37.21368 35.62600
#
# Velocity S-wave (km/s) = 4.01868 4.20195 4.11134
# Velocity P-wave (km/s) = 7.16146 7.75379 7.46350
#
# Compressibility (1/GPa) = 0.01594636
#
# Stress axis : x y z
#
# Youngs Moduli (GPa) = 73.67889 109.09043 86.00796
#
# Poissons Ratio (x) = 0.37918 0.19095
# Poissons Ratio (y) = 0.25610 0.30222
# Poissons Ratio (z) = 0.16358 0.38332
#
# Static dielectric constant tensor:
#      x y z
#    x 4.166330 0.211170 0.022190 
#    y 0.211170 4.233090 0.083490 
#    z 0.022190 0.083490 3.883880 
# 
# 
# High freq. dielectric constant tensor:
#      x y z
#    x 1.839400 0.004880 0.005770 
#    y 0.004880 1.848900 0.004370 
#    z 0.005770 0.004370 1.838240 
# 
# From -- ./inp_files/70436.got.cif
#   From: 2010.06.25/outbox.cif.g09.slc.cpg/sg2_36_cif.got.tgz:70436.got - 2010.06.27 13:26:56.
