data_PCOD8033924
_publ_section_title
;
Structure prediction by ZEFSAII (Michael W. Deem and Ramdas Pophale) SiO2 
 PCOD8033924
Probable space group: P -1
;
_chemical_formula_sum "Si O2"
_cell_formula_units_Z 14
_cell_length_a 21.774966
_cell_length_b 7.511296
_cell_length_c 21.912757
_cell_angle_alpha 136.287758
_cell_angle_beta 166.383880
_cell_angle_gamma 43.401091
_cell_volume 576.639607
_symmetry_space_group_name_H-M "P -1"
_symmetry_group_IT_number 2
_symmetry_cell_setting 'triclinic'
loop_
_space_group_symop_operation_xyz
x,y,z
-x,-y,-z
loop_
_atom_site_type_symbol
_atom_site_label
_atom_site_fract_x
_atom_site_fract_y
_atom_site_fract_z
Si Si1 0.836143 0.748391 0.968026
Si Si2 0.470388 0.897263 0.032676
Si Si3 0.746537 0.200862 0.079265
Si Si4 0.965468 0.361900 0.523196
Si Si5 0.574769 0.061361 0.690234
Si Si6 0.530724 0.461231 0.214309
Si Si7 0.126786 0.820535 0.151738
O O1 0.807140 0.454360 0.888418
O O2 0.587635 0.884557 0.720720
O O3 0.093499 0.745138 0.172799
O O4 0.866812 0.915835 0.100004
O O5 0.478313 0.821156 0.092871
O O6 0.248571 0.746784 0.752488
O O7 0.752320 0.824004 0.253322
O O8 0.391965 0.207138 0.028288
O O9 0.980066 0.345330 0.369731
O O10 0.619789 0.381301 0.947343
O O11 0.840766 0.382123 0.476369
O O12 0.495877 0.363995 0.706904
O O13 0.367498 0.983461 0.421905
O O14 0.859544 0.006250 0.916508
#
# Coordination Sequence:
#
# PCOD8033924 Si02
#       7
#     2   2   2   2   2   2   2
#     4   8  18  31  55  84 116 150 193 240 294 353
#     4  12  28  42  62  91 125 160 206 258 303 357
#     4  11  24  43  63  94 122 162 204 254 304 361
#     4  12  25  45  63  89 123 165 206 254 305 359
#     4   9  18  31  53  84 113 148 192 240 290 348
#     4  11  25  41  67  89 123 163 207 249 304 362
#     4   9  16  31  53  87 114 148 195 238 288 359
#
# _framework density 24.278593999999998
#
# number of rings (size 3 to 8) (size 9 to 14) (size 15 to 20)
#    0.857    0.857    1.429    3.000    4.000    0.000 
#    0.000    0.000    0.000    1.714    0.000    0.000 
#    0.000    0.000    0.000    0.000    0.000    0.000 
#
# Total GULP energy -173468.965307 kJ/mol
# GULP energy per Si atom -12390.640379 kJ/mol
# Density = 2.422334 g / cm^3
# Si number density = 24.278594 Si / 1000 Ang^3
#
#
#
# Elastic Constant Matrix: (Units=GPa)
#
#
# Indices 1 2 3 4 5 6 
#
# 1 21.5871 73.2363 49.0283 44.0844 10.7919 6.6881
# 2 73.2363 152.7395 52.1792 -8.9475 5.4170 -77.7038
# 3 49.0283 52.1792 144.2617 -17.1646 14.8999 -40.0450
# 4 44.0844 -8.9475 -17.1646 -30.5006 12.3787 -39.8411
# 5 10.7919 5.4170 14.8999 12.3787 15.6939 5.1591
# 6 6.6881 -77.7038 -40.0450 -39.8411 5.1591 11.8957
#
#
#
# Elastic Compliance Matrix: (Units=1/GPa)
#
#
# Indices 1 2 3 4 5 6 
#
# 1 0.050780 -0.011849 0.001608 0.027677 -0.060191 0.018267
# 2 -0.011849 0.016916 -0.004350 -0.024537 0.022284 0.010673
# 3 0.001608 -0.004350 0.007934 -0.000608 -0.005982 -0.002055
# 4 0.027677 -0.024537 -0.000608 0.040185 -0.032013 -0.029413
# 5 -0.060191 0.022284 -0.005982 -0.032013 0.129732 -0.004214
# 6 0.018267 0.010673 -0.002055 -0.029413 -0.004214 0.039909
#
#
# Mechanical properties :
#
#
# Convention : Reuss Voigt Hill
#
# Bulk Modulus (GPa) = 21.52913 74.16400 47.84657
# Shear Modulus (GPa) = 15.14598 9.02743 12.08670
#
# Velocity S-wave (km/s) = 2.50039 1.93037 2.23364
# Velocity P-wave (km/s) = 4.15003 5.96505 5.13831
#
# Compressibility (1/GPa) = 0.04644869
#
# Stress axis : x y z
#
# Youngs Moduli (GPa) = 19.69277 59.11425 126.04165
#
# Poissons Ratio (x) = 0.70043 -0.20269
# Poissons Ratio (y) = 0.23333 0.54831
# Poissons Ratio (z) = -0.03167 0.25716
#
# Static dielectric constant tensor:
#      x y z
#    x 4.118460 -0.407200 0.261230 
#    y -0.407200 4.529970 0.214160 
#    z 0.261230 0.214160 4.211770 
# 
# 
# High freq. dielectric constant tensor:
#      x y z
#    x 1.943810 -0.022650 0.011680 
#    y -0.022650 1.972170 0.015140 
#    z 0.011680 0.015140 1.948950 
# 
# From -- ./inp_files/621169.got.cif
#   From: 2010.06.25/outbox.cif.g09.slc.cpg/sg2_311_cif.got.tgz:621169.got - 2010.06.27 13:26:56.
