data_PCOD8033507
_publ_section_title
;
Structure prediction by ZEFSAII (Michael W. Deem and Ramdas Pophale) SiO2 
 PCOD8033507
Probable space group: P -1
;
_chemical_formula_sum "Si O2"
_cell_formula_units_Z 14
_cell_length_a 23.301208
_cell_length_b 9.237344
_cell_length_c 5.152705
_cell_angle_alpha 104.660721
_cell_angle_beta 86.562708
_cell_angle_gamma 38.269431
_cell_volume 599.442446
_symmetry_space_group_name_H-M "P -1"
_symmetry_group_IT_number 2
_symmetry_cell_setting 'triclinic'
loop_
_space_group_symop_operation_xyz
x,y,z
-x,-y,-z
loop_
_atom_site_type_symbol
_atom_site_label
_atom_site_fract_x
_atom_site_fract_y
_atom_site_fract_z
Si Si1 0.757849 0.750548 0.808772
Si Si2 0.234816 0.718639 0.192327
Si Si3 0.887160 0.075702 0.167110
Si Si4 0.342106 0.776829 0.149439
Si Si5 0.465477 0.706612 0.417282
Si Si6 0.115708 0.582500 0.862290
Si Si7 0.595302 0.880415 0.050377
O O1 0.833402 0.609185 0.481344
O O2 0.708867 0.022283 0.987782
O O3 0.818219 0.573941 0.967816
O O4 0.667059 0.823306 0.808876
O O5 0.163689 0.808505 0.482089
O O6 0.271479 0.803492 0.311991
O O7 0.177505 0.875978 0.007013
O O8 0.330809 0.401835 0.964817
O O9 0.893039 0.226051 0.113621
O O10 0.001754 0.760812 0.021531
O O11 0.360941 0.872261 0.390468
O O12 0.446068 0.466061 0.901316
O O13 0.500000 0.500000 0.500000
O O14 0.448974 0.905677 0.632991
O O15 0.500000 0.000000 0.000000
#
# Coordination Sequence:
#
# PCOD8033507 Si02
#       7
#     2   2   2   2   2   2   2
#     4  12  24  46  72 106 143 196 240 293 371 439
#     4  12  27  46  72 113 147 190 242 307 370 424
#     4  11  24  46  75 108 144 183 245 313 368 428
#     4  11  28  44  70 103 152 200 240 299 362 447
#     4  11  24  47  69  99 148 207 248 288 362 430
#     4  11  23  46  76 106 140 187 246 306 367 438
#     4  12  26  44  72 109 147 188 246 303 350 434
#
# _framework density 23.355038
#
# number of rings (size 3 to 8) (size 9 to 14) (size 15 to 20)
#    0.000    0.571    4.286    2.571    6.000    2.857 
#    0.000    4.286    0.000    0.000    0.000    0.000 
#    0.000    0.000    0.000    0.000    0.000    0.000 
#
# Total GULP energy -173533.632654 kJ/mol
# GULP energy per Si atom -12395.259475 kJ/mol
# Density = 2.330188 g / cm^3
# Si number density = 23.355038 Si / 1000 Ang^3
#
#
#
# Elastic Constant Matrix: (Units=GPa)
#
#
# Indices 1 2 3 4 5 6 
#
# 1 121.2531 63.7938 44.7744 12.4272 14.3468 -0.1851
# 2 63.7938 111.1524 53.6926 9.1707 -3.1964 -9.8174
# 3 44.7744 53.6926 125.2351 4.2537 11.5770 -20.8267
# 4 12.4272 9.1707 4.2537 35.6093 0.3228 -2.3636
# 5 14.3468 -3.1964 11.5770 0.3228 33.3998 0.6191
# 6 -0.1851 -9.8174 -20.8267 -2.3636 0.6191 34.1756
#
#
#
# Elastic Compliance Matrix: (Units=1/GPa)
#
#
# Indices 1 2 3 4 5 6 
#
# 1 0.013657 -0.007251 -0.001647 -0.002854 -0.005904 -0.003103
# 2 -0.007251 0.015676 -0.004394 -0.000930 0.006117 0.001611
# 3 -0.001647 -0.004394 0.011800 0.000734 -0.003922 0.006042
# 4 -0.002854 -0.000930 0.000734 0.029371 0.000558 0.002185
# 5 -0.005904 0.006117 -0.003922 0.000558 0.034439 -0.001250
# 6 -0.003103 0.001611 0.006042 0.002185 -0.001250 0.033562
#
#
# Mechanical properties :
#
#
# Convention : Reuss Voigt Hill
#
# Bulk Modulus (GPa) = 68.73827 75.79579 72.26703
# Shear Modulus (GPa) = 29.42244 33.66226 31.54235
#
# Velocity S-wave (km/s) = 3.55320 3.80060 3.67898
# Velocity P-wave (km/s) = 6.80657 7.19608 7.00404
#
# Compressibility (1/GPa) = 0.01454794
#
# Stress axis : x y z
#
# Youngs Moduli (GPa) = 73.22512 63.79323 84.74288
#
# Poissons Ratio (x) = 0.46253 0.13960
# Poissons Ratio (y) = 0.53092 0.37240
# Poissons Ratio (z) = 0.12062 0.28034
#
# Static dielectric constant tensor:
#      x y z
#    x 4.270540 -0.189070 -0.121680 
#    y -0.189070 4.692560 0.210360 
#    z -0.121680 0.210360 4.202510 
# 
# 
# High freq. dielectric constant tensor:
#      x y z
#    x 1.917920 -0.001990 -0.006810 
#    y -0.001990 1.939610 0.007680 
#    z -0.006810 0.007680 1.920260 
# 
# From -- ./inp_files/117242.got.cif
#   From: 2010.06.25/outbox.cif.g09.slc.cpg/sg2_59_cif.got.tgz:117242.got - 2010.06.27 13:26:56.
