data_PCOD8033338
_publ_section_title
;
Structure prediction by ZEFSAII (Michael W. Deem and Ramdas Pophale) SiO2 
 PCOD8033338
Probable space group: P -1
;
_chemical_formula_sum "Si O2"
_cell_formula_units_Z 10
_cell_length_a 9.166615
_cell_length_b 8.482958
_cell_length_c 9.186059
_cell_angle_alpha 108.215190
_cell_angle_beta 135.931927
_cell_angle_gamma 64.907860
_cell_volume 449.889478
_symmetry_space_group_name_H-M "P -1"
_symmetry_group_IT_number 2
_symmetry_cell_setting 'triclinic'
loop_
_space_group_symop_operation_xyz
x,y,z
-x,-y,-z
loop_
_atom_site_type_symbol
_atom_site_label
_atom_site_fract_x
_atom_site_fract_y
_atom_site_fract_z
Si Si1 0.987674 0.225174 0.921589
Si Si2 0.770599 0.645969 0.382686
Si Si3 0.449612 0.494775 0.293491
Si Si4 0.758581 0.931267 0.663672
Si Si5 0.366061 0.202599 0.979818
O O1 0.188781 0.590298 0.113721
O O2 0.160538 0.175884 0.162220
O O3 0.121378 0.226588 0.870409
O O4 0.856882 0.088273 0.763291
O O5 0.595219 0.591922 0.339840
O O6 0.831097 0.809133 0.540930
O O7 0.656966 0.697881 0.160717
O O8 0.000000 0.500000 0.500000
O O9 0.500000 0.500000 0.500000
O O10 0.494814 0.298150 0.208502
O O11 0.500000 0.000000 0.500000
O O12 0.500000 0.000000 0.000000
#
# Coordination Sequence:
#
# PCOD8033338 Si02
#       5
#     2   2   2   2   2
#     4  11  25  45  75 102 144 190 244 287 353 441
#     4  12  26  45  72 104 150 185 238 303 366 416
#     4  12  26  48  75 102 145 199 242 287 358 441
#     4  11  23  45  75 106 137 190 243 293 352 430
#     4  12  28  44  71 111 146 182 241 305 361 416
#
# _framework density 22.227679999999999
#
# number of rings (size 3 to 8) (size 9 to 14) (size 15 to 20)
#    0.000    0.400    2.000    6.000    8.400    0.800 
#    0.000    0.000    0.000    0.000    0.000    0.000 
#    0.000    0.000    0.000    0.000    0.000    0.000 
#
# Total GULP energy -124054.626157 kJ/mol
# GULP energy per Si atom -12405.462616 kJ/mol
# Density = 2.217709 g / cm^3
# Si number density = 22.227680 Si / 1000 Ang^3
#
#
#
# Elastic Constant Matrix: (Units=GPa)
#
#
# Indices 1 2 3 4 5 6 
#
# 1 149.2193 38.6154 53.2484 -17.7995 -9.8777 -0.9606
# 2 38.6154 130.2012 65.7600 1.3734 -12.4232 -24.0415
# 3 53.2484 65.7600 159.1500 2.6065 -14.6543 -2.0098
# 4 -17.7995 1.3734 2.6065 45.1209 -10.5904 -7.2542
# 5 -9.8777 -12.4232 -14.6543 -10.5904 38.6320 -9.0914
# 6 -0.9606 -24.0415 -2.0098 -7.2542 -9.0914 42.8917
#
#
#
# Elastic Compliance Matrix: (Units=1/GPa)
#
#
# Indices 1 2 3 4 5 6 
#
# 1 0.008418 -0.001085 -0.002221 0.004112 0.002240 0.000647
# 2 -0.001085 0.011851 -0.004075 0.001663 0.004234 0.007606
# 3 -0.002221 -0.004075 0.008760 -0.001456 0.000563 -0.002050
# 4 0.004112 0.001663 -0.001456 0.027521 0.010418 0.007819
# 5 0.002240 0.004234 0.000563 0.010418 0.033554 0.011324
# 6 0.000647 0.007606 -0.002050 0.007819 0.011324 0.031219
#
#
# Mechanical properties :
#
#
# Convention : Reuss Voigt Hill
#
# Bulk Modulus (GPa) = 70.09291 83.75759 76.92525
# Shear Modulus (GPa) = 35.50090 44.05870 39.77980
#
# Velocity S-wave (km/s) = 4.00077 4.45697 4.23502
# Velocity P-wave (km/s) = 7.27627 8.01558 7.65486
#
# Compressibility (1/GPa) = 0.01426678
#
# Stress axis : x y z
#
# Youngs Moduli (GPa) = 118.79556 84.37790 114.15333
#
# Poissons Ratio (x) = 0.09156 0.25353
# Poissons Ratio (y) = 0.12890 0.46520
# Poissons Ratio (z) = 0.26384 0.34386
#
# Static dielectric constant tensor:
#      x y z
#    x 4.141680 -0.024170 -0.054190 
#    y -0.024170 4.278900 0.214730 
#    z -0.054190 0.214730 3.946810 
# 
# 
# High freq. dielectric constant tensor:
#      x y z
#    x 1.888300 -0.001640 -0.000900 
#    y -0.001640 1.893040 0.007490 
#    z -0.000900 0.007490 1.886900 
# 
# From -- ./inp_files/152313.got.cif
#   From: 2010.06.25/outbox.cif.g09.slc.cpg/sg2_77_cif.got.tgz:152313.got - 2010.06.27 13:26:56.
