data_PCOD8033995
_publ_section_title
;
Structure prediction by ZEFSAII (Michael W. Deem and Ramdas Pophale) SiO2 
 PCOD8033995
Probable space group: P -1
;
_chemical_formula_sum "Si O2"
_cell_formula_units_Z 16
_cell_length_a 8.563596
_cell_length_b 18.392422
_cell_length_c 13.131572
_cell_angle_alpha 146.077815
_cell_angle_beta 49.747106
_cell_angle_gamma 106.396522
_cell_volume 707.281417
_symmetry_space_group_name_H-M "P -1"
_symmetry_group_IT_number 2
_symmetry_cell_setting 'triclinic'
loop_
_space_group_symop_operation_xyz
x,y,z
-x,-y,-z
loop_
_atom_site_type_symbol
_atom_site_label
_atom_site_fract_x
_atom_site_fract_y
_atom_site_fract_z
Si Si1 0.910360 0.199986 0.320420
Si Si2 0.614404 0.819254 0.200225
Si Si3 0.961965 0.668971 0.216778
Si Si4 0.404185 0.855730 0.735613
Si Si5 0.115132 0.649176 0.908505
Si Si6 0.319518 0.678065 0.234112
Si Si7 0.477201 0.710259 0.741497
Si Si8 0.819812 0.677240 0.738062
O O1 0.969443 0.326526 0.420273
O O2 0.675254 0.253808 0.406325
O O3 0.839159 0.197983 0.463885
O O4 0.180530 0.029292 0.986364
O O5 0.443107 0.755194 0.214770
O O6 0.500000 0.000000 0.500000
O O7 0.677131 0.809989 0.043020
O O8 0.873891 0.686346 0.993901
O O9 0.134223 0.670266 0.229743
O O10 0.667775 0.810618 0.528957
O O11 0.035078 0.709072 0.126940
O O12 0.000000 0.500000 0.000000
O O13 0.415155 0.846635 0.843950
O O14 0.211868 0.743815 0.923487
O O15 0.337256 0.458057 0.592116
O O16 0.500000 0.500000 0.000000
O O17 0.600518 0.713845 0.797065
O O18 0.000000 0.500000 0.500000
#
# Coordination Sequence:
#
# PCOD8033995 Si02
#       8
#     2   2   2   2   2   2   2   2
#     4  11  27  45  73 105 141 187 243 298 368 440
#     4  12  28  48  73 109 151 193 238 308 375 432
#     4  12  24  44  72 105 143 189 242 301 362 432
#     4  11  25  46  71 101 144 188 237 304 368 424
#     4  11  24  43  69 101 141 187 242 293 367 431
#     4  12  27  47  75 105 144 194 247 297 364 450
#     4  11  24  43  73 103 138 190 243 300 354 438
#     4  12  25  46  72 105 144 189 245 296 361 445
#
# _framework density 22.621831
#
# number of rings (size 3 to 8) (size 9 to 14) (size 15 to 20)
#    0.000    0.500    2.500    5.250    8.750    2.000 
#    0.000    1.250    0.000    0.000    0.000    0.000 
#    0.000    0.000    0.000    0.000    0.000    0.000 
#
# Total GULP energy -198380.327482 kJ/mol
# GULP energy per Si atom -12398.770468 kJ/mol
# Density = 2.257034 g / cm^3
# Si number density = 22.621831 Si / 1000 Ang^3
#
#
#
# Elastic Constant Matrix: (Units=GPa)
#
#
# Indices 1 2 3 4 5 6 
#
# 1 169.9267 30.6296 48.1000 -7.5848 -11.2472 -11.2630
# 2 30.6296 92.8903 36.5075 -15.4328 -8.0834 -4.8809
# 3 48.1000 36.5075 94.3221 -23.8199 -6.4200 -4.0833
# 4 -7.5848 -15.4328 -23.8199 37.2204 -0.9351 6.8663
# 5 -11.2472 -8.0834 -6.4200 -0.9351 39.1203 -7.9547
# 6 -11.2630 -4.8809 -4.0833 6.8663 -7.9547 44.8555
#
#
#
# Elastic Compliance Matrix: (Units=1/GPa)
#
#
# Indices 1 2 3 4 5 6 
#
# 1 0.007219 -0.001021 -0.003465 -0.001480 0.001648 0.001905
# 2 -0.001021 0.013253 -0.003725 0.002811 0.002060 0.000782
# 3 -0.003465 -0.003725 0.015874 0.008099 0.000845 -0.000920
# 4 -0.001480 0.002811 0.008099 0.033732 0.001429 -0.004239
# 5 0.001648 0.002060 0.000845 0.001429 0.027735 0.005415
# 6 0.001905 0.000782 -0.000920 -0.004239 0.005415 0.024383
#
#
# Mechanical properties :
#
#
# Convention : Reuss Voigt Hill
#
# Bulk Modulus (GPa) = 50.19206 65.29036 57.74121
# Shear Modulus (GPa) = 34.42087 40.36604 37.39345
#
# Velocity S-wave (km/s) = 3.90497 4.22878 4.07010
# Velocity P-wave (km/s) = 6.52437 7.26414 6.90417
#
# Compressibility (1/GPa) = 0.01992347
#
# Stress axis : x y z
#
# Youngs Moduli (GPa) = 138.52140 75.45230 62.99579
#
# Poissons Ratio (x) = 0.07703 0.21831
# Poissons Ratio (y) = 0.14141 0.23468
# Poissons Ratio (z) = 0.48003 0.28108
#
# Static dielectric constant tensor:
#      x y z
#    x 4.313070 0.066420 -0.032210 
#    y 0.066420 4.176800 -0.340770 
#    z -0.032210 -0.340770 4.269290 
# 
# 
# High freq. dielectric constant tensor:
#      x y z
#    x 1.909310 -0.003120 -0.006640 
#    y -0.003120 1.898950 -0.016220 
#    z -0.006640 -0.016220 1.893580 
# 
# From -- ./inp_files/403335.got.cif
#   From: 2010.06.25/outbox.cif.g09.slc.cpg/sg2_202_cif.got.tgz:403335.got - 2010.06.27 13:26:56.
