data_PCOD8033855
_publ_section_title
;
Structure prediction by ZEFSAII (Michael W. Deem and Ramdas Pophale) SiO2 
 PCOD8033855
Probable space group: P -1
;
_chemical_formula_sum "Si O2"
_cell_formula_units_Z 16
_cell_length_a 16.766394
_cell_length_b 9.676784
_cell_length_c 9.720096
_cell_angle_alpha 120.023749
_cell_angle_beta 31.035089
_cell_angle_gamma 117.564401
_cell_volume 701.916186
_symmetry_space_group_name_H-M "P -1"
_symmetry_group_IT_number 2
_symmetry_cell_setting 'triclinic'
loop_
_space_group_symop_operation_xyz
x,y,z
-x,-y,-z
loop_
_atom_site_type_symbol
_atom_site_label
_atom_site_fract_x
_atom_site_fract_y
_atom_site_fract_z
Si Si1 0.835614 0.059509 0.733980
Si Si2 0.288008 0.497270 0.097087
Si Si3 0.825977 0.426292 0.984379
Si Si4 0.690633 0.102285 0.406293
Si Si5 0.334221 0.034322 0.321218
Si Si6 0.344287 0.143836 0.891052
Si Si7 0.838839 0.429291 0.396244
Si Si8 0.358996 0.405444 0.440512
O O1 0.821512 0.235545 0.902079
O O2 0.801390 0.050857 0.617155
O O3 0.000000 0.000000 0.500000
O O4 0.702673 0.940455 0.938557
O O5 0.181409 0.514859 0.131250
O O6 0.216290 0.591866 0.375234
O O7 0.275630 0.313655 0.068259
O O8 0.459306 0.570727 0.846460
O O9 0.984634 0.504936 0.853176
O O10 0.683717 0.482699 0.312846
O O11 0.529575 0.167009 0.624942
O O12 0.818214 0.251564 0.272518
O O13 0.686632 0.040028 0.535405
O O14 0.731056 0.959174 0.175528
O O15 0.315494 0.222590 0.453715
O O16 0.500000 0.000000 0.000000
O O17 0.731954 0.551543 0.540459
#
# Coordination Sequence:
#
# PCOD8033855 Si02
#       8
#     2   2   2   2   2   2   2   2
#     4  12  26  46  70 101 141 182 224 280 350 409
#     4  12  25  43  71 103 136 181 230 281 340 407
#     4  12  27  46  69 102 143 181 225 285 345 408
#     4  11  24  42  69  99 134 178 224 283 337 400
#     4  12  24  43  70 103 137 178 233 284 334 405
#     4  11  24  43  68  99 136 174 227 280 343 401
#     4  12  25  46  69 100 137 182 229 279 342 409
#     4  12  25  44  70 103 137 181 232 282 340 408
#
# _framework density 22.794746
#
# number of rings (size 3 to 8) (size 9 to 14) (size 15 to 20)
#    0.000    0.250    2.500    7.500    1.750    2.000 
#    0.000    1.875    0.000    0.000    0.000    0.000 
#    0.000    0.000    0.000    0.000    0.000    0.000 
#
# Total GULP energy -198534.242924 kJ/mol
# GULP energy per Si atom -12408.390183 kJ/mol
# Density = 2.274286 g / cm^3
# Si number density = 22.794746 Si / 1000 Ang^3
#
#
#
# Elastic Constant Matrix: (Units=GPa)
#
#
# Indices 1 2 3 4 5 6 
#
# 1 104.9844 13.6163 -4.0073 9.5751 -0.9541 -0.9573
# 2 13.6163 127.9985 -0.7558 4.1848 -8.3089 11.6948
# 3 -4.0073 -0.7558 47.4352 9.9425 2.8952 6.0515
# 4 9.5751 4.1848 9.9425 29.6103 7.5418 3.9854
# 5 -0.9541 -8.3089 2.8952 7.5418 35.2753 -7.4047
# 6 -0.9573 11.6948 6.0515 3.9854 -7.4047 38.9374
#
#
#
# Elastic Compliance Matrix: (Units=1/GPa)
#
#
# Indices 1 2 3 4 5 6 
#
# 1 0.010088 -0.000952 0.001502 -0.003999 0.000968 0.000894
# 2 -0.000952 0.008259 0.000463 -0.001155 0.001680 -0.002138
# 3 0.001502 0.000463 0.023280 -0.007766 -0.000744 -0.003067
# 4 -0.003999 -0.001155 -0.007766 0.040844 -0.009423 -0.004517
# 5 0.000968 0.001680 -0.000744 -0.009423 0.032260 0.006734
# 6 0.000894 -0.002138 -0.003067 -0.004517 0.006734 0.028566
#
#
# Mechanical properties :
#
#
# Convention : Reuss Voigt Hill
#
# Bulk Modulus (GPa) = 22.90800 33.12496 28.01648
# Shear Modulus (GPa) = 32.08811 38.86893 35.47852
#
# Velocity S-wave (km/s) = 3.75600 4.13385 3.94945
# Velocity P-wave (km/s) = 5.37416 6.11133 5.75456
#
# Compressibility (1/GPa) = 0.04365288
#
# Stress axis : x y z
#
# Youngs Moduli (GPa) = 99.13038 121.08299 42.95518
#
# Poissons Ratio (x) = 0.11532 -0.06452
# Poissons Ratio (y) = 0.09441 -0.01991
# Poissons Ratio (z) = -0.14890 -0.05612
#
# Static dielectric constant tensor:
#      x y z
#    x 4.338920 0.014020 0.156800 
#    y 0.014020 4.255830 0.046070 
#    z 0.156800 0.046070 4.066400 
# 
# 
# High freq. dielectric constant tensor:
#      x y z
#    x 1.916600 -0.000570 0.009490 
#    y -0.000570 1.917560 0.002850 
#    z 0.009490 0.002850 1.890140 
# 
# From -- ./inp_files/299079.got.cif
#   From: 2010.06.25/outbox.cif.g09.slc.cpg/sg2_150_cif.got.tgz:299079.got - 2010.06.27 13:26:56.
