data_PCOD8033925
_publ_section_title
;
Structure prediction by ZEFSAII (Michael W. Deem and Ramdas Pophale) SiO2 
 PCOD8033925
Probable space group: P -1
;
_chemical_formula_sum "Si O2"
_cell_formula_units_Z 16
_cell_length_a 15.138422
_cell_length_b 5.926589
_cell_length_c 15.232676
_cell_angle_alpha 64.879586
_cell_angle_beta 143.065931
_cell_angle_gamma 122.008303
_cell_volume 696.371868
_symmetry_space_group_name_H-M "P -1"
_symmetry_group_IT_number 2
_symmetry_cell_setting 'triclinic'
loop_
_space_group_symop_operation_xyz
x,y,z
-x,-y,-z
loop_
_atom_site_type_symbol
_atom_site_label
_atom_site_fract_x
_atom_site_fract_y
_atom_site_fract_z
Si Si1 0.914812 0.683760 0.954597
Si Si2 0.377433 0.779270 0.555257
Si Si3 0.241812 0.698588 0.956272
Si Si4 0.617833 0.726667 0.616210
Si Si5 0.113916 0.085506 0.698297
Si Si6 0.544169 0.028253 0.226380
Si Si7 0.218645 0.221729 0.564885
Si Si8 0.344771 0.552964 0.892765
O O1 0.764949 0.653430 0.779290
O O2 0.868126 0.544097 0.034357
O O3 0.000000 0.500000 0.000000
O O4 0.000000 0.000000 0.000000
O O5 0.524602 0.778557 0.615584
O O6 0.444350 0.816555 0.700436
O O7 0.227852 0.504942 0.484458
O O8 0.314601 0.006882 0.433181
O O9 0.139818 0.817318 0.793527
O O10 0.353121 0.610125 0.993319
O O11 0.359716 0.921216 0.075590
O O12 0.500000 0.500000 0.500000
O O13 0.927751 0.015202 0.553578
O O14 0.203077 0.210133 0.659264
O O15 0.182951 0.308802 0.789608
O O16 0.653439 0.201435 0.206734
O O17 0.616550 0.796534 0.333725
O O18 0.500000 0.500000 0.000000
#
# Coordination Sequence:
#
# PCOD8033925 Si02
#       8
#     2   2   2   2   2   2   2   2
#     4  12  33  54  81 116 161 207 270 334 401 462
#     4  11  25  44  81 104 145 194 252 317 383 457
#     4  12  27  46  74 106 149 196 250 314 379 457
#     4  11  27  52  78 108 144 200 269 323 391 465
#     4  11  25  42  66 101 150 188 243 297 381 457
#     4  12  24  43  74 108 143 191 248 308 380 466
#     4  11  24  43  64 106 146 191 239 305 373 462
#     4  12  24  42  72 107 148 194 247 304 382 464
#
# _framework density 22.976230000000001
#
# number of rings (size 3 to 8) (size 9 to 14) (size 15 to 20)
#    0.000    0.500    3.750    3.375   10.500    2.500 
#    0.000    0.000    0.000    0.000    0.000    0.000 
#    0.000    0.000    0.000    0.000    0.000    0.000 
#
# Total GULP energy -198318.557184 kJ/mol
# GULP energy per Si atom -12394.909824 kJ/mol
# Density = 2.292394 g / cm^3
# Si number density = 22.976230 Si / 1000 Ang^3
#
#
#
# Elastic Constant Matrix: (Units=GPa)
#
#
# Indices 1 2 3 4 5 6 
#
# 1 106.9611 42.1835 24.3286 -9.9329 -18.1675 9.1224
# 2 42.1835 144.2287 37.2956 -8.3938 -12.8614 21.0811
# 3 24.3286 37.2956 105.7311 -2.5515 3.2718 7.1284
# 4 -9.9329 -8.3938 -2.5515 45.0861 -3.8094 -8.8336
# 5 -18.1675 -12.8614 3.2718 -3.8094 28.4985 -8.7455
# 6 9.1224 21.0811 7.1284 -8.8336 -8.7455 40.5120
#
#
#
# Elastic Compliance Matrix: (Units=1/GPa)
#
#
# Indices 1 2 3 4 5 6 
#
# 1 0.012283 -0.002306 -0.002261 0.003041 0.007818 0.001183
# 2 -0.002306 0.008905 -0.002445 0.000559 0.001939 -0.003144
# 3 -0.002261 -0.002445 0.011040 -0.000951 -0.004340 -0.001305
# 4 0.003041 0.000559 -0.000951 0.024752 0.007515 0.006211
# 5 0.007818 0.001939 -0.004340 0.007515 0.045342 0.009421
# 6 0.001183 -0.003144 -0.001305 0.006211 0.009421 0.029671
#
#
# Mechanical properties :
#
#
# Convention : Reuss Voigt Hill
#
# Bulk Modulus (GPa) = 54.93645 62.72628 58.83137
# Shear Modulus (GPa) = 32.87615 39.69354 36.28485
#
# Velocity S-wave (km/s) = 3.78680 4.16094 3.97827
# Velocity P-wave (km/s) = 6.56367 7.10242 6.83835
#
# Compressibility (1/GPa) = 0.01820285
#
# Stress axis : x y z
#
# Youngs Moduli (GPa) = 81.41664 112.29277 90.57953
#
# Poissons Ratio (x) = 0.25900 0.20479
# Poissons Ratio (y) = 0.18779 0.22148
# Poissons Ratio (z) = 0.18408 0.27457
#
# Static dielectric constant tensor:
#      x y z
#    x 4.140850 0.076100 -0.216080 
#    y 0.076100 4.630290 -0.222840 
#    z -0.216080 -0.222840 4.237820 
# 
# 
# High freq. dielectric constant tensor:
#      x y z
#    x 1.904480 0.004980 -0.014000 
#    y 0.004980 1.924630 -0.005420 
#    z -0.014000 -0.005420 1.911740 
# 
# From -- ./inp_files/473382.got.cif
#   From: 2010.06.25/outbox.cif.g09.slc.cpg/sg2_237_cif.got.tgz:473382.got - 2010.06.27 13:26:56.
