data_PCOD8033680
_publ_section_title
;
Structure prediction by ZEFSAII (Michael W. Deem and Ramdas Pophale) SiO2 
 PCOD8033680
Probable space group: P -1
;
_chemical_formula_sum "Si O2"
_cell_formula_units_Z 16
_cell_length_a 24.527236
_cell_length_b 5.041578
_cell_length_c 5.819909
_cell_angle_alpha 86.639312
_cell_angle_beta 58.669418
_cell_angle_gamma 101.675074
_cell_volume 590.347093
_symmetry_space_group_name_H-M "P -1"
_symmetry_group_IT_number 2
_symmetry_cell_setting 'triclinic'
loop_
_space_group_symop_operation_xyz
x,y,z
-x,-y,-z
loop_
_atom_site_type_symbol
_atom_site_label
_atom_site_fract_x
_atom_site_fract_y
_atom_site_fract_z
Si Si1 0.628704 0.058590 0.700591
Si Si2 0.742427 0.053164 0.769453
Si Si3 0.513377 0.834503 0.266205
Si Si4 0.864558 0.880171 0.546512
Si Si5 0.161220 0.490606 0.782267
Si Si6 0.921994 0.431810 0.657068
Si Si7 0.397520 0.370490 0.609984
Si Si8 0.277624 0.542326 0.825894
O O1 0.609972 0.890133 0.517922
O O2 0.674303 0.937154 0.784015
O O3 0.673137 0.358647 0.509031
O O4 0.556354 0.042337 0.970392
O O5 0.796009 0.273916 0.488729
O O6 0.782850 0.820018 0.756207
O O7 0.729081 0.199498 0.023814
O O8 0.440463 0.642195 0.358472
O O9 0.560302 0.641899 0.252710
O O10 0.500000 0.000000 0.500000
O O11 0.876223 0.785390 0.264966
O O12 0.899261 0.705437 0.640116
O O13 0.896728 0.200838 0.526941
O O14 0.206758 0.388392 0.878139
O O15 0.110378 0.637228 0.014669
O O16 0.000000 0.500000 0.500000
O O17 0.322120 0.364391 0.863647
#
# Coordination Sequence:
#
# PCOD8033680 Si02
#       8
#     2   2   2   2   2   2   2   2
#     4  11  24  40  68  99 134 181 237 297 373 434
#     4  11  24  46  71 108 144 192 240 310 370 446
#     4  11  25  44  62  90 137 183 237 296 367 437
#     4  12  25  50  75 113 153 198 254 305 367 447
#     4  11  25  46  78 106 152 195 246 308 380 432
#     4  12  29  50  78 113 157 201 250 307 368 444
#     4  11  24  41  65  95 133 184 234 301 361 442
#     4  11  24  45  70 104 142 180 240 302 370 438
#
# _framework density 27.102703000000002
#
# number of rings (size 3 to 8) (size 9 to 14) (size 15 to 20)
#    0.000    0.750    2.500    3.750    1.750   11.000 
#    0.000    0.000    0.000    0.000    0.000    0.000 
#    0.000    0.000    0.000    0.000    0.000    0.000 
#
# Total GULP energy -198295.689472 kJ/mol
# GULP energy per Si atom -12393.480592 kJ/mol
# Density = 2.704102 g / cm^3
# Si number density = 27.102703 Si / 1000 Ang^3
#
#
#
# Elastic Constant Matrix: (Units=GPa)
#
#
# Indices 1 2 3 4 5 6 
#
# 1 161.7082 12.3807 44.4464 14.0131 -37.5401 13.2276
# 2 12.3807 68.0333 14.7364 31.2672 -10.7312 12.5848
# 3 44.4464 14.7364 128.8704 21.3300 -31.0470 13.5233
# 4 14.0131 31.2672 21.3300 32.9314 3.8734 2.6957
# 5 -37.5401 -10.7312 -31.0470 3.8734 48.1143 0.4023
# 6 13.2276 12.5848 13.5233 2.6957 0.4023 51.4302
#
#
#
# Elastic Compliance Matrix: (Units=1/GPa)
#
#
# Indices 1 2 3 4 5 6 
#
# 1 0.008826 0.004402 0.000398 -0.008987 0.008874 -0.003050
# 2 0.004402 0.037443 0.007346 -0.043723 0.020130 -0.010092
# 3 0.000398 0.007346 0.012742 -0.016386 0.011528 -0.004482
# 4 -0.008987 -0.043723 -0.016386 0.089334 -0.034637 0.012907
# 5 0.008874 0.020130 0.011528 -0.034637 0.042497 -0.008756
# 6 -0.003050 -0.010092 -0.004482 0.012907 -0.008756 0.023268
#
#
# Mechanical properties :
#
#
# Convention : Reuss Voigt Hill
#
# Bulk Modulus (GPa) = 12.00457 55.74877 33.87667
# Shear Modulus (GPa) = 22.97932 45.63173 34.30553
#
# Velocity S-wave (km/s) = 2.91496 4.10769 3.56161
# Velocity P-wave (km/s) = 3.97093 6.56595 5.42586
#
# Compressibility (1/GPa) = 0.08330164
#
# Stress axis : x y z
#
# Youngs Moduli (GPa) = 113.30370 26.70728 78.48010
#
# Poissons Ratio (x) = -0.11756 -0.03124
# Poissons Ratio (y) = -0.49873 -0.57648
# Poissons Ratio (z) = -0.04510 -0.19618
#
# Static dielectric constant tensor:
#      x y z
#    x 6.059340 0.039240 -0.443490 
#    y 0.039240 5.028000 -0.638680 
#    z -0.443490 -0.638680 5.975970 
# 
# 
# High freq. dielectric constant tensor:
#      x y z
#    x 2.118120 -0.013180 -0.000570 
#    y -0.013180 2.074080 -0.010840 
#    z -0.000570 -0.010840 2.106720 
# 
# From -- ./inp_files/121631.got.cif
#   From: 2010.06.25/outbox.cif.g09.slc.cpg/sg2_61_cif.got.tgz:121631.got - 2010.06.27 13:26:56.
