data_PCOD8033820
_publ_section_title
;
Structure prediction by ZEFSAII (Michael W. Deem and Ramdas Pophale) SiO2 
 PCOD8033820
Probable space group: P -1
;
_chemical_formula_sum "Si O2"
_cell_formula_units_Z 16
_cell_length_a 7.701792
_cell_length_b 22.203689
_cell_length_c 8.884377
_cell_angle_alpha 43.482802
_cell_angle_beta 47.724004
_cell_angle_gamma 45.369985
_cell_volume 701.625902
_symmetry_space_group_name_H-M "P -1"
_symmetry_group_IT_number 2
_symmetry_cell_setting 'triclinic'
loop_
_space_group_symop_operation_xyz
x,y,z
-x,-y,-z
loop_
_atom_site_type_symbol
_atom_site_label
_atom_site_fract_x
_atom_site_fract_y
_atom_site_fract_z
Si Si1 0.901726 0.138054 0.425501
Si Si2 0.285410 0.458688 0.190262
Si Si3 0.492344 0.287423 0.592058
Si Si4 0.285781 0.452885 0.605651
Si Si5 0.454000 0.135235 0.095878
Si Si6 0.764055 0.182286 0.082984
Si Si7 0.537854 0.403095 0.848143
Si Si8 0.246052 0.007932 0.050177
O O1 0.752994 0.232522 0.444648
O O2 0.776356 0.152985 0.304948
O O3 0.887519 0.044802 0.673918
O O4 0.199390 0.118148 0.295097
O O5 0.292271 0.373983 0.450791
O O6 0.001195 0.544324 0.222524
O O7 0.500000 0.500000 0.000000
O O8 0.344531 0.407090 0.087007
O O9 0.511272 0.348282 0.615474
O O10 0.390010 0.211955 0.855968
O O11 0.350682 0.468077 0.709494
O O12 0.283431 0.537599 0.338743
O O13 0.541381 0.165490 0.148063
O O14 0.684805 0.036579 0.077737
O O15 0.716804 0.293069 0.900069
O O16 0.039306 0.119248 0.956434
O O17 0.500000 0.000000 0.000000
#
# Coordination Sequence:
#
# PCOD8033820 Si02
#       8
#     2   2   2   2   2   2   2   2
#     4  11  26  47  73 105 144 179 233 290 349 416
#     4  12  25  40  69  96 136 188 230 287 354 402
#     4  11  24  42  68 103 135 188 233 285 347 415
#     4  11  25  45  67  97 142 181 235 289 342 407
#     4  11  26  47  72 105 142 182 234 290 345 424
#     4  12  24  47  74 101 143 185 233 285 356 410
#     4  11  25  45  66 102 135 184 236 288 341 416
#     4  11  25  49  75 106 143 182 227 290 350 423
#
# _framework density 22.804175999999998
#
# number of rings (size 3 to 8) (size 9 to 14) (size 15 to 20)
#    0.000    0.750    5.000    1.500    3.500    0.500 
#    9.000    0.000    0.000    0.000    0.000    0.000 
#    0.000    0.000    0.000    0.000    0.000    0.000 
#
# Total GULP energy -198242.866042 kJ/mol
# GULP energy per Si atom -12390.179128 kJ/mol
# Density = 2.275227 g / cm^3
# Si number density = 22.804176 Si / 1000 Ang^3
#
#
#
# Elastic Constant Matrix: (Units=GPa)
#
#
# Indices 1 2 3 4 5 6 
#
# 1 82.5039 22.3614 43.6708 17.5055 -7.3046 -0.5910
# 2 22.3614 155.9244 45.8350 11.9028 -11.3057 8.6752
# 3 43.6708 45.8350 98.4133 18.3008 -16.3024 -5.4748
# 4 17.5055 11.9028 18.3008 29.1511 3.7477 2.4033
# 5 -7.3046 -11.3057 -16.3024 3.7477 33.6669 1.1344
# 6 -0.5910 8.6752 -5.4748 2.4033 1.1344 31.6812
#
#
#
# Elastic Compliance Matrix: (Units=1/GPa)
#
#
# Indices 1 2 3 4 5 6 
#
# 1 0.016814 -0.000027 -0.006020 -0.006470 0.001454 -0.000281
# 2 -0.000027 0.007709 -0.003359 -0.000952 0.001152 -0.002661
# 3 -0.006020 -0.003359 0.016945 -0.006805 0.006393 0.004023
# 4 -0.006470 -0.000952 -0.006805 0.044448 -0.009830 -0.004056
# 5 0.001454 0.001152 0.006393 -0.009830 0.034584 0.000324
# 6 -0.000281 -0.002661 0.004023 -0.004056 0.000324 0.033279
#
#
# Mechanical properties :
#
#
# Convention : Reuss Voigt Hill
#
# Bulk Modulus (GPa) = 44.13680 62.28622 53.21151
# Shear Modulus (GPa) = 27.75563 33.89812 30.82687
#
# Velocity S-wave (km/s) = 3.49252 3.85968 3.68068
# Velocity P-wave (km/s) = 5.97163 6.87282 6.43801
#
# Compressibility (1/GPa) = 0.02265683
#
# Stress axis : x y z
#
# Youngs Moduli (GPa) = 59.47371 129.72352 59.01324
#
# Poissons Ratio (x) = 0.00346 0.35529
# Poissons Ratio (y) = 0.00159 0.19820
# Poissons Ratio (z) = 0.35806 0.43569
#
# Static dielectric constant tensor:
#      x y z
#    x 4.043510 0.301330 0.294800 
#    y 0.301330 4.470850 0.257560 
#    z 0.294800 0.257560 4.260600 
# 
# 
# High freq. dielectric constant tensor:
#      x y z
#    x 1.890300 0.016400 0.014960 
#    y 0.016400 1.918300 0.007750 
#    z 0.014960 0.007750 1.901470 
# 
# From -- ./inp_files/225918.got.cif
#   From: 2010.06.25/outbox.cif.g09.slc.cpg/sg2_113_cif.got.tgz:225918.got - 2010.06.27 13:26:56.
