data_PCOD8033741
_publ_section_title
;
Structure prediction by ZEFSAII (Michael W. Deem and Ramdas Pophale) SiO2 
 PCOD8033741
Probable space group: P -1
;
_chemical_formula_sum "Si O2"
_cell_formula_units_Z 14
_cell_length_a 12.409449
_cell_length_b 8.200375
_cell_length_c 8.795178
_cell_angle_alpha 140.612578
_cell_angle_beta 98.721821
_cell_angle_gamma 87.605033
_cell_volume 557.302720
_symmetry_space_group_name_H-M "P -1"
_symmetry_group_IT_number 2
_symmetry_cell_setting 'triclinic'
loop_
_space_group_symop_operation_xyz
x,y,z
-x,-y,-z
loop_
_atom_site_type_symbol
_atom_site_label
_atom_site_fract_x
_atom_site_fract_y
_atom_site_fract_z
Si Si1 0.761174 0.484102 0.208849
Si Si2 0.553284 0.287383 0.180710
Si Si3 0.853519 0.741030 0.973727
Si Si4 0.076692 0.273904 0.351713
Si Si5 0.074884 0.761337 0.147338
Si Si6 0.632394 0.406054 0.609647
Si Si7 0.237707 0.004527 0.599962
O O1 0.649027 0.292328 0.078411
O O2 0.807149 0.604750 0.464339
O O3 0.732640 0.711374 0.256489
O O4 0.847721 0.325375 0.030397
O O5 0.606418 0.426114 0.441463
O O6 0.459059 0.456191 0.219979
O O7 0.500000 0.000000 0.000000
O O8 0.908440 0.834513 0.893357
O O9 0.754930 0.527574 0.759434
O O10 0.806168 0.974268 0.221127
O O11 0.944945 0.609278 0.009404
O O12 0.000000 0.500000 0.500000
O O13 0.031046 0.030442 0.271827
O O14 0.139985 0.827869 0.364213
O O15 0.644781 0.112779 0.455070
#
# Coordination Sequence:
#
# PCOD8033741 Si02
#       7
#     2   2   2   2   2   2   2
#     4  11  25  48  69 105 145 185 238 295 357 421
#     4  11  26  47  77 106 135 181 245 305 355 414
#     4  12  24  43  72 104 147 188 234 285 351 423
#     4  11  24  41  69 108 141 189 239 292 349 416
#     4  11  26  42  70 107 149 189 231 288 352 426
#     4  11  26  45  72 107 137 189 238 294 355 416
#     4  11  27  45  68 106 151 192 229 282 360 430
#
# _framework density 25.120996999999999
#
# number of rings (size 3 to 8) (size 9 to 14) (size 15 to 20)
#    0.000    0.857    2.857    2.571    6.000    4.000 
#    0.000    5.000    0.000    0.000    0.000    0.000 
#    0.000    0.000    0.000    0.000    0.000    0.000 
#
# Total GULP energy -173566.932811 kJ/mol
# GULP energy per Si atom -12397.638058 kJ/mol
# Density = 2.506382 g / cm^3
# Si number density = 25.120997 Si / 1000 Ang^3
#
#
#
# Elastic Constant Matrix: (Units=GPa)
#
#
# Indices 1 2 3 4 5 6 
#
# 1 162.9882 59.7652 49.9445 14.4033 -15.2016 -3.1116
# 2 59.7652 92.8113 40.3349 7.4354 -11.4451 -29.7970
# 3 49.9445 40.3349 123.5230 -6.9816 -12.4058 -1.0119
# 4 14.4033 7.4354 -6.9816 44.1416 -4.9304 -5.9654
# 5 -15.2016 -11.4451 -12.4058 -4.9304 39.3705 8.9958
# 6 -3.1116 -29.7970 -1.0119 -5.9654 8.9958 51.9150
#
#
#
# Elastic Compliance Matrix: (Units=1/GPa)
#
#
# Indices 1 2 3 4 5 6 
#
# 1 0.009124 -0.005759 -0.001807 -0.002557 0.001733 -0.003388
# 2 -0.005759 0.019787 -0.004116 -0.000668 -0.000346 0.010915
# 3 -0.001807 -0.004116 0.010548 0.002895 0.002326 -0.002335
# 4 -0.002557 -0.000668 0.002895 0.024585 0.002368 0.001934
# 5 0.001733 -0.000346 0.002326 0.002368 0.028058 -0.004639
# 6 -0.003388 0.010915 -0.002335 0.001934 -0.004639 0.026304
#
#
# Mechanical properties :
#
#
# Convention : Reuss Voigt Hill
#
# Bulk Modulus (GPa) = 62.12812 75.49020 68.80916
# Shear Modulus (GPa) = 33.98265 42.37061 38.17663
#
# Velocity S-wave (km/s) = 3.68198 4.11135 3.90257
# Velocity P-wave (km/s) = 6.54685 7.25627 6.91067
#
# Compressibility (1/GPa) = 0.01609577
#
# Stress axis : x y z
#
# Youngs Moduli (GPa) = 109.60375 50.53899 94.80325
#
# Poissons Ratio (x) = 0.29106 0.17128
# Poissons Ratio (y) = 0.63123 0.39017
# Poissons Ratio (z) = 0.19802 0.20800
#
# Static dielectric constant tensor:
#      x y z
#    x 4.734650 -0.345540 0.120120 
#    y -0.345540 5.093910 0.058530 
#    z 0.120120 0.058530 4.787240 
# 
# 
# High freq. dielectric constant tensor:
#      x y z
#    x 2.001620 -0.024350 0.011540 
#    y -0.024350 2.016410 0.008610 
#    z 0.011540 0.008610 2.015020 
# 
# From -- ./inp_files/26879.got.cif
#   From: 2010.06.25/outbox.cif.g09.slc.cpg/sg2_14_cif.got.tgz:26879.got - 2010.06.27 13:26:56.
