data_PCOD8033978
_publ_section_title
;
Structure prediction by ZEFSAII (Michael W. Deem and Ramdas Pophale) SiO2 
 PCOD8033978
Probable space group: P -1
;
_chemical_formula_sum "Si O2"
_cell_formula_units_Z 14
_cell_length_a 9.803998
_cell_length_b 5.619843
_cell_length_c 18.361264
_cell_angle_alpha 68.809107
_cell_angle_beta 124.508442
_cell_angle_gamma 74.678026
_cell_volume 615.636745
_symmetry_space_group_name_H-M "P -1"
_symmetry_group_IT_number 2
_symmetry_cell_setting 'triclinic'
loop_
_space_group_symop_operation_xyz
x,y,z
-x,-y,-z
loop_
_atom_site_type_symbol
_atom_site_label
_atom_site_fract_x
_atom_site_fract_y
_atom_site_fract_z
Si Si1 0.529218 0.934219 0.714597
Si Si2 0.396227 0.878337 0.432372
Si Si3 0.453741 0.193969 0.818193
Si Si4 0.075230 0.755954 0.717985
Si Si5 0.685085 0.508384 0.033706
Si Si6 0.786187 0.297310 0.933389
Si Si7 0.102859 0.122246 0.569075
O O1 0.740255 0.603491 0.844104
O O2 0.605704 0.038650 0.661257
O O3 0.436252 0.172642 0.729125
O O4 0.339873 0.928140 0.632093
O O5 0.500000 0.500000 0.500000
O O6 0.500000 0.000000 0.500000
O O7 0.167412 0.081872 0.375472
O O8 0.214505 0.433707 0.746614
O O9 0.576231 0.338636 0.851743
O O10 0.581212 0.873444 0.940822
O O11 0.150637 0.646180 0.834895
O O12 0.104933 0.012802 0.665136
O O13 0.500000 0.500000 0.000000
O O14 0.819838 0.287947 0.030509
O O15 0.000000 0.000000 0.000000
O O16 0.000000 0.500000 0.500000
O O17 0.000000 0.000000 0.500000
#
# Coordination Sequence:
#
# PCOD8033978 Si02
#       7
#     2   2   2   2   2   2   2
#     4  11  26  47  73 105 148 195 249 304 378 449
#     4  12  31  52  74 114 152 196 258 321 376 433
#     4  11  24  46  73 108 144 194 248 294 374 470
#     4  12  25  47  78 107 148 198 242 318 377 434
#     4  11  24  43  68 113 146 184 247 303 374 455
#     4  11  26  43  72 104 149 191 241 300 372 463
#     4  12  25  46  74 104 138 192 251 303 356 433
#
# _framework density 22.740683000000001
#
# number of rings (size 3 to 8) (size 9 to 14) (size 15 to 20)
#    0.000    0.571    2.857    3.857    6.000    3.429 
#    0.000    0.000    0.000    0.000    0.000    0.000 
#    0.000    0.000    0.000    0.000    0.000    0.000 
#
# Total GULP energy -173490.396597 kJ/mol
# GULP energy per Si atom -12392.171185 kJ/mol
# Density = 2.268892 g / cm^3
# Si number density = 22.740683 Si / 1000 Ang^3
#
#
#
# Elastic Constant Matrix: (Units=GPa)
#
#
# Indices 1 2 3 4 5 6 
#
# 1 131.5079 53.7279 48.3293 -18.9443 -12.7350 -27.1965
# 2 53.7279 157.0427 67.0131 -10.3774 -4.8159 -21.9233
# 3 48.3293 67.0131 97.9412 -7.1107 -14.4099 -23.0487
# 4 -18.9443 -10.3774 -7.1107 27.6022 -10.4676 10.1583
# 5 -12.7350 -4.8159 -14.4099 -10.4676 57.3412 -4.9946
# 6 -27.1965 -21.9233 -23.0487 10.1583 -4.9946 42.4449
#
#
#
# Elastic Compliance Matrix: (Units=1/GPa)
#
#
# Indices 1 2 3 4 5 6 
#
# 1 0.011233 -0.001712 -0.002556 0.006208 0.003174 0.003813
# 2 -0.001712 0.009401 -0.005558 0.000398 -0.000868 0.000543
# 3 -0.002556 -0.005558 0.017040 0.000049 0.003707 0.005169
# 4 0.006208 0.000398 0.000049 0.046335 0.009380 -0.005775
# 5 0.003174 -0.000868 0.003707 0.009380 0.021049 0.003830
# 6 0.003813 0.000543 0.005169 -0.005775 0.003830 0.030923
#
#
# Mechanical properties :
#
#
# Convention : Reuss Voigt Hill
#
# Bulk Modulus (GPa) = 55.49414 80.51470 68.00442
# Shear Modulus (GPa) = 30.93258 39.97243 35.45250
#
# Velocity S-wave (km/s) = 3.69213 4.19710 3.95269
# Velocity P-wave (km/s) = 6.52930 7.67919 7.12747
#
# Compressibility (1/GPa) = 0.01801992
#
# Stress axis : x y z
#
# Youngs Moduli (GPa) = 89.02035 106.37332 58.68536
#
# Poissons Ratio (x) = 0.18216 0.15003
# Poissons Ratio (y) = 0.15245 0.32619
# Poissons Ratio (z) = 0.22758 0.59125
#
# Static dielectric constant tensor:
#      x y z
#    x 4.284490 -0.019970 -0.139590 
#    y -0.019970 3.983240 0.014150 
#    z -0.139590 0.014150 3.986110 
# 
# 
# High freq. dielectric constant tensor:
#      x y z
#    x 1.911220 -0.005360 -0.010060 
#    y -0.005360 1.897500 -0.005120 
#    z -0.010060 -0.005120 1.917480 
# 
# From -- ./inp_files/72570.got.cif
#   From: 2010.06.25/outbox.cif.g09.slc.cpg/sg2_37_cif.got.tgz:72570.got - 2010.06.27 13:26:56.
