data_PCOD8033037
_publ_section_title
;
Structure prediction by ZEFSAII (Michael W. Deem and Ramdas Pophale) SiO2 
 PCOD8033037
Probable space group: P -1
;
_chemical_formula_sum "Si O2"
_cell_formula_units_Z 16
_cell_length_a 8.672500
_cell_length_b 17.845022
_cell_length_c 11.472985
_cell_angle_alpha 148.326168
_cell_angle_beta 119.255435
_cell_angle_gamma 48.987127
_cell_volume 692.498181
_symmetry_space_group_name_H-M "P -1"
_symmetry_group_IT_number 2
_symmetry_cell_setting 'triclinic'
loop_
_space_group_symop_operation_xyz
x,y,z
-x,-y,-z
loop_
_atom_site_type_symbol
_atom_site_label
_atom_site_fract_x
_atom_site_fract_y
_atom_site_fract_z
Si Si1 0.830163 0.595653 0.233923
Si Si2 0.839333 0.092759 0.807981
Si Si3 0.326755 0.310525 0.307296
Si Si4 0.388283 0.922918 0.516072
Si Si5 0.294186 0.827500 0.589582
Si Si6 0.782028 0.459740 0.809230
Si Si7 0.476090 0.206190 0.973932
Si Si8 0.106860 0.609135 0.782133
O O1 0.621344 0.774184 0.381386
O O2 0.850651 0.519713 0.268613
O O3 0.019503 0.623791 0.314569
O O4 0.847026 0.459636 0.967180
O O5 0.749202 0.032553 0.591763
O O6 0.720958 0.103876 0.899104
O O7 0.807584 0.271594 0.997484
O O8 0.079125 0.959917 0.746072
O O9 0.508870 0.176788 0.283592
O O10 0.224986 0.500893 0.567949
O O11 0.140881 0.273782 0.180103
O O12 0.432857 0.292538 0.197976
O O13 0.282339 0.871924 0.508531
O O14 0.380735 0.089061 0.775067
O O15 0.333350 0.642345 0.374966
O O16 0.626319 0.651896 0.973920
#
# Coordination Sequence:
#
# PCOD8033037 Si02
#       8
#     2   2   2   2   2   2   2   2
#     4  11  23  44  72 104 134 182 224 286 349 402
#     4  12  27  44  72 105 140 175 232 291 347 400
#     4  11  26  48  69  98 139 193 228 278 335 416
#     4  12  26  45  73 103 143 175 226 291 352 402
#     4  12  27  45  69 105 137 185 232 277 341 411
#     4  11  25  42  75 104 141 175 230 287 348 410
#     4  12  26  46  70 103 144 183 224 283 347 407
#     4  11  24  48  71 102 136 185 232 283 340 408
#
# _framework density 23.104752999999999
#
# number of rings (size 3 to 8) (size 9 to 14) (size 15 to 20)
#    0.000    0.500    3.750    3.750    3.500    5.500 
#    0.000    0.000    0.000    0.000    0.000    0.000 
#    0.000    0.000    0.000    0.000    0.000    0.000 
#
# Total GULP energy -198485.194917 kJ/mol
# GULP energy per Si atom -12405.324682 kJ/mol
# Density = 2.305217 g / cm^3
# Si number density = 23.104753 Si / 1000 Ang^3
#
#
#
# Elastic Constant Matrix: (Units=GPa)
#
#
# Indices 1 2 3 4 5 6 
#
# 1 129.0294 37.2639 48.4673 -1.7986 -21.6807 0.1206
# 2 37.2639 90.1588 35.3567 -7.2320 -7.9940 -9.1801
# 3 48.4673 35.3567 94.1061 1.6381 -6.9005 15.2583
# 4 -1.7986 -7.2320 1.6381 32.5299 5.3857 -4.4493
# 5 -21.6807 -7.9940 -6.9005 5.3857 44.9082 6.1666
# 6 0.1206 -9.1801 15.2583 -4.4493 6.1666 43.2455
#
#
#
# Elastic Compliance Matrix: (Units=1/GPa)
#
#
# Indices 1 2 3 4 5 6 
#
# 1 0.010771 -0.002333 -0.004435 -0.000318 0.004083 0.000425
# 2 -0.002333 0.015096 -0.005513 0.004381 -0.000593 0.005692
# 3 -0.004435 -0.005513 0.016296 -0.003434 0.000806 -0.007376
# 4 -0.000318 0.004381 -0.003434 0.033520 -0.004782 0.006273
# 5 0.004083 -0.000593 0.000806 -0.004782 0.025455 -0.004544
# 6 0.000425 0.005692 -0.007376 0.006273 -0.004544 0.028227
#
#
# Mechanical properties :
#
#
# Convention : Reuss Voigt Hill
#
# Bulk Modulus (GPa) = 56.81022 61.71891 59.26456
# Shear Modulus (GPa) = 31.29039 36.95046 34.12043
#
# Velocity S-wave (km/s) = 3.68405 4.00341 3.84705
# Velocity P-wave (km/s) = 6.53742 6.93833 6.74085
#
# Compressibility (1/GPa) = 0.01760247
#
# Stress axis : x y z
#
# Youngs Moduli (GPa) = 92.84184 66.24247 61.36313
#
# Poissons Ratio (x) = 0.15454 0.27213
# Poissons Ratio (y) = 0.21659 0.33828
# Poissons Ratio (z) = 0.41173 0.36518
#
# Static dielectric constant tensor:
#      x y z
#    x 4.389940 -0.182000 -0.142000 
#    y -0.182000 3.998330 -0.070200 
#    z -0.142000 -0.070200 4.052820 
# 
# 
# High freq. dielectric constant tensor:
#      x y z
#    x 1.931020 -0.010760 -0.013290 
#    y -0.010760 1.901960 0.000260 
#    z -0.013290 0.000260 1.911670 
# 
# From -- ./inp_files/403600.got.cif
#   From: 2010.06.25/outbox.cif.g09.slc.cpg/sg2_202_cif.got.tgz:403600.got - 2010.06.27 13:26:56.
