data_PCOD8033355
_publ_section_title
;
Structure prediction by ZEFSAII (Michael W. Deem and Ramdas Pophale) SiO2 
 PCOD8033355
Probable space group: P -1
;
_chemical_formula_sum "Si O2"
_cell_formula_units_Z 16
_cell_length_a 14.847317
_cell_length_b 14.790455
_cell_length_c 8.924539
_cell_angle_alpha 138.855861
_cell_angle_beta 41.077976
_cell_angle_gamma 140.289467
_cell_volume 749.518676
_symmetry_space_group_name_H-M "P -1"
_symmetry_group_IT_number 2
_symmetry_cell_setting 'triclinic'
loop_
_space_group_symop_operation_xyz
x,y,z
-x,-y,-z
loop_
_atom_site_type_symbol
_atom_site_label
_atom_site_fract_x
_atom_site_fract_y
_atom_site_fract_z
Si Si1 0.669025 0.346942 0.863551
Si Si2 0.131401 0.384142 0.589970
Si Si3 0.979460 0.583783 0.922770
Si Si4 0.076217 0.911274 0.707572
Si Si5 0.364173 0.113528 0.404266
Si Si6 0.437283 0.031439 0.902703
Si Si7 0.206710 0.807237 0.687216
Si Si8 0.490196 0.524592 0.367541
O O1 0.823670 0.443981 0.884223
O O2 0.571318 0.200896 0.909400
O O3 0.708716 0.296956 0.590997
O O4 0.576091 0.443161 0.067883
O O5 0.314088 0.446301 0.437860
O O6 0.100215 0.522072 0.739469
O O7 0.056592 0.233107 0.392450
O O8 0.059933 0.338222 0.789041
O O9 0.055951 0.712694 0.859531
O O10 0.161037 0.851488 0.642354
O O11 0.198423 0.029270 0.584963
O O12 0.000000 0.000000 0.000000
O O13 0.421459 0.295677 0.559701
O O14 0.492333 0.084130 0.293230
O O15 0.340886 0.044067 0.179575
O O16 0.323611 0.963801 0.819907
O O17 0.500000 0.500000 0.500000
#
# Coordination Sequence:
#
# PCOD8033355 Si02
#       8
#     2   2   2   2   2   2   2   2
#     4  12  24  44  72 102 136 179 230 290 338 409
#     4  11  24  47  71 103 135 182 234 283 344 408
#     4  11  23  45  76  96 136 184 232 284 338 416
#     4  12  29  43  65  99 147 180 227 284 345 414
#     4  11  24  47  71 103 135 182 234 283 344 408
#     4  11  23  45  76  96 136 184 232 284 338 416
#     4  12  26  44  68 103 137 185 233 279 351 415
#     4  12  25  43  71 106 138 171 234 296 342 399
#
# _framework density 21.347033
#
# number of rings (size 3 to 8) (size 9 to 14) (size 15 to 20)
#    0.000    0.500    5.000    2.250    3.500    4.000 
#    0.000    3.750    0.000    0.000    0.000    0.000 
#    0.000    0.000    0.000    0.000    0.000    0.000 
#
# Total GULP energy -198511.511321 kJ/mol
# GULP energy per Si atom -12406.969458 kJ/mol
# Density = 2.129845 g / cm^3
# Si number density = 21.347033 Si / 1000 Ang^3
#
#
#
# Elastic Constant Matrix: (Units=GPa)
#
#
# Indices 1 2 3 4 5 6 
#
# 1 101.7503 40.2257 31.4584 2.1078 -3.0251 25.8412
# 2 40.2257 74.3478 4.3506 5.6934 -5.5555 9.3100
# 3 31.4584 4.3506 120.1735 5.7591 -10.0944 12.0585
# 4 2.1078 5.6934 5.7591 36.0419 -1.1745 -1.4597
# 5 -3.0251 -5.5555 -10.0944 -1.1745 37.4926 4.7550
# 6 25.8412 9.3100 12.0585 -1.4597 4.7550 38.3711
#
#
#
# Elastic Compliance Matrix: (Units=1/GPa)
#
#
# Indices 1 2 3 4 5 6 
#
# 1 0.015651 -0.007313 -0.003034 0.000419 0.000370 -0.007842
# 2 -0.007313 0.017726 0.001628 -0.002565 0.002431 -0.000286
# 3 -0.003034 0.001628 0.009538 -0.001585 0.002737 -0.001748
# 4 0.000419 -0.002565 -0.001585 0.028454 -0.000127 0.001937
# 5 0.000370 0.002431 0.002737 -0.000127 0.028458 -0.005230
# 6 -0.007842 -0.000286 -0.001748 0.001937 -0.005230 0.032684
#
#
# Mechanical properties :
#
#
# Convention : Reuss Voigt Hill
#
# Bulk Modulus (GPa) = 39.25104 49.81567 44.53335
# Shear Modulus (GPa) = 31.55764 37.06358 34.31061
#
# Velocity S-wave (km/s) = 3.84906 4.17134 4.01344
# Velocity P-wave (km/s) = 6.17905 6.82546 6.51028
#
# Compressibility (1/GPa) = 0.02547703
#
# Stress axis : x y z
#
# Youngs Moduli (GPa) = 63.89277 56.41567 104.84406
#
# Poissons Ratio (x) = 0.41256 0.31814
# Poissons Ratio (y) = 0.46724 -0.17074
# Poissons Ratio (z) = 0.19388 -0.09187
#
# Static dielectric constant tensor:
#      x y z
#    x 3.894160 -0.002210 -0.028700 
#    y -0.002210 3.933060 -0.026420 
#    z -0.028700 -0.026420 4.228450 
# 
# 
# High freq. dielectric constant tensor:
#      x y z
#    x 1.836010 0.005250 0.004510 
#    y 0.005250 1.847620 -0.002710 
#    z 0.004510 -0.002710 1.853800 
# 
# From -- ./inp_files/316048.got.cif
#   From: 2010.06.25/outbox.cif.g09.slc.cpg/sg2_159_cif.got.tgz:316048.got - 2010.06.27 13:26:56.
