data_PCOD8033500
_publ_section_title
;
Structure prediction by ZEFSAII (Michael W. Deem and Ramdas Pophale) SiO2 
 PCOD8033500
Probable space group: P -1
;
_chemical_formula_sum "Si O2"
_cell_formula_units_Z 12
_cell_length_a 9.332832
_cell_length_b 8.101576
_cell_length_c 11.576719
_cell_angle_alpha 138.645868
_cell_angle_beta 67.630981
_cell_angle_gamma 105.311003
_cell_volume 534.482460
_symmetry_space_group_name_H-M "P -1"
_symmetry_group_IT_number 2
_symmetry_cell_setting 'triclinic'
loop_
_space_group_symop_operation_xyz
x,y,z
-x,-y,-z
loop_
_atom_site_type_symbol
_atom_site_label
_atom_site_fract_x
_atom_site_fract_y
_atom_site_fract_z
Si Si1 0.824599 0.944332 0.993609
Si Si2 0.421903 0.768939 0.652221
Si Si3 0.256744 0.020562 0.635281
Si Si4 0.058621 0.217756 0.358756
Si Si5 0.723373 0.013150 0.660842
Si Si6 0.321827 0.447225 0.000860
O O1 0.818106 0.878013 0.825827
O O2 0.759522 0.709727 0.957640
O O3 0.714713 0.185677 0.187425
O O4 0.000000 0.000000 0.000000
O O5 0.500000 0.500000 0.500000
O O6 0.552850 0.968830 0.739842
O O7 0.358141 0.809075 0.562473
O O8 0.286384 0.996914 0.479116
O O9 0.302074 0.297933 0.808340
O O10 0.079818 0.972355 0.695614
O O11 0.151383 0.195731 0.440203
O O12 0.000000 0.500000 0.500000
O O13 0.771449 0.285797 0.833700
O O14 0.500000 0.500000 0.000000
#
# Coordination Sequence:
#
# PCOD8033500 Si02
#       6
#     2   2   2   2   2   2
#     4  11  23  48  77 104 150 195 246 310 375 442
#     4  11  24  45  76 108 146 199 249 307 377 437
#     4  11  24  48  74 105 154 195 245 315 370 449
#     4  12  26  48  74 109 151 196 251 310 381 452
#     4  12  26  45  74 110 145 201 253 303 383 444
#     4  11  23  46  75 109 146 194 251 304 374 448
#
# _framework density 22.451626000000001
#
# number of rings (size 3 to 8) (size 9 to 14) (size 15 to 20)
#    0.000    0.667    6.667    3.000    0.000    2.667 
#    0.000    0.000    0.000    0.000    0.000    0.000 
#    0.000    0.000    0.000    0.000    0.000    0.000 
#
# Total GULP energy -148773.656043 kJ/mol
# GULP energy per Si atom -12397.804670 kJ/mol
# Density = 2.240052 g / cm^3
# Si number density = 22.451626 Si / 1000 Ang^3
#
#
#
# Elastic Constant Matrix: (Units=GPa)
#
#
# Indices 1 2 3 4 5 6 
#
# 1 148.3807 64.6337 57.8408 -3.3486 -7.0638 2.6438
# 2 64.6337 97.4733 72.6492 -6.5658 -7.7073 1.2371
# 3 57.8408 72.6492 177.4698 1.7302 -8.0791 -12.3995
# 4 -3.3486 -6.5658 1.7302 11.7571 -0.6430 1.7361
# 5 -7.0638 -7.7073 -8.0791 -0.6430 39.2636 -0.5449
# 6 2.6438 1.2371 -12.3995 1.7361 -0.5449 58.3285
#
#
#
# Elastic Compliance Matrix: (Units=1/GPa)
#
#
# Indices 1 2 3 4 5 6 
#
# 1 0.009566 -0.005743 -0.000777 -0.000277 0.000423 -0.000465
# 2 -0.005743 0.019655 -0.006327 0.010629 0.001672 -0.001802
# 3 -0.000777 -0.006327 0.008699 -0.005338 0.000351 0.002181
# 4 -0.000277 0.010629 -0.005338 0.092430 0.002395 -0.004076
# 5 0.000423 0.001672 0.000351 0.002395 0.025987 0.000191
# 6 -0.000465 -0.001802 0.002181 -0.004076 0.000191 0.017790
#
#
# Mechanical properties :
#
#
# Convention : Reuss Voigt Hill
#
# Bulk Modulus (GPa) = 81.80933 90.39681 86.10307
# Shear Modulus (GPa) = 24.52208 37.08318 30.80263
#
# Velocity S-wave (km/s) = 3.30846 4.06851 3.70801
# Velocity P-wave (km/s) = 7.14924 7.90068 7.53433
#
# Compressibility (1/GPa) = 0.01222355
#
# Stress axis : x y z
#
# Youngs Moduli (GPa) = 104.53312 50.87869 114.96020
#
# Poissons Ratio (x) = 0.29221 0.08936
# Poissons Ratio (y) = 0.60037 0.72740
# Poissons Ratio (z) = 0.08125 0.32193
#
# Static dielectric constant tensor:
#      x y z
#    x 4.291850 0.138700 -0.011930 
#    y 0.138700 4.730690 0.039660 
#    z -0.011930 0.039660 4.293810 
# 
# 
# High freq. dielectric constant tensor:
#      x y z
#    x 1.896930 0.013420 -0.002310 
#    y 0.013420 1.888180 0.000990 
#    z -0.002310 0.000990 1.884590 
# 
# From -- ./inp_files/380764.got.cif
#   From: 2010.06.25/outbox.cif.g09.slc.cpg/sg2_191_cif.got.tgz:380764.got - 2010.06.27 13:26:56.
