data_PCOD8033204
_publ_section_title
;
Structure prediction by ZEFSAII (Michael W. Deem and Ramdas Pophale) SiO2 
 PCOD8033204
Probable space group: P -1
;
_chemical_formula_sum "Si O2"
_cell_formula_units_Z 16
_cell_length_a 8.942149
_cell_length_b 17.391221
_cell_length_c 11.090678
_cell_angle_alpha 30.766967
_cell_angle_beta 62.884151
_cell_angle_gamma 55.679686
_cell_volume 727.009777
_symmetry_space_group_name_H-M "P -1"
_symmetry_group_IT_number 2
_symmetry_cell_setting 'triclinic'
loop_
_space_group_symop_operation_xyz
x,y,z
-x,-y,-z
loop_
_atom_site_type_symbol
_atom_site_label
_atom_site_fract_x
_atom_site_fract_y
_atom_site_fract_z
Si Si1 0.160456 0.834468 0.127658
Si Si2 0.293742 0.956978 0.703165
Si Si3 0.457497 0.217333 0.822364
Si Si4 0.908874 0.473409 0.945040
Si Si5 0.903544 0.488168 0.423532
Si Si6 0.434017 0.208960 0.371512
Si Si7 0.041900 0.876411 0.543763
Si Si8 0.377091 0.915362 0.301450
O O1 0.346515 0.796931 0.183315
O O2 0.083335 0.693900 0.356945
O O3 0.206785 0.847924 0.953021
O O4 0.000000 0.000000 0.000000
O O5 0.463679 0.830907 0.739732
O O6 0.353173 0.070724 0.617717
O O7 0.148970 0.090918 0.492710
O O8 0.308791 0.397504 0.648602
O O9 0.476642 0.175045 0.731281
O O10 0.376919 0.095239 0.080464
O O11 0.711838 0.611533 0.821432
O O12 0.013272 0.468355 0.787419
O O13 0.878024 0.306460 0.191472
O O14 0.000000 0.500000 0.000000
O O15 0.000000 0.500000 0.500000
O O16 0.572030 0.193504 0.449813
O O17 0.176875 0.916128 0.346298
O O18 0.000000 0.000000 0.500000
#
# Coordination Sequence:
#
# PCOD8033204 Si02
#       8
#     2   2   2   2   2   2   2   2
#     4  12  27  47  77 104 145 191 243 289 362 437
#     4  11  24  42  73 102 140 186 239 287 355 427
#     4  11  26  46  72 102 145 191 236 294 358 432
#     4  12  28  46  75 104 147 187 240 295 356 425
#     4  12  30  48  73 110 149 190 242 302 361 424
#     4  11  23  45  69 104 140 187 233 296 353 421
#     4  12  25  45  71 107 142 186 238 295 360 426
#     4  11  24  43  74 102 144 182 240 291 358 420
#
# _framework density 22.007956
#
# number of rings (size 3 to 8) (size 9 to 14) (size 15 to 20)
#    0.000    0.500    3.750    3.375   10.500    1.500 
#    0.000    0.000    0.000    0.000    0.000    0.000 
#    0.000    0.000    0.000    0.000    0.000    0.000 
#
# Total GULP energy -198367.260943 kJ/mol
# GULP energy per Si atom -12397.953809 kJ/mol
# Density = 2.195787 g / cm^3
# Si number density = 22.007956 Si / 1000 Ang^3
#
#
#
# Elastic Constant Matrix: (Units=GPa)
#
#
# Indices 1 2 3 4 5 6 
#
# 1 102.6882 36.9478 38.5079 -9.7229 -0.4380 -5.7957
# 2 36.9478 116.2127 50.5363 -14.5914 3.9875 -7.5187
# 3 38.5079 50.5363 111.5873 -11.1081 -13.1304 1.3192
# 4 -9.7229 -14.5914 -11.1081 47.3464 -4.6538 6.9904
# 5 -0.4380 3.9875 -13.1304 -4.6538 41.8684 -0.4531
# 6 -5.7957 -7.5187 1.3192 6.9904 -0.4531 38.3979
#
#
#
# Elastic Compliance Matrix: (Units=1/GPa)
#
#
# Indices 1 2 3 4 5 6 
#
# 1 0.011838 -0.002225 -0.003078 0.000778 -0.000529 0.001309
# 2 -0.002225 0.011756 -0.004709 0.001555 -0.002427 0.001816
# 3 -0.003078 -0.004709 0.012895 0.001705 0.004627 -0.002085
# 4 0.000778 0.001555 0.001705 0.023006 0.002911 -0.003791
# 5 -0.000529 -0.002427 0.004627 0.002911 0.025875 -0.000939
# 6 0.001309 0.001816 -0.002085 -0.003791 -0.000939 0.027347
#
#
# Mechanical properties :
#
#
# Convention : Reuss Voigt Hill
#
# Bulk Modulus (GPa) = 60.72948 64.71912 62.72430
# Shear Modulus (GPa) = 36.17221 39.15563 37.66392
#
# Velocity S-wave (km/s) = 4.05853 4.22258 4.14137
# Velocity P-wave (km/s) = 7.04389 7.29689 7.17151
#
# Compressibility (1/GPa) = 0.01646647
#
# Stress axis : x y z
#
# Youngs Moduli (GPa) = 84.47206 85.06448 77.54883
#
# Poissons Ratio (x) = 0.18924 0.23870
# Poissons Ratio (y) = 0.18793 0.36515
# Poissons Ratio (z) = 0.26001 0.40053
#
# Static dielectric constant tensor:
#      x y z
#    x 4.119320 -0.275350 -0.575950 
#    y -0.275350 4.107750 0.143820 
#    z -0.575950 0.143820 4.131890 
# 
# 
# High freq. dielectric constant tensor:
#      x y z
#    x 1.875260 -0.005420 0.004690 
#    y -0.005420 1.878650 0.002260 
#    z 0.004690 0.002260 1.869160 
# 
# From -- ./inp_files/217543.got.cif
#   From: 2010.06.25/outbox.cif.g09.slc.cpg/sg2_109_cif.got.tgz:217543.got - 2010.06.27 13:26:56.
