data_PCOD8033846
_publ_section_title
;
Structure prediction by ZEFSAII (Michael W. Deem and Ramdas Pophale) SiO2 
 PCOD8033846
Probable space group: P -1
;
_chemical_formula_sum "Si O2"
_cell_formula_units_Z 16
_cell_length_a 6.817635
_cell_length_b 22.161661
_cell_length_c 9.148928
_cell_angle_alpha 58.758536
_cell_angle_beta 46.180356
_cell_angle_gamma 52.891884
_cell_volume 783.074070
_symmetry_space_group_name_H-M "P -1"
_symmetry_group_IT_number 2
_symmetry_cell_setting 'triclinic'
loop_
_space_group_symop_operation_xyz
x,y,z
-x,-y,-z
loop_
_atom_site_type_symbol
_atom_site_label
_atom_site_fract_x
_atom_site_fract_y
_atom_site_fract_z
Si Si1 0.356837 0.965277 0.999583
Si Si2 0.780837 0.946422 0.332299
Si Si3 0.677286 0.541431 0.276822
Si Si4 0.215814 0.218417 0.413295
Si Si5 0.547650 0.303738 0.638319
Si Si6 0.633441 0.551616 0.954206
Si Si7 0.413933 0.710407 0.700798
Si Si8 0.280784 0.203061 0.067619
O O1 0.604606 0.887502 0.905511
O O2 0.242080 0.029614 0.853863
O O3 0.082090 0.951144 0.232097
O O4 0.500000 0.000000 0.000000
O O5 0.809452 0.860219 0.434183
O O6 0.500000 0.000000 0.500000
O O7 0.500000 0.500000 0.500000
O O8 0.649591 0.619072 0.273222
O O9 0.015156 0.484262 0.184559
O O10 0.542691 0.558794 0.161681
O O11 0.432839 0.233854 0.394437
O O12 0.341840 0.216665 0.187388
O O13 0.891173 0.285817 0.510928
O O14 0.481608 0.314550 0.486639
O O15 0.461330 0.236130 0.827764
O O16 0.509537 0.635820 0.845142
O O17 0.500000 0.500000 0.000000
O O18 0.065575 0.757814 0.835987
#
# Coordination Sequence:
#
# PCOD8033846 Si02
#       8
#     2   2   2   2   2   2   2   2
#     4  11  26  42  66  96 127 165 220 261 317 380
#     4  11  24  44  66  93 126 172 210 265 318 375
#     4  11  24  42  69  93 129 169 208 268 315 370
#     4  11  24  43  64  91 133 166 215 261 320 378
#     4  11  24  43  63  95 131 164 214 263 317 378
#     4  11  24  44  65  98 130 167 216 259 315 381
#     4  11  26  40  66  97 125 172 212 257 322 380
#     4  11  24  43  61  93 132 167 206 270 313 375
#
# _framework density 20.432295
#
# number of rings (size 3 to 8) (size 9 to 14) (size 15 to 20)
#    0.000    1.000    2.500    3.000    3.500   10.500 
#    0.000    0.000    0.000    0.000    0.000    0.000 
#    0.000    0.000    0.000    0.000    0.000    0.000 
#
# Total GULP energy -198487.430436 kJ/mol
# GULP energy per Si atom -12405.464402 kJ/mol
# Density = 2.038579 g / cm^3
# Si number density = 20.432295 Si / 1000 Ang^3
#
#
#
# Elastic Constant Matrix: (Units=GPa)
#
#
# Indices 1 2 3 4 5 6 
#
# 1 142.7713 44.7034 55.9145 2.7480 2.1916 16.5682
# 2 44.7034 90.5653 32.6176 3.7520 2.5739 -3.7030
# 3 55.9145 32.6176 125.4853 -4.4297 9.0407 3.3312
# 4 2.7480 3.7520 -4.4297 40.7379 0.6898 1.7749
# 5 2.1916 2.5739 9.0407 0.6898 29.9601 -7.8743
# 6 16.5682 -3.7030 3.3312 1.7749 -7.8743 31.6739
#
#
#
# Elastic Compliance Matrix: (Units=1/GPa)
#
#
# Indices 1 2 3 4 5 6 
#
# 1 0.010254 -0.004058 -0.003314 -0.000416 -0.000886 -0.005687
# 2 -0.004058 0.013995 -0.002057 -0.001440 0.000871 0.004272
# 3 -0.003314 -0.002057 0.010249 0.001591 -0.002808 -0.000372
# 4 -0.000416 -0.001440 0.001591 0.024986 -0.001391 -0.001864
# 5 -0.000886 0.000871 -0.002808 -0.001391 0.036905 0.010114
# 6 -0.005687 0.004272 -0.000372 -0.001864 0.010114 0.037704
#
#
# Mechanical properties :
#
#
# Convention : Reuss Voigt Hill
#
# Bulk Modulus (GPa) = 63.93654 69.47699 66.70676
# Shear Modulus (GPa) = 31.61277 35.51348 33.56313
#
# Velocity S-wave (km/s) = 3.93771 4.17358 4.05736
# Velocity P-wave (km/s) = 7.21345 7.56983 7.39379
#
# Compressibility (1/GPa) = 0.01564051
#
# Stress axis : x y z
#
# Youngs Moduli (GPa) = 97.51947 71.45356 97.57309
#
# Poissons Ratio (x) = 0.28996 0.32338
# Poissons Ratio (y) = 0.39574 0.20066
# Poissons Ratio (z) = 0.32320 0.14695
#
# Static dielectric constant tensor:
#      x y z
#    x 3.780370 0.103300 0.084340 
#    y 0.103300 3.690830 -0.112320 
#    z 0.084340 -0.112320 3.881030 
# 
# 
# High freq. dielectric constant tensor:
#      x y z
#    x 1.805940 -0.005070 -0.000540 
#    y -0.005070 1.813150 -0.002350 
#    z -0.000540 -0.002350 1.815150 
# 
# From -- ./inp_files/10730.got.cif
#   From: 2010.06.25/outbox.cif.g09.slc.cpg/sg2_6_cif.got.tgz:10730.got - 2010.06.27 13:26:56.
