data_PCOD8033830
_publ_section_title
;
Structure prediction by ZEFSAII (Michael W. Deem and Ramdas Pophale) SiO2 
 PCOD8033830
Probable space group: P -1
;
_chemical_formula_sum "Si O2"
_cell_formula_units_Z 16
_cell_length_a 9.286749
_cell_length_b 11.963348
_cell_length_c 14.324456
_cell_angle_alpha 29.591793
_cell_angle_beta 70.566533
_cell_angle_gamma 77.976908
_cell_volume 729.815546
_symmetry_space_group_name_H-M "P -1"
_symmetry_group_IT_number 2
_symmetry_cell_setting 'triclinic'
loop_
_space_group_symop_operation_xyz
x,y,z
-x,-y,-z
loop_
_atom_site_type_symbol
_atom_site_label
_atom_site_fract_x
_atom_site_fract_y
_atom_site_fract_z
Si Si1 0.535694 0.476799 0.773535
Si Si2 0.417051 0.957319 0.830089
Si Si3 0.016492 0.611532 0.695218
Si Si4 0.081554 0.688452 0.415178
Si Si5 0.556993 0.303227 0.689089
Si Si6 0.911622 0.101740 0.148969
Si Si7 0.232889 0.132520 0.478567
Si Si8 0.655679 0.171458 0.466035
O O1 0.530098 0.344610 0.773009
O O2 0.680625 0.685293 0.597386
O O3 0.382029 0.588760 0.740548
O O4 0.549404 0.301722 0.981999
O O5 0.238941 0.955285 0.843529
O O6 0.449761 0.070834 0.843318
O O7 0.533503 0.093414 0.631078
O O8 0.017207 0.590721 0.599060
O O9 0.169834 0.779599 0.571957
O O10 0.874217 0.741784 0.657345
O O11 0.997497 0.362301 0.927301
O O12 0.265538 0.713927 0.354959
O O13 0.000000 0.500000 0.500000
O O14 0.032350 0.932212 0.222444
O O15 0.500000 0.500000 0.500000
O O16 0.864984 0.071219 0.290316
O O17 0.356064 0.026340 0.466382
#
# Coordination Sequence:
#
# PCOD8033830 Si02
#       8
#     2   2   2   2   2   2   2   2
#     4  12  25  43  69 101 136 176 227 273 334 400
#     4  12  25  44  69 100 134 180 223 275 335 396
#     4  11  24  46  66 100 135 175 222 280 338 396
#     4  11  24  42  68  99 137 179 225 270 336 406
#     4  12  22  46  70  99 140 177 218 281 332 395
#     4  11  25  44  69  95 139 178 222 274 338 399
#     4  11  24  46  70  98 135 178 223 279 337 397
#     4  12  26  44  71  99 137 173 228 283 330 397
#
# _framework density 21.923348000000001
#
# number of rings (size 3 to 8) (size 9 to 14) (size 15 to 20)
#    0.000    0.500    5.000    3.375    1.750    2.500 
#    2.250    0.000    0.000    0.000    0.000    0.000 
#    0.000    0.000    0.000    0.000    0.000    0.000 
#
# Total GULP energy -198413.684217 kJ/mol
# GULP energy per Si atom -12400.855264 kJ/mol
# Density = 2.187345 g / cm^3
# Si number density = 21.923348 Si / 1000 Ang^3
#
#
#
# Elastic Constant Matrix: (Units=GPa)
#
#
# Indices 1 2 3 4 5 6 
#
# 1 142.4779 39.0298 33.7869 -8.2230 16.4718 -16.3547
# 2 39.0298 77.7228 23.4673 -19.5725 13.5594 -18.2157
# 3 33.7869 23.4673 111.0011 -15.6778 24.9225 -1.6888
# 4 -8.2230 -19.5725 -15.6778 16.3529 -3.0319 4.8365
# 5 16.4718 13.5594 24.9225 -3.0319 42.0756 -8.6831
# 6 -16.3547 -18.2157 -1.6888 4.8365 -8.6831 31.7803
#
#
#
# Elastic Compliance Matrix: (Units=1/GPa)
#
#
# Indices 1 2 3 4 5 6 
#
# 1 0.008751 -0.003835 -0.002100 -0.003058 -0.000655 0.002480
# 2 -0.003835 0.022510 0.000410 0.022887 -0.002973 0.006655
# 3 -0.002100 0.000410 0.012629 0.011401 -0.006743 -0.003752
# 4 -0.003058 0.022887 0.011401 0.098042 -0.006823 -0.004634
# 5 -0.000655 -0.002973 -0.006743 -0.006823 0.029888 0.006805
# 6 0.002480 0.006655 -0.003752 -0.004634 0.006805 0.038922
#
#
# Mechanical properties :
#
#
# Convention : Reuss Voigt Hill
#
# Bulk Modulus (GPa) = 30.45157 58.19666 44.32412
# Shear Modulus (GPa) = 21.48322 33.70295 27.59308
#
# Velocity S-wave (km/s) = 3.13377 3.92511 3.55155
# Velocity P-wave (km/s) = 5.19752 6.86623 6.08931
#
# Compressibility (1/GPa) = 0.03283903
#
# Stress axis : x y z
#
# Youngs Moduli (GPa) = 114.27170 44.42424 79.18439
#
# Poissons Ratio (x) = 0.17037 0.16630
# Poissons Ratio (y) = 0.43823 -0.03243
# Poissons Ratio (z) = 0.23998 -0.01819
#
# Static dielectric constant tensor:
#      x y z
#    x 4.406260 -0.072600 0.190760 
#    y -0.072600 4.007060 -0.144660 
#    z 0.190760 -0.144660 3.976080 
# 
# 
# High freq. dielectric constant tensor:
#      x y z
#    x 1.887660 0.000930 0.014750 
#    y 0.000930 1.855680 -0.014190 
#    z 0.014750 -0.014190 1.859850 
# 
# From -- ./inp_files/188872.got.cif
#   From: 2010.06.25/outbox.cif.g09.slc.cpg/sg2_95_cif.got.tgz:188872.got - 2010.06.27 13:26:56.
