data_PCOD8033091
_publ_section_title
;
Structure prediction by ZEFSAII (Michael W. Deem and Ramdas Pophale) SiO2 
 PCOD8033091
Probable space group: P -1
;
_chemical_formula_sum "Si O2"
_cell_formula_units_Z 16
_cell_length_a 8.273474
_cell_length_b 8.179263
_cell_length_c 16.149597
_cell_angle_alpha 112.970356
_cell_angle_beta 96.658578
_cell_angle_gamma 128.512832
_cell_volume 682.628449
_symmetry_space_group_name_H-M "P -1"
_symmetry_group_IT_number 2
_symmetry_cell_setting 'triclinic'
loop_
_space_group_symop_operation_xyz
x,y,z
-x,-y,-z
loop_
_atom_site_type_symbol
_atom_site_label
_atom_site_fract_x
_atom_site_fract_y
_atom_site_fract_z
Si Si1 0.560415 0.822387 0.166235
Si Si2 0.562835 0.255861 0.551971
Si Si3 0.008706 0.341135 0.230967
Si Si4 0.175470 0.481284 0.532547
Si Si5 0.112993 0.282106 0.058612
Si Si6 0.630884 0.039148 0.931303
Si Si7 0.734502 0.466657 0.262410
Si Si8 0.222714 0.099418 0.637690
O O1 0.376085 0.509379 0.075998
O O2 0.414703 0.875634 0.135270
O O3 0.634449 0.895597 0.282021
O O4 0.809551 0.025451 0.170415
O O5 0.584468 0.331298 0.472386
O O6 0.372768 0.218487 0.584573
O O7 0.828394 0.505626 0.649421
O O8 0.500000 0.000000 0.500000
O O9 0.896196 0.444165 0.224009
O O10 0.168321 0.402518 0.176879
O O11 0.270319 0.580376 0.650088
O O12 0.000000 0.500000 0.500000
O O13 0.033531 0.184552 0.454679
O O14 0.913857 0.250466 0.000111
O O15 0.000000 0.000000 0.000000
O O16 0.524276 0.761843 0.841945
O O17 0.500000 0.000000 0.000000
O O18 0.823963 0.736357 0.302452
#
# Coordination Sequence:
#
# PCOD8033091 Si02
#       8
#     2   2   2   2   2   2   2   2
#     4  11  23  44  73  96 137 182 227 275 346 402
#     4  12  24  40  72 101 133 182 226 276 339 412
#     4  11  23  46  69  98 139 181 225 277 347 413
#     4  12  22  43  70  99 139 185 222 273 350 410
#     4  12  25  45  73 102 136 177 232 288 340 405
#     4  11  23  46  70  97 137 182 226 279 344 406
#     4  11  24  43  70  98 140 178 228 283 336 409
#     4  12  24  43  69 105 138 176 229 283 338 406
#
# _framework density 23.438811000000001
#
# number of rings (size 3 to 8) (size 9 to 14) (size 15 to 20)
#    0.000    0.500    7.500    2.250    0.000    1.000 
#    2.250    2.500    0.000    0.000    0.000    0.000 
#    0.000    0.000    0.000    0.000    0.000    0.000 
#
# Total GULP energy -198261.774732 kJ/mol
# GULP energy per Si atom -12391.360921 kJ/mol
# Density = 2.338546 g / cm^3
# Si number density = 23.438811 Si / 1000 Ang^3
#
#
#
# Elastic Constant Matrix: (Units=GPa)
#
#
# Indices 1 2 3 4 5 6 
#
# 1 48.7219 38.0676 20.2074 1.0562 -10.7054 1.6028
# 2 38.0676 121.1881 44.3022 21.1328 -7.4323 4.9068
# 3 20.2074 44.3022 130.4825 12.9147 0.6487 -3.8094
# 4 1.0562 21.1328 12.9147 57.9671 -3.5199 4.3986
# 5 -10.7054 -7.4323 0.6487 -3.5199 35.7576 9.5637
# 6 1.6028 4.9068 -3.8094 4.3986 9.5637 26.3152
#
#
#
# Elastic Compliance Matrix: (Units=1/GPa)
#
#
# Indices 1 2 3 4 5 6 
#
# 1 0.030236 -0.008616 -0.002326 0.003988 0.008892 -0.004470
# 2 -0.008616 0.012652 -0.002641 -0.003731 0.000174 -0.001656
# 3 -0.002326 -0.002641 0.009162 -0.001412 -0.002368 0.003057
# 4 0.003988 -0.003731 -0.001412 0.019389 0.003492 -0.004262
# 5 0.008892 0.000174 -0.002368 0.003492 0.034839 -0.014162
# 6 -0.004470 -0.001656 0.003057 -0.004262 -0.014162 0.044884
#
#
# Mechanical properties :
#
#
# Convention : Reuss Voigt Hill
#
# Bulk Modulus (GPa) = 40.19034 56.17186 48.18110
# Shear Modulus (GPa) = 26.79200 37.19565 31.99382
#
# Velocity S-wave (km/s) = 3.38459 3.98795 3.69859
# Velocity P-wave (km/s) = 5.69720 6.72475 6.23219
#
# Compressibility (1/GPa) = 0.02488160
#
# Stress axis : x y z
#
# Youngs Moduli (GPa) = 33.07310 79.03853 109.15032
#
# Poissons Ratio (x) = 0.68102 0.25393
# Poissons Ratio (y) = 0.28497 0.28829
# Poissons Ratio (z) = 0.07694 0.20876
#
# Static dielectric constant tensor:
#      x y z
#    x 3.988060 0.028920 0.186260 
#    y 0.028920 4.384520 0.138420 
#    z 0.186260 0.138420 4.541890 
# 
# 
# High freq. dielectric constant tensor:
#      x y z
#    x 1.897380 -0.001910 0.013120 
#    y -0.001910 1.929310 0.009570 
#    z 0.013120 0.009570 1.948580 
# 
# From -- ./inp_files/556414.got.cif
#   From: 2010.06.25/outbox.cif.g09.slc.cpg/sg2_279_cif.got.tgz:556414.got - 2010.06.27 13:26:56.
