data_PCOD8033687
_publ_section_title
;
Structure prediction by ZEFSAII (Michael W. Deem and Ramdas Pophale) SiO2 
 PCOD8033687
Probable space group: P -1
;
_chemical_formula_sum "Si O2"
_cell_formula_units_Z 10
_cell_length_a 8.542096
_cell_length_b 13.779398
_cell_length_c 13.503343
_cell_angle_alpha 159.504640
_cell_angle_beta 47.802963
_cell_angle_gamma 133.713771
_cell_volume 400.371454
_symmetry_space_group_name_H-M "P -1"
_symmetry_group_IT_number 2
_symmetry_cell_setting 'triclinic'
loop_
_space_group_symop_operation_xyz
x,y,z
-x,-y,-z
loop_
_atom_site_type_symbol
_atom_site_label
_atom_site_fract_x
_atom_site_fract_y
_atom_site_fract_z
Si Si1 0.359078 0.017037 0.897337
Si Si2 0.954198 0.046150 0.450220
Si Si3 0.932707 0.666373 0.783400
Si Si4 0.405652 0.434194 0.585756
Si Si5 0.745655 0.483883 0.887486
O O1 0.251910 0.154144 0.983585
O O2 0.559141 0.254193 0.083186
O O3 0.464070 0.747655 0.573627
O O4 0.153977 0.895579 0.942390
O O5 0.155689 0.271988 0.530992
O O6 0.897436 0.750077 0.134033
O O7 0.752276 0.196852 0.670496
O O8 0.000000 0.000000 0.500000
O O9 0.000000 0.500000 0.500000
O O10 0.843443 0.454743 0.708694
O O11 0.500000 0.500000 0.500000
O O12 0.500000 0.500000 0.000000
#
# Coordination Sequence:
#
# PCOD8033687 Si02
#       5
#     2   2   2   2   2
#     4  11  24  40  71 104 144 188 242 307 371 432
#     4  12  29  50  76 110 155 198 251 310 377 454
#     4  11  25  45  75 110 153 188 255 310 375 435
#     4  12  24  43  71 102 146 190 249 303 379 431
#     4  12  29  50  79 109 150 202 256 303 374 452
#
# _framework density 24.976803
#
# number of rings (size 3 to 8) (size 9 to 14) (size 15 to 20)
#    0.000    0.400    2.000    5.400   11.200    0.000 
#    0.000    0.000    0.000    0.000    0.000    0.000 
#    0.000    0.000    0.000    0.000    0.000    0.000 
#
# Total GULP energy -123934.157250 kJ/mol
# GULP energy per Si atom -12393.415725 kJ/mol
# Density = 2.491995 g / cm^3
# Si number density = 24.976803 Si / 1000 Ang^3
#
#
#
# Elastic Constant Matrix: (Units=GPa)
#
#
# Indices 1 2 3 4 5 6 
#
# 1 103.3578 37.8369 36.6677 -9.3547 -18.0402 -14.9476
# 2 37.8369 99.5418 22.3883 -0.7745 16.7122 -17.7731
# 3 36.6677 22.3883 111.8806 6.5566 -6.6053 -23.3084
# 4 -9.3547 -0.7745 6.5566 32.4282 1.7915 -0.0636
# 5 -18.0402 16.7122 -6.6053 1.7915 59.5436 9.8969
# 6 -14.9476 -17.7731 -23.3084 -0.0636 9.8969 40.3782
#
#
#
# Elastic Compliance Matrix: (Units=1/GPa)
#
#
# Indices 1 2 3 4 5 6 
#
# 1 0.014276 -0.005603 -0.003619 0.004413 0.005464 -0.000603
# 2 -0.005603 0.014364 -0.000178 -0.000857 -0.006684 0.005783
# 3 -0.003619 -0.000178 0.011428 -0.003317 -0.000562 0.005311
# 4 0.004413 -0.000857 -0.003317 0.032741 0.000339 -0.000690
# 5 0.005464 -0.006684 -0.000562 0.000339 0.021329 -0.006471
# 6 -0.000603 0.005783 0.005311 -0.000690 -0.006471 0.031739
#
#
# Mechanical properties :
#
#
# Convention : Reuss Voigt Hill
#
# Bulk Modulus (GPa) = 47.02037 56.50732 51.76384
# Shear Modulus (GPa) = 32.94556 40.99581 36.97069
#
# Velocity S-wave (km/s) = 3.63581 4.05576 3.85151
# Velocity P-wave (km/s) = 6.04086 6.67872 6.36778
#
# Compressibility (1/GPa) = 0.02126738
#
# Stress axis : x y z
#
# Youngs Moduli (GPa) = 70.04645 69.61914 87.50787
#
# Poissons Ratio (x) = 0.39009 0.31672
# Poissons Ratio (y) = 0.39248 0.01555
# Poissons Ratio (z) = 0.25352 0.01237
#
# Static dielectric constant tensor:
#      x y z
#    x 10.903130 2.553680 0.851960 
#    y 2.553680 5.450760 0.784580 
#    z 0.851960 0.784580 4.818830 
# 
# 
# High freq. dielectric constant tensor:
#      x y z
#    x 2.008570 0.016830 -0.019370 
#    y 0.016830 1.991610 0.024180 
#    z -0.019370 0.024180 1.997480 
# 
# From -- ./inp_files/129100.got.cif
#   From: 2010.06.25/outbox.cif.g09.slc.cpg/sg2_65_cif.got.tgz:129100.got - 2010.06.27 13:26:56.
