data_PCOD8033203
_publ_section_title
;
Structure prediction by ZEFSAII (Michael W. Deem and Ramdas Pophale) SiO2 
 PCOD8033203
Probable space group: P -1
;
_chemical_formula_sum "Si O2"
_cell_formula_units_Z 16
_cell_length_a 20.297488
_cell_length_b 8.877645
_cell_length_c 18.180928
_cell_angle_alpha 152.004797
_cell_angle_beta 28.596765
_cell_angle_gamma 140.380194
_cell_volume 735.870563
_symmetry_space_group_name_H-M "P -1"
_symmetry_group_IT_number 2
_symmetry_cell_setting 'triclinic'
loop_
_space_group_symop_operation_xyz
x,y,z
-x,-y,-z
loop_
_atom_site_type_symbol
_atom_site_label
_atom_site_fract_x
_atom_site_fract_y
_atom_site_fract_z
Si Si1 0.658344 0.672402 0.315841
Si Si2 0.642102 0.917451 0.003049
Si Si3 0.854958 0.449295 0.658115
Si Si4 0.850557 0.851993 0.086610
Si Si5 0.348379 0.086330 0.409286
Si Si6 0.364999 0.205187 0.208738
Si Si7 0.626504 0.334032 0.475232
Si Si8 0.873047 0.228325 0.705963
O O1 0.792190 0.839506 0.222030
O O2 0.640157 0.762597 0.456652
O O3 0.523708 0.795525 0.454914
O O4 0.673907 0.290801 0.127332
O O5 0.486220 0.871895 0.165075
O O6 0.751908 0.753642 0.879638
O O7 0.663591 0.745033 0.828285
O O8 0.888830 0.418852 0.697265
O O9 0.000000 0.500000 0.500000
O O10 0.785095 0.130857 0.557876
O O11 0.743426 0.059048 0.231146
O O12 0.856271 0.487099 0.897937
O O13 0.000000 0.000000 0.000000
O O14 0.333740 0.372812 0.489519
O O15 0.374526 0.548620 0.387812
O O16 0.253829 0.002248 0.272939
O O17 0.500000 0.000000 0.000000
O O18 0.000000 0.000000 0.500000
#
# Coordination Sequence:
#
# PCOD8033203 Si02
#       8
#     2   2   2   2   2   2   2   2
#     4  11  25  45  69  99 142 178 225 287 342 406
#     4  11  23  45  69 104 135 181 232 282 343 401
#     4  12  28  44  70 102 137 183 228 281 345 410
#     4  12  28  44  70 102 137 183 228 281 345 410
#     4  11  25  45  69  99 142 178 225 287 342 406
#     4  12  20  42  74  99 134 177 231 284 333 393
#     4  11  23  45  69 104 135 181 232 282 343 401
#     4  12  26  48  70  97 137 179 230 283 339 414
#
# _framework density 21.742954999999998
#
# number of rings (size 3 to 8) (size 9 to 14) (size 15 to 20)
#    0.000    0.500    5.000    3.750    7.000    0.000 
#    0.000    1.250    0.000    0.000    0.000    0.000 
#    0.000    0.000    0.000    0.000    0.000    0.000 
#
# Total GULP energy -198465.887012 kJ/mol
# GULP energy per Si atom -12404.117938 kJ/mol
# Density = 2.169347 g / cm^3
# Si number density = 21.742955 Si / 1000 Ang^3
#
#
#
# Elastic Constant Matrix: (Units=GPa)
#
#
# Indices 1 2 3 4 5 6 
#
# 1 119.1380 27.4964 56.4387 -5.5204 6.0157 -17.1473
# 2 27.4964 103.0082 44.0682 -36.5200 -0.9278 11.8450
# 3 56.4387 44.0682 140.1038 -4.3842 -18.5160 -6.3274
# 4 -5.5204 -36.5200 -4.3842 41.5865 -1.1098 3.5535
# 5 6.0157 -0.9278 -18.5160 -1.1098 53.8865 2.0876
# 6 -17.1473 11.8450 -6.3274 3.5535 2.0876 31.0986
#
#
#
# Elastic Compliance Matrix: (Units=1/GPa)
#
#
# Indices 1 2 3 4 5 6 
#
# 1 0.012216 -0.003324 -0.004022 -0.002461 -0.003151 0.007676
# 2 -0.003324 0.020864 -0.005257 0.018427 -0.000195 -0.012941
# 3 -0.004022 -0.005257 0.010903 -0.004085 0.003936 0.002205
# 4 -0.002461 0.018427 -0.004085 0.040673 0.000564 -0.013892
# 5 -0.003151 -0.000195 0.003936 0.000564 0.020359 -0.002294
# 6 0.007676 -0.012941 0.002205 -0.013892 -0.002294 0.043508
#
#
# Mechanical properties :
#
#
# Convention : Reuss Voigt Hill
#
# Bulk Modulus (GPa) = 53.25788 68.69517 60.97653
# Shear Modulus (GPa) = 27.77954 40.93075 34.35515
#
# Velocity S-wave (km/s) = 3.57828 4.34347 3.97931
# Velocity P-wave (km/s) = 6.45133 7.53771 7.01558
#
# Compressibility (1/GPa) = 0.01877656
#
# Stress axis : x y z
#
# Youngs Moduli (GPa) = 81.85889 47.93006 91.71398
#
# Poissons Ratio (x) = 0.15931 0.36892
# Poissons Ratio (y) = 0.27207 0.48216
# Poissons Ratio (z) = 0.32927 0.25198
#
# Static dielectric constant tensor:
#      x y z
#    x 4.014100 0.076910 -0.002640 
#    y 0.076910 3.969280 0.043470 
#    z -0.002640 0.043470 3.953170 
# 
# 
# High freq. dielectric constant tensor:
#      x y z
#    x 1.857180 -0.006420 0.000330 
#    y -0.006420 1.867420 -0.001040 
#    z 0.000330 -0.001040 1.861480 
# 
# From -- ./inp_files/186760.got.cif
#   From: 2010.06.25/outbox.cif.g09.slc.cpg/sg2_94_cif.got.tgz:186760.got - 2010.06.27 13:26:56.
