data_PCOD8033420
_publ_section_title
;
Structure prediction by ZEFSAII (Michael W. Deem and Ramdas Pophale) SiO2 
 PCOD8033420
Probable space group: P -1
;
_chemical_formula_sum "Si O2"
_cell_formula_units_Z 16
_cell_length_a 9.565935
_cell_length_b 9.371713
_cell_length_c 14.861988
_cell_angle_alpha 95.605147
_cell_angle_beta 47.571711
_cell_angle_gamma 64.029338
_cell_volume 712.292721
_symmetry_space_group_name_H-M "P -1"
_symmetry_group_IT_number 2
_symmetry_cell_setting 'triclinic'
loop_
_space_group_symop_operation_xyz
x,y,z
-x,-y,-z
loop_
_atom_site_type_symbol
_atom_site_label
_atom_site_fract_x
_atom_site_fract_y
_atom_site_fract_z
Si Si1 0.023622 0.074686 0.735444
Si Si2 0.199682 0.866131 0.829873
Si Si3 0.520577 0.976029 0.709786
Si Si4 0.505623 0.562144 0.283848
Si Si5 0.433810 0.211239 0.607386
Si Si6 0.463280 0.782683 0.147033
Si Si7 0.124138 0.537672 0.190492
Si Si8 0.935490 0.397455 0.579897
O O1 0.835602 0.087942 0.747612
O O2 0.872161 0.300784 0.837531
O O3 0.064977 0.954860 0.797100
O O4 0.315068 0.970579 0.569786
O O5 0.266452 0.665537 0.803321
O O6 0.434946 0.854982 0.747524
O O7 0.000000 0.000000 0.000000
O O8 0.347802 0.146777 0.720535
O O9 0.514668 0.067657 0.812119
O O10 0.806255 0.830842 0.532299
O O11 0.473306 0.687262 0.386934
O O12 0.549763 0.621186 0.174007
O O13 0.244196 0.608889 0.401698
O O14 0.168834 0.375351 0.677378
O O15 0.668575 0.663282 0.968279
O O16 0.204010 0.491966 0.258194
O O17 0.000000 0.500000 0.500000
#
# Coordination Sequence:
#
# PCOD8033420 Si02
#       8
#     2   2   2   2   2   2   2   2
#     4  12  23  45  71  99 135 179 230 273 336 406
#     4  12  27  42  66  96 142 180 217 274 351 399
#     4  11  23  46  70  98 134 178 225 275 339 403
#     4  11  25  44  68  99 139 173 224 278 342 394
#     4  11  24  43  72 101 129 175 232 284 326 397
#     4  11  26  44  73 102 132 178 231 283 325 399
#     4  12  24  42  72 102 133 174 236 277 329 401
#     4  12  24  43  69  98 135 180 223 274 342 402
#
# _framework density 22.462674
#
# number of rings (size 3 to 8) (size 9 to 14) (size 15 to 20)
#    0.000    0.500    5.000    3.000    3.500    3.500 
#    2.250    1.250    0.000    0.000    0.000    0.000 
#    0.000    0.000    0.000    0.000    0.000    0.000 
#
# Total GULP energy -198362.124008 kJ/mol
# GULP energy per Si atom -12397.632751 kJ/mol
# Density = 2.241155 g / cm^3
# Si number density = 22.462674 Si / 1000 Ang^3
#
#
#
# Elastic Constant Matrix: (Units=GPa)
#
#
# Indices 1 2 3 4 5 6 
#
# 1 83.8560 12.0118 -2.6802 -5.9019 6.0590 -3.3155
# 2 12.0118 91.0961 1.8696 -10.0706 13.0101 -9.1483
# 3 -2.6802 1.8696 81.9792 5.2654 7.1976 -2.1274
# 4 -5.9019 -10.0706 5.2654 25.0575 0.4204 3.2343
# 5 6.0590 13.0101 7.1976 0.4204 32.6996 5.7902
# 6 -3.3155 -9.1483 -2.1274 3.2343 5.7902 35.5432
#
#
#
# Elastic Compliance Matrix: (Units=1/GPa)
#
#
# Indices 1 2 3 4 5 6 
#
# 1 0.012450 -0.000960 0.000506 0.002336 -0.002261 0.001100
# 2 -0.000960 0.012779 -0.000025 0.004531 -0.005614 0.003700
# 3 0.000506 -0.000025 0.012704 -0.002709 -0.003121 0.001556
# 4 0.002336 0.004531 -0.002709 0.043191 -0.001766 -0.002420
# 5 -0.002261 -0.005614 -0.003121 -0.001766 0.035259 -0.007426
# 6 0.001100 0.003700 0.001556 -0.002420 -0.007426 0.030713
#
#
# Mechanical properties :
#
#
# Convention : Reuss Voigt Hill
#
# Bulk Modulus (GPa) = 27.04594 31.03708 29.04151
# Shear Modulus (GPa) = 31.17623 35.04206 33.10914
#
# Velocity S-wave (km/s) = 3.72951 3.95398 3.84339
# Velocity P-wave (km/s) = 5.53283 5.89003 5.71422
#
# Compressibility (1/GPa) = 0.03697412
#
# Stress axis : x y z
#
# Youngs Moduli (GPa) = 80.31975 78.25380 78.71729
#
# Poissons Ratio (x) = 0.07516 -0.03983
# Poissons Ratio (y) = 0.07714 0.00196
# Poissons Ratio (z) = -0.04064 0.00195
#
# Static dielectric constant tensor:
#      x y z
#    x 4.256770 0.108590 -0.018840 
#    y 0.108590 3.904140 0.129370 
#    z -0.018840 0.129370 3.879900 
# 
# 
# High freq. dielectric constant tensor:
#      x y z
#    x 1.903420 -0.000120 0.000020 
#    y -0.000120 1.878710 0.005260 
#    z 0.000020 0.005260 1.878570 
# 
# From -- ./inp_files/205534.got.cif
#   From: 2010.06.25/outbox.cif.g09.slc.cpg/sg2_103_cif.got.tgz:205534.got - 2010.06.27 13:26:56.
