data_PCOD8033185
_publ_section_title
;
Structure prediction by ZEFSAII (Michael W. Deem and Ramdas Pophale) SiO2 
 PCOD8033185
Probable space group: P -1
;
_chemical_formula_sum "Si O2"
_cell_formula_units_Z 16
_cell_length_a 19.800459
_cell_length_b 9.184258
_cell_length_c 8.027912
_cell_angle_alpha 98.144054
_cell_angle_beta 127.008394
_cell_angle_gamma 122.854386
_cell_volume 701.322935
_symmetry_space_group_name_H-M "P -1"
_symmetry_group_IT_number 2
_symmetry_cell_setting 'triclinic'
loop_
_space_group_symop_operation_xyz
x,y,z
-x,-y,-z
loop_
_atom_site_type_symbol
_atom_site_label
_atom_site_fract_x
_atom_site_fract_y
_atom_site_fract_z
Si Si1 0.579700 0.723633 0.272672
Si Si2 0.359327 0.703889 0.429087
Si Si3 0.916722 0.602873 0.835430
Si Si4 0.879054 0.718702 0.485026
Si Si5 0.407906 0.755802 0.126673
Si Si6 0.635772 0.620520 0.639641
Si Si7 0.869844 0.992099 0.316664
Si Si8 0.159474 0.816336 0.443469
O O1 0.470933 0.678669 0.198967
O O2 0.670904 0.764261 0.552449
O O3 0.686091 0.969909 0.367455
O O4 0.500000 0.500000 0.000000
O O5 0.209862 0.544263 0.250459
O O6 0.358996 0.727326 0.234848
O O7 0.393567 0.583461 0.504231
O O8 0.481748 0.972764 0.734051
O O9 0.938950 0.770158 0.767473
O O10 0.892707 0.422443 0.661186
O O11 0.055475 0.774848 0.175795
O O12 0.977168 0.787674 0.498531
O O13 0.863016 0.869514 0.443439
O O14 0.730206 0.430491 0.220562
O O15 0.500000 0.500000 0.500000
O O16 0.763524 0.793956 0.984744
O O17 0.832294 0.102040 0.346318
#
# Coordination Sequence:
#
# PCOD8033185 Si02
#       8
#     2   2   2   2   2   2   2   2
#     4  12  25  44  68 103 140 175 226 282 342 401
#     4  11  24  44  68  99 136 181 225 278 334 412
#     4  11  26  45  70 100 135 181 230 279 342 399
#     4  11  24  44  67 103 131 176 232 277 338 402
#     4  11  23  45  68  98 139 183 219 279 342 403
#     4  12  24  44  69 102 134 180 227 276 345 399
#     4  11  25  46  69  98 138 176 230 281 339 407
#     4  11  25  47  67  98 140 176 226 285 337 405
#
# _framework density 22.814025999999998
#
# number of rings (size 3 to 8) (size 9 to 14) (size 15 to 20)
#    0.000    0.750    3.750    3.000    5.250    3.500 
#    0.000    0.000    0.000    0.000    0.000    0.000 
#    0.000    0.000    0.000    0.000    0.000    0.000 
#
# Total GULP energy -198449.488542 kJ/mol
# GULP energy per Si atom -12403.093034 kJ/mol
# Density = 2.276210 g / cm^3
# Si number density = 22.814026 Si / 1000 Ang^3
#
#
#
# Elastic Constant Matrix: (Units=GPa)
#
#
# Indices 1 2 3 4 5 6 
#
# 1 118.0130 29.0978 27.8018 8.1601 1.0315 -9.1327
# 2 29.0978 75.5651 36.8834 -6.0601 -5.6246 -5.5027
# 3 27.8018 36.8834 85.3367 4.7729 9.7749 -6.6529
# 4 8.1601 -6.0601 4.7729 37.0069 0.5133 1.4676
# 5 1.0315 -5.6246 9.7749 0.5133 36.4867 5.7216
# 6 -9.1327 -5.5027 -6.6529 1.4676 5.7216 34.4403
#
#
#
# Elastic Compliance Matrix: (Units=1/GPa)
#
#
# Indices 1 2 3 4 5 6 
#
# 1 0.009961 -0.003230 -0.001465 -0.002609 -0.000674 0.002066
# 2 -0.003230 0.019204 -0.008154 0.004853 0.005237 -0.000440
# 3 -0.001465 -0.008154 0.016808 -0.003203 -0.006098 0.002705
# 4 -0.002609 0.004853 -0.003203 0.028863 0.001592 -0.002029
# 5 -0.000674 0.005237 -0.006098 0.001592 0.030738 -0.005694
# 6 0.002066 -0.000440 0.002705 -0.002029 -0.005694 0.031068
#
#
# Mechanical properties :
#
#
# Convention : Reuss Voigt Hill
#
# Bulk Modulus (GPa) = 49.31795 51.83121 50.57458
# Shear Modulus (GPa) = 29.56855 33.92890 31.74872
#
# Velocity S-wave (km/s) = 3.60400 3.86060 3.73451
# Velocity P-wave (km/s) = 6.24362 6.52998 6.38840
#
# Compressibility (1/GPa) = 0.02027659
#
# Stress axis : x y z
#
# Youngs Moduli (GPa) = 100.38881 52.07247 59.49481
#
# Poissons Ratio (x) = 0.16817 0.08717
# Poissons Ratio (y) = 0.32421 0.48510
# Poissons Ratio (z) = 0.14709 0.42458
#
# Static dielectric constant tensor:
#      x y z
#    x 4.165860 -0.077350 0.048670 
#    y -0.077350 4.090570 0.102740 
#    z 0.048670 0.102740 4.160200 
# 
# 
# High freq. dielectric constant tensor:
#      x y z
#    x 1.912700 0.000340 0.005940 
#    y 0.000340 1.893890 0.008540 
#    z 0.005940 0.008540 1.902680 
# 
# From -- ./inp_files/343697.got.cif
#   From: 2010.06.25/outbox.cif.g09.slc.cpg/sg2_172_cif.got.tgz:343697.got - 2010.06.27 13:26:56.
