data_PCOD8033523
_publ_section_title
;
Structure prediction by ZEFSAII (Michael W. Deem and Ramdas Pophale) SiO2 
 PCOD8033523
Probable space group: P -1
;
_chemical_formula_sum "Si O2"
_cell_formula_units_Z 12
_cell_length_a 10.512993
_cell_length_b 5.292352
_cell_length_c 11.865805
_cell_angle_alpha 84.482376
_cell_angle_beta 138.829232
_cell_angle_gamma 96.021720
_cell_volume 432.063058
_symmetry_space_group_name_H-M "P -1"
_symmetry_group_IT_number 2
_symmetry_cell_setting 'triclinic'
loop_
_space_group_symop_operation_xyz
x,y,z
-x,-y,-z
loop_
_atom_site_type_symbol
_atom_site_label
_atom_site_fract_x
_atom_site_fract_y
_atom_site_fract_z
Si Si1 0.597429 0.211329 0.134792
Si Si2 0.073839 0.626050 0.195233
Si Si3 0.305799 0.131516 0.318037
Si Si4 0.626144 0.897328 0.382717
Si Si5 0.633644 0.560257 0.858557
Si Si6 0.006756 0.413964 0.381136
O O1 0.440834 0.418298 0.060065
O O2 0.795402 0.307375 0.204188
O O3 0.648721 0.126706 0.299623
O O4 0.500000 0.000000 0.000000
O O5 0.060283 0.646990 0.322085
O O6 0.210459 0.399550 0.265413
O O7 0.864924 0.557061 0.004997
O O8 0.152902 0.901918 0.195228
O O9 0.423719 0.061971 0.516549
O O10 0.423552 0.203048 0.274787
O O11 0.458142 0.701108 0.236654
O O12 0.840301 0.796589 0.526381
O O13 0.000000 0.500000 0.500000
#
# Coordination Sequence:
#
# PCOD8033523 Si02
#       6
#     2   2   2   2   2   2
#     4  12  28  44  74 107 147 192 243 304 362 440
#     4  11  27  47  77 107 148 195 242 306 363 433
#     4  11  27  50  77 108 147 193 248 301 368 432
#     4  11  26  45  74 104 144 196 241 306 361 435
#     4  12  27  46  73 110 147 190 244 307 366 433
#     4  11  23  47  69 102 145 193 245 294 367 432
#
# _framework density 27.773721999999999
#
# number of rings (size 3 to 8) (size 9 to 14) (size 15 to 20)
#    0.000    0.667    1.667    4.000   14.000    2.000 
#    0.000    0.000    0.000    0.000    0.000    0.000 
#    0.000    0.000    0.000    0.000    0.000    0.000 
#
# Total GULP energy -148796.878923 kJ/mol
# GULP energy per Si atom -12399.739910 kJ/mol
# Density = 2.771051 g / cm^3
# Si number density = 27.773722 Si / 1000 Ang^3
#
#
#
# Elastic Constant Matrix: (Units=GPa)
#
#
# Indices 1 2 3 4 5 6 
#
# 1 152.1621 8.3849 20.2420 8.5900 -25.4828 4.4286
# 2 8.3849 51.8709 -21.9417 27.2105 -0.7717 1.0289
# 3 20.2420 -21.9417 80.8570 9.6966 1.6899 -14.3922
# 4 8.5900 27.2105 9.6966 50.2053 8.8362 2.4114
# 5 -25.4828 -0.7717 1.6899 8.8362 49.9523 4.7446
# 6 4.4286 1.0289 -14.3922 2.4114 4.7446 35.2397
#
#
#
# Elastic Compliance Matrix: (Units=1/GPa)
#
#
# Indices 1 2 3 4 5 6 
#
# 1 0.007973 -0.002584 -0.003305 0.000037 0.004406 -0.002872
# 2 -0.002584 0.038763 0.015225 -0.024257 0.002416 0.006745
# 3 -0.003305 0.015225 0.020420 -0.011914 -0.000913 0.009249
# 4 0.000037 -0.024257 -0.011914 0.036677 -0.005882 -0.005880
# 5 0.004406 0.002416 -0.000913 -0.005882 0.023735 -0.003790
# 6 -0.002872 0.006745 0.009249 -0.005880 -0.003790 0.033231
#
#
# Mechanical properties :
#
#
# Convention : Reuss Voigt Hill
#
# Bulk Modulus (GPa) = 11.65104 33.14005 22.39554
# Shear Modulus (GPa) = 29.28463 45.62644 37.45554
#
# Velocity S-wave (km/s) = 3.25068 4.05753 3.67631
# Velocity P-wave (km/s) = 4.27707 5.82319 5.10895
#
# Compressibility (1/GPa) = 0.08582928
#
# Stress axis : x y z
#
# Youngs Moduli (GPa) = 125.41878 25.79765 48.97059
#
# Poissons Ratio (x) = 0.06666 0.16184
# Poissons Ratio (y) = 0.32406 -0.74557
# Poissons Ratio (z) = 0.41450 -0.39277
#
# Static dielectric constant tensor:
#      x y z
#    x 12.222360 1.147780 -0.564830 
#    y 1.147780 5.319360 -0.708740 
#    z -0.564830 -0.708740 5.403630 
# 
# 
# High freq. dielectric constant tensor:
#      x y z
#    x 2.180130 0.001240 -0.011510 
#    y 0.001240 2.131740 -0.034440 
#    z -0.011510 -0.034440 2.143210 
# 
# From -- ./inp_files/409391.got.cif
#   From: 2010.06.25/outbox.cif.g09.slc.cpg/sg2_205_cif.got.tgz:409391.got - 2010.06.27 13:26:56.
