data_PCOD8033818
_publ_section_title
;
Structure prediction by ZEFSAII (Michael W. Deem and Ramdas Pophale) SiO2 
 PCOD8033818
Probable space group: P -1
;
_chemical_formula_sum "Si O2"
_cell_formula_units_Z 16
_cell_length_a 9.309229
_cell_length_b 5.195921
_cell_length_c 15.563234
_cell_angle_alpha 85.428938
_cell_angle_beta 66.812392
_cell_angle_gamma 98.644827
_cell_volume 676.086469
_symmetry_space_group_name_H-M "P -1"
_symmetry_group_IT_number 2
_symmetry_cell_setting 'triclinic'
loop_
_space_group_symop_operation_xyz
x,y,z
-x,-y,-z
loop_
_atom_site_type_symbol
_atom_site_label
_atom_site_fract_x
_atom_site_fract_y
_atom_site_fract_z
Si Si1 0.873187 0.072971 0.591217
Si Si2 0.371378 0.785671 0.486281
Si Si3 0.095366 0.415862 0.655802
Si Si4 0.179237 0.640271 0.156080
Si Si5 0.300601 0.170802 0.207594
Si Si6 0.632998 0.709837 0.322071
Si Si7 0.372732 0.773202 0.786525
Si Si8 0.895173 0.221521 0.015843
O O1 0.717763 0.111475 0.575992
O O2 0.970111 0.331081 0.610895
O O3 0.813732 0.840444 0.681007
O O4 0.000000 0.000000 0.500000
O O5 0.234037 0.660427 0.588804
O O6 0.479528 0.590656 0.422559
O O7 0.500000 0.000000 0.500000
O O8 0.202317 0.201042 0.664006
O O9 0.999009 0.469383 0.762473
O O10 0.263761 0.388213 0.143553
O O11 0.185730 0.767515 0.057561
O O12 0.273636 0.875635 0.185628
O O13 0.483583 0.261119 0.185363
O O14 0.668377 0.493388 0.252014
O O15 0.583302 0.969160 0.289018
O O16 0.231317 0.830323 0.877303
O O17 0.000000 0.500000 0.000000
O O18 0.000000 0.000000 0.000000
#
# Coordination Sequence:
#
# PCOD8033818 Si02
#       8
#     2   2   2   2   2   2   2   2
#     4  11  24  42  68 102 147 194 249 297 361 438
#     4  12  25  44  70 108 146 198 250 304 369 442
#     4  11  25  42  69 103 142 195 240 303 369 427
#     4  11  25  46  71 105 146 185 245 302 358 445
#     4  11  25  44  70 104 143 192 239 294 376 428
#     4  12  26  45  72 105 150 189 249 303 368 443
#     4  12  26  46  75 104 147 190 241 309 371 438
#     4  12  26  47  76 108 141 190 244 302 377 441
#
# _framework density 23.665611999999999
#
# number of rings (size 3 to 8) (size 9 to 14) (size 15 to 20)
#    0.000    0.500    1.250    6.750    3.500    5.000 
#    0.000    0.000    0.000    0.000    0.000    0.000 
#    0.000    0.000    0.000    0.000    0.000    0.000 
#
# Total GULP energy -198311.186415 kJ/mol
# GULP energy per Si atom -12394.449151 kJ/mol
# Density = 2.361175 g / cm^3
# Si number density = 23.665612 Si / 1000 Ang^3
#
#
#
# Elastic Constant Matrix: (Units=GPa)
#
#
# Indices 1 2 3 4 5 6 
#
# 1 155.6102 49.6383 35.9397 2.5463 6.8766 3.6096
# 2 49.6383 113.4432 28.2471 0.9071 -2.9113 -2.9108
# 3 35.9397 28.2471 99.2739 11.9362 -4.3196 2.8256
# 4 2.5463 0.9071 11.9362 34.3677 -6.4577 1.5364
# 5 6.8766 -2.9113 -4.3196 -6.4577 40.2715 -0.3768
# 6 3.6096 -2.9108 2.8256 1.5364 -0.3768 40.8278
#
#
#
# Elastic Compliance Matrix: (Units=1/GPa)
#
#
# Indices 1 2 3 4 5 6 
#
# 1 0.007974 -0.003041 -0.002066 -0.000101 -0.001827 -0.000792
# 2 -0.003041 0.010704 -0.002023 0.000823 0.001219 0.001152
# 3 -0.002066 -0.002023 0.011902 -0.003734 0.000879 -0.000637
# 4 -0.000101 0.000823 -0.003734 0.031296 0.004687 -0.000808
# 5 -0.001827 0.001219 0.000879 0.004687 0.026080 0.000252
# 6 -0.000792 0.001152 -0.000637 -0.000808 0.000252 0.024722
#
#
# Mechanical properties :
#
#
# Convention : Reuss Voigt Hill
#
# Bulk Modulus (GPa) = 61.28023 66.21970 63.74997
# Shear Modulus (GPa) = 37.77004 40.06022 38.91513
#
# Velocity S-wave (km/s) = 3.99932 4.11878 4.05949
# Velocity P-wave (km/s) = 6.87579 7.11767 6.99778
#
# Compressibility (1/GPa) = 0.01631848
#
# Stress axis : x y z
#
# Youngs Moduli (GPa) = 125.40084 93.42525 84.01772
#
# Poissons Ratio (x) = 0.28412 0.17362
# Poissons Ratio (y) = 0.38136 0.17000
# Poissons Ratio (z) = 0.25914 0.18903
#
# Static dielectric constant tensor:
#      x y z
#    x 4.825370 0.030040 0.033270 
#    y 0.030040 4.153480 0.119700 
#    z 0.033270 0.119700 4.129460 
# 
# 
# High freq. dielectric constant tensor:
#      x y z
#    x 1.962540 -0.003540 0.001700 
#    y -0.003540 1.922820 0.001100 
#    z 0.001700 0.001100 1.949280 
# 
# From -- ./inp_files/40011.got.cif
#   From: 2010.06.25/outbox.cif.g09.slc.cpg/sg2_21_cif.got.tgz:40011.got - 2010.06.27 13:26:56.
