data_PCOD8033517
_publ_section_title
;
Structure prediction by ZEFSAII (Michael W. Deem and Ramdas Pophale) SiO2 
 PCOD8033517
Probable space group: P -1
;
_chemical_formula_sum "Si O2"
_cell_formula_units_Z 12
_cell_length_a 8.798154
_cell_length_b 11.790977
_cell_length_c 11.854675
_cell_angle_alpha 139.688233
_cell_angle_beta 57.037974
_cell_angle_gamma 141.236559
_cell_volume 494.249741
_symmetry_space_group_name_H-M "P -1"
_symmetry_group_IT_number 2
_symmetry_cell_setting 'triclinic'
loop_
_space_group_symop_operation_xyz
x,y,z
-x,-y,-z
loop_
_atom_site_type_symbol
_atom_site_label
_atom_site_fract_x
_atom_site_fract_y
_atom_site_fract_z
Si Si1 0.984392 0.369738 0.671962
Si Si2 0.749263 0.447635 0.632743
Si Si3 0.555664 0.214041 0.080172
Si Si4 0.861472 0.808121 0.696235
Si Si5 0.488635 0.026962 0.721350
Si Si6 0.642441 0.738561 0.190206
O O1 0.160840 0.561509 0.842294
O O2 0.131731 0.309718 0.505852
O O3 0.896007 0.465955 0.694639
O O4 0.758005 0.141611 0.660102
O O5 0.903932 0.706729 0.710959
O O6 0.480158 0.345219 0.700273
O O7 0.692753 0.260518 0.418632
O O8 0.395302 0.263478 0.238440
O O9 0.497284 0.149428 0.923131
O O10 0.500000 0.000000 0.000000
O O11 0.064949 0.095379 0.813957
O O12 0.385269 0.081331 0.705708
O O13 0.500000 0.500000 0.000000
#
# Coordination Sequence:
#
# PCOD8033517 Si02
#       6
#     2   2   2   2   2   2
#     4  11  23  48  71 103 142 187 229 287 349 420
#     4  11  23  46  79 104 137 180 241 289 344 411
#     4  12  29  44  66 104 148 185 231 285 356 415
#     4  12  25  46  75 103 139 187 235 287 346 418
#     4  11  23  47  72 105 140 184 232 291 348 412
#     4  11  24  42  72 110 138 177 239 292 340 409
#
# _framework density 24.279223999999999
#
# number of rings (size 3 to 8) (size 9 to 14) (size 15 to 20)
#    0.000    0.667    3.333    4.500    7.000    1.333 
#    3.000    1.667    0.000    0.000    0.000    0.000 
#    0.000    0.000    0.000    0.000    0.000    0.000 
#
# Total GULP energy -148731.462046 kJ/mol
# GULP energy per Si atom -12394.288504 kJ/mol
# Density = 2.422396 g / cm^3
# Si number density = 24.279224 Si / 1000 Ang^3
#
#
#
# Elastic Constant Matrix: (Units=GPa)
#
#
# Indices 1 2 3 4 5 6 
#
# 1 46.3177 -2.1081 8.0412 -4.9209 -6.0959 16.1237
# 2 -2.1081 79.0236 3.4442 -10.1262 -9.6380 2.4738
# 3 8.0412 3.4442 83.4332 -3.1285 -0.8726 2.4802
# 4 -4.9209 -10.1262 -3.1285 50.9137 6.6650 -4.2313
# 5 -6.0959 -9.6380 -0.8726 6.6650 39.9351 5.0262
# 6 16.1237 2.4738 2.4802 -4.2313 5.0262 25.8542
#
#
#
# Elastic Compliance Matrix: (Units=1/GPa)
#
#
# Indices 1 2 3 4 5 6 
#
# 1 0.030227 0.002549 -0.002314 0.000604 0.007627 -0.020257
# 2 0.002549 0.013576 -0.000591 0.002161 0.003694 -0.003196
# 3 -0.002314 -0.000591 0.012234 0.000499 -0.000372 0.000480
# 4 0.000604 0.002161 0.000499 0.020875 -0.003290 0.003425
# 5 0.007627 0.003694 -0.000372 -0.003290 0.029055 -0.011261
# 6 -0.020257 -0.003196 0.000480 0.003425 -0.011261 0.054321
#
#
# Mechanical properties :
#
#
# Convention : Reuss Voigt Hill
#
# Bulk Modulus (GPa) = 18.07526 25.28101 21.67814
# Shear Modulus (GPa) = 27.86420 36.63376 32.24898
#
# Velocity S-wave (km/s) = 3.39138 3.88861 3.64848
# Velocity P-wave (km/s) = 4.77454 5.53145 5.16687
#
# Compressibility (1/GPa) = 0.05532422
#
# Stress axis : x y z
#
# Youngs Moduli (GPa) = 33.08253 73.66078 81.74201
#
# Poissons Ratio (x) = -0.18776 0.18914
# Poissons Ratio (y) = -0.08433 0.04834
# Poissons Ratio (z) = 0.07655 0.04356
#
# Static dielectric constant tensor:
#      x y z
#    x 4.313300 0.333850 -0.356760 
#    y 0.333850 4.928160 0.198230 
#    z -0.356760 0.198230 3.613260 
# 
# 
# High freq. dielectric constant tensor:
#      x y z
#    x 1.930320 0.018070 -0.011330 
#    y 0.018070 1.989820 0.000750 
#    z -0.011330 0.000750 1.971990 
# 
# From -- ./inp_files/173640.got.cif
#   From: 2010.06.25/outbox.cif.g09.slc.cpg/sg2_87_cif.got.tgz:173640.got - 2010.06.27 13:26:56.
