data_PCOD8033670
_publ_section_title
;
Structure prediction by ZEFSAII (Michael W. Deem and Ramdas Pophale) SiO2 
 PCOD8033670
Probable space group: P -1
;
_chemical_formula_sum "Si O2"
_cell_formula_units_Z 16
_cell_length_a 25.193845
_cell_length_b 13.680558
_cell_length_c 16.187031
_cell_angle_alpha 154.012924
_cell_angle_beta 157.895956
_cell_angle_gamma 20.244739
_cell_volume 707.389591
_symmetry_space_group_name_H-M "P -1"
_symmetry_group_IT_number 2
_symmetry_cell_setting 'triclinic'
loop_
_space_group_symop_operation_xyz
x,y,z
-x,-y,-z
loop_
_atom_site_type_symbol
_atom_site_label
_atom_site_fract_x
_atom_site_fract_y
_atom_site_fract_z
Si Si1 0.252663 0.408541 0.321280
Si Si2 0.400404 0.411303 0.698955
Si Si3 0.499546 0.313927 0.474709
Si Si4 0.442075 0.853441 0.747451
Si Si5 0.015568 0.326200 0.468576
Si Si6 0.865761 0.940833 0.153785
Si Si7 0.237971 0.203538 0.415582
Si Si8 0.806003 0.107978 0.021628
O O1 0.396185 0.279312 0.506117
O O2 0.312934 0.495396 0.396051
O O3 0.053402 0.687203 0.278908
O O4 0.262127 0.145945 0.104648
O O5 0.360334 0.288362 0.624672
O O6 0.597669 0.333341 0.929680
O O7 0.244247 0.757806 0.728132
O O8 0.538974 0.534214 0.681092
O O9 0.483725 0.190040 0.272325
O O10 0.657966 0.048812 0.558263
O O11 0.223275 0.041286 0.568845
O O12 0.500000 0.000000 0.000000
O O13 0.946323 0.517450 0.596668
O O14 0.000000 0.500000 0.500000
O O15 0.879322 0.257857 0.198130
O O16 0.929989 0.947403 0.159371
O O17 0.171517 0.121091 0.181115
#
# Coordination Sequence:
#
# PCOD8033670 Si02
#       8
#     2   2   2   2   2   2   2   2
#     4  11  24  43  67 104 147 184 236 289 362 428
#     4  12  24  43  72 108 141 191 242 284 361 433
#     4  11  25  46  74 103 142 186 236 300 357 423
#     4  11  28  52  74 102 141 190 247 296 361 426
#     4  12  28  47  73 107 142 184 248 299 353 421
#     4  11  24  40  66 101 148 186 230 294 351 421
#     4  12  25  44  77 106 146 190 236 299 359 424
#     4  12  25  43  72 102 144 187 237 298 351 427
#
# _framework density 22.618369000000001
#
# number of rings (size 3 to 8) (size 9 to 14) (size 15 to 20)
#    0.000    0.500    5.000    2.625    3.500    4.500 
#    0.000    0.000    0.000    0.000    0.000    0.000 
#    0.000    0.000    0.000    0.000    0.000    0.000 
#
# Total GULP energy -198417.115989 kJ/mol
# GULP energy per Si atom -12401.069749 kJ/mol
# Density = 2.256689 g / cm^3
# Si number density = 22.618369 Si / 1000 Ang^3
#
#
#
# Elastic Constant Matrix: (Units=GPa)
#
#
# Indices 1 2 3 4 5 6 
#
# 1 121.2428 20.3606 33.5918 -2.3668 8.4628 -1.1083
# 2 20.3606 92.3483 22.4714 2.4082 5.3687 -2.2934
# 3 33.5918 22.4714 102.7719 1.8600 5.9993 2.6000
# 4 -2.3668 2.4082 1.8600 33.2053 -3.8202 -0.6742
# 5 8.4628 5.3687 5.9993 -3.8202 38.7818 4.6644
# 6 -1.1083 -2.2934 2.6000 -0.6742 4.6644 36.8738
#
#
#
# Elastic Compliance Matrix: (Units=1/GPa)
#
#
# Indices 1 2 3 4 5 6 
#
# 1 0.009341 -0.001322 -0.002709 0.000761 -0.001432 0.000585
# 2 -0.001322 0.011745 -0.002072 -0.000951 -0.001228 0.000975
# 3 -0.002709 -0.002072 0.011153 -0.000780 -0.000815 -0.000908
# 4 0.000761 -0.000951 -0.000780 0.030641 0.003082 0.000189
# 5 -0.001432 -0.001228 -0.000815 0.003082 0.027110 -0.003435
# 6 0.000585 0.000975 -0.000908 0.000189 -0.003435 0.027700
#
#
# Mechanical properties :
#
#
# Convention : Reuss Voigt Hill
#
# Bulk Modulus (GPa) = 49.91769 52.13452 51.02611
# Shear Modulus (GPa) = 36.61052 37.76814 37.18933
#
# Velocity S-wave (km/s) = 4.02757 4.09075 4.05928
# Velocity P-wave (km/s) = 6.61407 6.73884 6.67675
#
# Compressibility (1/GPa) = 0.02003298
#
# Stress axis : x y z
#
# Youngs Moduli (GPa) = 107.05930 85.14571 89.65931
#
# Poissons Ratio (x) = 0.11259 0.24288
# Poissons Ratio (y) = 0.14157 0.18573
# Poissons Ratio (z) = 0.29001 0.17638
#
# Static dielectric constant tensor:
#      x y z
#    x 4.255020 -0.070280 0.069820 
#    y -0.070280 4.162490 0.131910 
#    z 0.069820 0.131910 3.993610 
# 
# 
# High freq. dielectric constant tensor:
#      x y z
#    x 1.899920 -0.001740 -0.002100 
#    y -0.001740 1.902860 0.011370 
#    z -0.002100 0.011370 1.888430 
# 
# From -- ./inp_files/579912.got.cif
#   From: 2010.06.25/outbox.cif.g09.slc.cpg/sg2_290_cif.got.tgz:579912.got - 2010.06.27 13:26:56.
