data_PCOD8033776
_publ_section_title
;
Structure prediction by ZEFSAII (Michael W. Deem and Ramdas Pophale) SiO2 
 PCOD8033776
Probable space group: P -1
;
_chemical_formula_sum "Si O2"
_cell_formula_units_Z 14
_cell_length_a 11.739312
_cell_length_b 9.374488
_cell_length_c 15.384874
_cell_angle_alpha 126.409425
_cell_angle_beta 25.661159
_cell_angle_gamma 136.345456
_cell_volume 496.310613
_symmetry_space_group_name_H-M "P -1"
_symmetry_group_IT_number 2
_symmetry_cell_setting 'triclinic'
loop_
_space_group_symop_operation_xyz
x,y,z
-x,-y,-z
loop_
_atom_site_type_symbol
_atom_site_label
_atom_site_fract_x
_atom_site_fract_y
_atom_site_fract_z
Si Si1 0.897704 0.860652 0.128209
Si Si2 0.131744 0.621066 0.552125
Si Si3 0.530559 0.241677 0.893554
Si Si4 0.280659 0.271549 0.607477
Si Si5 0.261375 0.844718 0.721888
Si Si6 0.220297 0.001788 0.277067
Si Si7 0.334035 0.375033 0.231351
O O1 0.791994 0.722283 0.237934
O O2 0.982285 0.756271 0.953715
O O3 0.639757 0.922387 0.299473
O O4 0.199420 0.101843 0.020414
O O5 0.179938 0.684070 0.641596
O O6 0.405357 0.582889 0.313375
O O7 0.816268 0.378854 0.681033
O O8 0.026397 0.739174 0.600962
O O9 0.549102 0.059703 0.864669
O O10 0.536207 0.411844 0.018602
O O11 0.500000 0.500000 0.500000
O O12 0.439698 0.137355 0.432523
O O13 0.960805 0.161090 0.735206
O O14 0.400882 0.235047 0.197632
O O15 0.000000 0.000000 0.500000
#
# Coordination Sequence:
#
# PCOD8033776 Si02
#       7
#     2   2   2   2   2   2   2
#     4  11  26  47  75 103 134 193 233 286 357 412
#     4  11  24  45  70 109 139 176 235 294 345 411
#     4  12  23  45  73 104 138 178 237 291 341 419
#     4  12  27  48  68 103 144 185 233 287 349 421
#     4  11  25  49  71 103 145 182 234 287 349 426
#     4  12  24  46  70 102 140 186 229 282 352 408
#     4  11  24  41  73 104 139 181 227 289 355 400
#
# _framework density 28.208144999999998
#
# number of rings (size 3 to 8) (size 9 to 14) (size 15 to 20)
#    0.000    0.571    4.286    3.000    0.000    1.714 
#    5.143    0.000    0.000    0.000    0.000    0.000 
#    0.000    0.000    0.000    0.000    0.000    0.000 
#
# Total GULP energy -173542.564269 kJ/mol
# GULP energy per Si atom -12395.897448 kJ/mol
# Density = 2.814394 g / cm^3
# Si number density = 28.208145 Si / 1000 Ang^3
#
#
#
# Elastic Constant Matrix: (Units=GPa)
#
#
# Indices 1 2 3 4 5 6 
#
# 1 80.6535 12.2797 12.9971 20.2880 30.7311 -0.3152
# 2 12.2797 100.8366 15.8534 11.9781 14.8513 -2.3731
# 3 12.9971 15.8534 130.0418 30.3136 42.3679 5.6290
# 4 20.2880 11.9781 30.3136 49.2978 -3.6152 16.3815
# 5 30.7311 14.8513 42.3679 -3.6152 58.1547 6.1228
# 6 -0.3152 -2.3731 5.6290 16.3815 6.1228 39.9922
#
#
#
# Elastic Compliance Matrix: (Units=1/GPa)
#
#
# Indices 1 2 3 4 5 6 
#
# 1 0.025055 0.001776 0.009500 -0.022137 -0.023211 0.011587
# 2 0.001776 0.011106 0.001583 -0.006090 -0.005709 0.003819
# 3 0.009500 0.001583 0.017186 -0.019222 -0.020055 0.008694
# 4 -0.022137 -0.006090 -0.019222 0.053358 0.033182 -0.024767
# 5 -0.023211 -0.005709 -0.020055 0.033182 0.049581 -0.018881
# 6 0.011587 0.003819 0.008694 -0.024767 -0.018881 0.037135
#
#
# Mechanical properties :
#
#
# Convention : Reuss Voigt Hill
#
# Bulk Modulus (GPa) = 12.64778 43.75468 28.20123
# Shear Modulus (GPa) = 25.76560 47.51571 36.64065
#
# Velocity S-wave (km/s) = 3.02555 4.10868 3.60799
# Velocity P-wave (km/s) = 4.08640 6.16874 5.23221
#
# Compressibility (1/GPa) = 0.07906527
#
# Stress axis : x y z
#
# Youngs Moduli (GPa) = 39.91192 90.04148 58.18757
#
# Poissons Ratio (x) = -0.15992 -0.55280
# Poissons Ratio (y) = -0.07089 -0.09210
# Poissons Ratio (z) = -0.37917 -0.14252
#
# Static dielectric constant tensor:
#      x y z
#    x 5.645500 -0.104170 -0.235250 
#    y -0.104170 5.231910 0.110230 
#    z -0.235250 0.110230 5.577730 
# 
# 
# High freq. dielectric constant tensor:
#      x y z
#    x 2.161650 0.004080 0.004790 
#    y 0.004080 2.137450 0.002770 
#    z 0.004790 0.002770 2.168470 
# 
# From -- ./inp_files/472762.got.cif
#   From: 2010.06.25/outbox.cif.g09.slc.cpg/sg2_237_cif.got.tgz:472762.got - 2010.06.27 13:26:56.
