data_PCOD8033173
_publ_section_title
;
Structure prediction by ZEFSAII (Michael W. Deem and Ramdas Pophale) SiO2 
 PCOD8033173
Probable space group: P -1
;
_chemical_formula_sum "Si O2"
_cell_formula_units_Z 16
_cell_length_a 18.419055
_cell_length_b 11.855737
_cell_length_c 9.626150
_cell_angle_alpha 129.539371
_cell_angle_beta 49.166627
_cell_angle_gamma 151.474680
_cell_volume 748.210211
_symmetry_space_group_name_H-M "P -1"
_symmetry_group_IT_number 2
_symmetry_cell_setting 'triclinic'
loop_
_space_group_symop_operation_xyz
x,y,z
-x,-y,-z
loop_
_atom_site_type_symbol
_atom_site_label
_atom_site_fract_x
_atom_site_fract_y
_atom_site_fract_z
Si Si1 0.553338 0.740289 0.965303
Si Si2 0.541896 0.334532 0.467436
Si Si3 0.654756 0.760313 0.138718
Si Si4 0.994326 0.848188 0.978513
Si Si5 0.461415 0.941765 0.342409
Si Si6 0.851490 0.391391 0.672998
Si Si7 0.273176 0.036500 0.359718
Si Si8 0.886179 0.869098 0.406533
O O1 0.390492 0.456230 0.914267
O O2 0.674322 0.890889 0.807099
O O3 0.636624 0.745804 0.984632
O O4 0.517174 0.858142 0.146864
O O5 0.460267 0.262324 0.662501
O O6 0.425996 0.259250 0.436109
O O7 0.711368 0.611257 0.467334
O O8 0.557756 0.178392 0.317355
O O9 0.834104 0.016028 0.145652
O O10 0.877841 0.580638 0.861298
O O11 0.952432 0.841629 0.183744
O O12 0.000000 0.000000 0.000000
O O13 0.275822 0.738986 0.391153
O O14 0.500000 0.000000 0.500000
O O15 0.000000 0.500000 0.500000
O O16 0.791341 0.203042 0.715449
O O17 0.134089 0.989713 0.517583
O O18 0.000000 0.000000 0.500000
#
# Coordination Sequence:
#
# PCOD8033173 Si02
#       8
#     2   2   2   2   2   2   2   2
#     4  11  24  40  72  96 135 172 243 279 338 402
#     4  11  24  43  71  96 136 178 232 275 346 413
#     4  11  23  45  68 101 133 186 231 278 342 425
#     4  12  26  43  73 101 139 182 234 286 353 413
#     4  11  24  42  69  99 132 181 230 282 337 414
#     4  11  26  46  69 103 143 180 230 290 358 413
#     4  11  25  45  71  99 136 184 227 291 343 413
#     4  12  27  46  66 105 141 177 229 291 351 409
#
# _framework density 21.384364999999999
#
# number of rings (size 3 to 8) (size 9 to 14) (size 15 to 20)
#    0.000    0.750    2.500    4.875    7.000    3.000 
#    0.000    1.250    0.000    0.000    0.000    0.000 
#    0.000    0.000    0.000    0.000    0.000    0.000 
#
# Total GULP energy -198389.963404 kJ/mol
# GULP energy per Si atom -12399.372713 kJ/mol
# Density = 2.133569 g / cm^3
# Si number density = 21.384365 Si / 1000 Ang^3
#
#
#
# Elastic Constant Matrix: (Units=GPa)
#
#
# Indices 1 2 3 4 5 6 
#
# 1 111.9451 59.6366 42.6403 13.1872 0.8526 -2.0227
# 2 59.6366 135.2802 49.8815 9.5667 2.1836 0.4589
# 3 42.6403 49.8815 117.5844 2.8240 -2.8849 -8.5095
# 4 13.1872 9.5667 2.8240 43.2127 -9.0427 -4.1161
# 5 0.8526 2.1836 -2.8849 -9.0427 37.5890 2.6541
# 6 -2.0227 0.4589 -8.5095 -4.1161 2.6541 35.7849
#
#
#
# Elastic Compliance Matrix: (Units=1/GPa)
#
#
# Indices 1 2 3 4 5 6 
#
# 1 0.012626 -0.004350 -0.002696 -0.002923 -0.000934 -0.000139
# 2 -0.004350 0.010496 -0.002954 -0.001105 -0.000923 -0.001142
# 3 -0.002696 -0.002954 0.010918 0.001255 0.001193 0.002538
# 4 -0.002923 -0.001105 0.001255 0.025753 0.006235 0.002647
# 5 -0.000934 -0.000923 0.001193 0.006235 0.028351 -0.001143
# 6 -0.000139 -0.001142 0.002538 0.002647 -0.001143 0.028944
#
#
# Mechanical properties :
#
#
# Convention : Reuss Voigt Hill
#
# Bulk Modulus (GPa) = 71.22287 74.34742 72.78514
# Shear Modulus (GPa) = 35.26920 37.49408 36.38164
#
# Velocity S-wave (km/s) = 4.06556 4.19183 4.12918
# Velocity P-wave (km/s) = 7.44424 7.63356 7.53950
#
# Compressibility (1/GPa) = 0.01404043
#
# Stress axis : x y z
#
# Youngs Moduli (GPa) = 79.20148 95.27779 91.59088
#
# Poissons Ratio (x) = 0.41442 0.24695
# Poissons Ratio (y) = 0.34450 0.27054
# Poissons Ratio (z) = 0.21354 0.28143
#
# Static dielectric constant tensor:
#      x y z
#    x 4.576780 -0.010070 0.981270 
#    y -0.010070 4.095140 0.221080 
#    z 0.981270 0.221080 6.728450 
# 
# 
# High freq. dielectric constant tensor:
#      x y z
#    x 1.847720 -0.006920 -0.003440 
#    y -0.006920 1.844400 0.008640 
#    z -0.003440 0.008640 1.848270 
# 
# From -- ./inp_files/206462.got.cif
#   From: 2010.06.25/outbox.cif.g09.slc.cpg/sg2_104_cif.got.tgz:206462.got - 2010.06.27 13:26:56.
