data_PCOD8033822
_publ_section_title
;
Structure prediction by ZEFSAII (Michael W. Deem and Ramdas Pophale) SiO2 
 PCOD8033822
Probable space group: P -1
;
_chemical_formula_sum "Si O2"
_cell_formula_units_Z 16
_cell_length_a 9.023190
_cell_length_b 8.599396
_cell_length_c 24.470380
_cell_angle_alpha 129.966141
_cell_angle_beta 30.503395
_cell_angle_gamma 130.837246
_cell_volume 713.607530
_symmetry_space_group_name_H-M "P -1"
_symmetry_group_IT_number 2
_symmetry_cell_setting 'triclinic'
loop_
_space_group_symop_operation_xyz
x,y,z
-x,-y,-z
loop_
_atom_site_type_symbol
_atom_site_label
_atom_site_fract_x
_atom_site_fract_y
_atom_site_fract_z
Si Si1 0.252384 0.018149 0.266787
Si Si2 0.304045 0.628974 0.739906
Si Si3 0.357775 0.540540 0.894587
Si Si4 0.393124 0.293572 0.719938
Si Si5 0.383910 0.674656 0.604799
Si Si6 0.648199 0.433482 0.884627
Si Si7 0.157078 0.953634 0.494242
Si Si8 0.904419 0.866370 0.770385
O O1 0.579634 0.169581 0.212769
O O2 0.103002 0.123557 0.290446
O O3 0.297402 0.798053 0.182246
O O4 0.027884 0.004705 0.385681
O O5 0.316992 0.417679 0.719548
O O6 0.496055 0.672720 0.632025
O O7 0.967132 0.606815 0.820398
O O8 0.449946 0.430089 0.787199
O O9 0.437569 0.435273 0.900406
O O10 0.552363 0.788408 0.886190
O O11 0.000000 0.500000 0.000000
O O12 0.724101 0.256783 0.592034
O O13 0.105835 0.092658 0.779073
O O14 0.500000 0.500000 0.500000
O O15 0.522128 0.879030 0.571115
O O16 0.031546 0.669727 0.707419
O O17 0.500000 0.500000 0.000000
O O18 0.000000 0.000000 0.500000
#
# Coordination Sequence:
#
# PCOD8033822 Si02
#       8
#     2   2   2   2   2   2   2   2
#     4  12  26  46  74 104 148 188 242 294 365 428
#     4  12  24  46  71 107 144 190 239 299 358 427
#     4  12  27  49  76 103 139 191 241 296 367 424
#     4  11  26  46  71 107 149 185 245 289 358 433
#     4  11  25  41  70 104 149 195 242 289 362 422
#     4  12  28  50  74 104 143 183 240 308 362 434
#     4  11  24  42  68 105 144 190 234 292 352 430
#     4  11  26  46  70 106 146 188 239 300 353 429
#
# _framework density 22.421289000000002
#
# number of rings (size 3 to 8) (size 9 to 14) (size 15 to 20)
#    0.000    0.500    5.000    2.250    5.250    2.500 
#    0.000    0.000    0.000    0.000    0.000    0.000 
#    0.000    0.000    0.000    0.000    0.000    0.000 
#
# Total GULP energy -198215.381381 kJ/mol
# GULP energy per Si atom -12388.461336 kJ/mol
# Density = 2.237026 g / cm^3
# Si number density = 22.421289 Si / 1000 Ang^3
#
#
#
# Elastic Constant Matrix: (Units=GPa)
#
#
# Indices 1 2 3 4 5 6 
#
# 1 160.0187 33.5013 47.1603 7.2945 3.2827 -11.3223
# 2 33.5013 101.8461 48.5606 -7.2276 0.8361 7.3054
# 3 47.1603 48.5606 117.2706 14.4112 2.9780 -9.4257
# 4 7.2945 -7.2276 14.4112 29.2472 10.8445 4.2182
# 5 3.2827 0.8361 2.9780 10.8445 35.3770 -9.0457
# 6 -11.3223 7.3054 -9.4257 4.2182 -9.0457 40.1331
#
#
#
# Elastic Compliance Matrix: (Units=1/GPa)
#
#
# Indices 1 2 3 4 5 6 
#
# 1 0.007422 -0.001938 -0.001748 -0.002106 0.000772 0.002432
# 2 -0.001938 0.015244 -0.007297 0.010613 -0.004661 -0.007202
# 3 -0.001748 -0.007297 0.013945 -0.010594 0.003973 0.006119
# 4 -0.002106 0.010613 -0.010594 0.051622 -0.018737 -0.014663
# 5 0.000772 -0.004661 0.003973 -0.018737 0.036853 0.012275
# 6 0.002432 -0.007202 0.006119 -0.014663 0.012275 0.032659
#
#
# Mechanical properties :
#
#
# Convention : Reuss Voigt Hill
#
# Bulk Modulus (GPa) = 68.28751 70.84220 69.56485
# Shear Modulus (GPa) = 27.08647 37.61233 32.34940
#
# Velocity S-wave (km/s) = 3.47950 4.10021 3.80254
# Velocity P-wave (km/s) = 6.83119 7.35392 7.09737
#
# Compressibility (1/GPa) = 0.01464397
#
# Stress axis : x y z
#
# Youngs Moduli (GPa) = 134.72790 65.60015 71.71143
#
# Poissons Ratio (x) = 0.12717 0.12532
# Poissons Ratio (y) = 0.26117 0.52331
# Poissons Ratio (z) = 0.23544 0.47872
#
# Static dielectric constant tensor:
#      x y z
#    x 4.435540 0.026130 0.143240 
#    y 0.026130 4.392630 -0.627950 
#    z 0.143240 -0.627950 4.252440 
# 
# 
# High freq. dielectric constant tensor:
#      x y z
#    x 1.910530 0.002950 -0.003190 
#    y 0.002950 1.889180 -0.017770 
#    z -0.003190 -0.017770 1.871970 
# 
# From -- ./inp_files/606770.got.cif
#   From: 2010.06.25/outbox.cif.g09.slc.cpg/sg2_304_cif.got.tgz:606770.got - 2010.06.27 13:26:56.
