data_PCOD8033979
_publ_section_title
;
Structure prediction by ZEFSAII (Michael W. Deem and Ramdas Pophale) SiO2 
 PCOD8033979
Probable space group: P -1
;
_chemical_formula_sum "Si O2"
_cell_formula_units_Z 14
_cell_length_a 20.566451
_cell_length_b 5.056363
_cell_length_c 6.517683
_cell_angle_alpha 71.873904
_cell_angle_beta 71.046833
_cell_angle_gamma 69.354139
_cell_volume 584.882244
_symmetry_space_group_name_H-M "P -1"
_symmetry_group_IT_number 2
_symmetry_cell_setting 'triclinic'
loop_
_space_group_symop_operation_xyz
x,y,z
-x,-y,-z
loop_
_atom_site_type_symbol
_atom_site_label
_atom_site_fract_x
_atom_site_fract_y
_atom_site_fract_z
Si Si1 0.186336 0.157007 0.159847
Si Si2 0.169703 0.547463 0.466979
Si Si3 0.290843 0.252089 0.720766
Si Si4 0.068968 0.245322 0.928589
Si Si5 0.495335 0.693826 0.153144
Si Si6 0.964896 0.057685 0.304594
Si Si7 0.383235 0.668481 0.594812
O O1 0.263170 0.166538 0.989816
O O2 0.139656 0.235925 0.983338
O O3 0.158682 0.404628 0.298054
O O4 0.186970 0.849430 0.330912
O O5 0.232212 0.325983 0.581321
O O6 0.096146 0.619133 0.674153
O O7 0.317312 0.537513 0.652127
O O8 0.355659 0.979405 0.655721
O O9 0.080017 0.154829 0.693225
O O10 0.000000 0.500000 0.000000
O O11 0.037498 0.990673 0.112341
O O12 0.419792 0.720904 0.333270
O O13 0.560667 0.558457 0.269058
O O14 0.500000 0.500000 0.000000
O O15 0.500000 0.000000 0.000000
O O16 0.000000 0.000000 0.500000
#
# Coordination Sequence:
#
# PCOD8033979 Si02
#       7
#     2   2   2   2   2   2   2
#     4  12  28  45  69 101 138 186 243 292 360 437
#     4  12  28  45  70 102 137 191 242 297 368 429
#     4  12  27  46  71 100 154 186 239 290 350 424
#     4  11  25  41  69  95 130 178 234 304 372 426
#     4  11  24  45  78 110 148 183 237 288 339 410
#     4  11  24  43  68  96 131 176 239 307 365 426
#     4  11  26  46  72 111 142 193 233 285 349 413
#
# _framework density 23.936444000000002
#
# number of rings (size 3 to 8) (size 9 to 14) (size 15 to 20)
#    0.000    0.571    1.429    5.143   10.000   10.286 
#    0.000    0.000    0.000    0.000    0.000    0.000 
#    0.000    0.000    0.000    0.000    0.000    0.000 
#
# Total GULP energy -173471.546168 kJ/mol
# GULP energy per Si atom -12390.824726 kJ/mol
# Density = 2.388196 g / cm^3
# Si number density = 23.936444 Si / 1000 Ang^3
#
#
#
# Elastic Constant Matrix: (Units=GPa)
#
#
# Indices 1 2 3 4 5 6 
#
# 1 93.0905 21.9077 56.7973 9.6592 -11.4479 8.7003
# 2 21.9077 137.0739 49.5328 13.2547 -7.9940 13.6252
# 3 56.7973 49.5328 136.8299 16.6859 -20.9878 12.7080
# 4 9.6592 13.2547 16.6859 51.3410 3.6601 7.2268
# 5 -11.4479 -7.9940 -20.9878 3.6601 55.7855 6.2241
# 6 8.7003 13.6252 12.7080 7.2268 6.2241 44.6568
#
#
#
# Elastic Compliance Matrix: (Units=1/GPa)
#
#
# Indices 1 2 3 4 5 6 
#
# 1 0.014519 -0.000019 -0.005649 -0.000791 0.001041 -0.001232
# 2 -0.000019 0.008593 -0.002735 -0.001116 0.000464 -0.001724
# 3 -0.005649 -0.002735 0.011488 -0.001980 0.003062 -0.001440
# 4 -0.000791 -0.001116 -0.001980 0.021002 -0.002219 -0.002031
# 5 0.001041 0.000464 0.003062 -0.002219 0.019908 -0.003631
# 6 -0.001232 -0.001724 -0.001440 -0.002031 -0.003631 0.024404
#
#
# Mechanical properties :
#
#
# Convention : Reuss Voigt Hill
#
# Bulk Modulus (GPa) = 56.20309 69.27442 62.73876
# Shear Modulus (GPa) = 40.76539 46.27377 43.51958
#
# Velocity S-wave (km/s) = 4.13130 4.40158 4.26858
# Velocity P-wave (km/s) = 6.80353 7.40511 7.11068
#
# Compressibility (1/GPa) = 0.01779262
#
# Stress axis : x y z
#
# Youngs Moduli (GPa) = 68.87664 116.37097 87.04527
#
# Poissons Ratio (x) = 0.00226 0.49172
# Poissons Ratio (y) = 0.00134 0.23810
# Poissons Ratio (z) = 0.38909 0.31831
#
# Static dielectric constant tensor:
#      x y z
#    x 3.961720 0.028270 -0.091220 
#    y 0.028270 3.889610 -0.432700 
#    z -0.091220 -0.432700 4.233270 
# 
# 
# High freq. dielectric constant tensor:
#      x y z
#    x 1.956620 0.015330 -0.008590 
#    y 0.015330 1.966540 -0.001000 
#    z -0.008590 -0.001000 1.979970 
# 
# From -- ./inp_files/121535.got.cif
#   From: 2010.06.25/outbox.cif.g09.slc.cpg/sg2_61_cif.got.tgz:121535.got - 2010.06.27 13:26:56.
