data_PCOD8033713
_publ_section_title
;
Structure prediction by ZEFSAII (Michael W. Deem and Ramdas Pophale) SiO2 
 PCOD8033713
Probable space group: P -1
;
_chemical_formula_sum "Si O2"
_cell_formula_units_Z 16
_cell_length_a 8.447229
_cell_length_b 11.347914
_cell_length_c 20.116279
_cell_angle_alpha 21.733887
_cell_angle_beta 102.813387
_cell_angle_gamma 101.457132
_cell_volume 696.120878
_symmetry_space_group_name_H-M "P -1"
_symmetry_group_IT_number 2
_symmetry_cell_setting 'triclinic'
loop_
_space_group_symop_operation_xyz
x,y,z
-x,-y,-z
loop_
_atom_site_type_symbol
_atom_site_label
_atom_site_fract_x
_atom_site_fract_y
_atom_site_fract_z
Si Si1 0.845367 0.718297 0.092159
Si Si2 0.622707 0.775692 0.670745
Si Si3 0.805311 0.162504 0.971985
Si Si4 0.074492 0.847583 0.521111
Si Si5 0.790585 0.649663 0.500579
Si Si6 0.365942 0.008464 0.168489
Si Si7 0.451758 0.947883 0.351605
Si Si8 0.297578 0.284116 0.688358
O O1 0.824069 0.457359 0.283608
O O2 0.805256 0.046226 0.956416
O O3 0.707048 0.691936 0.036572
O O4 0.016580 0.685981 0.085775
O O5 0.500000 0.000000 0.500000
O O6 0.800526 0.915109 0.623109
O O7 0.552927 0.772860 0.740414
O O8 0.655049 0.419561 0.831455
O O9 0.795558 0.880089 0.173419
O O10 0.946752 0.752917 0.502318
O O11 0.000000 0.000000 0.500000
O O12 0.636355 0.836119 0.418277
O O13 0.811212 0.727986 0.382757
O O14 0.763152 0.274613 0.702065
O O15 0.382460 0.107039 0.194859
O O16 0.537884 0.910386 0.206506
O O17 0.341299 0.647569 0.519981
#
# Coordination Sequence:
#
# PCOD8033713 Si02
#       8
#     2   2   2   2   2   2   2   2
#     4  11  24  41  65  91 131 167 217 261 311 382
#     4  12  27  42  64  95 134 168 211 266 321 381
#     4  11  24  42  61  97 129 169 213 263 318 373
#     4  12  24  43  63  93 126 175 211 256 328 372
#     4   9  19  41  68  92 130 167 212 262 313 385
#     4   9  20  39  70  96 125 167 214 262 311 377
#     4   9  20  42  66  97 126 168 212 259 320 376
#     4   9  20  40  69  97 122 167 217 263 314 371
#
# _framework density 22.984515999999999
#
# number of rings (size 3 to 8) (size 9 to 14) (size 15 to 20)
#    0.000    1.750    1.250    4.500    5.250    1.500 
#    2.250    5.625    0.000    0.000    0.000    0.000 
#    0.000    0.000    0.000    0.000    0.000    0.000 
#
# Total GULP energy -198300.694709 kJ/mol
# GULP energy per Si atom -12393.793419 kJ/mol
# Density = 2.293220 g / cm^3
# Si number density = 22.984516 Si / 1000 Ang^3
#
#
#
# Elastic Constant Matrix: (Units=GPa)
#
#
# Indices 1 2 3 4 5 6 
#
# 1 47.9907 38.5185 22.7428 5.9945 7.4868 -1.7116
# 2 38.5185 109.0558 31.0024 17.9947 26.0972 -5.7690
# 3 22.7428 31.0024 76.2452 21.2421 18.1385 0.7409
# 4 5.9945 17.9947 21.2421 38.8611 -2.3151 9.1325
# 5 7.4868 26.0972 18.1385 -2.3151 44.9005 1.6846
# 6 -1.7116 -5.7690 0.7409 9.1325 1.6846 47.0368
#
#
#
# Elastic Compliance Matrix: (Units=1/GPa)
#
#
# Indices 1 2 3 4 5 6 
#
# 1 0.031892 -0.011065 -0.007373 0.004769 0.004382 -0.001163
# 2 -0.011065 0.016310 0.000749 -0.007547 -0.008453 0.003354
# 3 -0.007373 0.000749 0.019948 -0.011039 -0.007906 0.001936
# 4 0.004769 -0.007547 -0.011039 0.037050 0.010267 -0.008139
# 5 0.004382 -0.008453 -0.007906 0.010267 0.030321 -0.003832
# 6 -0.001163 0.003354 0.001936 -0.008139 -0.003832 0.023316
#
#
# Mechanical properties :
#
#
# Convention : Reuss Voigt Hill
#
# Bulk Modulus (GPa) = 30.51395 46.42434 38.46914
# Shear Modulus (GPa) = 24.37364 35.56154 29.96759
#
# Velocity S-wave (km/s) = 3.25997 3.93771 3.61476
# Velocity P-wave (km/s) = 5.24162 6.39656 5.84767
#
# Compressibility (1/GPa) = 0.03277190
#
# Stress axis : x y z
#
# Youngs Moduli (GPa) = 31.35581 61.31128 50.13056
#
# Poissons Ratio (x) = 0.67842 0.36963
# Poissons Ratio (y) = 0.34696 -0.03757
# Poissons Ratio (z) = 0.23120 -0.04595
#
# Static dielectric constant tensor:
#      x y z
#    x 4.137790 -0.086820 0.012440 
#    y -0.086820 4.228240 0.000270 
#    z 0.012440 0.000270 4.263520 
# 
# 
# High freq. dielectric constant tensor:
#      x y z
#    x 1.906680 -0.007560 0.005350 
#    y -0.007560 1.912060 0.012030 
#    z 0.005350 0.012030 1.898150 
# 
# From -- ./inp_files/589322.got.cif
#   From: 2010.06.25/outbox.cif.g09.slc.cpg/sg2_295_cif.got.tgz:589322.got - 2010.06.27 13:26:56.
