data_PCOD8033032
_publ_section_title
;
Structure prediction by ZEFSAII (Michael W. Deem and Ramdas Pophale) SiO2 
 PCOD8033032
Probable space group: P -1
;
_chemical_formula_sum "Si O2"
_cell_formula_units_Z 16
_cell_length_a 5.489475
_cell_length_b 17.946559
_cell_length_c 12.318390
_cell_angle_alpha 50.602330
_cell_angle_beta 49.273857
_cell_angle_gamma 84.018731
_cell_volume 603.034276
_symmetry_space_group_name_H-M "P -1"
_symmetry_group_IT_number 2
_symmetry_cell_setting 'triclinic'
loop_
_space_group_symop_operation_xyz
x,y,z
-x,-y,-z
loop_
_atom_site_type_symbol
_atom_site_label
_atom_site_fract_x
_atom_site_fract_y
_atom_site_fract_z
Si Si1 0.641214 0.181040 0.556093
Si Si2 0.684460 0.798361 0.044987
Si Si3 0.435420 0.599049 0.898182
Si Si4 0.325311 0.606667 0.684840
Si Si5 0.281637 0.367692 0.667812
Si Si6 0.567624 0.774419 0.871309
Si Si7 0.192526 0.870801 0.207723
Si Si8 0.502856 0.021628 0.353272
O O1 0.878605 0.318354 0.335394
O O2 0.766413 0.172808 0.646888
O O3 0.209166 0.148435 0.692156
O O4 0.725018 0.102692 0.524662
O O5 0.528503 0.684792 0.265397
O O6 0.338658 0.819380 0.120391
O O7 0.809873 0.785987 0.897582
O O8 0.066314 0.906360 0.885330
O O9 0.547427 0.640026 0.703894
O O10 0.641230 0.713298 0.806438
O O11 0.500000 0.500000 0.000000
O O12 0.972697 0.529411 0.109224
O O13 0.659541 0.650657 0.458698
O O14 0.500000 0.500000 0.500000
O O15 0.854604 0.309397 0.884835
O O16 0.677970 0.901579 0.688648
O O17 0.500000 0.000000 0.000000
O O18 0.500000 0.000000 0.500000
#
# Coordination Sequence:
#
# PCOD8033032 Si02
#       8
#     2   2   2   2   2   2   2   2
#     4  12  26  45  78 105 150 190 248 303 373 440
#     4  11  25  42  72 106 143 186 239 307 370 438
#     4  11  27  45  72 101 147 194 244 303 374 446
#     4  11  25  47  69 106 142 192 243 310 364 449
#     4  11  23  44  72 101 141 182 241 305 369 430
#     4  11  25  46  72 104 140 187 245 304 369 443
#     4  12  24  44  73 111 147 191 236 310 373 437
#     4  11  26  47  69 102 143 196 241 301 366 448
#
# _framework density 26.532489999999999
#
# number of rings (size 3 to 8) (size 9 to 14) (size 15 to 20)
#    0.000    0.750    3.750    2.625    5.250    4.000 
#    0.000    0.000    0.000    0.000    0.000    0.000 
#    0.000    0.000    0.000    0.000    0.000    0.000 
#
# Total GULP energy -198313.244670 kJ/mol
# GULP energy per Si atom -12394.577792 kJ/mol
# Density = 2.647210 g / cm^3
# Si number density = 26.532490 Si / 1000 Ang^3
#
#
#
# Elastic Constant Matrix: (Units=GPa)
#
#
# Indices 1 2 3 4 5 6 
#
# 1 80.0519 25.3982 30.9533 -1.7666 18.0285 8.1382
# 2 25.3982 169.4218 58.2799 -12.2886 11.7781 13.5227
# 3 30.9533 58.2799 132.7229 -28.9494 28.0006 15.4123
# 4 -1.7666 -12.2886 -28.9494 60.8971 17.0912 -0.0216
# 5 18.0285 11.7781 28.0006 17.0912 49.6765 5.3959
# 6 8.1382 13.5227 15.4123 -0.0216 5.3959 47.2934
#
#
#
# Elastic Compliance Matrix: (Units=1/GPa)
#
#
# Indices 1 2 3 4 5 6 
#
# 1 0.014594 -0.001161 -0.001811 0.000461 -0.004037 -0.001129
# 2 -0.001161 0.007095 -0.002858 -0.000098 0.000487 -0.000953
# 3 -0.001811 -0.002858 0.012971 0.007913 -0.008468 -0.002129
# 4 0.000461 -0.000098 0.007913 0.023723 -0.012638 -0.001177
# 5 -0.004037 0.000487 -0.008468 -0.012638 0.030621 -0.000185
# 6 -0.001129 -0.000953 -0.002129 -0.001177 -0.000185 0.022326
#
#
# Mechanical properties :
#
#
# Convention : Reuss Voigt Hill
#
# Bulk Modulus (GPa) = 43.47608 67.93993 55.70800
# Shear Modulus (GPa) = 38.26830 49.41106 43.83968
#
# Velocity S-wave (km/s) = 3.80191 4.32010 4.06926
# Velocity P-wave (km/s) = 5.97446 7.10959 6.56660
#
# Compressibility (1/GPa) = 0.02300116
#
# Stress axis : x y z
#
# Youngs Moduli (GPa) = 68.51970 140.94997 77.09248
#
# Poissons Ratio (x) = 0.16362 0.13959
# Poissons Ratio (y) = 0.07954 0.22034
# Poissons Ratio (z) = 0.12407 0.40285
#
# Static dielectric constant tensor:
#      x y z
#    x 6.040890 0.833210 -0.627600 
#    y 0.833210 5.686130 -0.592460 
#    z -0.627600 -0.592460 5.624390 
# 
# 
# High freq. dielectric constant tensor:
#      x y z
#    x 2.076230 0.006380 -0.016580 
#    y 0.006380 2.071240 -0.010680 
#    z -0.016580 -0.010680 2.102820 
# 
# From -- ./inp_files/369342.got.cif
#   From: 2010.06.25/outbox.cif.g09.slc.cpg/sg2_185_cif.got.tgz:369342.got - 2010.06.27 13:26:56.
