data_PCOD8033994
_publ_section_title
;
Structure prediction by ZEFSAII (Michael W. Deem and Ramdas Pophale) SiO2 
 PCOD8033994
Probable space group: P -1
;
_chemical_formula_sum "Si O2"
_cell_formula_units_Z 12
_cell_length_a 18.580195
_cell_length_b 13.294152
_cell_length_c 22.521524
_cell_angle_alpha 159.736684
_cell_angle_beta 16.873340
_cell_angle_gamma 151.394791
_cell_volume 548.289021
_symmetry_space_group_name_H-M "P -1"
_symmetry_group_IT_number 2
_symmetry_cell_setting 'triclinic'
loop_
_space_group_symop_operation_xyz
x,y,z
-x,-y,-z
loop_
_atom_site_type_symbol
_atom_site_label
_atom_site_fract_x
_atom_site_fract_y
_atom_site_fract_z
Si Si1 0.642755 0.611333 0.395258
Si Si2 0.901487 0.570920 0.549916
Si Si3 0.360641 0.258799 0.949763
Si Si4 0.170276 0.767350 0.068351
Si Si5 0.753644 0.917053 0.177552
Si Si6 0.573928 0.543025 0.200829
O O1 0.500000 0.500000 0.500000
O O2 0.936399 0.603798 0.172282
O O3 0.492701 0.939076 0.688369
O O4 0.633161 0.405383 0.231010
O O5 0.612707 0.543215 0.750134
O O6 0.000000 0.500000 0.500000
O O7 0.931484 0.898461 0.687940
O O8 0.071161 0.327787 0.239192
O O9 0.373077 0.262310 0.870958
O O10 0.500000 0.500000 0.000000
O O11 0.305594 0.744282 0.013766
O O12 0.790997 0.687603 0.076657
O O13 0.565767 0.216705 0.509304
O O14 0.000000 0.000000 0.000000
#
# Coordination Sequence:
#
# PCOD8033994 Si02
#       6
#     2   2   2   2   2   2
#     4  11  25  42  71 100 140 187 231 286 350 421
#     4  12  25  45  72 101 140 185 234 295 355 416
#     4  12  23  44  70 100 140 183 238 285 340 425
#     4  11  25  45  67 103 143 178 233 291 353 413
#     4  11  24  43  69 101 137 185 230 287 349 423
#     4  11  25  43  72 100 140 182 233 289 357 413
#
# _framework density 21.886268000000001
#
# number of rings (size 3 to 8) (size 9 to 14) (size 15 to 20)
#    0.000    0.667    5.000    2.500    2.333    1.333 
#    0.000    0.833    0.000    0.000    0.000    0.000 
#    0.000    0.000    0.000    0.000    0.000    0.000 
#
# Total GULP energy -148738.403720 kJ/mol
# GULP energy per Si atom -12394.866977 kJ/mol
# Density = 2.183645 g / cm^3
# Si number density = 21.886268 Si / 1000 Ang^3
#
#
#
# Elastic Constant Matrix: (Units=GPa)
#
#
# Indices 1 2 3 4 5 6 
#
# 1 157.5099 55.1747 47.1634 3.2254 -8.4759 -19.1395
# 2 55.1747 105.6419 49.6841 -24.7529 8.5778 -28.2134
# 3 47.1634 49.6841 104.4862 12.8857 0.4548 -20.3735
# 4 3.2254 -24.7529 12.8857 32.5215 -0.6366 0.3464
# 5 -8.4759 8.5778 0.4548 -0.6366 35.1752 6.6143
# 6 -19.1395 -28.2134 -20.3735 0.3464 6.6143 41.4289
#
#
#
# Elastic Compliance Matrix: (Units=1/GPa)
#
#
# Indices 1 2 3 4 5 6 
#
# 1 0.008870 -0.006060 -0.000682 -0.005140 0.003703 -0.000913
# 2 -0.006060 0.028341 -0.011581 0.026435 -0.010035 0.012187
# 3 -0.000682 -0.011581 0.017316 -0.015567 0.002135 0.000103
# 4 -0.005140 0.026435 -0.015567 0.057295 -0.008099 0.008786
# 5 0.003703 -0.010035 0.002135 -0.008099 0.033349 -0.009330
# 6 -0.000913 0.012187 0.000103 0.008786 -0.009330 0.033482
#
#
# Mechanical properties :
#
#
# Convention : Reuss Voigt Hill
#
# Bulk Modulus (GPa) = 55.92960 74.63139 65.28050
# Shear Modulus (GPa) = 22.59800 36.19949 29.39874
#
# Velocity S-wave (km/s) = 3.21677 4.07133 3.66901
# Velocity P-wave (km/s) = 6.27750 7.50164 6.91670
#
# Compressibility (1/GPa) = 0.01787962
#
# Stress axis : x y z
#
# Youngs Moduli (GPa) = 112.74579 35.28438 57.75017
#
# Poissons Ratio (x) = 0.21384 0.03939
# Poissons Ratio (y) = 0.68329 0.66880
# Poissons Ratio (z) = 0.07690 0.40863
#
# Static dielectric constant tensor:
#      x y z
#    x 3.937060 -0.007450 0.097490 
#    y -0.007450 3.736110 -0.222030 
#    z 0.097490 -0.222030 4.067200 
# 
# 
# High freq. dielectric constant tensor:
#      x y z
#    x 1.870720 -0.007220 0.006090 
#    y -0.007220 1.866520 -0.001260 
#    z 0.006090 -0.001260 1.859800 
# 
# From -- ./inp_files/156378.got.cif
#   From: 2010.06.25/outbox.cif.g09.slc.cpg/sg2_79_cif.got.tgz:156378.got - 2010.06.27 13:26:56.
