data_PCOD8033304
_publ_section_title
;
Structure prediction by ZEFSAII (Michael W. Deem and Ramdas Pophale) SiO2 
 PCOD8033304
Probable space group: P -1
;
_chemical_formula_sum "Si O2"
_cell_formula_units_Z 16
_cell_length_a 8.715903
_cell_length_b 8.939748
_cell_length_c 23.422397
_cell_angle_alpha 140.740417
_cell_angle_beta 136.963388
_cell_angle_gamma 43.526475
_cell_volume 732.763757
_symmetry_space_group_name_H-M "P -1"
_symmetry_group_IT_number 2
_symmetry_cell_setting 'triclinic'
loop_
_space_group_symop_operation_xyz
x,y,z
-x,-y,-z
loop_
_atom_site_type_symbol
_atom_site_label
_atom_site_fract_x
_atom_site_fract_y
_atom_site_fract_z
Si Si1 0.826946 0.132940 0.543553
Si Si2 0.064552 0.387126 0.263286
Si Si3 0.417920 0.447696 0.760597
Si Si4 0.380570 0.108952 0.373761
Si Si5 0.163290 0.166981 0.101092
Si Si6 0.037395 0.207362 0.414260
Si Si7 0.940280 0.409135 0.896965
Si Si8 0.696894 0.082737 0.209893
O O1 0.904322 0.347086 0.655426
O O2 0.548369 0.264044 0.484638
O O3 0.836431 0.930757 0.535203
O O4 0.000000 0.000000 0.500000
O O5 0.233597 0.219637 0.309491
O O6 0.136484 0.252937 0.183722
O O7 0.783932 0.431848 0.210461
O O8 0.361288 0.638752 0.749149
O O9 0.685662 0.393026 0.839351
O O10 0.416867 0.174311 0.661599
O O11 0.198362 0.103267 0.371645
O O12 0.452919 0.018253 0.128485
O O13 0.067593 0.397567 0.098702
O O14 0.000000 0.000000 0.000000
O O15 0.000000 0.500000 0.500000
O O16 0.805779 0.124236 0.313326
O O17 0.123830 0.132735 0.846141
O O18 0.000000 0.500000 0.000000
#
# Coordination Sequence:
#
# PCOD8033304 Si02
#       8
#     2   2   2   2   2   2   2   2
#     4  12  26  43  67 107 143 182 235 291 347 419
#     4  12  26  46  71 102 149 184 232 297 355 411
#     4  11  23  45  74 101 140 181 241 283 348 420
#     4  12  25  46  71 102 142 194 233 280 359 423
#     4  11  30  46  71 108 144 183 238 298 357 415
#     4  12  25  44  74 102 142 190 237 284 349 427
#     4  11  26  48  77 101 135 189 238 289 355 422
#     4  11  25  48  72 106 141 186 241 287 351 427
#
# _framework density 21.835141
#
# number of rings (size 3 to 8) (size 9 to 14) (size 15 to 20)
#    0.000    0.500    3.750    3.000   10.500    2.500 
#    0.000    0.000    0.000    0.000    0.000    0.000 
#    0.000    0.000    0.000    0.000    0.000    0.000 
#
# Total GULP energy -198346.381741 kJ/mol
# GULP energy per Si atom -12396.648859 kJ/mol
# Density = 2.178544 g / cm^3
# Si number density = 21.835141 Si / 1000 Ang^3
#
#
#
# Elastic Constant Matrix: (Units=GPa)
#
#
# Indices 1 2 3 4 5 6 
#
# 1 128.8576 61.4543 60.7829 -18.8871 -3.3158 2.6051
# 2 61.4543 120.2926 51.7134 -4.5169 -6.0925 -3.7424
# 3 60.7829 51.7134 144.3514 -10.1998 2.7488 -8.3406
# 4 -18.8871 -4.5169 -10.1998 36.5407 -0.5098 3.5197
# 5 -3.3158 -6.0925 2.7488 -0.5098 51.6608 -8.2256
# 6 2.6051 -3.7424 -8.3406 3.5197 -8.2256 39.2441
#
#
#
# Elastic Compliance Matrix: (Units=1/GPa)
#
#
# Indices 1 2 3 4 5 6 
#
# 1 0.012403 -0.004806 -0.003279 0.005136 0.000068 -0.002425
# 2 -0.004806 0.011794 -0.002272 -0.001777 0.001411 0.001416
# 3 -0.003279 -0.002272 0.009269 0.000430 -0.000682 0.001789
# 4 0.005136 -0.001777 0.000430 0.030224 -0.000106 -0.003152
# 5 0.000068 0.001411 -0.000682 -0.000106 0.020238 0.004236
# 6 -0.002425 0.001416 0.001789 -0.003152 0.004236 0.027328
#
#
# Mechanical properties :
#
#
# Convention : Reuss Voigt Hill
#
# Bulk Modulus (GPa) = 78.42332 82.37807 80.40070
# Shear Modulus (GPa) = 36.70520 40.12587 38.41554
#
# Velocity S-wave (km/s) = 4.10447 4.29146 4.19900
# Velocity P-wave (km/s) = 7.64567 7.89713 7.77242
#
# Compressibility (1/GPa) = 0.01275131
#
# Stress axis : x y z
#
# Youngs Moduli (GPa) = 80.62643 84.79101 107.88436
#
# Poissons Ratio (x) = 0.40747 0.35380
# Poissons Ratio (y) = 0.38746 0.24513
# Poissons Ratio (z) = 0.26441 0.19266
#
# Static dielectric constant tensor:
#      x y z
#    x 4.129540 -0.087010 0.224720 
#    y -0.087010 4.137410 -0.006440 
#    z 0.224720 -0.006440 4.038370 
# 
# 
# High freq. dielectric constant tensor:
#      x y z
#    x 1.867790 -0.002510 0.010770 
#    y -0.002510 1.865120 -0.005640 
#    z 0.010770 -0.005640 1.872340 
# 
# From -- ./inp_files/89828.got.cif
#   From: 2010.06.25/outbox.cif.g09.slc.cpg/sg2_45_cif.got.tgz:89828.got - 2010.06.27 13:26:56.
