data_PCOD8033592
_publ_section_title
;
Structure prediction by ZEFSAII (Michael W. Deem and Ramdas Pophale) SiO2 
 PCOD8033592
Probable space group: P -1
;
_chemical_formula_sum "Si O2"
_cell_formula_units_Z 16
_cell_length_a 10.743960
_cell_length_b 11.656566
_cell_length_c 13.158404
_cell_angle_alpha 119.192680
_cell_angle_beta 145.136859
_cell_angle_gamma 81.369614
_cell_volume 711.555807
_symmetry_space_group_name_H-M "P -1"
_symmetry_group_IT_number 2
_symmetry_cell_setting 'triclinic'
loop_
_space_group_symop_operation_xyz
x,y,z
-x,-y,-z
loop_
_atom_site_type_symbol
_atom_site_label
_atom_site_fract_x
_atom_site_fract_y
_atom_site_fract_z
Si Si1 0.859020 0.559424 0.655519
Si Si2 0.610056 0.046253 0.482773
Si Si3 0.336628 0.647887 0.894642
Si Si4 0.496152 0.484583 0.778412
Si Si5 0.058807 0.601462 0.180965
Si Si6 0.740830 0.815953 0.404178
Si Si7 0.758689 0.116848 0.171792
Si Si8 0.890751 0.091060 0.026886
O O1 0.612007 0.488142 0.387365
O O2 0.801897 0.454968 0.671395
O O3 0.094767 0.554485 0.762643
O O4 0.933081 0.731633 0.806261
O O5 0.749643 0.225563 0.641542
O O6 0.500000 0.000000 0.500000
O O7 0.789531 0.978142 0.547624
O O8 0.387631 0.964018 0.218868
O O9 0.384321 0.526863 0.817936
O O10 0.264497 0.737052 0.803978
O O11 0.582346 0.765093 0.172610
O O12 0.403661 0.306827 0.655160
O O13 0.795779 0.585940 0.031987
O O14 0.000000 0.500000 0.000000
O O15 0.016655 0.837342 0.576886
O O16 0.851901 0.063095 0.110652
O O17 0.500000 0.000000 0.000000
O O18 0.000000 0.000000 0.000000
#
# Coordination Sequence:
#
# PCOD8033592 Si02
#       8
#     2   2   2   2   2   2   2   2
#     4  11  24  48  74 106 147 186 247 297 361 441
#     4  12  26  48  74 104 147 193 243 302 370 439
#     4  11  24  45  71 109 143 194 239 292 370 440
#     4  12  25  45  77 106 144 193 240 297 370 434
#     4  12  29  48  71 109 146 186 246 305 355 441
#     4  12  23  46  75 101 147 195 242 298 368 433
#     4  11  26  43  68 109 154 187 248 308 362 440
#     4  11  23  47  77 105 143 198 246 300 373 439
#
# _framework density 22.485937
#
# number of rings (size 3 to 8) (size 9 to 14) (size 15 to 20)
#    0.000    0.500    6.250    3.000    3.500    3.000 
#    2.250    0.000    0.000    0.000    0.000    0.000 
#    0.000    0.000    0.000    0.000    0.000    0.000 
#
# Total GULP energy -198384.706070 kJ/mol
# GULP energy per Si atom -12399.044129 kJ/mol
# Density = 2.243476 g / cm^3
# Si number density = 22.485937 Si / 1000 Ang^3
#
#
#
# Elastic Constant Matrix: (Units=GPa)
#
#
# Indices 1 2 3 4 5 6 
#
# 1 79.5198 54.4480 8.1302 11.8573 -2.7358 -8.3770
# 2 54.4480 136.0734 45.4922 3.2375 -10.2140 6.0387
# 3 8.1302 45.4922 100.8899 -11.8811 -2.7694 6.8617
# 4 11.8573 3.2375 -11.8811 45.2054 -0.8492 5.4967
# 5 -2.7358 -10.2140 -2.7694 -0.8492 35.2441 3.3945
# 6 -8.3770 6.0387 6.8617 5.4967 3.3945 32.7491
#
#
#
# Elastic Compliance Matrix: (Units=1/GPa)
#
#
# Indices 1 2 3 4 5 6 
#
# 1 0.019927 -0.008692 0.001136 -0.005253 -0.001734 0.007524
# 2 -0.008692 0.012762 -0.004612 0.000704 0.003068 -0.004047
# 3 0.001136 -0.004612 0.012460 0.003559 0.000016 -0.002069
# 4 -0.005253 0.000704 0.003559 0.025210 0.001318 -0.006587
# 5 -0.001734 0.003068 0.000016 0.001318 0.029575 -0.004299
# 6 0.007524 -0.004047 -0.002069 -0.006587 -0.004299 0.035191
#
#
# Mechanical properties :
#
#
# Convention : Reuss Voigt Hill
#
# Bulk Modulus (GPa) = 48.04811 59.18045 53.61428
# Shear Modulus (GPa) = 30.04814 36.53391 33.29102
#
# Velocity S-wave (km/s) = 3.65952 4.03519 3.85194
# Velocity P-wave (km/s) = 6.26662 6.93443 6.60897
#
# Compressibility (1/GPa) = 0.02081247
#
# Stress axis : x y z
#
# Youngs Moduli (GPa) = 50.18211 78.35696 80.25673
#
# Poissons Ratio (x) = 0.68112 -0.09115
# Poissons Ratio (y) = 0.43621 0.37013
# Poissons Ratio (z) = -0.05699 0.36136
#
# Static dielectric constant tensor:
#      x y z
#    x 3.804660 -0.170140 -1.338010 
#    y -0.170140 4.163990 -1.112650 
#    z -1.338010 -1.112650 0.645560 
# 
# 
# High freq. dielectric constant tensor:
#      x y z
#    x 1.877470 -0.009500 -0.006010 
#    y -0.009500 1.897820 -0.016840 
#    z -0.006010 -0.016840 1.896840 
# 
# From -- ./inp_files/447100.got.cif
#   From: 2010.06.25/outbox.cif.g09.slc.cpg/sg2_224_cif.got.tgz:447100.got - 2010.06.27 13:26:56.
