data_PCOD8033129
_publ_section_title
;
Structure prediction by ZEFSAII (Michael W. Deem and Ramdas Pophale) SiO2 
 PCOD8033129
Probable space group: P -1
;
_chemical_formula_sum "Si O2"
_cell_formula_units_Z 16
_cell_length_a 8.663238
_cell_length_b 15.398957
_cell_length_c 9.499747
_cell_angle_alpha 142.143633
_cell_angle_beta 104.017082
_cell_angle_gamma 85.455758
_cell_volume 741.099049
_symmetry_space_group_name_H-M "P -1"
_symmetry_group_IT_number 2
_symmetry_cell_setting 'triclinic'
loop_
_space_group_symop_operation_xyz
x,y,z
-x,-y,-z
loop_
_atom_site_type_symbol
_atom_site_label
_atom_site_fract_x
_atom_site_fract_y
_atom_site_fract_z
Si Si1 0.048160 0.854378 0.271135
Si Si2 0.097083 0.353883 0.245431
Si Si3 0.062223 0.355805 0.792739
Si Si4 0.433442 0.396022 0.474198
Si Si5 0.436177 0.409770 0.004138
Si Si6 0.906271 0.340056 0.454402
Si Si7 0.399079 0.862872 0.227487
Si Si8 0.426217 0.862234 0.899743
O O1 0.216626 0.859610 0.234114
O O2 0.055815 0.764286 0.298674
O O3 0.000000 0.000000 0.500000
O O4 0.908724 0.778403 0.033660
O O5 0.241559 0.384226 0.429337
O O6 0.110485 0.492822 0.324635
O O7 0.944015 0.318252 0.270233
O O8 0.245929 0.349170 0.867782
O O9 0.039164 0.318419 0.573302
O O10 0.000000 0.500000 0.000000
O O11 0.500000 0.500000 0.500000
O O12 0.445493 0.236567 0.229733
O O13 0.533405 0.460976 0.712969
O O14 0.534497 0.282427 0.901010
O O15 0.500000 0.500000 0.000000
O O16 0.745938 0.223672 0.305595
O O17 0.500000 0.000000 0.500000
O O18 0.415186 0.892933 0.102591
O O19 0.500000 0.000000 0.000000
#
# Coordination Sequence:
#
# PCOD8033129 Si02
#       8
#     2   2   2   2   2   2   2   2
#     4  12  27  47  72 103 147 191 244 300 372 440
#     4  11  23  44  76 103 139 189 246 301 365 426
#     4  12  24  42  72 108 144 185 240 298 361 435
#     4  12  23  44  74 105 144 187 245 301 360 439
#     4  12  26  45  73 112 147 189 247 302 367 438
#     4  11  23  45  73 105 141 188 244 302 359 431
#     4  12  28  50  72 102 152 198 241 304 375 443
#     4  12  28  48  74 108 150 194 243 303 374 440
#
# _framework density 21.589558
#
# number of rings (size 3 to 8) (size 9 to 14) (size 15 to 20)
#    0.000    0.250    5.000    3.750    7.000    0.000 
#    2.250    1.250    0.000    0.000    0.000    0.000 
#    0.000    0.000    0.000    0.000    0.000    0.000 
#
# Total GULP energy -198256.974845 kJ/mol
# GULP energy per Si atom -12391.060928 kJ/mol
# Density = 2.154042 g / cm^3
# Si number density = 21.589558 Si / 1000 Ang^3
#
#
#
# Elastic Constant Matrix: (Units=GPa)
#
#
# Indices 1 2 3 4 5 6 
#
# 1 115.7545 59.1054 43.3549 1.1611 0.5353 1.5822
# 2 59.1054 169.3520 74.3149 2.9087 -5.6864 19.6430
# 3 43.3549 74.3149 156.2077 -6.9245 -4.6533 3.8696
# 4 1.1611 2.9087 -6.9245 47.4892 -7.0845 3.0551
# 5 0.5353 -5.6864 -4.6533 -7.0845 41.2272 0.8667
# 6 1.5822 19.6430 3.8696 3.0551 0.8667 38.0330
#
#
#
# Elastic Compliance Matrix: (Units=1/GPa)
#
#
# Indices 1 2 3 4 5 6 
#
# 1 0.010899 -0.003326 -0.001529 -0.000514 -0.000892 0.001482
# 2 -0.003326 0.009020 -0.003262 -0.000543 0.000913 -0.004166
# 3 -0.001529 -0.003262 0.008450 0.001536 0.000772 0.000747
# 4 -0.000514 -0.000543 0.001536 0.022023 0.003926 -0.001713
# 5 -0.000892 0.000913 0.000772 0.003926 0.025185 -0.001402
# 6 0.001482 -0.004166 0.000747 -0.001713 -0.001402 0.028476
#
#
# Mechanical properties :
#
#
# Convention : Reuss Voigt Hill
#
# Bulk Modulus (GPa) = 82.39644 88.31829 85.35737
# Shear Modulus (GPa) = 40.21495 42.98582 41.60038
#
# Velocity S-wave (km/s) = 4.32059 4.46696 4.39438
# Velocity P-wave (km/s) = 7.94593 8.22202 8.08515
#
# Compressibility (1/GPa) = 0.01213645
#
# Stress axis : x y z
#
# Youngs Moduli (GPa) = 91.75304 110.86275 118.33745
#
# Poissons Ratio (x) = 0.36872 0.18090
# Poissons Ratio (y) = 0.30516 0.38600
# Poissons Ratio (z) = 0.14026 0.36162
#
# Static dielectric constant tensor:
#      x y z
#    x 5.419030 0.248100 0.554530 
#    y 0.248100 4.026240 -0.032200 
#    z 0.554530 -0.032200 4.206540 
# 
# 
# High freq. dielectric constant tensor:
#      x y z
#    x 1.855350 0.011570 0.005380 
#    y 0.011570 1.854900 -0.010580 
#    z 0.005380 -0.010580 1.863320 
# 
# From -- ./inp_files/209482.got.cif
#   From: 2010.06.25/outbox.cif.g09.slc.cpg/sg2_105_cif.got.tgz:209482.got - 2010.06.27 13:26:56.
