data_PCOD8033156
_publ_section_title
;
Structure prediction by ZEFSAII (Michael W. Deem and Ramdas Pophale) SiO2 
 PCOD8033156
Probable space group: P -1
;
_chemical_formula_sum "Si O2"
_cell_formula_units_Z 14
_cell_length_a 16.872072
_cell_length_b 9.848948
_cell_length_c 6.850771
_cell_angle_alpha 132.608917
_cell_angle_beta 103.355848
_cell_angle_gamma 106.229260
_cell_volume 646.792885
_symmetry_space_group_name_H-M "P -1"
_symmetry_group_IT_number 2
_symmetry_cell_setting 'triclinic'
loop_
_space_group_symop_operation_xyz
x,y,z
-x,-y,-z
loop_
_atom_site_type_symbol
_atom_site_label
_atom_site_fract_x
_atom_site_fract_y
_atom_site_fract_z
Si Si1 0.754296 0.613586 0.499029
Si Si2 0.384062 0.781057 0.684439
Si Si3 0.893044 0.694474 0.316477
Si Si4 0.871737 0.974994 0.264651
Si Si5 0.773280 0.194812 0.601489
Si Si6 0.646735 0.795196 0.404646
Si Si7 0.468180 0.552734 0.334268
O O1 0.674680 0.351299 0.278010
O O2 0.838708 0.626011 0.428833
O O3 0.692137 0.667581 0.382574
O O4 0.807367 0.791698 0.880135
O O5 0.325120 0.863046 0.623695
O O6 0.387294 0.604731 0.376401
O O7 0.500000 0.000000 0.000000
O O8 0.869286 0.848043 0.333953
O O9 0.856019 0.468276 0.950307
O O10 0.013255 0.837620 0.564025
O O11 0.823831 0.107063 0.412730
O O12 0.735768 0.063290 0.661781
O O13 0.570331 0.774785 0.503347
O O14 0.584952 0.672502 0.050346
O O15 0.500000 0.500000 0.500000
#
# Coordination Sequence:
#
# PCOD8033156 Si02
#       7
#     2   2   2   2   2   2   2
#     4  12  24  47  72 105 142 191 234 288 366 420
#     4  12  27  41  68 104 147 186 234 290 343 422
#     4  11  25  48  75 107 140 185 240 296 364 425
#     4  11  25  49  75 103 146 185 231 305 364 421
#     4  12  25  47  71 108 142 186 240 293 356 421
#     4  11  25  40  72  97 136 189 236 285 345 427
#     4  11  23  45  65  95 141 193 234 282 348 406
#
# _framework density 21.645261000000001
#
# number of rings (size 3 to 8) (size 9 to 14) (size 15 to 20)
#    0.000    0.571    4.286    3.429    6.000    0.571 
#    0.000    1.429    0.000    0.000    0.000    0.000 
#    0.000    0.000    0.000    0.000    0.000    0.000 
#
# Total GULP energy -173684.168516 kJ/mol
# GULP energy per Si atom -12406.012037 kJ/mol
# Density = 2.159600 g / cm^3
# Si number density = 21.645261 Si / 1000 Ang^3
#
#
#
# Elastic Constant Matrix: (Units=GPa)
#
#
# Indices 1 2 3 4 5 6 
#
# 1 155.3252 63.6727 43.5014 -3.7658 -6.9217 11.1390
# 2 63.6727 130.5978 33.9109 3.2409 3.4331 17.3686
# 3 43.5014 33.9109 95.0797 5.2272 9.5669 7.4375
# 4 -3.7658 3.2409 5.2272 36.5602 2.7311 3.3615
# 5 -6.9217 3.4331 9.5669 2.7311 31.8780 0.7252
# 6 11.1390 17.3686 7.4375 3.3615 0.7252 46.8462
#
#
#
# Elastic Compliance Matrix: (Units=1/GPa)
#
#
# Indices 1 2 3 4 5 6 
#
# 1 0.009038 -0.003635 -0.003209 0.001515 0.003197 -0.000450
# 2 -0.003635 0.010248 -0.001619 -0.000716 -0.001286 -0.002607
# 3 -0.003209 -0.001619 0.013131 -0.001694 -0.004306 -0.000533
# 4 0.001515 -0.000716 -0.001694 0.028089 -0.001451 -0.001819
# 5 0.003197 -0.001286 -0.004306 -0.001451 0.033619 -0.000016
# 6 -0.000450 -0.002607 -0.000533 -0.001819 -0.000016 0.022635
#
#
# Mechanical properties :
#
#
# Convention : Reuss Voigt Hill
#
# Bulk Modulus (GPa) = 64.55076 73.68585 69.11830
# Shear Modulus (GPa) = 36.00968 39.05140 37.53054
#
# Velocity S-wave (km/s) = 4.08319 4.25214 4.16852
# Velocity P-wave (km/s) = 7.21919 7.63047 7.42768
#
# Compressibility (1/GPa) = 0.01549168
#
# Stress axis : x y z
#
# Youngs Moduli (GPa) = 110.63891 97.57826 76.15545
#
# Poissons Ratio (x) = 0.35473 0.24435
# Poissons Ratio (y) = 0.40221 0.12331
# Poissons Ratio (z) = 0.35499 0.15799
#
# Static dielectric constant tensor:
#      x y z
#    x 4.188840 0.183170 0.018380 
#    y 0.183170 4.132970 0.083630 
#    z 0.018380 0.083630 3.826520 
# 
# 
# High freq. dielectric constant tensor:
#      x y z
#    x 1.864410 0.009920 0.004140 
#    y 0.009920 1.861260 0.003450 
#    z 0.004140 0.003450 1.847240 
# 
# From -- ./inp_files/107676.got.cif
#   From: 2010.06.25/outbox.cif.g09.slc.cpg/sg2_54_cif.got.tgz:107676.got - 2010.06.27 13:26:56.
