data_PCOD8033353
_publ_section_title
;
Structure prediction by ZEFSAII (Michael W. Deem and Ramdas Pophale) SiO2 
 PCOD8033353
Probable space group: P -1
;
_chemical_formula_sum "Si O2"
_cell_formula_units_Z 14
_cell_length_a 6.499476
_cell_length_b 8.437982
_cell_length_c 11.278089
_cell_angle_alpha 101.199341
_cell_angle_beta 81.861654
_cell_angle_gamma 93.772398
_cell_volume 600.162266
_symmetry_space_group_name_H-M "P -1"
_symmetry_group_IT_number 2
_symmetry_cell_setting 'triclinic'
loop_
_space_group_symop_operation_xyz
x,y,z
-x,-y,-z
loop_
_atom_site_type_symbol
_atom_site_label
_atom_site_fract_x
_atom_site_fract_y
_atom_site_fract_z
Si Si1 0.823684 0.426226 0.592217
Si Si2 0.226629 0.440242 0.950196
Si Si3 0.465515 0.181119 0.499145
Si Si4 0.115870 0.270546 0.719790
Si Si5 0.464463 0.758088 0.989253
Si Si6 0.334284 0.244653 0.261515
Si Si7 0.900889 0.024587 0.882487
O O1 0.659089 0.309266 0.518454
O O2 0.712440 0.569708 0.687360
O O3 0.000000 0.500000 0.500000
O O4 0.911228 0.323505 0.677340
O O5 0.236929 0.413811 0.803414
O O6 0.356502 0.590794 0.013599
O O7 0.300081 0.270456 0.981926
O O8 0.000000 0.500000 0.000000
O O9 0.269623 0.221984 0.598581
O O10 0.404048 0.169465 0.366538
O O11 0.500000 0.000000 0.500000
O O12 0.048686 0.136336 0.803607
O O13 0.475503 0.770660 0.848186
O O14 0.333215 0.905501 0.072188
O O15 0.133455 0.144329 0.209514
O O16 0.000000 0.000000 0.000000
#
# Coordination Sequence:
#
# PCOD8033353 Si02
#       7
#     2   2   2   2   2   2   2
#     4  12  28  50  77 116 153 201 266 313 392 463
#     4  11  23  45  76 110 145 198 248 320 383 457
#     4  12  30  50  78 113 153 210 255 320 395 461
#     4  12  27  48  79 107 159 193 265 318 387 465
#     4  11  26  45  73 109 148 196 259 306 393 455
#     4  12  27  48  77 106 157 198 257 323 384 463
#     4  12  29  48  77 117 157 207 262 323 394 469
#
# _framework density 23.327024000000002
#
# number of rings (size 3 to 8) (size 9 to 14) (size 15 to 20)
#    0.000    0.286    2.857    4.286   14.000    1.143 
#    0.000    0.000    0.000    0.000    0.000    0.000 
#    0.000    0.000    0.000    0.000    0.000    0.000 
#
# Total GULP energy -173452.878094 kJ/mol
# GULP energy per Si atom -12389.491292 kJ/mol
# Density = 2.327393 g / cm^3
# Si number density = 23.327024 Si / 1000 Ang^3
#
#
#
# Elastic Constant Matrix: (Units=GPa)
#
#
# Indices 1 2 3 4 5 6 
#
# 1 101.3686 52.3922 40.2988 -8.8393 17.2752 -8.1928
# 2 52.3922 113.1130 42.3011 2.5197 16.2666 0.2590
# 3 40.2988 42.3011 136.2157 -14.1717 22.7293 -3.9558
# 4 -8.8393 2.5197 -14.1717 49.8618 2.5763 3.1501
# 5 17.2752 16.2666 22.7293 2.5763 51.9780 -0.5601
# 6 -8.1928 0.2590 -3.9558 3.1501 -0.5601 49.9807
#
#
#
# Elastic Compliance Matrix: (Units=1/GPa)
#
#
# Indices 1 2 3 4 5 6 
#
# 1 0.014255 -0.005666 -0.001779 0.002296 -0.002278 0.002055
# 2 -0.005666 0.012514 -0.002313 -0.002180 -0.000925 -0.001050
# 3 -0.001779 -0.002313 0.009347 0.002591 -0.002898 0.000264
# 4 0.002296 -0.002180 0.002591 0.021477 -0.002287 -0.000787
# 5 -0.002278 -0.000925 -0.002898 -0.002287 0.021664 -0.000211
# 6 0.002055 -0.001050 0.000264 -0.000787 -0.000211 0.020418
#
#
# Mechanical properties :
#
#
# Convention : Reuss Voigt Hill
#
# Bulk Modulus (GPa) = 60.23999 68.96462 64.60230
# Shear Modulus (GPa) = 40.08878 44.74444 42.41661
#
# Velocity S-wave (km/s) = 4.15004 4.38441 4.26883
# Velocity P-wave (km/s) = 6.98885 7.43365 7.21468
#
# Compressibility (1/GPa) = 0.01660027
#
# Stress axis : x y z
#
# Youngs Moduli (GPa) = 70.15047 79.91123 106.98985
#
# Poissons Ratio (x) = 0.45274 0.19036
# Poissons Ratio (y) = 0.39744 0.24746
# Poissons Ratio (z) = 0.12481 0.18483
#
# Static dielectric constant tensor:
#      x y z
#    x 2.979660 -0.050310 -0.610430 
#    y -0.050310 4.434300 0.070250 
#    z -0.610430 0.070250 4.030380 
# 
# 
# High freq. dielectric constant tensor:
#      x y z
#    x 1.929920 -0.001280 0.005060 
#    y -0.001280 1.937720 0.000170 
#    z 0.005060 0.000170 1.939930 
# 
# From -- ./inp_files/360822.got.cif
#   From: 2010.06.25/outbox.cif.g09.slc.cpg/sg2_181_cif.got.tgz:360822.got - 2010.06.27 13:26:56.
