data_PCOD8033930
_publ_section_title
;
Structure prediction by ZEFSAII (Michael W. Deem and Ramdas Pophale) SiO2 
 PCOD8033930
Probable space group: P -1
;
_chemical_formula_sum "Si O2"
_cell_formula_units_Z 12
_cell_length_a 6.582117
_cell_length_b 6.696009
_cell_length_c 21.095953
_cell_angle_alpha 67.856813
_cell_angle_beta 47.290889
_cell_angle_gamma 91.809679
_cell_volume 573.702860
_symmetry_space_group_name_H-M "P -1"
_symmetry_group_IT_number 2
_symmetry_cell_setting 'triclinic'
loop_
_space_group_symop_operation_xyz
x,y,z
-x,-y,-z
loop_
_atom_site_type_symbol
_atom_site_label
_atom_site_fract_x
_atom_site_fract_y
_atom_site_fract_z
Si Si1 0.839880 0.078067 0.285169
Si Si2 0.849614 0.595886 0.931026
Si Si3 0.849917 0.721340 0.059476
Si Si4 0.184796 0.979080 0.404077
Si Si5 0.809581 0.590045 0.720527
Si Si6 0.859044 0.652594 0.400621
O O1 0.475887 0.954369 0.373826
O O2 0.971642 0.172688 0.177025
O O3 0.956909 0.295312 0.284564
O O4 0.943360 0.874492 0.308567
O O5 0.979286 0.395815 0.917130
O O6 0.500000 0.500000 0.000000
O O7 0.902147 0.672153 0.982695
O O8 0.494055 0.624619 0.164027
O O9 0.000000 0.000000 0.000000
O O10 0.290674 0.215171 0.310930
O O11 0.000000 0.000000 0.500000
O O12 0.986931 0.746723 0.432279
O O13 0.976710 0.505435 0.641693
O O14 0.500000 0.500000 0.500000
#
# Coordination Sequence:
#
# PCOD8033930 Si02
#       6
#     2   2   2   2   2   2
#     4  11  24  43  67  94 129 175 210 262 325 382
#     4  11  24  45  66  94 134 170 212 261 325 382
#     4  11  26  41  67  98 131 168 216 268 315 381
#     4  11  24  44  68  90 128 173 214 266 327 381
#     4  11  24  43  64  97 132 166 216 267 319 381
#     4  11  26  43  66  99 131 165 217 271 317 380
#
# _framework density 20.91675
#
# number of rings (size 3 to 8) (size 9 to 14) (size 15 to 20)
#    0.000    1.000    3.333    2.000    4.667    8.667 
#    0.000    0.000    0.000    0.000    0.000    0.000 
#    0.000    0.000    0.000    0.000    0.000    0.000 
#
# Total GULP energy -148854.551359 kJ/mol
# GULP energy per Si atom -12404.545947 kJ/mol
# Density = 2.086914 g / cm^3
# Si number density = 20.916750 Si / 1000 Ang^3
#
#
#
# Elastic Constant Matrix: (Units=GPa)
#
#
# Indices 1 2 3 4 5 6 
#
# 1 114.3690 35.1950 21.3869 -3.0560 -17.1784 10.0618
# 2 35.1950 103.0363 23.4006 -2.6599 -13.6780 9.5053
# 3 21.3869 23.4006 93.2677 -1.2014 -7.5280 11.7952
# 4 -3.0560 -2.6599 -1.2014 38.2910 0.3724 -1.1373
# 5 -17.1784 -13.6780 -7.5280 0.3724 42.7449 -4.2948
# 6 10.0618 9.5053 11.7952 -1.1373 -4.2948 34.3717
#
#
#
# Elastic Compliance Matrix: (Units=1/GPa)
#
#
# Indices 1 2 3 4 5 6 
#
# 1 0.010405 -0.002726 -0.001272 0.000529 0.002932 -0.001471
# 2 -0.002726 0.011492 -0.001899 0.000458 0.002097 -0.001451
# 3 -0.001272 -0.001899 0.011939 0.000042 0.000670 -0.003114
# 4 0.000529 0.000458 0.000042 0.026207 0.000198 0.000596
# 5 0.002932 0.002097 0.000670 0.000198 0.025514 0.001526
# 6 -0.001471 -0.001451 -0.003114 0.000596 0.001526 0.031205
#
#
# Mechanical properties :
#
#
# Convention : Reuss Voigt Hill
#
# Bulk Modulus (GPa) = 45.37396 52.29313 48.83354
# Shear Modulus (GPa) = 36.79089 38.46089 37.62589
#
# Velocity S-wave (km/s) = 4.19850 4.29273 4.24587
# Velocity P-wave (km/s) = 6.72629 7.04449 6.88723
#
# Compressibility (1/GPa) = 0.02203907
#
# Stress axis : x y z
#
# Youngs Moduli (GPa) = 96.11167 87.01653 83.76201
#
# Poissons Ratio (x) = 0.23724 0.10656
# Poissons Ratio (y) = 0.26204 0.15910
# Poissons Ratio (z) = 0.12228 0.16529
#
# Static dielectric constant tensor:
#      x y z
#    x 3.998240 -0.110530 0.132960 
#    y -0.110530 3.769360 -0.094980 
#    z 0.132960 -0.094980 3.774540 
# 
# 
# High freq. dielectric constant tensor:
#      x y z
#    x 1.834230 -0.001790 0.001780 
#    y -0.001790 1.816120 -0.004500 
#    z 0.001780 -0.004500 1.832580 
# 
# From -- ./inp_files/3196.got.cif
#   From: 2010.06.25/outbox.cif.g09.slc.cpg/sg2_2_cif.got.tgz:3196.got - 2010.06.27 13:26:56.
