data_PCOD8033509
_publ_section_title
;
Structure prediction by ZEFSAII (Michael W. Deem and Ramdas Pophale) SiO2 
 PCOD8033509
Probable space group: P -1
;
_chemical_formula_sum "Si O2"
_cell_formula_units_Z 16
_cell_length_a 12.261204
_cell_length_b 8.858365
_cell_length_c 18.158348
_cell_angle_alpha 36.751962
_cell_angle_beta 48.295444
_cell_angle_gamma 75.418861
_cell_volume 684.429133
_symmetry_space_group_name_H-M "P -1"
_symmetry_group_IT_number 2
_symmetry_cell_setting 'triclinic'
loop_
_space_group_symop_operation_xyz
x,y,z
-x,-y,-z
loop_
_atom_site_type_symbol
_atom_site_label
_atom_site_fract_x
_atom_site_fract_y
_atom_site_fract_z
Si Si1 0.711571 0.119982 0.340018
Si Si2 0.979840 0.747419 0.279767
Si Si3 0.115528 0.366521 0.329323
Si Si4 0.699737 0.744050 0.953586
Si Si5 0.645187 0.562263 0.678592
Si Si6 0.365330 0.838186 0.269134
Si Si7 0.694398 0.275604 0.038770
Si Si8 0.908078 0.180819 0.079001
O O1 0.763126 0.127820 0.227810
O O2 0.500000 0.000000 0.500000
O O3 0.734202 0.881049 0.465466
O O4 0.877450 0.485757 0.148553
O O5 0.996418 0.494574 0.331793
O O6 0.817499 0.536242 0.494883
O O7 0.160678 0.043625 0.125979
O O8 0.921142 0.892468 0.189268
O O9 0.191753 0.401964 0.362989
O O10 0.276754 0.585938 0.110857
O O11 0.000000 0.000000 0.500000
O O12 0.694076 0.951541 0.813259
O O13 0.497053 0.471990 0.185821
O O14 0.754651 0.545114 0.966877
O O15 0.531305 0.220462 0.817188
O O16 0.473334 0.968685 0.248547
O O17 0.812495 0.154827 0.054212
#
# Coordination Sequence:
#
# PCOD8033509 Si02
#       8
#     2   2   2   2   2   2   2   2
#     4  11  23  46  76 110 143 196 253 301 363 439
#     4  12  26  46  75 104 143 198 244 299 369 434
#     4  12  27  45  72 109 145 186 243 308 373 435
#     4  12  24  45  75 107 143 186 244 308 366 438
#     4  12  24  46  73 104 141 191 249 299 370 439
#     4  12  25  44  70 105 147 187 238 302 366 438
#     4  12  27  46  70 106 153 189 238 300 370 435
#     4  11  25  48  71 105 153 196 245 303 363 442
#
# _framework density 23.377147999999998
#
# number of rings (size 3 to 8) (size 9 to 14) (size 15 to 20)
#    0.000    0.250    3.750    6.375    3.500    1.000 
#    2.250    0.000    0.000    0.000    0.000    0.000 
#    0.000    0.000    0.000    0.000    0.000    0.000 
#
# Total GULP energy -198329.509808 kJ/mol
# GULP energy per Si atom -12395.594363 kJ/mol
# Density = 2.332394 g / cm^3
# Si number density = 23.377148 Si / 1000 Ang^3
#
#
#
# Elastic Constant Matrix: (Units=GPa)
#
#
# Indices 1 2 3 4 5 6 
#
# 1 148.6544 47.4054 48.9850 -16.9324 16.9941 -18.4931
# 2 47.4054 115.5501 22.3161 -23.1431 1.5213 -16.9636
# 3 48.9850 22.3161 101.3245 -6.2136 7.9103 -9.3355
# 4 -16.9324 -23.1431 -6.2136 28.9657 -7.8917 -1.9181
# 5 16.9941 1.5213 7.9103 -7.8917 37.9125 -2.0699
# 6 -18.4931 -16.9636 -9.3355 -1.9181 -2.0699 32.0386
#
#
#
# Elastic Compliance Matrix: (Units=1/GPa)
#
#
# Indices 1 2 3 4 5 6 
#
# 1 0.009605 -0.002236 -0.003472 0.002546 -0.002780 0.003322
# 2 -0.002236 0.012488 -0.000767 0.009713 0.003004 0.005873
# 3 -0.003472 -0.000767 0.011859 -0.000277 -0.000892 0.000971
# 4 0.002546 0.009713 -0.000277 0.046767 0.008802 0.009900
# 5 -0.002780 0.003004 -0.000892 0.008802 0.029639 0.002168
# 6 0.003322 0.005873 0.000971 0.009900 0.002168 0.037255
#
#
# Mechanical properties :
#
#
# Convention : Reuss Voigt Hill
#
# Bulk Modulus (GPa) = 47.61468 66.99355 57.30411
# Shear Modulus (GPa) = 29.83950 36.23821 33.03885
#
# Velocity S-wave (km/s) = 3.57660 3.94147 3.76346
# Velocity P-wave (km/s) = 6.12114 7.03090 6.59173
#
# Compressibility (1/GPa) = 0.02100193
#
# Stress axis : x y z
#
# Youngs Moduli (GPa) = 104.11087 80.07789 84.32533
#
# Poissons Ratio (x) = 0.17904 0.29277
# Poissons Ratio (y) = 0.23278 0.06469
# Poissons Ratio (z) = 0.36147 0.06143
#
# Static dielectric constant tensor:
#      x y z
#    x 4.312770 -0.134560 0.133020 
#    y -0.134560 4.133600 0.054710 
#    z 0.133020 0.054710 4.423290 
# 
# 
# High freq. dielectric constant tensor:
#      x y z
#    x 1.930370 -0.011780 0.009530 
#    y -0.011780 1.920370 -0.003040 
#    z 0.009530 -0.003040 1.937080 
# 
# From -- ./inp_files/515805.got.cif
#   From: 2010.06.25/outbox.cif.g09.slc.cpg/sg2_258_cif.got.tgz:515805.got - 2010.06.27 13:26:56.
