data_PCOD8033376
_publ_section_title
;
Structure prediction by ZEFSAII (Michael W. Deem and Ramdas Pophale) SiO2 
 PCOD8033376
Probable space group: P -1
;
_chemical_formula_sum "Si O2"
_cell_formula_units_Z 14
_cell_length_a 20.315723
_cell_length_b 6.477353
_cell_length_c 5.555617
_cell_angle_alpha 70.961028
_cell_angle_beta 54.913255
_cell_angle_gamma 71.428339
_cell_volume 557.335464
_symmetry_space_group_name_H-M "P -1"
_symmetry_group_IT_number 2
_symmetry_cell_setting 'triclinic'
loop_
_space_group_symop_operation_xyz
x,y,z
-x,-y,-z
loop_
_atom_site_type_symbol
_atom_site_label
_atom_site_fract_x
_atom_site_fract_y
_atom_site_fract_z
Si Si1 0.048977 0.453215 0.665096
Si Si2 0.813413 0.348850 0.888868
Si Si3 0.267526 0.325475 0.704790
Si Si4 0.533870 0.259812 0.934378
Si Si5 0.574735 0.004577 0.518436
Si Si6 0.828045 0.940643 0.335019
Si Si7 0.299870 0.754904 0.216035
O O1 0.117888 0.613214 0.463112
O O2 0.089159 0.192847 0.672908
O O3 0.000000 0.500000 0.500000
O O4 0.000000 0.500000 0.000000
O O5 0.730537 0.293069 0.966554
O O6 0.789303 0.584572 0.985004
O O7 0.851150 0.144389 0.056159
O O8 0.336624 0.115433 0.715418
O O9 0.209062 0.242873 0.666191
O O10 0.306143 0.535375 0.450452
O O11 0.608290 0.179372 0.009093
O O12 0.574373 0.233825 0.587467
O O13 0.500000 0.500000 0.000000
O O14 0.453268 0.145917 0.149199
O O15 0.500000 0.000000 0.500000
O O16 0.762985 0.036811 0.635913
#
# Coordination Sequence:
#
# PCOD8033376 Si02
#       7
#     2   2   2   2   2   2   2
#     4  12  29  53  82 118 159 197 248 324 396 474
#     4  11  28  45  78 111 143 202 254 307 387 467
#     4  11  23  46  67 104 148 198 259 316 370 463
#     4  11  24  42  62 100 146 193 250 315 371 433
#     4  11  26  39  63  99 146 199 251 311 384 429
#     4  11  26  48  76 107 155 195 256 305 383 465
#     4  11  24  44  72 103 141 200 256 309 377 456
#
# _framework density 25.119523000000001
#
# number of rings (size 3 to 8) (size 9 to 14) (size 15 to 20)
#    0.000    0.857    4.286    0.857   10.000    1.714 
#    0.000    0.000    0.000    0.000    0.000    0.000 
#    0.000    0.000    0.000    0.000    0.000    0.000 
#
# Total GULP energy -173503.682471 kJ/mol
# GULP energy per Si atom -12393.120177 kJ/mol
# Density = 2.506235 g / cm^3
# Si number density = 25.119523 Si / 1000 Ang^3
#
#
#
# Elastic Constant Matrix: (Units=GPa)
#
#
# Indices 1 2 3 4 5 6 
#
# 1 133.5779 57.1987 39.6024 19.7204 16.9534 -19.8543
# 2 57.1987 154.0805 47.4018 38.8257 0.9075 -20.1721
# 3 39.6024 47.4018 98.0103 18.1199 -15.0027 -7.0447
# 4 19.7204 38.8257 18.1199 40.2254 9.3573 1.4932
# 5 16.9534 0.9075 -15.0027 9.3573 45.3000 2.0450
# 6 -19.8543 -20.1721 -7.0447 1.4932 2.0450 53.9148
#
#
#
# Elastic Compliance Matrix: (Units=1/GPa)
#
#
# Indices 1 2 3 4 5 6 
#
# 1 0.010736 -0.002405 -0.003771 -0.000109 -0.005321 0.002766
# 2 -0.002405 0.010563 -0.002091 -0.008565 0.001631 0.002969
# 3 -0.003771 -0.002091 0.014624 -0.004385 0.007221 -0.000412
# 4 -0.000109 -0.008565 -0.004385 0.037359 -0.008753 -0.004520
# 5 -0.005321 0.001631 0.007221 -0.008753 0.028289 -0.001236
# 6 0.002766 0.002969 -0.000412 -0.004520 -0.001236 0.020795
#
#
# Mechanical properties :
#
#
# Convention : Reuss Voigt Hill
#
# Bulk Modulus (GPa) = 51.56884 74.89713 63.23299
# Shear Modulus (GPa) = 34.39646 43.98578 39.19112
#
# Velocity S-wave (km/s) = 3.70444 4.18911 3.95420
# Velocity P-wave (km/s) = 6.23467 7.29926 6.78787
#
# Compressibility (1/GPa) = 0.01939156
#
# Stress axis : x y z
#
# Youngs Moduli (GPa) = 93.14048 94.66839 68.37968
#
# Poissons Ratio (x) = 0.22765 0.25784
# Poissons Ratio (y) = 0.22397 0.14296
# Poissons Ratio (z) = 0.35121 0.19792
#
# Static dielectric constant tensor:
#      x y z
#    x 5.212860 0.310710 0.468310 
#    y 0.310710 4.906990 0.250420 
#    z 0.468310 0.250420 5.956700 
# 
# 
# High freq. dielectric constant tensor:
#      x y z
#    x 2.001270 -0.000840 0.000590 
#    y -0.000840 2.016580 -0.000690 
#    z 0.000590 -0.000690 2.011500 
# 
# From -- ./inp_files/6722.got.cif
#   From: 2010.06.25/outbox.cif.g09.slc.cpg/sg2_4_cif.got.tgz:6722.got - 2010.06.27 13:26:56.
