data_PCOD8033732
_publ_section_title
;
Structure prediction by ZEFSAII (Michael W. Deem and Ramdas Pophale) SiO2 
 PCOD8033732
Probable space group: P -1
;
_chemical_formula_sum "Si O2"
_cell_formula_units_Z 14
_cell_length_a 14.224496
_cell_length_b 11.416002
_cell_length_c 12.292910
_cell_angle_alpha 121.556389
_cell_angle_beta 41.956978
_cell_angle_gamma 151.019762
_cell_volume 594.692663
_symmetry_space_group_name_H-M "P -1"
_symmetry_group_IT_number 2
_symmetry_cell_setting 'triclinic'
loop_
_space_group_symop_operation_xyz
x,y,z
-x,-y,-z
loop_
_atom_site_type_symbol
_atom_site_label
_atom_site_fract_x
_atom_site_fract_y
_atom_site_fract_z
Si Si1 0.437437 0.873089 0.324639
Si Si2 0.535015 0.125437 0.928065
Si Si3 0.372247 0.408450 0.372854
Si Si4 0.085730 0.731435 0.724516
Si Si5 0.503445 0.624371 0.146823
Si Si6 0.904173 0.029233 0.736661
Si Si7 0.949153 0.984554 0.181258
O O1 0.444281 0.951444 0.237728
O O2 0.185979 0.713701 0.533841
O O3 0.397295 0.681207 0.222154
O O4 0.712490 0.114430 0.272427
O O5 0.793989 0.440771 0.875333
O O6 0.258830 0.979955 0.079124
O O7 0.500000 0.000000 0.000000
O O8 0.333301 0.466128 0.325898
O O9 0.269037 0.170214 0.314990
O O10 0.685126 0.670301 0.260372
O O11 0.194865 0.320758 0.582117
O O12 0.093623 0.890293 0.743402
O O13 0.500000 0.500000 0.000000
O O14 0.824419 0.893638 0.036208
O O15 0.931919 0.934710 0.759119
#
# Coordination Sequence:
#
# PCOD8033732 Si02
#       7
#     2   2   2   2   2   2   2
#     4  11  25  48  70 105 145 181 242 301 344 427
#     4  12  28  46  70 102 146 193 234 290 368 429
#     4  11  24  41  68 102 141 180 226 293 353 411
#     4  11  27  45  76 108 136 195 240 291 361 421
#     4  12  22  41  74 100 137 180 234 297 343 406
#     4  11  26  43  66 105 144 180 231 292 350 421
#     4  12  23  43  75 104 133 182 241 287 349 417
#
# _framework density 23.541571999999999
#
# number of rings (size 3 to 8) (size 9 to 14) (size 15 to 20)
#    0.000    0.571    4.286    3.000    4.000    2.857 
#    0.000    0.000    0.000    0.000    0.000    0.000 
#    0.000    0.000    0.000    0.000    0.000    0.000 
#
# Total GULP energy -173494.246177 kJ/mol
# GULP energy per Si atom -12392.446156 kJ/mol
# Density = 2.348799 g / cm^3
# Si number density = 23.541572 Si / 1000 Ang^3
#
#
#
# Elastic Constant Matrix: (Units=GPa)
#
#
# Indices 1 2 3 4 5 6 
#
# 1 125.4799 25.4782 38.0283 -0.9497 19.5435 -8.1782
# 2 25.4782 79.1529 30.8570 -4.7810 4.2672 -5.1198
# 3 38.0283 30.8570 130.3741 -11.2949 20.2755 -20.1280
# 4 -0.9497 -4.7810 -11.2949 46.7908 -2.8343 5.4722
# 5 19.5435 4.2672 20.2755 -2.8343 43.5684 -0.6164
# 6 -8.1782 -5.1198 -20.1280 5.4722 -0.6164 20.7568
#
#
#
# Elastic Compliance Matrix: (Units=1/GPa)
#
#
# Indices 1 2 3 4 5 6 
#
# 1 0.009519 -0.002223 -0.001510 -0.000820 -0.003377 0.001854
# 2 -0.002223 0.014458 -0.002903 0.000828 0.000981 -0.000314
# 3 -0.001510 -0.002903 0.010856 0.001024 -0.003899 0.008830
# 4 -0.000820 0.000828 0.001024 0.022342 0.001193 -0.004980
# 5 -0.003377 0.000981 -0.003899 0.001193 0.026201 -0.004405
# 6 0.001854 -0.000314 0.008830 -0.004980 -0.004405 0.058575
#
#
# Mechanical properties :
#
#
# Convention : Reuss Voigt Hill
#
# Bulk Modulus (GPa) = 46.37984 58.19265 52.28625
# Shear Modulus (GPa) = 30.78649 38.26609 34.52629
#
# Velocity S-wave (km/s) = 3.62021 4.03608 3.83379
# Velocity P-wave (km/s) = 6.10070 6.81856 6.46959
#
# Compressibility (1/GPa) = 0.02156109
#
# Stress axis : x y z
#
# Youngs Moduli (GPa) = 105.05396 69.16715 92.11347
#
# Poissons Ratio (x) = 0.15375 0.13911
# Poissons Ratio (y) = 0.23352 0.26739
# Poissons Ratio (z) = 0.15865 0.20078
#
# Static dielectric constant tensor:
#      x y z
#    x 4.390320 0.345470 0.088930 
#    y 0.345470 4.358500 -0.290390 
#    z 0.088930 -0.290390 4.579310 
# 
# 
# High freq. dielectric constant tensor:
#      x y z
#    x 1.939070 0.026220 0.014590 
#    y 0.026220 1.922230 -0.015730 
#    z 0.014590 -0.015730 1.947340 
# 
# From -- ./inp_files/532592.got.cif
#   From: 2010.06.25/outbox.cif.g09.slc.cpg/sg2_267_cif.got.tgz:532592.got - 2010.06.27 13:26:56.
