data_PCOD8033893
_publ_section_title
;
Structure prediction by ZEFSAII (Michael W. Deem and Ramdas Pophale) SiO2 
 PCOD8033893
Probable space group: P -1
;
_chemical_formula_sum "Si O2"
_cell_formula_units_Z 14
_cell_length_a 10.648183
_cell_length_b 6.040092
_cell_length_c 11.162743
_cell_angle_alpha 119.029154
_cell_angle_beta 105.390763
_cell_angle_gamma 99.866034
_cell_volume 565.581158
_symmetry_space_group_name_H-M "P -1"
_symmetry_group_IT_number 2
_symmetry_cell_setting 'triclinic'
loop_
_space_group_symop_operation_xyz
x,y,z
-x,-y,-z
loop_
_atom_site_type_symbol
_atom_site_label
_atom_site_fract_x
_atom_site_fract_y
_atom_site_fract_z
Si Si1 0.528662 0.227833 0.911626
Si Si2 0.197722 0.250071 0.198851
Si Si3 0.588403 0.924298 0.655593
Si Si4 0.096092 0.071549 0.877475
Si Si5 0.705959 0.199832 0.523645
Si Si6 0.145307 0.143317 0.639529
Si Si7 0.721200 0.255690 0.181019
O O1 0.580922 0.205741 0.783858
O O2 0.388656 0.962135 0.818494
O O3 0.500000 0.500000 0.000000
O O4 0.651117 0.219828 0.024814
O O5 0.340070 0.211821 0.265947
O O6 0.185646 0.518434 0.325929
O O7 0.191909 0.267599 0.056691
O O8 0.065121 0.000312 0.147789
O O9 0.427687 0.734574 0.540810
O O10 0.669250 0.986050 0.567480
O O11 0.124781 0.211829 0.791096
O O12 0.136180 0.803360 0.811081
O O13 0.772530 0.066777 0.403495
O O14 0.234469 0.433867 0.678078
O O15 0.000000 0.000000 0.500000
#
# Coordination Sequence:
#
# PCOD8033893 Si02
#       7
#     2   2   2   2   2   2   2
#     4  11  24  42  72 106 140 182 237 294 357 421
#     4  11  25  45  71 103 140 191 236 298 356 418
#     4  11  24  44  68 102 142 184 233 294 360 424
#     4  11  25  45  72 104 138 187 247 291 354 427
#     4  11  26  43  70 104 146 187 235 289 358 429
#     4  12  27  48  71 106 146 194 240 293 355 433
#     4  11  24  43  72 103 140 184 238 295 352 419
#
# _framework density 24.753302000000001
#
# number of rings (size 3 to 8) (size 9 to 14) (size 15 to 20)
#    0.000    0.857    1.429    4.714    4.000    8.000 
#    0.000    3.571    0.000    0.000    0.000    0.000 
#    0.000    0.000    0.000    0.000    0.000    0.000 
#
# Total GULP energy -173569.514676 kJ/mol
# GULP energy per Si atom -12397.822477 kJ/mol
# Density = 2.469696 g / cm^3
# Si number density = 24.753302 Si / 1000 Ang^3
#
#
#
# Elastic Constant Matrix: (Units=GPa)
#
#
# Indices 1 2 3 4 5 6 
#
# 1 91.7638 25.8726 44.3447 -3.5477 10.7445 -5.3438
# 2 25.8726 78.7638 53.7987 9.0314 11.3137 -1.0389
# 3 44.3447 53.7987 146.0119 4.2702 1.4488 7.0677
# 4 -3.5477 9.0314 4.2702 53.0059 -1.9949 -1.4310
# 5 10.7445 11.3137 1.4488 -1.9949 51.9878 -4.1697
# 6 -5.3438 -1.0389 7.0677 -1.4310 -4.1697 32.5054
#
#
#
# Elastic Compliance Matrix: (Units=1/GPa)
#
#
# Indices 1 2 3 4 5 6 
#
# 1 0.013624 -0.001853 -0.003613 0.001517 -0.002031 0.002772
# 2 -0.001853 0.018324 -0.006122 -0.002855 -0.003460 0.001043
# 3 -0.003613 -0.006122 0.010325 -0.000048 0.001562 -0.002836
# 4 0.001517 -0.002855 -0.000048 0.019533 0.001153 0.001176
# 5 -0.002031 -0.003460 0.001562 0.001153 0.020562 0.001904
# 6 0.002772 0.001043 -0.002836 0.001176 0.001904 0.032166
#
#
# Mechanical properties :
#
#
# Convention : Reuss Voigt Hill
#
# Bulk Modulus (GPa) = 52.36257 62.73016 57.54636
# Shear Modulus (GPa) = 34.70412 40.33472 37.51942
#
# Velocity S-wave (km/s) = 3.74839 4.04105 3.89747
# Velocity P-wave (km/s) = 6.31930 6.86808 6.59940
#
# Compressibility (1/GPa) = 0.01909761
#
# Stress axis : x y z
#
# Youngs Moduli (GPa) = 73.39956 54.57256 96.85303
#
# Poissons Ratio (x) = 0.10111 0.34997
# Poissons Ratio (y) = 0.13599 0.59289
# Poissons Ratio (z) = 0.26523 0.33407
#
# Static dielectric constant tensor:
#      x y z
#    x 4.385360 0.018810 0.009130 
#    y 0.018810 4.282150 -0.173120 
#    z 0.009130 -0.173120 4.770390 
# 
# 
# High freq. dielectric constant tensor:
#      x y z
#    x 1.987440 -0.005930 0.004620 
#    y -0.005930 1.959950 -0.009860 
#    z 0.004620 -0.009860 2.010700 
# 
# From -- ./inp_files/411337.got.cif
#   From: 2010.06.25/outbox.cif.g09.slc.cpg/sg2_206_cif.got.tgz:411337.got - 2010.06.27 13:26:56.
