data_PCOD8033377
_publ_section_title
;
Structure prediction by ZEFSAII (Michael W. Deem and Ramdas Pophale) SiO2 
 PCOD8033377
Probable space group: P -1
;
_chemical_formula_sum "Si O2"
_cell_formula_units_Z 16
_cell_length_a 11.206797
_cell_length_b 9.192903
_cell_length_c 9.609176
_cell_angle_alpha 65.426416
_cell_angle_beta 78.848707
_cell_angle_gamma 118.090261
_cell_volume 694.532847
_symmetry_space_group_name_H-M "P -1"
_symmetry_group_IT_number 2
_symmetry_cell_setting 'triclinic'
loop_
_space_group_symop_operation_xyz
x,y,z
-x,-y,-z
loop_
_atom_site_type_symbol
_atom_site_label
_atom_site_fract_x
_atom_site_fract_y
_atom_site_fract_z
Si Si1 0.370768 0.402556 0.184227
Si Si2 0.267581 0.778716 0.010143
Si Si3 0.805434 0.051922 0.556571
Si Si4 0.473138 0.964318 0.356195
Si Si5 0.042755 0.353070 0.583432
Si Si6 0.931306 0.668155 0.827802
Si Si7 0.632360 0.343144 0.714454
Si Si8 0.028700 0.834734 0.040465
O O1 0.211535 0.345576 0.188313
O O2 0.449433 0.578626 0.214732
O O3 0.321322 0.190288 0.339414
O O4 0.500000 0.500000 0.000000
O O5 0.209382 0.917950 0.969126
O O6 0.388265 0.833949 0.836687
O O7 0.111291 0.550754 0.105978
O O8 0.344920 0.793950 0.134592
O O9 0.701240 0.118828 0.594203
O O10 0.922070 0.129150 0.629866
O O11 0.905899 0.156467 0.352635
O O12 0.465761 0.784896 0.350233
O O13 0.500000 0.000000 0.500000
O O14 0.205386 0.445083 0.443261
O O15 0.000000 0.500000 0.500000
O O16 0.055230 0.329393 0.752355
O O17 0.947067 0.713744 0.967444
O O18 0.000000 0.000000 0.000000
#
# Coordination Sequence:
#
# PCOD8033377 Si02
#       8
#     2   2   2   2   2   2   2   2
#     4  11  25  45  70 105 145 189 236 294 359 427
#     4  11  23  46  67  99 138 185 238 282 356 425
#     4  12  22  45  73 100 140 187 244 290 351 430
#     4  12  27  43  69 103 144 184 234 297 365 423
#     4  12  22  44  74 110 132 187 246 295 342 430
#     4  11  24  42  69 102 135 184 237 291 348 419
#     4  11  24  44  73 100 136 189 245 284 348 436
#     4  12  26  39  68 106 144 176 231 301 357 405
#
# _framework density 23.037067
#
# number of rings (size 3 to 8) (size 9 to 14) (size 15 to 20)
#    0.000    0.500    5.000    4.125    3.500    2.000 
#    0.000    0.625    0.000    0.000    0.000    0.000 
#    0.000    0.000    0.000    0.000    0.000    0.000 
#
# Total GULP energy -198254.587482 kJ/mol
# GULP energy per Si atom -12390.911718 kJ/mol
# Density = 2.298463 g / cm^3
# Si number density = 23.037067 Si / 1000 Ang^3
#
#
#
# Elastic Constant Matrix: (Units=GPa)
#
#
# Indices 1 2 3 4 5 6 
#
# 1 39.8792 21.6899 51.9980 0.0368 -23.6749 -8.6015
# 2 21.6899 153.3057 66.4208 15.7890 1.1818 4.1561
# 3 51.9980 66.4208 187.9685 17.4981 -16.7519 3.7755
# 4 0.0368 15.7890 17.4981 47.2241 5.5568 1.5433
# 5 -23.6749 1.1818 -16.7519 5.5568 39.4289 4.6532
# 6 -8.6015 4.1561 3.7755 1.5433 4.6532 33.9190
#
#
#
# Elastic Compliance Matrix: (Units=1/GPa)
#
#
# Indices 1 2 3 4 5 6 
#
# 1 0.071809 -0.004249 -0.015876 0.002702 0.034269 0.015674
# 2 -0.004249 0.008134 -0.001802 -0.001631 -0.003170 -0.001364
# 3 -0.015876 -0.001802 0.010294 -0.002561 -0.004242 -0.004252
# 4 0.002702 -0.001631 -0.002561 0.022971 -0.002713 0.000497
# 5 0.034269 -0.003170 -0.004242 -0.002713 0.044188 0.003612
# 6 0.015674 -0.001364 -0.004252 0.000497 0.003612 0.033579
#
#
# Mechanical properties :
#
#
# Convention : Reuss Voigt Hill
#
# Bulk Modulus (GPa) = 21.55892 73.48565 47.52229
# Shear Modulus (GPa) = 19.97680 40.18405 30.08042
#
# Velocity S-wave (km/s) = 2.94795 4.18104 3.61742
# Velocity P-wave (km/s) = 4.57885 7.43480 6.17423
#
# Compressibility (1/GPa) = 0.04638451
#
# Stress axis : x y z
#
# Youngs Moduli (GPa) = 13.92579 122.93660 97.14027
#
# Poissons Ratio (x) = 0.52234 1.54216
# Poissons Ratio (y) = 0.05917 0.17507
# Poissons Ratio (z) = 0.22108 0.22156
#
# Static dielectric constant tensor:
#      x y z
#    x 4.177770 -0.186160 -0.190450 
#    y -0.186160 4.333610 0.046990 
#    z -0.190450 0.046990 4.332150 
# 
# 
# High freq. dielectric constant tensor:
#      x y z
#    x 1.892650 -0.002260 -0.022660 
#    y -0.002260 1.916500 0.015630 
#    z -0.022660 0.015630 1.923020 
# 
# From -- ./inp_files/242957.got.cif
#   From: 2010.06.25/outbox.cif.g09.slc.cpg/sg2_122_cif.got.tgz:242957.got - 2010.06.27 13:26:56.
