data_PCOD8033857
_publ_section_title
;
Structure prediction by ZEFSAII (Michael W. Deem and Ramdas Pophale) SiO2 
 PCOD8033857
Probable space group: P -1
;
_chemical_formula_sum "Si O2"
_cell_formula_units_Z 14
_cell_length_a 11.121885
_cell_length_b 9.449727
_cell_length_c 9.622355
_cell_angle_alpha 40.598718
_cell_angle_beta 78.607219
_cell_angle_gamma 81.158432
_cell_volume 645.131019
_symmetry_space_group_name_H-M "P -1"
_symmetry_group_IT_number 2
_symmetry_cell_setting 'triclinic'
loop_
_space_group_symop_operation_xyz
x,y,z
-x,-y,-z
loop_
_atom_site_type_symbol
_atom_site_label
_atom_site_fract_x
_atom_site_fract_y
_atom_site_fract_z
Si Si1 0.974498 0.944631 0.203424
Si Si2 0.532641 0.296110 0.047316
Si Si3 0.174654 0.663170 0.501444
Si Si4 0.600565 0.512223 0.587148
Si Si5 0.912215 0.641805 0.007729
Si Si6 0.717079 0.911529 0.701667
Si Si7 0.293950 0.067045 0.636142
O O1 0.831787 0.892975 0.283991
O O2 0.054758 0.739237 0.388040
O O3 0.000000 0.000000 0.000000
O O4 0.006944 0.148734 0.137787
O O5 0.423716 0.121878 0.200408
O O6 0.652404 0.174553 0.171683
O O7 0.500000 0.500000 0.000000
O O8 0.558485 0.360560 0.835682
O O9 0.268840 0.567396 0.439865
O O10 0.131983 0.477094 0.754905
O O11 0.238607 0.857356 0.425321
O O12 0.500000 0.500000 0.500000
O O13 0.609779 0.757247 0.459576
O O14 0.792105 0.710572 0.898755
O O15 0.000000 0.500000 0.000000
O O16 0.734200 0.899017 0.543361
#
# Coordination Sequence:
#
# PCOD8033857 Si02
#       7
#     2   2   2   2   2   2   2
#     4  11  25  43  66 100 137 177 227 277 338 407
#     4  12  27  44  70 100 134 180 231 282 337 402
#     4  11  25  44  69 101 142 178 223 286 338 400
#     4  12  27  45  71 102 137 181 226 283 345 397
#     4  11  24  42  69  99 136 180 226 277 338 401
#     4  11  25  43  69 100 136 177 229 278 336 406
#     4  12  26  44  71 100 136 179 231 277 337 411
#
# _framework density 21.701018000000001
#
# number of rings (size 3 to 8) (size 9 to 14) (size 15 to 20)
#    0.000    0.571    1.429    5.571    6.000   11.429 
#    0.000    0.000    0.000    0.000    0.000    0.000 
#    0.000    0.000    0.000    0.000    0.000    0.000 
#
# Total GULP energy -173697.008511 kJ/mol
# GULP energy per Si atom -12406.929179 kJ/mol
# Density = 2.165163 g / cm^3
# Si number density = 21.701018 Si / 1000 Ang^3
#
#
#
# Elastic Constant Matrix: (Units=GPa)
#
#
# Indices 1 2 3 4 5 6 
#
# 1 103.2083 10.1482 39.2234 1.8106 14.7407 -11.3646
# 2 10.1482 81.1949 22.9529 6.4458 14.9728 -8.4367
# 3 39.2234 22.9529 142.0397 23.0359 18.0902 -7.9593
# 4 1.8106 6.4458 23.0359 46.5506 -3.4124 -4.0155
# 5 14.7407 14.9728 18.0902 -3.4124 49.4702 2.2430
# 6 -11.3646 -8.4367 -7.9593 -4.0155 2.2430 43.2088
#
#
#
# Elastic Compliance Matrix: (Units=1/GPa)
#
#
# Indices 1 2 3 4 5 6 
#
# 1 0.011396 0.000027 -0.002859 0.001024 -0.002410 0.002696
# 2 0.000027 0.013785 -0.001391 -0.001288 -0.003875 0.002524
# 3 -0.002859 -0.001391 0.009078 -0.004330 -0.002362 0.000369
# 4 0.001024 -0.001288 -0.004330 0.024115 0.003273 0.001291
# 5 -0.002410 -0.003875 -0.002362 0.003273 0.023318 -0.002732
# 6 0.002696 0.002524 0.000369 0.001291 -0.002732 0.024675
#
#
# Mechanical properties :
#
#
# Convention : Reuss Voigt Hill
#
# Bulk Modulus (GPa) = 38.74075 52.34357 45.54216
# Shear Modulus (GPa) = 40.51233 44.78714 42.64974
#
# Velocity S-wave (km/s) = 4.32538 4.54786 4.43802
# Velocity P-wave (km/s) = 6.54492 7.19376 6.87700
#
# Compressibility (1/GPa) = 0.02581262
#
# Stress axis : x y z
#
# Youngs Moduli (GPa) = 87.74761 72.54283 110.15062
#
# Poissons Ratio (x) = -0.00198 0.31497
# Poissons Ratio (y) = -0.00239 0.15326
# Poissons Ratio (z) = 0.25091 0.10093
#
# Static dielectric constant tensor:
#      x y z
#    x 3.480050 -0.357460 0.601510 
#    y -0.357460 3.820680 0.185200 
#    z 0.601510 0.185200 3.642780 
# 
# 
# High freq. dielectric constant tensor:
#      x y z
#    x 1.868580 -0.001610 0.000610 
#    y -0.001610 1.865800 0.001610 
#    z 0.000610 0.001610 1.869690 
# 
# From -- ./inp_files/24819.got.cif
#   From: 2010.06.25/outbox.cif.g09.slc.cpg/sg2_13_cif.got.tgz:24819.got - 2010.06.27 13:26:56.
