data_PCOD8033541
_publ_section_title
;
Structure prediction by ZEFSAII (Michael W. Deem and Ramdas Pophale) SiO2 
 PCOD8033541
Probable space group: P -1
;
_chemical_formula_sum "Si O2"
_cell_formula_units_Z 14
_cell_length_a 8.979707
_cell_length_b 11.056104
_cell_length_c 6.225381
_cell_angle_alpha 84.175078
_cell_angle_beta 89.979352
_cell_angle_gamma 100.123821
_cell_volume 605.190240
_symmetry_space_group_name_H-M "P -1"
_symmetry_group_IT_number 2
_symmetry_cell_setting 'triclinic'
loop_
_space_group_symop_operation_xyz
x,y,z
-x,-y,-z
loop_
_atom_site_type_symbol
_atom_site_label
_atom_site_fract_x
_atom_site_fract_y
_atom_site_fract_z
Si Si1 0.618862 0.609138 0.293149
Si Si2 0.386860 0.974525 0.196770
Si Si3 0.911702 0.865102 0.499177
Si Si4 0.877303 0.239146 0.790650
Si Si5 0.596119 0.840310 0.486415
Si Si6 0.713580 0.464025 0.683661
Si Si7 0.855659 0.687659 0.916000
O O1 0.572880 0.692801 0.478939
O O2 0.706117 0.510640 0.427800
O O3 0.454475 0.550971 0.205921
O O4 0.725350 0.683209 0.098452
O O5 0.225102 0.895804 0.137983
O O6 0.454604 0.889750 0.382070
O O7 0.378653 0.107351 0.278730
O O8 0.500000 0.000000 0.000000
O O9 0.760853 0.883555 0.362865
O O10 0.851080 0.801539 0.735658
O O11 0.007597 0.775289 0.398523
O O12 0.000000 0.000000 0.500000
O O13 0.772459 0.335051 0.701518
O O14 0.975587 0.289546 0.988857
O O15 0.828769 0.559134 0.809950
#
# Coordination Sequence:
#
# PCOD8033541 Si02
#       7
#     2   2   2   2   2   2   2
#     4  11  24  47  75 101 136 187 232 289 341 413
#     4  11  27  44  73 103 137 179 232 287 344 415
#     4  12  27  46  71 101 142 184 228 287 352 409
#     4  12  26  44  68 105 141 181 230 289 347 412
#     4  11  23  47  70  99 138 178 226 281 350 402
#     4  11  25  47  69 102 142 183 233 288 347 402
#     4  12  26  44  71 103 138 188 233 280 346 418
#
# _framework density 23.133222
#
# number of rings (size 3 to 8) (size 9 to 14) (size 15 to 20)
#    0.000    0.571    5.714    0.857    4.000    4.000 
#    5.143    0.000    0.000    0.000    0.000    0.000 
#    0.000    0.000    0.000    0.000    0.000    0.000 
#
# Total GULP energy -173463.118022 kJ/mol
# GULP energy per Si atom -12390.222716 kJ/mol
# Density = 2.308057 g / cm^3
# Si number density = 23.133222 Si / 1000 Ang^3
#
#
#
# Elastic Constant Matrix: (Units=GPa)
#
#
# Indices 1 2 3 4 5 6 
#
# 1 116.3483 18.2687 39.5393 6.5381 1.0450 15.7195
# 2 18.2687 96.3516 37.2853 8.7307 -4.0530 10.4681
# 3 39.5393 37.2853 78.5907 3.0100 -20.7139 10.7264
# 4 6.5381 8.7307 3.0100 27.3939 8.3884 -2.4659
# 5 1.0450 -4.0530 -20.7139 8.3884 38.9824 3.1430
# 6 15.7195 10.4681 10.7264 -2.4659 3.1430 51.5824
#
#
#
# Elastic Compliance Matrix: (Units=1/GPa)
#
#
# Indices 1 2 3 4 5 6 
#
# 1 0.011031 0.000563 -0.006316 -0.001340 -0.003141 -0.002035
# 2 0.000563 0.013231 -0.006548 -0.003387 -0.001262 -0.001580
# 3 -0.006316 -0.006548 0.022700 -0.002899 0.012364 -0.002359
# 4 -0.001340 -0.003387 -0.002899 0.042067 -0.011263 0.004396
# 5 -0.003141 -0.001262 0.012364 -0.011263 0.034924 -0.004024
# 6 -0.002035 -0.001580 -0.002359 0.004396 -0.004024 0.021273
#
#
# Mechanical properties :
#
#
# Convention : Reuss Voigt Hill
#
# Bulk Modulus (GPa) = 44.72009 53.49748 49.10879
# Shear Modulus (GPa) = 28.20389 36.67155 32.43772
#
# Velocity S-wave (km/s) = 3.49548 3.98582 3.74868
# Velocity P-wave (km/s) = 5.97200 6.66021 6.32547
#
# Compressibility (1/GPa) = 0.02236131
#
# Stress axis : x y z
#
# Youngs Moduli (GPa) = 90.65159 75.57876 44.05352
#
# Poissons Ratio (x) = -0.04253 0.27822
# Poissons Ratio (y) = -0.05102 0.28845
# Poissons Ratio (z) = 0.57251 0.49486
#
# Static dielectric constant tensor:
#      x y z
#    x 3.293800 0.522530 -0.663240 
#    y 0.522530 4.039620 0.727180 
#    z -0.663240 0.727180 3.116220 
# 
# 
# High freq. dielectric constant tensor:
#      x y z
#    x 1.936580 0.011750 0.008860 
#    y 0.011750 1.928520 0.014120 
#    z 0.008860 0.014120 1.885500 
# 
# From -- ./inp_files/27090.got.cif
#   From: 2010.06.25/outbox.cif.g09.slc.cpg/sg2_14_cif.got.tgz:27090.got - 2010.06.27 13:26:56.
