data_PCOD8033960
_publ_section_title
;
Structure prediction by ZEFSAII (Michael W. Deem and Ramdas Pophale) SiO2 
 PCOD8033960
Probable space group: P -1
;
_chemical_formula_sum "Si O2"
_cell_formula_units_Z 16
_cell_length_a 11.361638
_cell_length_b 11.756949
_cell_length_c 14.350497
_cell_angle_alpha 32.205712
_cell_angle_beta 112.798062
_cell_angle_gamma 91.944470
_cell_volume 754.692395
_symmetry_space_group_name_H-M "P -1"
_symmetry_group_IT_number 2
_symmetry_cell_setting 'triclinic'
loop_
_space_group_symop_operation_xyz
x,y,z
-x,-y,-z
loop_
_atom_site_type_symbol
_atom_site_label
_atom_site_fract_x
_atom_site_fract_y
_atom_site_fract_z
Si Si1 0.064952 0.629235 0.370910
Si Si2 0.933852 0.128864 0.105408
Si Si3 0.564648 0.019170 0.754374
Si Si4 0.561548 0.532909 0.091644
Si Si5 0.935369 0.648452 0.125097
Si Si6 0.435048 0.259134 0.741008
Si Si7 0.566140 0.496571 0.737698
Si Si8 0.061538 0.844006 0.531438
O O1 0.249999 0.410014 0.558501
O O2 0.000000 0.500000 0.500000
O O3 0.970995 0.736753 0.170634
O O4 0.041385 0.868748 0.254949
O O5 0.749997 0.254952 0.947089
O O6 0.979449 0.060138 0.274670
O O7 0.969072 0.335914 0.940853
O O8 0.529012 0.178718 0.728663
O O9 0.469090 0.225928 0.497301
O O10 0.507030 0.833095 0.874568
O O11 0.750010 0.845907 0.907962
O O12 0.479471 0.480959 0.184242
O O13 0.750006 0.321954 0.304232
O O14 0.500000 0.500000 0.000000
O O15 0.992979 0.347140 0.360530
O O16 0.458617 0.451523 0.672165
O O17 0.500000 0.000000 0.000000
O O18 0.000000 0.000000 0.500000
#
# Coordination Sequence:
#
# PCOD8033960 Si02
#       8
#     2   2   2   2   2   2   2   2
#     4  12  23  39  65  97 133 171 212 260 321 387
#     4  12  25  42  67  97 132 171 214 265 322 384
#     4  11  24  43  67  96 131 171 215 264 321 383
#     4  11  25  45  69  94 127 169 218 271 323 381
#     4  11  24  43  67  96 131 171 215 264 321 383
#     4  12  23  39  65  97 133 171 212 260 321 387
#     4  12  25  42  67  97 132 171 214 265 322 384
#     4  11  25  45  69  94 127 169 218 271 323 381
#
# _framework density 21.200690999999999
#
# number of rings (size 3 to 8) (size 9 to 14) (size 15 to 20)
#    0.000    0.500    2.500    6.750    0.000    4.000 
#    0.000    0.000    0.000    0.000    0.000    0.000 
#    0.000    0.000    0.000    0.000    0.000    0.000 
#
# Total GULP energy -198546.907983 kJ/mol
# GULP energy per Si atom -12409.181749 kJ/mol
# Density = 2.115244 g / cm^3
# Si number density = 21.200691 Si / 1000 Ang^3
#
#
#
# Elastic Constant Matrix: (Units=GPa)
#
#
# Indices 1 2 3 4 5 6 
#
# 1 115.0593 25.4649 42.0371 5.8126 -15.8390 -11.7402
# 2 25.4649 102.5437 25.0837 18.8089 -9.3637 -18.5621
# 3 42.0371 25.0837 115.9302 15.7151 -15.1317 -7.2448
# 4 5.8126 18.8089 15.7151 29.1835 -11.2342 3.8131
# 5 -15.8390 -9.3637 -15.1317 -11.2342 40.5056 10.7900
# 6 -11.7402 -18.5621 -7.2448 3.8131 10.7900 32.9577
#
#
#
# Elastic Compliance Matrix: (Units=1/GPa)
#
#
# Indices 1 2 3 4 5 6 
#
# 1 0.010675 -0.001716 -0.003306 0.001681 0.002737 0.001019
# 2 -0.001716 0.013648 -0.000751 -0.010450 -0.003131 0.009144
# 3 -0.003306 -0.000751 0.010779 -0.004353 0.001111 0.000908
# 4 0.001681 -0.010450 -0.004353 0.051184 0.015395 -0.017205
# 5 0.002737 -0.003131 0.001111 0.015395 0.033237 -0.013207
# 6 0.001019 0.009144 0.000908 -0.017205 -0.013207 0.042369
#
#
# Mechanical properties :
#
#
# Convention : Reuss Voigt Hill
#
# Bulk Modulus (GPa) = 42.45520 57.63384 50.04452
# Shear Modulus (GPa) = 27.57985 36.59251 32.08618
#
# Velocity S-wave (km/s) = 3.61070 4.15903 3.89453
# Velocity P-wave (km/s) = 6.11978 7.09276 6.62416
#
# Compressibility (1/GPa) = 0.02355424
#
# Stress axis : x y z
#
# Youngs Moduli (GPa) = 93.67873 73.27077 92.77137
#
# Poissons Ratio (x) = 0.12574 0.30674
# Poissons Ratio (y) = 0.16076 0.06971
# Poissons Ratio (z) = 0.30974 0.05506
#
# Static dielectric constant tensor:
#      x y z
#    x 3.825670 0.011830 -0.253710 
#    y 0.011830 3.781890 -0.031040 
#    z -0.253710 -0.031040 3.879250 
# 
# 
# High freq. dielectric constant tensor:
#      x y z
#    x 1.847180 -0.003230 -0.003860 
#    y -0.003230 1.821260 0.005730 
#    z -0.003860 0.005730 1.847080 
# 
# From -- ./inp_files/283001.got.cif
#   From: 2010.06.25/outbox.cif.g09.slc.cpg/sg2_142_cif.got.tgz:283001.got - 2010.06.27 13:26:56.
