data_PCOD8033668
_publ_section_title
;
Structure prediction by ZEFSAII (Michael W. Deem and Ramdas Pophale) SiO2 
 PCOD8033668
Probable space group: P -1
;
_chemical_formula_sum "Si O2"
_cell_formula_units_Z 16
_cell_length_a 25.312820
_cell_length_b 13.581039
_cell_length_c 16.904355
_cell_angle_alpha 23.409249
_cell_angle_beta 22.752904
_cell_angle_gamma 22.863323
_cell_volume 778.841300
_symmetry_space_group_name_H-M "P -1"
_symmetry_group_IT_number 2
_symmetry_cell_setting 'triclinic'
loop_
_space_group_symop_operation_xyz
x,y,z
-x,-y,-z
loop_
_atom_site_type_symbol
_atom_site_label
_atom_site_fract_x
_atom_site_fract_y
_atom_site_fract_z
Si Si1 0.083225 0.596007 0.751018
Si Si2 0.435371 0.851250 0.976950
Si Si3 0.685998 0.835403 0.845301
Si Si4 0.185805 0.811195 0.882307
Si Si5 0.370215 0.798474 0.779636
Si Si6 0.386423 0.036090 0.735358
Si Si7 0.609076 0.182884 0.551120
Si Si8 0.132492 0.105570 0.303316
O O1 0.010337 0.623627 0.742847
O O2 0.070818 0.894336 0.574480
O O3 0.263487 0.363809 0.676226
O O4 0.000000 0.500000 0.000000
O O5 0.431288 0.845932 0.892008
O O6 0.496423 0.061586 0.768201
O O7 0.537593 0.541362 0.100910
O O8 0.259820 0.956343 0.169217
O O9 0.793253 0.805675 0.793684
O O10 0.714820 0.006849 0.609310
O O11 0.749905 0.522146 0.955495
O O12 0.500000 0.000000 0.000000
O O13 0.227467 0.909691 0.833974
O O14 0.271168 0.855732 0.655635
O O15 0.000000 0.000000 0.000000
O O16 0.318272 0.896300 0.869682
O O17 0.460427 0.963519 0.506735
O O18 0.500000 0.500000 0.500000
#
# Coordination Sequence:
#
# PCOD8033668 Si02
#       8
#     2   2   2   2   2   2   2   2
#     4  11  24  42  64  97 137 173 212 282 340 393
#     4  12  21  42  69  97 132 169 234 280 326 405
#     4  12  24  45  74 103 135 182 238 288 337 416
#     4  12  27  47  68 103 146 181 226 293 356 409
#     4  11  24  45  66  94 132 176 227 275 331 410
#     4  11  24  41  70  93 127 181 228 268 331 408
#     4  12  25  42  73 103 131 185 237 279 346 414
#     4  11  24  40  65 102 136 168 221 285 337 395
#
# _framework density 20.543337000000001
#
# number of rings (size 3 to 8) (size 9 to 14) (size 15 to 20)
#    0.000    0.500    7.500    0.375    3.500    1.500 
#    0.000    0.000    0.000    0.000    0.000    0.000 
#    0.000    0.000    0.000    0.000    0.000    0.000 
#
# Total GULP energy -198357.875541 kJ/mol
# GULP energy per Si atom -12397.367221 kJ/mol
# Density = 2.049658 g / cm^3
# Si number density = 20.543337 Si / 1000 Ang^3
#
#
#
# Elastic Constant Matrix: (Units=GPa)
#
#
# Indices 1 2 3 4 5 6 
#
# 1 151.6185 13.9916 38.8168 3.5563 -1.6860 -6.8584
# 2 13.9916 71.7669 20.5952 1.9065 -2.1852 -4.4390
# 3 38.8168 20.5952 105.3593 -3.5257 7.8116 1.9791
# 4 3.5563 1.9065 -3.5257 27.0023 -3.9536 -2.6579
# 5 -1.6860 -2.1852 7.8116 -3.9536 37.1255 -2.3774
# 6 -6.8584 -4.4390 1.9791 -2.6579 -2.3774 35.1340
#
#
#
# Elastic Compliance Matrix: (Units=1/GPa)
#
#
# Indices 1 2 3 4 5 6 
#
# 1 0.007456 -0.000508 -0.002776 -0.001029 0.000881 0.001529
# 2 -0.000508 0.015072 -0.002941 -0.000963 0.001508 0.002000
# 3 -0.002776 -0.002941 0.011365 0.001513 -0.002633 -0.001617
# 4 -0.001029 -0.000963 0.001513 0.038266 0.003829 0.002746
# 5 0.000881 0.001508 -0.002633 0.003829 0.028200 0.002709
# 6 0.001529 0.002000 -0.001617 0.002746 0.002709 0.029496
#
#
# Mechanical properties :
#
#
# Convention : Reuss Voigt Hill
#
# Bulk Modulus (GPa) = 46.63416 52.83911 49.73664
# Shear Modulus (GPa) = 33.45530 36.87509 35.16520
#
# Velocity S-wave (km/s) = 4.03987 4.24133 4.14183
# Velocity P-wave (km/s) = 6.67161 7.05420 6.86558
#
# Compressibility (1/GPa) = 0.02144351
#
# Stress axis : x y z
#
# Youngs Moduli (GPa) = 134.11524 66.34735 87.98793
#
# Poissons Ratio (x) = 0.03372 0.24427
# Poissons Ratio (y) = 0.06816 0.25874
# Poissons Ratio (z) = 0.37233 0.19510
#
# Static dielectric constant tensor:
#      x y z
#    x 4.124840 0.199050 0.218890 
#    y 0.199050 5.050470 0.276700 
#    z 0.218890 0.276700 3.936250 
# 
# 
# High freq. dielectric constant tensor:
#      x y z
#    x 1.823580 -0.010250 0.005230 
#    y -0.010250 1.791890 -0.011460 
#    z 0.005230 -0.011460 1.809120 
# 
# From -- ./inp_files/577912.got.cif
#   From: 2010.06.25/outbox.cif.g09.slc.cpg/sg2_289_cif.got.tgz:577912.got - 2010.06.27 13:26:56.
