data_PCOD8033589
_publ_section_title
;
Structure prediction by ZEFSAII (Michael W. Deem and Ramdas Pophale) SiO2 
 PCOD8033589
Probable space group: P -1
;
_chemical_formula_sum "Si O2"
_cell_formula_units_Z 14
_cell_length_a 9.300737
_cell_length_b 11.669372
_cell_length_c 8.961079
_cell_angle_alpha 131.649330
_cell_angle_beta 69.119766
_cell_angle_gamma 123.076039
_cell_volume 608.936487
_symmetry_space_group_name_H-M "P -1"
_symmetry_group_IT_number 2
_symmetry_cell_setting 'triclinic'
loop_
_space_group_symop_operation_xyz
x,y,z
-x,-y,-z
loop_
_atom_site_type_symbol
_atom_site_label
_atom_site_fract_x
_atom_site_fract_y
_atom_site_fract_z
Si Si1 0.311807 0.285490 0.908098
Si Si2 0.460672 0.597385 0.800369
Si Si3 0.508628 0.156358 0.531037
Si Si4 0.878758 0.342545 0.508380
Si Si5 0.337989 0.221471 0.394246
Si Si6 0.010656 0.942379 0.780792
Si Si7 0.171565 0.535029 0.051310
O O1 0.480929 0.298858 0.767021
O O2 0.376177 0.365908 0.118414
O O3 0.205643 0.373210 0.943664
O O4 0.185403 0.085263 0.772415
O O5 0.359294 0.398681 0.616146
O O6 0.528085 0.723302 0.744226
O O7 0.327675 0.649655 0.982156
O O8 0.682571 0.242368 0.440091
O O9 0.369267 0.102504 0.402982
O O10 0.500000 0.000000 0.500000
O O11 0.843099 0.370623 0.715691
O O12 0.000000 0.500000 0.500000
O O13 0.983790 0.235342 0.368971
O O14 0.151449 0.092282 0.292180
O O15 0.000000 0.000000 0.000000
O O16 0.000000 0.500000 0.000000
#
# Coordination Sequence:
#
# PCOD8033589 Si02
#       7
#     2   2   2   2   2   2   2
#     4  12  24  49  76 104 157 204 248 313 390 452
#     4  11  23  47  76 111 145 205 250 308 383 457
#     4  12  26  49  75 110 154 205 254 317 387 461
#     4  12  28  45  76 111 154 198 258 318 380 456
#     4  11  26  44  79 108 150 197 258 307 380 462
#     4  12  26  49  73 110 153 200 250 322 387 443
#     4  12  26  44  73 114 151 198 256 312 375 460
#
# _framework density 22.990904
#
# number of rings (size 3 to 8) (size 9 to 14) (size 15 to 20)
#    0.000    0.286    5.714    3.000    6.000    1.714 
#    0.000    1.429    0.000    0.000    0.000    0.000 
#    0.000    0.000    0.000    0.000    0.000    0.000 
#
# Total GULP energy -173462.969862 kJ/mol
# GULP energy per Si atom -12390.212133 kJ/mol
# Density = 2.293858 g / cm^3
# Si number density = 22.990904 Si / 1000 Ang^3
#
#
#
# Elastic Constant Matrix: (Units=GPa)
#
#
# Indices 1 2 3 4 5 6 
#
# 1 157.5995 52.2651 57.1508 -5.4205 12.7011 -8.6264
# 2 52.2651 128.5767 45.0211 -8.1225 0.4127 6.3234
# 3 57.1508 45.0211 119.8056 -23.0210 -1.5594 -6.6405
# 4 -5.4205 -8.1225 -23.0210 38.9851 3.2251 -0.0678
# 5 12.7011 0.4127 -1.5594 3.2251 47.3213 3.9464
# 6 -8.6264 6.3234 -6.6405 -0.0678 3.9464 47.9126
#
#
#
# Elastic Compliance Matrix: (Units=1/GPa)
#
#
# Indices 1 2 3 4 5 6 
#
# 1 0.008626 -0.002479 -0.003333 -0.001078 -0.002465 0.001620
# 2 -0.002479 0.009803 -0.002591 0.000109 0.000667 -0.002154
# 3 -0.003333 -0.002591 0.012173 0.006122 0.000787 0.001373
# 4 -0.001078 0.000109 0.006122 0.029270 -0.001572 0.000811
# 5 -0.002465 0.000667 0.000787 -0.001572 0.022108 -0.002246
# 6 0.001620 -0.002154 0.001373 0.000811 -0.002246 0.021824
#
#
# Mechanical properties :
#
#
# Convention : Reuss Voigt Hill
#
# Bulk Modulus (GPa) = 72.48315 79.42844 75.95579
# Shear Modulus (GPa) = 39.93289 43.61343 41.77316
#
# Velocity S-wave (km/s) = 4.17213 4.36017 4.26719
# Velocity P-wave (km/s) = 7.40299 7.74408 7.57546
#
# Compressibility (1/GPa) = 0.01379631
#
# Stress axis : x y z
#
# Youngs Moduli (GPa) = 115.92495 102.00744 82.14830
#
# Poissons Ratio (x) = 0.25292 0.27378
# Poissons Ratio (y) = 0.28742 0.21284
# Poissons Ratio (z) = 0.38635 0.26430
#
# Static dielectric constant tensor:
#      x y z
#    x 4.024270 -0.059840 0.032860 
#    y -0.059840 4.094640 -0.283400 
#    z 0.032860 -0.283400 4.360030 
# 
# 
# High freq. dielectric constant tensor:
#      x y z
#    x 1.920780 0.007580 0.005560 
#    y 0.007580 1.909140 -0.018090 
#    z 0.005560 -0.018090 1.912650 
# 
# From -- ./inp_files/159993.got.cif
#   From: 2010.06.25/outbox.cif.g09.slc.cpg/sg2_80_cif.got.tgz:159993.got - 2010.06.27 13:26:56.
