data_PCOD8033637
_publ_section_title
;
Structure prediction by ZEFSAII (Michael W. Deem and Ramdas Pophale) SiO2 
 PCOD8033637
Probable space group: P -1
;
_chemical_formula_sum "Si O2"
_cell_formula_units_Z 10
_cell_length_a 18.113554
_cell_length_b 12.499298
_cell_length_c 9.115148
_cell_angle_alpha 144.533039
_cell_angle_beta 143.249322
_cell_angle_gamma 18.651828
_cell_volume 378.068872
_symmetry_space_group_name_H-M "P -1"
_symmetry_group_IT_number 2
_symmetry_cell_setting 'triclinic'
loop_
_space_group_symop_operation_xyz
x,y,z
-x,-y,-z
loop_
_atom_site_type_symbol
_atom_site_label
_atom_site_fract_x
_atom_site_fract_y
_atom_site_fract_z
Si Si1 0.170694 0.249252 0.125982
Si Si2 0.978891 0.228857 0.340582
Si Si3 0.632564 0.701086 0.074727
Si Si4 0.463427 0.773379 0.590250
Si Si5 0.731999 0.261293 0.188576
O O1 0.119630 0.450859 0.402692
O O2 0.436922 0.933577 0.148380
O O3 0.000000 0.500000 0.000000
O O4 0.122590 0.105026 0.946967
O O5 0.872804 0.329362 0.120655
O O6 0.907233 0.161608 0.263329
O O7 0.259281 0.878963 0.381868
O O8 0.652273 0.884717 0.254349
O O9 0.573783 0.640162 0.779135
O O10 0.665859 0.458935 0.449716
O O11 0.500000 0.500000 0.000000
#
# Coordination Sequence:
#
# PCOD8033637 Si02
#       5
#     2   2   2   2   2
#     4  12  25  50  78 112 152 204 248 311 385 448
#     4  12  25  52  80 109 153 203 251 311 382 448
#     4  11  23  49  78 110 159 195 253 315 374 450
#     4  11  26  48  77 116 150 201 252 315 375 450
#     4  12  27  50  80 113 152 198 258 314 374 454
#
# _framework density 26.450208
#
# number of rings (size 3 to 8) (size 9 to 14) (size 15 to 20)
#    0.000    0.400    6.000    2.400    0.000    2.400 
#    3.600    0.000    0.000    0.000    0.000    0.000 
#    0.000    0.000    0.000    0.000    0.000    0.000 
#
# Total GULP energy -124130.350103 kJ/mol
# GULP energy per Si atom -12413.035010 kJ/mol
# Density = 2.639001 g / cm^3
# Si number density = 26.450208 Si / 1000 Ang^3
#
#
#
# Elastic Constant Matrix: (Units=GPa)
#
#
# Indices 1 2 3 4 5 6 
#
# 1 166.7806 66.6624 64.5105 -14.0538 15.4404 11.9958
# 2 66.6624 101.7620 46.5022 -16.1989 9.3807 26.5786
# 3 64.5105 46.5022 126.7302 -21.8174 -11.0962 -1.2490
# 4 -14.0538 -16.1989 -21.8174 45.0682 -1.0555 -3.6310
# 5 15.4404 9.3807 -11.0962 -1.0555 57.1002 1.7754
# 6 11.9958 26.5786 -1.2490 -3.6310 1.7754 45.4435
#
#
#
# Elastic Compliance Matrix: (Units=1/GPa)
#
#
# Indices 1 2 3 4 5 6 
#
# 1 0.009235 -0.004363 -0.003378 -0.000374 -0.002447 0.000087
# 2 -0.004363 0.017409 -0.004072 0.002159 -0.002155 -0.008885
# 3 -0.003378 -0.004072 0.012127 0.003747 0.003892 0.003754
# 4 -0.000374 0.002159 0.003747 0.024754 0.000905 0.000881
# 5 -0.002447 -0.002155 0.003892 0.000905 0.019260 0.001333
# 6 0.000087 -0.008885 0.003754 0.000881 0.001333 0.027301
#
#
# Mechanical properties :
#
#
# Convention : Reuss Voigt Hill
#
# Bulk Modulus (GPa) = 66.02269 83.40255 74.71262
# Shear Modulus (GPa) = 36.03367 44.02889 40.03128
#
# Velocity S-wave (km/s) = 3.69497 4.08437 3.89454
# Velocity P-wave (km/s) = 6.57412 7.33779 6.96643
#
# Compressibility (1/GPa) = 0.01514631
#
# Stress axis : x y z
#
# Youngs Moduli (GPa) = 108.28389 57.44318 82.45978
#
# Poissons Ratio (x) = 0.25061 0.27853
# Poissons Ratio (y) = 0.47241 0.33574
# Poissons Ratio (z) = 0.36576 0.23389
#
# Static dielectric constant tensor:
#      x y z
#    x 5.024180 0.009760 0.049290 
#    y 0.009760 4.769690 0.061220 
#    z 0.049290 0.061220 5.226460 
# 
# 
# High freq. dielectric constant tensor:
#      x y z
#    x 2.078670 0.002240 0.001420 
#    y 0.002240 2.063640 0.003940 
#    z 0.001420 0.003940 2.080790 
# 
# From -- ./inp_files/148452.got.cif
#   From: 2010.06.25/outbox.cif.g09.slc.cpg/sg2_75_cif.got.tgz:148452.got - 2010.06.27 13:26:56.
