data_PCOD8033715
_publ_section_title
;
Structure prediction by ZEFSAII (Michael W. Deem and Ramdas Pophale) SiO2 
 PCOD8033715
Probable space group: P -1
;
_chemical_formula_sum "Si O2"
_cell_formula_units_Z 16
_cell_length_a 9.348120
_cell_length_b 19.412026
_cell_length_c 5.219465
_cell_angle_alpha 65.000779
_cell_angle_beta 77.420378
_cell_angle_gamma 58.399564
_cell_volume 731.127469
_symmetry_space_group_name_H-M "P -1"
_symmetry_group_IT_number 2
_symmetry_cell_setting 'triclinic'
loop_
_space_group_symop_operation_xyz
x,y,z
-x,-y,-z
loop_
_atom_site_type_symbol
_atom_site_label
_atom_site_fract_x
_atom_site_fract_y
_atom_site_fract_z
Si Si1 0.043566 0.441967 0.324217
Si Si2 0.762424 0.274257 0.252383
Si Si3 0.020426 0.082604 0.426235
Si Si4 0.417659 0.289744 0.385671
Si Si5 0.803522 0.852580 0.084087
Si Si6 0.093808 0.687805 0.379949
Si Si7 0.564537 0.812012 0.964778
Si Si8 0.643442 0.995793 0.274135
O O1 0.240742 0.376144 0.327940
O O2 0.000000 0.500000 0.500000
O O3 0.928220 0.396678 0.463584
O O4 0.000000 0.500000 0.000000
O O5 0.564246 0.312528 0.226978
O O6 0.784584 0.318929 0.427517
O O7 0.848861 0.169478 0.436778
O O8 0.835984 0.302090 0.938528
O O9 0.166328 0.056375 0.617497
O O10 0.073428 0.111311 0.102627
O O11 0.000000 0.000000 0.500000
O O12 0.450927 0.248328 0.719876
O O13 0.421723 0.223725 0.270453
O O14 0.732657 0.819756 0.929245
O O15 0.641864 0.935704 0.136668
O O16 0.907872 0.771273 0.361269
O O17 0.398150 0.905920 0.921532
O O18 0.500000 0.000000 0.500000
#
# Coordination Sequence:
#
# PCOD8033715 Si02
#       8
#     2   2   2   2   2   2   2   2
#     4  12  27  49  81 115 138 174 234 301 365 441
#     4  11  25  47  70 104 144 203 231 286 356 431
#     4  11  25  40  60  92 145 191 251 290 341 393
#     4  12  27  48  75 107 146 180 239 292 367 428
#     4  11  24  41  65  97 140 189 246 295 341 413
#     4  11  24  47  76 101 146 189 236 285 368 424
#     4  12  25  40  72 101 142 192 237 305 342 402
#     4  12  24  39  62  98 136 187 255 291 337 392
#
# _framework density 21.884011999999998
#
# number of rings (size 3 to 8) (size 9 to 14) (size 15 to 20)
#    0.000    0.500    3.750    4.125    7.000    1.500 
#    0.000    3.750    0.000    0.000    0.000    0.000 
#    0.000    0.000    0.000    0.000    0.000    0.000 
#
# Total GULP energy -198359.162334 kJ/mol
# GULP energy per Si atom -12397.447646 kJ/mol
# Density = 2.183420 g / cm^3
# Si number density = 21.884012 Si / 1000 Ang^3
#
#
#
# Elastic Constant Matrix: (Units=GPa)
#
#
# Indices 1 2 3 4 5 6 
#
# 1 134.2674 58.0247 31.5876 -5.1613 -4.7758 9.2204
# 2 58.0247 131.4484 44.7400 -3.3668 0.8906 11.4096
# 3 31.5876 44.7400 118.9101 -13.8202 -2.7796 4.6899
# 4 -5.1613 -3.3668 -13.8202 37.8581 7.2793 2.7900
# 5 -4.7758 0.8906 -2.7796 7.2793 34.0349 -3.7031
# 6 9.2204 11.4096 4.6899 2.7900 -3.7031 41.7110
#
#
#
# Elastic Compliance Matrix: (Units=1/GPa)
#
#
# Indices 1 2 3 4 5 6 
#
# 1 0.009413 -0.003742 -0.000981 0.000436 0.001150 -0.000874
# 2 -0.003742 0.010405 -0.002912 -0.000293 -0.001166 -0.001775
# 3 -0.000981 -0.002912 0.010169 0.003342 0.000016 -0.000352
# 4 0.000436 -0.000293 0.003342 0.029071 -0.006190 -0.002886
# 5 0.001150 -0.001166 0.000016 -0.006190 0.031253 0.003251
# 6 -0.000874 -0.001775 -0.000352 -0.002886 0.003251 0.025175
#
#
# Mechanical properties :
#
#
# Convention : Reuss Voigt Hill
#
# Bulk Modulus (GPa) = 67.94756 72.59228 70.26992
# Shear Modulus (GPa) = 36.85655 39.40569 38.13112
#
# Velocity S-wave (km/s) = 4.10832 4.24802 4.17876
# Velocity P-wave (km/s) = 7.32262 7.56996 7.44732
#
# Compressibility (1/GPa) = 0.01471723
#
# Stress axis : x y z
#
# Youngs Moduli (GPa) = 106.23042 96.10575 98.34211
#
# Poissons Ratio (x) = 0.35967 0.09643
# Poissons Ratio (y) = 0.39756 0.28638
# Poissons Ratio (z) = 0.10416 0.27987
#
# Static dielectric constant tensor:
#      x y z
#    x 3.739020 -0.486380 0.203390 
#    y -0.486380 3.919330 -0.263680 
#    z 0.203390 -0.263680 4.190610 
# 
# 
# High freq. dielectric constant tensor:
#      x y z
#    x 1.867320 0.003950 0.003770 
#    y 0.003950 1.858030 0.004140 
#    z 0.003770 0.004140 1.867310 
# 
# From -- ./inp_files/46670.got.cif
#   From: 2010.06.25/outbox.cif.g09.slc.cpg/sg2_24_cif.got.tgz:46670.got - 2010.06.27 13:26:56.
