data_PCOD8033036
_publ_section_title
;
Structure prediction by ZEFSAII (Michael W. Deem and Ramdas Pophale) SiO2 
 PCOD8033036
Probable space group: P -1
;
_chemical_formula_sum "Si O2"
_cell_formula_units_Z 16
_cell_length_a 19.272346
_cell_length_b 10.809973
_cell_length_c 12.080836
_cell_angle_alpha 43.183238
_cell_angle_beta 148.906404
_cell_angle_gamma 146.341760
_cell_volume 719.210884
_symmetry_space_group_name_H-M "P -1"
_symmetry_group_IT_number 2
_symmetry_cell_setting 'triclinic'
loop_
_space_group_symop_operation_xyz
x,y,z
-x,-y,-z
loop_
_atom_site_type_symbol
_atom_site_label
_atom_site_fract_x
_atom_site_fract_y
_atom_site_fract_z
Si Si1 0.717494 0.660382 0.904529
Si Si2 0.021102 0.636570 0.333524
Si Si3 0.808676 0.016227 0.978269
Si Si4 0.397847 0.186158 0.779265
Si Si5 0.976325 0.496355 0.805535
Si Si6 0.906847 0.819787 0.584694
Si Si7 0.668189 0.118434 0.909921
Si Si8 0.641908 0.898406 0.478690
O O1 0.584158 0.399705 0.918987
O O2 0.665623 0.716986 0.681439
O O3 0.720002 0.805225 0.913741
O O4 0.894977 0.704771 0.105921
O O5 0.995060 0.472310 0.306938
O O6 0.000000 0.500000 0.500000
O O7 0.204308 0.860019 0.432647
O O8 0.860725 0.234243 0.840191
O O9 0.680636 0.967625 0.934079
O O10 0.979142 0.066495 0.225191
O O11 0.275053 0.252376 0.593850
O O12 0.375761 0.113868 0.669248
O O13 0.359401 0.986760 0.936701
O O14 0.881485 0.594849 0.657851
O O15 0.158507 0.632883 0.022186
O O16 0.000000 0.000000 0.500000
O O17 0.521896 0.140824 0.666056
#
# Coordination Sequence:
#
# PCOD8033036 Si02
#       8
#     2   2   2   2   2   2   2   2
#     4  12  28  45  68 105 137 182 226 283 347 400
#     4  12  26  45  71  99 137 181 227 285 343 407
#     4  11  25  45  69 100 145 177 228 280 339 413
#     4  12  25  44  70 101 140 181 230 283 337 404
#     4  11  24  44  71 100 138 178 228 280 343 402
#     4  11  23  44  72 104 132 182 228 278 338 405
#     4  11  24  45  69 102 134 181 229 283 341 402
#     4  12  26  45  70  99 139 180 233 282 339 409
#
# _framework density 22.246604999999999
#
# number of rings (size 3 to 8) (size 9 to 14) (size 15 to 20)
#    0.000    0.500    3.750    5.625    7.000    2.000 
#    0.000    0.000    0.000    0.000    0.000    0.000 
#    0.000    0.000    0.000    0.000    0.000    0.000 
#
# Total GULP energy -198466.304398 kJ/mol
# GULP energy per Si atom -12404.144025 kJ/mol
# Density = 2.219597 g / cm^3
# Si number density = 22.246605 Si / 1000 Ang^3
#
#
#
# Elastic Constant Matrix: (Units=GPa)
#
#
# Indices 1 2 3 4 5 6 
#
# 1 99.5377 13.0291 36.7306 18.6481 -1.1822 -10.4821
# 2 13.0291 63.8159 9.6007 6.8976 8.1286 -11.4849
# 3 36.7306 9.6007 111.1637 -5.2558 14.0673 -7.2141
# 4 18.6481 6.8976 -5.2558 33.4860 9.3636 -10.2768
# 5 -1.1822 8.1286 14.0673 9.3636 51.5917 6.2129
# 6 -10.4821 -11.4849 -7.2141 -10.2768 6.2129 28.6152
#
#
#
# Elastic Compliance Matrix: (Units=1/GPa)
#
#
# Indices 1 2 3 4 5 6 
#
# 1 0.014101 -0.001737 -0.005589 -0.009947 0.004095 -0.001402
# 2 -0.001737 0.017810 0.000064 0.000753 -0.003921 0.007650
# 3 -0.005589 0.000064 0.012273 0.008198 -0.005603 0.005233
# 4 -0.009947 0.000753 0.008198 0.045694 -0.013039 0.017967
# 5 0.004095 -0.003921 -0.005603 -0.013039 0.025396 -0.011683
# 6 -0.001402 0.007650 0.005233 0.017967 -0.011683 0.047811
#
#
# Mechanical properties :
#
#
# Convention : Reuss Voigt Hill
#
# Bulk Modulus (GPa) = 33.71490 43.69313 38.70402
# Shear Modulus (GPa) = 26.66739 37.08239 31.87489
#
# Velocity S-wave (km/s) = 3.46601 4.08717 3.78934
# Velocity P-wave (km/s) = 5.58619 6.47737 6.04822
#
# Compressibility (1/GPa) = 0.02966047
#
# Stress axis : x y z
#
# Youngs Moduli (GPa) = 70.91875 56.14865 81.47942
#
# Poissons Ratio (x) = 0.09752 0.45536
# Poissons Ratio (y) = 0.12318 -0.00521
# Poissons Ratio (z) = 0.39634 -0.00359
#
# Static dielectric constant tensor:
#      x y z
#    x 4.212810 0.210280 -0.349070 
#    y 0.210280 4.292310 -0.317760 
#    z -0.349070 -0.317760 4.377130 
# 
# 
# High freq. dielectric constant tensor:
#      x y z
#    x 1.890840 0.002260 -0.003530 
#    y 0.002260 1.875280 -0.001200 
#    z -0.003530 -0.001200 1.884300 
# 
# From -- ./inp_files/238969.got.cif
#   From: 2010.06.25/outbox.cif.g09.slc.cpg/sg2_120_cif.got.tgz:238969.got - 2010.06.27 13:26:56.
