data_PCOD8033201
_publ_section_title
;
Structure prediction by ZEFSAII (Michael W. Deem and Ramdas Pophale) SiO2 
 PCOD8033201
Probable space group: P -1
;
_chemical_formula_sum "Si O2"
_cell_formula_units_Z 14
_cell_length_a 20.778870
_cell_length_b 8.976300
_cell_length_c 21.234702
_cell_angle_alpha 149.995098
_cell_angle_beta 160.312452
_cell_angle_gamma 29.147027
_cell_volume 626.442927
_symmetry_space_group_name_H-M "P -1"
_symmetry_group_IT_number 2
_symmetry_cell_setting 'triclinic'
loop_
_space_group_symop_operation_xyz
x,y,z
-x,-y,-z
loop_
_atom_site_type_symbol
_atom_site_label
_atom_site_fract_x
_atom_site_fract_y
_atom_site_fract_z
Si Si1 0.673286 0.361642 0.954939
Si Si2 0.707712 0.707561 0.369721
Si Si3 0.249777 0.337277 0.982471
Si Si4 0.009200 0.719721 0.005920
Si Si5 0.624461 0.822452 0.193208
Si Si6 0.996108 0.965099 0.557630
Si Si7 0.257675 0.650836 0.332635
O O1 0.494546 0.216374 0.745950
O O2 0.887184 0.090544 0.038209
O O3 0.621477 0.593477 0.931435
O O4 0.693551 0.544968 0.103606
O O5 0.645681 0.671854 0.227208
O O6 0.871602 0.384146 0.425033
O O7 0.802405 0.984533 0.567114
O O8 0.141949 0.652284 0.039676
O O9 0.070184 0.231524 0.752173
O O10 0.394775 0.053245 0.054760
O O11 0.853281 0.523666 0.787238
O O12 0.176093 0.607311 0.173097
O O13 0.767454 0.034968 0.396508
O O14 0.000000 0.000000 0.500000
O O15 0.500000 0.500000 0.500000
#
# Coordination Sequence:
#
# PCOD8033201 Si02
#       7
#     2   2   2   2   2   2   2
#     4  12  24  46  69 100 144 183 228 288 348 413
#     4  12  25  44  76 104 138 183 237 292 348 409
#     4  12  26  46  70 104 142 185 232 285 349 421
#     4  11  26  44  73  97 142 186 229 284 350 411
#     4  12  25  45  74 103 139 182 237 291 348 409
#     4  12  25  45  72 104 141 184 229 291 351 409
#     4  11  23  45  69 103 140 179 233 292 342 411
#
# _framework density 22.348406000000001
#
# number of rings (size 3 to 8) (size 9 to 14) (size 15 to 20)
#    0.000    0.286    4.286    5.143    2.000    0.000 
#    0.000    0.714    0.000    0.000    0.000    0.000 
#    0.000    0.000    0.000    0.000    0.000    0.000 
#
# Total GULP energy -173660.072742 kJ/mol
# GULP energy per Si atom -12404.290910 kJ/mol
# Density = 2.229754 g / cm^3
# Si number density = 22.348406 Si / 1000 Ang^3
#
#
#
# Elastic Constant Matrix: (Units=GPa)
#
#
# Indices 1 2 3 4 5 6 
#
# 1 122.3191 39.3320 35.4614 6.9897 -13.6760 -0.8364
# 2 39.3320 97.4596 25.1069 7.1566 -18.9510 -7.3034
# 3 35.4614 25.1069 109.0642 -3.1602 -3.1468 -2.8325
# 4 6.9897 7.1566 -3.1602 35.1488 0.0211 -2.4514
# 5 -13.6760 -18.9510 -3.1468 0.0211 32.8067 1.3670
# 6 -0.8364 -7.3034 -2.8325 -2.4514 1.3670 42.0985
#
#
#
# Elastic Compliance Matrix: (Units=1/GPa)
#
#
# Indices 1 2 3 4 5 6 
#
# 1 0.010240 -0.002911 -0.002659 -0.001730 0.002361 -0.000658
# 2 -0.002911 0.013473 -0.001990 -0.002221 0.006304 0.001812
# 3 -0.002659 -0.001990 0.010522 0.001913 -0.001269 0.000462
# 4 -0.001730 -0.002221 0.001913 0.029524 -0.001902 0.001490
# 5 0.002361 0.006304 -0.001269 -0.001902 0.034995 -0.000192
# 6 -0.000658 0.001812 0.000462 0.001490 -0.000192 0.024179
#
#
# Mechanical properties :
#
#
# Convention : Reuss Voigt Hill
#
# Bulk Modulus (GPa) = 52.31320 58.73815 55.52567
# Shear Modulus (GPa) = 34.61997 37.27365 35.94681
#
# Velocity S-wave (km/s) = 3.94013 4.08835 4.01493
# Velocity P-wave (km/s) = 6.64518 6.97325 6.81119
#
# Compressibility (1/GPa) = 0.01911564
#
# Stress axis : x y z
#
# Youngs Moduli (GPa) = 97.65189 74.22298 95.03594
#
# Poissons Ratio (x) = 0.21607 0.25266
# Poissons Ratio (y) = 0.28427 0.18916
# Poissons Ratio (z) = 0.25961 0.14773
#
# Static dielectric constant tensor:
#      x y z
#    x 4.200490 0.051800 0.038680 
#    y 0.051800 3.889040 0.039110 
#    z 0.038680 0.039110 4.366300 
# 
# 
# High freq. dielectric constant tensor:
#      x y z
#    x 1.888370 0.001800 0.001630 
#    y 0.001800 1.877960 -0.000920 
#    z 0.001630 -0.000920 1.892960 
# 
# From -- ./inp_files/261057.got.cif
#   From: 2010.06.25/outbox.cif.g09.slc.cpg/sg2_131_cif.got.tgz:261057.got - 2010.06.27 13:26:56.
