data_PCOD8033182
_publ_section_title
;
Structure prediction by ZEFSAII (Michael W. Deem and Ramdas Pophale) SiO2 
 PCOD8033182
Probable space group: P -1
;
_chemical_formula_sum "Si O2"
_cell_formula_units_Z 16
_cell_length_a 9.167691
_cell_length_b 21.206568
_cell_length_c 8.629460
_cell_angle_alpha 114.877407
_cell_angle_beta 64.071012
_cell_angle_gamma 149.732766
_cell_volume 757.060609
_symmetry_space_group_name_H-M "P -1"
_symmetry_group_IT_number 2
_symmetry_cell_setting 'triclinic'
loop_
_space_group_symop_operation_xyz
x,y,z
-x,-y,-z
loop_
_atom_site_type_symbol
_atom_site_label
_atom_site_fract_x
_atom_site_fract_y
_atom_site_fract_z
Si Si1 0.156823 0.876497 0.048660
Si Si2 0.112949 0.731250 0.121191
Si Si3 0.810855 0.485732 0.974107
Si Si4 0.663275 0.618958 0.455175
Si Si5 0.820588 0.878214 0.363868
Si Si6 0.271850 0.269546 0.173210
Si Si7 0.311129 0.131756 0.926031
Si Si8 0.673892 0.395534 0.606069
O O1 0.050262 0.767814 0.063893
O O2 0.050518 0.900806 0.232456
O O3 0.026372 0.833687 0.892664
O O4 0.500000 0.000000 0.000000
O O5 0.458055 0.845414 0.111601
O O6 0.948103 0.688511 0.313800
O O7 0.996258 0.619197 0.982537
O O8 0.689758 0.407391 0.795068
O O9 0.526691 0.408402 0.124053
O O10 0.000000 0.500000 0.000000
O O11 0.500000 0.500000 0.500000
O O12 0.782443 0.722298 0.620528
O O13 0.445371 0.576891 0.389457
O O14 0.686836 0.864068 0.256531
O O15 0.556329 0.751085 0.461119
O O16 0.000000 0.000000 0.500000
O O17 0.397812 0.235807 0.073808
O O18 0.000000 0.000000 0.000000
O O19 0.000000 0.500000 0.500000
#
# Coordination Sequence:
#
# PCOD8033182 Si02
#       8
#     2   2   2   2   2   2   2   2
#     4  11  25  48  68 100 135 184 234 288 348 415
#     4  12  24  42  73 103 139 175 231 292 354 400
#     4  12  22  44  73 101 138 186 227 286 350 424
#     4  12  27  42  67 109 143 174 225 296 357 410
#     4  11  25  48  69  98 142 182 234 284 347 425
#     4  11  23  45  68  94 144 178 231 278 346 423
#     4  11  25  44  72  97 130 190 238 276 344 424
#     4  12  27  45  72 106 143 186 238 285 350 427
#
# _framework density 21.134371000000002
#
# number of rings (size 3 to 8) (size 9 to 14) (size 15 to 20)
#    0.000    0.500    6.250    2.250    5.250    3.000 
#    0.000    1.875    0.000    0.000    0.000    0.000 
#    0.000    0.000    0.000    0.000    0.000    0.000 
#
# Total GULP energy -198434.781390 kJ/mol
# GULP energy per Si atom -12402.173837 kJ/mol
# Density = 2.108627 g / cm^3
# Si number density = 21.134371 Si / 1000 Ang^3
#
#
#
# Elastic Constant Matrix: (Units=GPa)
#
#
# Indices 1 2 3 4 5 6 
#
# 1 124.7850 32.2921 34.9725 6.9079 0.2068 7.6575
# 2 32.2921 126.3542 35.8003 -7.0652 -6.0870 9.8311
# 3 34.9725 35.8003 98.9494 12.6320 -1.0279 7.8694
# 4 6.9079 -7.0652 12.6320 43.7025 1.8900 -8.1631
# 5 0.2068 -6.0870 -1.0279 1.8900 27.7392 -7.1577
# 6 7.6575 9.8311 7.8694 -8.1631 -7.1577 43.3918
#
#
#
# Elastic Compliance Matrix: (Units=1/GPa)
#
#
# Indices 1 2 3 4 5 6 
#
# 1 0.009272 -0.001697 -0.002422 -0.001226 -0.000749 -0.001167
# 2 -0.001697 0.009488 -0.003095 0.002524 0.001669 -0.000539
# 3 -0.002422 -0.003095 0.012773 -0.004173 -0.000431 -0.002044
# 4 -0.001226 0.002524 -0.004173 0.025667 0.000009 0.005231
# 5 -0.000749 0.001669 -0.000431 0.000009 0.037979 0.006099
# 6 -0.001167 -0.000539 -0.002044 0.005231 0.006099 0.025735
#
#
# Mechanical properties :
#
#
# Convention : Reuss Voigt Hill
#
# Bulk Modulus (GPa) = 58.46153 61.80204 60.13179
# Shear Modulus (GPa) = 35.45001 39.43495 37.44248
#
# Velocity S-wave (km/s) = 4.10001 4.32431 4.21365
# Velocity P-wave (km/s) = 7.08063 7.36470 7.22406
#
# Compressibility (1/GPa) = 0.01710527
#
# Stress axis : x y z
#
# Youngs Moduli (GPa) = 107.84669 105.39112 78.29244
#
# Poissons Ratio (x) = 0.17890 0.18959
# Poissons Ratio (y) = 0.18306 0.24232
# Poissons Ratio (z) = 0.26116 0.32619
#
# Static dielectric constant tensor:
#      x y z
#    x 3.847200 -0.312890 -0.117060 
#    y -0.312890 3.764930 -0.159530 
#    z -0.117060 -0.159530 3.908020 
# 
# 
# High freq. dielectric constant tensor:
#      x y z
#    x 1.838510 -0.001200 0.000900 
#    y -0.001200 1.843930 -0.004170 
#    z 0.000900 -0.004170 1.821080 
# 
# From -- ./inp_files/223389.got.cif
#   From: 2010.06.25/outbox.cif.g09.slc.cpg/sg2_112_cif.got.tgz:223389.got - 2010.06.27 13:26:56.
