data_PCOD8033706
_publ_section_title
;
Structure prediction by ZEFSAII (Michael W. Deem and Ramdas Pophale) SiO2 
 PCOD8033706
Probable space group: P -1
;
_chemical_formula_sum "Si O2"
_cell_formula_units_Z 16
_cell_length_a 12.620863
_cell_length_b 15.456006
_cell_length_c 14.794252
_cell_angle_alpha 135.613695
_cell_angle_beta 149.449622
_cell_angle_gamma 66.238255
_cell_volume 822.647119
_symmetry_space_group_name_H-M "P -1"
_symmetry_group_IT_number 2
_symmetry_cell_setting 'triclinic'
loop_
_space_group_symop_operation_xyz
x,y,z
-x,-y,-z
loop_
_atom_site_type_symbol
_atom_site_label
_atom_site_fract_x
_atom_site_fract_y
_atom_site_fract_z
Si Si1 0.061337 0.453105 0.701587
Si Si2 0.628909 0.057904 0.540747
Si Si3 0.535372 0.754856 0.197159
Si Si4 0.442802 0.576463 0.644180
Si Si5 0.778880 0.739798 0.844790
Si Si6 0.903237 0.721081 0.557129
Si Si7 0.210806 0.029992 0.106099
Si Si8 0.568094 0.580461 0.936425
O O1 0.980573 0.326855 0.470386
O O2 0.804752 0.422473 0.530070
O O3 0.243067 0.623132 0.918034
O O4 0.213286 0.437593 0.882374
O O5 0.487298 0.116473 0.424402
O O6 0.500000 0.000000 0.500000
O O7 0.590995 0.918803 0.353012
O O8 0.928199 0.200654 0.876954
O O9 0.733633 0.769459 0.425720
O O10 0.584839 0.712625 0.104283
O O11 0.632602 0.703340 0.804798
O O12 0.359661 0.409270 0.431319
O O13 0.606871 0.626428 0.894527
O O14 0.767044 0.867587 0.883289
O O15 0.720507 0.578307 0.383443
O O16 0.134543 0.866532 0.891463
O O17 0.000000 0.000000 0.000000
#
# Coordination Sequence:
#
# PCOD8033706 Si02
#       8
#     2   2   2   2   2   2   2   2
#     4   9  20  36  62  93 120 155 197 248 298 341
#     4  12  23  38  63  89 122 154 192 248 308 348
#     4   9  18  36  61  94 126 147 196 257 292 348
#     4  11  24  41  64  80 122 163 205 236 291 368
#     4  11  26  44  56  91 120 157 201 248 289 361
#     4   9  18  36  61  94 126 147 196 257 292 348
#     4  12  23  38  63  89 122 154 192 248 308 348
#     4   9  20  36  62  93 120 155 197 248 298 341
#
# _framework density 19.449407999999998
#
# number of rings (size 3 to 8) (size 9 to 14) (size 15 to 20)
#    0.000    1.750    2.500    3.000    3.500    5.000 
#    0.000    3.750    0.000    0.000    0.000    0.000 
#    0.000    0.000    0.000    0.000    0.000    0.000 
#
# Total GULP energy -198448.571026 kJ/mol
# GULP energy per Si atom -12403.035689 kJ/mol
# Density = 1.940514 g / cm^3
# Si number density = 19.449408 Si / 1000 Ang^3
#
#
#
# Elastic Constant Matrix: (Units=GPa)
#
#
# Indices 1 2 3 4 5 6 
#
# 1 112.9467 22.9344 23.9095 -1.1107 -1.0944 12.5516
# 2 22.9344 48.5870 3.1247 -0.5593 -4.8051 9.8771
# 3 23.9095 3.1247 58.6919 -3.3516 -5.0215 10.6827
# 4 -1.1107 -0.5593 -3.3516 34.7500 -3.3412 -3.0335
# 5 -1.0944 -4.8051 -5.0215 -3.3412 31.5219 -4.2824
# 6 12.5516 9.8771 10.6827 -3.0335 -4.2824 27.1351
#
#
#
# Elastic Compliance Matrix: (Units=1/GPa)
#
#
# Indices 1 2 3 4 5 6 
#
# 1 0.010824 -0.004571 -0.003926 -0.000406 -0.001267 -0.002043
# 2 -0.004571 0.024339 0.002117 0.000112 0.002936 -0.007102
# 3 -0.003926 0.002117 0.019975 0.001551 0.002688 -0.006221
# 4 -0.000406 0.000112 0.001551 0.029587 0.003855 0.003453
# 5 -0.001267 0.002936 0.002688 0.003855 0.033532 0.004182
# 6 -0.002043 -0.007102 -0.006221 0.003453 0.004182 0.043878
#
#
# Mechanical properties :
#
#
# Convention : Reuss Voigt Hill
#
# Bulk Modulus (GPa) = 23.59762 35.57365 29.58564
# Shear Modulus (GPa) = 26.45193 30.03188 28.24190
#
# Velocity S-wave (km/s) = 3.69187 3.93377 3.81474
# Velocity P-wave (km/s) = 5.50748 6.24202 5.88622
#
# Compressibility (1/GPa) = 0.04237715
#
# Stress axis : x y z
#
# Youngs Moduli (GPa) = 92.38958 41.08677 50.06133
#
# Poissons Ratio (x) = 0.18782 0.19653
# Poissons Ratio (y) = 0.42235 -0.10597
# Poissons Ratio (z) = 0.36270 -0.08697
#
# Static dielectric constant tensor:
#      x y z
#    x 3.513680 -0.070690 -0.173520 
#    y -0.070690 3.547380 -0.046280 
#    z -0.173520 -0.046280 3.595170 
# 
# 
# High freq. dielectric constant tensor:
#      x y z
#    x 1.751150 -0.009710 -0.021220 
#    y -0.009710 1.759520 -0.010620 
#    z -0.021220 -0.010620 1.752950 
# 
# From -- ./inp_files/304925.got.cif
#   From: 2010.06.25/outbox.cif.g09.slc.cpg/sg2_153_cif.got.tgz:304925.got - 2010.06.27 13:26:56.
