data_PCOD8033745
_publ_section_title
;
Structure prediction by ZEFSAII (Michael W. Deem and Ramdas Pophale) SiO2 
 PCOD8033745
Probable space group: P -1
;
_chemical_formula_sum "Si O2"
_cell_formula_units_Z 14
_cell_length_a 8.212996
_cell_length_b 17.909087
_cell_length_c 20.951912
_cell_angle_alpha 19.257175
_cell_angle_beta 38.232386
_cell_angle_gamma 47.117964
_cell_volume 600.184793
_symmetry_space_group_name_H-M "P -1"
_symmetry_group_IT_number 2
_symmetry_cell_setting 'triclinic'
loop_
_space_group_symop_operation_xyz
x,y,z
-x,-y,-z
loop_
_atom_site_type_symbol
_atom_site_label
_atom_site_fract_x
_atom_site_fract_y
_atom_site_fract_z
Si Si1 0.299881 0.554097 0.718696
Si Si2 0.334970 0.671429 0.884485
Si Si3 0.509903 0.220040 0.389308
Si Si4 0.070499 0.810863 0.387791
Si Si5 0.562759 0.915247 0.244412
Si Si6 0.091262 0.312173 0.764349
Si Si7 0.323717 0.175081 0.929205
O O1 0.378433 0.606152 0.725926
O O2 0.401569 0.801522 0.449444
O O3 0.450118 0.376732 0.781616
O O4 0.972861 0.429695 0.911147
O O5 0.304423 0.670447 0.817450
O O6 0.492957 0.947159 0.631491
O O7 0.500000 0.500000 0.000000
O O8 0.209432 0.239483 0.445656
O O9 0.335838 0.940396 0.243939
O O10 0.115056 0.581974 0.525446
O O11 0.047304 0.991626 0.192593
O O12 0.765760 0.771453 0.271769
O O13 0.769148 0.174956 0.985245
O O14 0.261053 0.306838 0.780548
O O15 0.500000 0.000000 0.000000
#
# Coordination Sequence:
#
# PCOD8033745 Si02
#       7
#     2   2   2   2   2   2   2
#     4  12  25  46  73 106 144 186 235 292 353 420
#     4  11  26  51  74 102 142 179 232 303 359 423
#     4  11  27  46  74 107 138 180 238 289 363 425
#     4  12  23  43  69  97 136 187 228 290 345 412
#     4  11  24  41  69  98 140 188 238 280 350 408
#     4  11  25  44  62 100 142 188 237 288 335 414
#     4  12  24  43  70 101 148 190 234 283 343 411
#
# _framework density 23.326150999999999
#
# number of rings (size 3 to 8) (size 9 to 14) (size 15 to 20)
#    0.000    0.571    4.286    3.429    2.000    0.571 
#    0.000    3.571    0.000    0.000    0.000    0.000 
#    0.000    0.000    0.000    0.000    0.000    0.000 
#
# Total GULP energy -173528.771700 kJ/mol
# GULP energy per Si atom -12394.912264 kJ/mol
# Density = 2.327306 g / cm^3
# Si number density = 23.326151 Si / 1000 Ang^3
#
#
#
# Elastic Constant Matrix: (Units=GPa)
#
#
# Indices 1 2 3 4 5 6 
#
# 1 70.9588 42.3567 40.2090 -14.4483 -7.4042 6.9088
# 2 42.3567 84.7362 12.1540 -9.1645 -5.5703 10.8090
# 3 40.2090 12.1540 102.1899 4.9964 6.2793 8.1070
# 4 -14.4483 -9.1645 4.9964 48.9531 1.0008 -3.1184
# 5 -7.4042 -5.5703 6.2793 1.0008 38.5210 1.2099
# 6 6.9088 10.8090 8.1070 -3.1184 1.2099 44.2894
#
#
#
# Elastic Compliance Matrix: (Units=1/GPa)
#
#
# Indices 1 2 3 4 5 6 
#
# 1 0.029575 -0.012131 -0.010957 0.007510 0.005498 0.000732
# 2 -0.012131 0.017739 0.002949 -0.000751 -0.000133 -0.003026
# 3 -0.010957 0.002949 0.014332 -0.004182 -0.003850 -0.001823
# 4 0.007510 -0.000751 -0.004182 0.022989 0.001377 0.001358
# 5 0.005498 -0.000133 -0.003850 0.001377 0.027614 -0.000778
# 6 0.000732 -0.003026 -0.001823 0.001358 -0.000778 0.023654
#
#
# Mechanical properties :
#
#
# Convention : Reuss Voigt Hill
#
# Bulk Modulus (GPa) = 46.80468 49.70268 48.25368
# Shear Modulus (GPa) = 27.27716 37.23037 32.25376
#
# Velocity S-wave (km/s) = 3.42333 3.99943 3.72254
# Velocity P-wave (km/s) = 5.97783 6.53309 6.26162
#
# Compressibility (1/GPa) = 0.02136538
#
# Stress axis : x y z
#
# Youngs Moduli (GPa) = 33.81264 56.37449 69.77371
#
# Poissons Ratio (x) = 0.68390 0.76452
# Poissons Ratio (y) = 0.41019 -0.20573
# Poissons Ratio (z) = 0.37049 -0.16622
#
# Static dielectric constant tensor:
#      x y z
#    x 4.014790 0.025220 0.063090 
#    y 0.025220 4.376880 0.121460 
#    z 0.063090 0.121460 4.648100 
# 
# 
# High freq. dielectric constant tensor:
#      x y z
#    x 1.897310 0.004840 0.003580 
#    y 0.004840 1.927460 0.006290 
#    z 0.003580 0.006290 1.949290 
# 
# From -- ./inp_files/520669.got.cif
#   From: 2010.06.25/outbox.cif.g09.slc.cpg/sg2_261_cif.got.tgz:520669.got - 2010.06.27 13:26:56.
