data_PCOD8033813
_publ_section_title
;
Structure prediction by ZEFSAII (Michael W. Deem and Ramdas Pophale) SiO2 
 PCOD8033813
Probable space group: P -1
;
_chemical_formula_sum "Si O2"
_cell_formula_units_Z 16
_cell_length_a 15.552220
_cell_length_b 12.074112
_cell_length_c 6.728760
_cell_angle_alpha 45.156051
_cell_angle_beta 87.620823
_cell_angle_gamma 63.970024
_cell_volume 730.345639
_symmetry_space_group_name_H-M "P -1"
_symmetry_group_IT_number 2
_symmetry_cell_setting 'triclinic'
loop_
_space_group_symop_operation_xyz
x,y,z
-x,-y,-z
loop_
_atom_site_type_symbol
_atom_site_label
_atom_site_fract_x
_atom_site_fract_y
_atom_site_fract_z
Si Si1 0.012067 0.909925 0.821787
Si Si2 0.170204 0.284638 0.226178
Si Si3 0.027364 0.553406 0.226716
Si Si4 0.707389 0.552076 0.158645
Si Si5 0.830675 0.133882 0.832075
Si Si6 0.677838 0.123644 0.114952
Si Si7 0.474937 0.196611 0.839285
Si Si8 0.590746 0.499182 0.882686
O O1 0.893483 0.011807 0.787175
O O2 0.000000 0.000000 0.500000
O O3 0.070010 0.682704 0.095757
O O4 0.083716 0.949145 0.895055
O O5 0.121391 0.363113 0.350175
O O6 0.262836 0.061280 0.515959
O O7 0.215184 0.395114 0.989473
O O8 0.077506 0.318298 0.055523
O O9 0.000000 0.500000 0.500000
O O10 0.776634 0.356151 0.519550
O O11 0.624176 0.711190 0.120498
O O12 0.654844 0.528752 0.001398
O O13 0.744253 0.094853 0.947190
O O14 0.568807 0.163090 0.007903
O O15 0.664811 0.297060 0.020369
O O16 0.457025 0.332257 0.486795
O O17 0.500000 0.000000 0.000000
O O18 0.500000 0.500000 0.000000
#
# Coordination Sequence:
#
# PCOD8033813 Si02
#       8
#     2   2   2   2   2   2   2   2
#     4  11  24  42  68 100 135 179 225 286 343 401
#     4  11  27  43  69 103 136 179 233 276 339 416
#     4  11  24  46  67  96 142 179 224 282 341 401
#     4  12  26  46  69 102 139 182 230 282 346 411
#     4  11  25  42  68 102 136 173 234 282 337 414
#     4  12  25  47  70 104 138 182 235 280 347 408
#     4  12  28  48  70 103 144 179 228 288 345 412
#     4  12  26  46  73  99 142 183 230 290 338 407
#
# _framework density 21.907436000000001
#
# number of rings (size 3 to 8) (size 9 to 14) (size 15 to 20)
#    0.000    0.500    2.500    4.875    7.000    9.000 
#    0.000    0.000    0.000    0.000    0.000    0.000 
#    0.000    0.000    0.000    0.000    0.000    0.000 
#
# Total GULP energy -198490.007462 kJ/mol
# GULP energy per Si atom -12405.625466 kJ/mol
# Density = 2.185757 g / cm^3
# Si number density = 21.907436 Si / 1000 Ang^3
#
#
#
# Elastic Constant Matrix: (Units=GPa)
#
#
# Indices 1 2 3 4 5 6 
#
# 1 63.6034 10.4746 5.6714 4.8045 -6.6741 -10.4429
# 2 10.4746 116.8223 26.7736 3.8680 5.6866 -2.6217
# 3 5.6714 26.7736 111.7829 -4.0623 -8.7994 -9.0580
# 4 4.8045 3.8680 -4.0623 39.5829 -5.9517 -9.9638
# 5 -6.6741 5.6866 -8.7994 -5.9517 36.5291 -2.1986
# 6 -10.4429 -2.6217 -9.0580 -9.9638 -2.1986 36.9907
#
#
#
# Elastic Compliance Matrix: (Units=1/GPa)
#
#
# Indices 1 2 3 4 5 6 
#
# 1 0.017194 -0.001660 0.000221 -0.000084 0.003740 0.004990
# 2 -0.001660 0.009454 -0.002537 -0.001649 -0.002717 -0.001025
# 3 0.000221 -0.002537 0.010181 0.002623 0.003513 0.003291
# 4 -0.000084 -0.001649 0.002623 0.028788 0.006082 0.008617
# 5 0.003740 -0.002717 0.003513 0.006082 0.030631 0.005182
# 6 0.004990 -0.001025 0.003291 0.008617 0.005182 0.031805
#
#
# Mechanical properties :
#
#
# Convention : Reuss Voigt Hill
#
# Bulk Modulus (GPa) = 34.62899 42.00532 38.31716
# Shear Modulus (GPa) = 34.33361 39.23979 36.78670
#
# Velocity S-wave (km/s) = 3.96310 4.23680 4.10223
# Velocity P-wave (km/s) = 6.06488 6.56884 6.32188
#
# Compressibility (1/GPa) = 0.02887754
#
# Stress axis : x y z
#
# Youngs Moduli (GPa) = 58.15935 105.77425 98.22327
#
# Poissons Ratio (x) = 0.17554 -0.02169
# Poissons Ratio (y) = 0.09652 0.24920
# Poissons Ratio (z) = -0.01284 0.26836
#
# Static dielectric constant tensor:
#      x y z
#    x 3.608380 -1.118250 0.291160 
#    y -1.118250 2.174400 0.677550 
#    z 0.291160 0.677550 3.825320 
# 
# 
# High freq. dielectric constant tensor:
#      x y z
#    x 1.871900 -0.006070 -0.004640 
#    y -0.006070 1.875760 0.001760 
#    z -0.004640 0.001760 1.876560 
# 
# From -- ./inp_files/109485.got.cif
#   From: 2010.06.25/outbox.cif.g09.slc.cpg/sg2_55_cif.got.tgz:109485.got - 2010.06.27 13:26:56.
