data_PCOD8033425
_publ_section_title
;
Structure prediction by ZEFSAII (Michael W. Deem and Ramdas Pophale) SiO2 
 PCOD8033425
Probable space group: P -1
;
_chemical_formula_sum "Si O2"
_cell_formula_units_Z 16
_cell_length_a 15.291175
_cell_length_b 23.113531
_cell_length_c 13.254648
_cell_angle_alpha 22.571314
_cell_angle_beta 154.291074
_cell_angle_gamma 155.007410
_cell_volume 697.897256
_symmetry_space_group_name_H-M "P -1"
_symmetry_group_IT_number 2
_symmetry_cell_setting 'triclinic'
loop_
_space_group_symop_operation_xyz
x,y,z
-x,-y,-z
loop_
_atom_site_type_symbol
_atom_site_label
_atom_site_fract_x
_atom_site_fract_y
_atom_site_fract_z
Si Si1 0.019599 0.333456 0.793776
Si Si2 0.800967 0.713827 0.152150
Si Si3 0.605632 0.637764 0.704689
Si Si4 0.021801 0.668822 0.647393
Si Si5 0.370370 0.610722 0.206323
Si Si6 0.712600 0.881518 0.255055
Si Si7 0.875994 0.017964 0.618742
Si Si8 0.554485 0.125640 0.733016
O O1 0.122414 0.325521 0.808762
O O2 0.000000 0.500000 0.500000
O O3 0.766488 0.193447 0.768508
O O4 0.193557 0.339172 0.050876
O O5 0.554485 0.559786 0.167732
O O6 0.982947 0.735670 0.392320
O O7 0.806108 0.894977 0.842908
O O8 0.728774 0.733776 0.575510
O O9 0.452948 0.726029 0.446690
O O10 0.818073 0.485376 0.750523
O O11 0.024489 0.792995 0.540177
O O12 0.251678 0.645332 0.927569
O O13 0.500000 0.500000 0.500000
O O14 0.532847 0.794880 0.119200
O O15 0.946739 0.997681 0.252227
O O16 0.619580 0.980022 0.081202
O O17 0.660718 0.971340 0.402397
#
# Coordination Sequence:
#
# PCOD8033425 Si02
#       8
#     2   2   2   2   2   2   2   2
#     4  12  25  45  70 102 144 184 236 282 345 412
#     4  12  24  47  71 106 138 189 231 285 345 419
#     4  12  26  46  73 103 141 187 235 285 345 421
#     4  11  25  45  73 104 141 182 231 286 353 410
#     4  11  23  46  71 102 140 183 230 289 342 417
#     4  12  25  44  72 107 138 184 231 286 357 409
#     4  12  25  46  73 101 149 178 231 294 346 413
#     4  12  24  46  71 100 145 184 229 292 347 408
#
# _framework density 22.926010999999999
#
# number of rings (size 3 to 8) (size 9 to 14) (size 15 to 20)
#    0.000    0.250    7.500    1.875    0.000    4.000 
#    2.250    1.250    0.000    0.000    0.000    0.000 
#    0.000    0.000    0.000    0.000    0.000    0.000 
#
# Total GULP energy -198213.763667 kJ/mol
# GULP energy per Si atom -12388.360229 kJ/mol
# Density = 2.287383 g / cm^3
# Si number density = 22.926011 Si / 1000 Ang^3
#
#
#
# Elastic Constant Matrix: (Units=GPa)
#
#
# Indices 1 2 3 4 5 6 
#
# 1 52.2173 -3.3154 11.7115 6.3027 15.2803 2.4641
# 2 -3.3154 116.5753 54.5522 16.8615 -15.8250 14.9757
# 3 11.7115 54.5522 134.1850 14.6626 -24.3631 16.3981
# 4 6.3027 16.8615 14.6626 44.3665 -10.0103 -1.6562
# 5 15.2803 -15.8250 -24.3631 -10.0103 73.2806 -9.9234
# 6 2.4641 14.9757 16.3981 -1.6562 -9.9234 32.1105
#
#
#
# Elastic Compliance Matrix: (Units=1/GPa)
#
#
# Indices 1 2 3 4 5 6 
#
# 1 0.022587 0.002370 -0.003163 -0.004623 -0.006345 -0.003422
# 2 0.002370 0.011517 -0.004106 -0.003580 -0.000370 -0.003755
# 3 -0.003163 -0.004106 0.010270 -0.000846 0.002764 -0.002277
# 4 -0.004623 -0.003580 -0.000846 0.025961 0.004143 0.005076
# 5 -0.006345 -0.000370 0.002764 0.004143 0.017013 0.004719
# 6 -0.003422 -0.003755 -0.002277 0.005076 0.004719 0.036039
#
#
# Mechanical properties :
#
#
# Convention : Reuss Voigt Hill
#
# Bulk Modulus (GPa) = 28.92281 47.65269 38.28775
# Shear Modulus (GPa) = 34.55149 45.95347 40.25248
#
# Velocity S-wave (km/s) = 3.88633 4.48194 4.19472
# Velocity P-wave (km/s) = 5.72549 6.90031 6.34017
#
# Compressibility (1/GPa) = 0.03457478
#
# Stress axis : x y z
#
# Youngs Moduli (GPa) = 44.27361 86.82769 97.36956
#
# Poissons Ratio (x) = -0.20576 0.30801
# Poissons Ratio (y) = -0.10492 0.39980
# Poissons Ratio (z) = 0.14005 0.35652
#
# Static dielectric constant tensor:
#      x y z
#    x 4.030800 -0.008250 0.080390 
#    y -0.008250 4.534650 -0.267860 
#    z 0.080390 -0.267860 4.617100 
# 
# 
# High freq. dielectric constant tensor:
#      x y z
#    x 1.882410 0.003590 0.001080 
#    y 0.003590 1.924450 -0.010700 
#    z 0.001080 -0.010700 1.928330 
# 
# From -- ./inp_files/539391.got.cif
#   From: 2010.06.25/outbox.cif.g09.slc.cpg/sg2_270_cif.got.tgz:539391.got - 2010.06.27 13:26:56.
