data_PCOD8033200
_publ_section_title
;
Structure prediction by ZEFSAII (Michael W. Deem and Ramdas Pophale) SiO2 
 PCOD8033200
Probable space group: P -1
;
_chemical_formula_sum "Si O2"
_cell_formula_units_Z 16
_cell_length_a 12.844824
_cell_length_b 8.755286
_cell_length_c 18.602492
_cell_angle_alpha 125.321593
_cell_angle_beta 43.472122
_cell_angle_gamma 149.048938
_cell_volume 734.453310
_symmetry_space_group_name_H-M "P -1"
_symmetry_group_IT_number 2
_symmetry_cell_setting 'triclinic'
loop_
_space_group_symop_operation_xyz
x,y,z
-x,-y,-z
loop_
_atom_site_type_symbol
_atom_site_label
_atom_site_fract_x
_atom_site_fract_y
_atom_site_fract_z
Si Si1 0.245737 0.342395 0.944906
Si Si2 0.962538 0.666006 0.595415
Si Si3 0.424932 0.663748 0.184385
Si Si4 0.401857 0.647798 0.806289
Si Si5 0.727575 0.295239 0.869771
Si Si6 0.247477 0.694171 0.759107
Si Si7 0.485673 0.285013 0.483450
Si Si8 0.765811 0.706637 0.578642
O O1 0.483050 0.459346 0.885080
O O2 0.253106 0.373802 0.862473
O O3 0.275188 0.583145 0.023760
O O4 0.000000 0.000000 0.000000
O O5 0.000000 0.500000 0.500000
O O6 0.816025 0.517788 0.701551
O O7 0.814546 0.657208 0.615481
O O8 0.221647 0.003705 0.571436
O O9 0.335181 0.615841 0.136147
O O10 0.653986 0.007256 0.188198
O O11 0.222435 0.555062 0.809101
O O12 0.596885 0.720580 0.682573
O O13 0.534893 0.940969 0.864615
O O14 0.994744 0.460763 0.779482
O O15 0.442586 0.797167 0.634370
O O16 0.500000 0.500000 0.500000
O O17 0.651946 0.437541 0.511814
O O18 0.000000 0.000000 0.500000
#
# Coordination Sequence:
#
# PCOD8033200 Si02
#       8
#     2   2   2   2   2   2   2   2
#     4  12  25  50  72 100 137 179 234 295 348 404
#     4  12  26  43  67 103 143 181 227 288 342 412
#     4  11  25  47  69 101 142 179 228 288 350 413
#     4  11  25  45  70 102 139 178 232 283 345 414
#     4  11  26  46  73  97 134 187 226 289 348 407
#     4  11  23  45  69 103 139 179 231 278 342 419
#     4  12  24  40  69 102 137 185 229 268 342 413
#     4  12  24  43  70 101 143 185 227 282 338 416
#
# _framework density 21.784908999999999
#
# number of rings (size 3 to 8) (size 9 to 14) (size 15 to 20)
#    0.000    0.500    6.250    1.500    3.500    3.000 
#    4.500    0.000    0.000    0.000    0.000    0.000 
#    0.000    0.000    0.000    0.000    0.000    0.000 
#
# Total GULP energy -198378.046731 kJ/mol
# GULP energy per Si atom -12398.627921 kJ/mol
# Density = 2.173533 g / cm^3
# Si number density = 21.784909 Si / 1000 Ang^3
#
#
#
# Elastic Constant Matrix: (Units=GPa)
#
#
# Indices 1 2 3 4 5 6 
#
# 1 93.9144 25.7996 19.6040 -11.3122 1.6114 8.0832
# 2 25.7996 91.0661 20.8016 -6.5576 6.2155 10.3065
# 3 19.6040 20.8016 101.1769 -6.2424 1.1318 -6.1588
# 4 -11.3122 -6.5576 -6.2424 37.9548 -5.1897 2.1219
# 5 1.6114 6.2155 1.1318 -5.1897 39.9209 1.3856
# 6 8.0832 10.3065 -6.1588 2.1219 1.3856 37.6400
#
#
#
# Elastic Compliance Matrix: (Units=1/GPa)
#
#
# Indices 1 2 3 4 5 6 
#
# 1 0.012319 -0.002609 -0.001810 0.003120 0.000450 -0.002420
# 2 -0.002609 0.012789 -0.002244 0.001033 -0.001573 -0.003309
# 3 -0.001810 -0.002244 0.010906 0.000729 0.000113 0.002743
# 4 0.003120 0.001033 0.000729 0.028189 0.003446 -0.002550
# 5 0.000450 -0.001573 0.000113 0.003446 0.025748 -0.000790
# 6 -0.002420 -0.003309 0.002743 -0.002550 -0.000790 0.028615
#
#
# Mechanical properties :
#
#
# Convention : Reuss Voigt Hill
#
# Bulk Modulus (GPa) = 44.07589 46.50753 45.29171
# Shear Modulus (GPa) = 35.85377 37.76663 36.81020
#
# Velocity S-wave (km/s) = 4.06126 4.16819 4.11507
# Velocity P-wave (km/s) = 6.50138 6.67532 6.58892
#
# Compressibility (1/GPa) = 0.02268814
#
# Stress axis : x y z
#
# Youngs Moduli (GPa) = 81.17602 78.19258 91.68874
#
# Poissons Ratio (x) = 0.20398 0.16600
# Poissons Ratio (y) = 0.21176 0.20575
# Poissons Ratio (z) = 0.14696 0.17546
#
# Static dielectric constant tensor:
#      x y z
#    x 4.484250 0.060800 0.075950 
#    y 0.060800 3.875420 0.215940 
#    z 0.075950 0.215940 4.297720 
# 
# 
# High freq. dielectric constant tensor:
#      x y z
#    x 1.869110 0.000070 -0.002110 
#    y 0.000070 1.851430 0.004170 
#    z -0.002110 0.004170 1.865750 
# 
# From -- ./inp_files/242033.got.cif
#   From: 2010.06.25/outbox.cif.g09.slc.cpg/sg2_122_cif.got.tgz:242033.got - 2010.06.27 13:26:56.
