data_PCOD8033600
_publ_section_title
;
Structure prediction by ZEFSAII (Michael W. Deem and Ramdas Pophale) SiO2 
 PCOD8033600
Probable space group: P -1
;
_chemical_formula_sum "Si O2"
_cell_formula_units_Z 16
_cell_length_a 16.374402
_cell_length_b 17.852287
_cell_length_c 7.619533
_cell_angle_alpha 35.788257
_cell_angle_beta 133.227031
_cell_angle_gamma 150.388869
_cell_volume 641.997192
_symmetry_space_group_name_H-M "P -1"
_symmetry_group_IT_number 2
_symmetry_cell_setting 'triclinic'
loop_
_space_group_symop_operation_xyz
x,y,z
-x,-y,-z
loop_
_atom_site_type_symbol
_atom_site_label
_atom_site_fract_x
_atom_site_fract_y
_atom_site_fract_z
Si Si1 0.005481 0.189217 0.792403
Si Si2 0.508741 0.902957 0.896982
Si Si3 0.886861 0.676920 0.932929
Si Si4 0.762389 0.018729 0.301227
Si Si5 0.841666 0.279932 0.211799
Si Si6 0.423223 0.325186 0.102808
Si Si7 0.804941 0.767626 0.325045
Si Si8 0.388028 0.734208 0.688570
O O1 0.099801 0.252922 0.623894
O O2 0.883719 0.209572 0.556553
O O3 0.133400 0.316037 0.901692
O O4 0.904050 0.980239 0.091945
O O5 0.311708 0.759067 0.890951
O O6 0.520681 0.845939 0.832318
O O7 0.613619 0.122348 0.657727
O O8 0.589819 0.877136 0.207179
O O9 0.782325 0.688114 0.636663
O O10 0.802103 0.467234 0.164474
O O11 0.079818 0.855389 0.832249
O O12 0.742382 0.874678 0.667341
O O13 0.784663 0.164142 0.170495
O O14 0.000000 0.500000 0.000000
O O15 0.547796 0.312778 0.272895
O O16 0.500000 0.500000 0.000000
O O17 0.371718 0.349019 0.799294
#
# Coordination Sequence:
#
# PCOD8033600 Si02
#       8
#     2   2   2   2   2   2   2   2
#     4  11  24  45  71 107 151 187 249 310 372 439
#     4  11  27  47  75 105 158 196 242 318 379 444
#     4  12  27  44  77 111 144 200 253 306 373 449
#     4  12  26  48  75 113 149 196 260 301 381 451
#     4  12  25  47  79 109 148 201 247 311 376 451
#     4  12  27  48  77 106 152 203 245 315 381 446
#     4  11  23  48  70 103 153 192 247 313 370 440
#     4  11  27  50  70 112 150 196 252 310 379 447
#
# _framework density 24.922225999999998
#
# number of rings (size 3 to 8) (size 9 to 14) (size 15 to 20)
#    0.000    0.500    3.750    3.000    8.750    2.000 
#    0.000    0.000    0.000    0.000    0.000    0.000 
#    0.000    0.000    0.000    0.000    0.000    0.000 
#
# Total GULP energy -198362.119438 kJ/mol
# GULP energy per Si atom -12397.632465 kJ/mol
# Density = 2.486550 g / cm^3
# Si number density = 24.922226 Si / 1000 Ang^3
#
#
#
# Elastic Constant Matrix: (Units=GPa)
#
#
# Indices 1 2 3 4 5 6 
#
# 1 63.0205 36.4345 28.9249 -10.2329 3.3998 -3.2252
# 2 36.4345 141.9411 60.6941 -3.0253 -3.5285 -9.8590
# 3 28.9249 60.6941 92.8651 -0.2908 -4.2905 1.7280
# 4 -10.2329 -3.0253 -0.2908 57.6025 -5.7812 -5.7180
# 5 3.3998 -3.5285 -4.2905 -5.7812 30.2687 -2.9278
# 6 -3.2252 -9.8590 1.7280 -5.7180 -2.9278 50.6860
#
#
#
# Elastic Compliance Matrix: (Units=1/GPa)
#
#
# Indices 1 2 3 4 5 6 
#
# 1 0.020512 -0.003333 -0.004339 0.003290 -0.002580 0.001027
# 2 -0.003333 0.010593 -0.005876 0.000250 0.001031 0.002136
# 3 -0.004339 -0.005876 0.016072 -0.001025 0.001693 -0.001985
# 4 0.003290 0.000250 -0.001025 0.018540 0.003304 0.002575
# 5 -0.002580 0.001031 0.001693 0.003304 0.034545 0.002347
# 6 0.001027 0.002136 -0.001985 0.002575 0.002347 0.020704
#
#
# Mechanical properties :
#
#
# Convention : Reuss Voigt Hill
#
# Bulk Modulus (GPa) = 49.79756 61.10374 55.45065
# Shear Modulus (GPa) = 32.30897 39.16300 35.73599
#
# Velocity S-wave (km/s) = 3.60445 3.96840 3.79080
# Velocity P-wave (km/s) = 6.11124 6.75045 6.43879
#
# Compressibility (1/GPa) = 0.02008130
#
# Stress axis : x y z
#
# Youngs Moduli (GPa) = 48.75228 94.40439 62.21860
#
# Poissons Ratio (x) = 0.31460 0.26995
# Poissons Ratio (y) = 0.16247 0.36563
# Poissons Ratio (z) = 0.21153 0.55477
#
# Static dielectric constant tensor:
#      x y z
#    x 4.585110 0.118970 0.146320 
#    y 0.118970 5.008170 0.310950 
#    z 0.146320 0.310950 4.799290 
# 
# 
# High freq. dielectric constant tensor:
#      x y z
#    x 1.979020 -0.012110 -0.001290 
#    y -0.012110 2.013310 -0.002770 
#    z -0.001290 -0.002770 1.990680 
# 
# From -- ./inp_files/336650.got.cif
#   From: 2010.06.25/outbox.cif.g09.slc.cpg/sg2_169_cif.got.tgz:336650.got - 2010.06.27 13:26:56.
