data_PCOD8033426
_publ_section_title
;
Structure prediction by ZEFSAII (Michael W. Deem and Ramdas Pophale) SiO2 
 PCOD8033426
Probable space group: P -1
;
_chemical_formula_sum "Si O2"
_cell_formula_units_Z 16
_cell_length_a 8.896470
_cell_length_b 14.231993
_cell_length_c 9.059223
_cell_angle_alpha 140.513333
_cell_angle_beta 68.147384
_cell_angle_gamma 104.259033
_cell_volume 675.350605
_symmetry_space_group_name_H-M "P -1"
_symmetry_group_IT_number 2
_symmetry_cell_setting 'triclinic'
loop_
_space_group_symop_operation_xyz
x,y,z
-x,-y,-z
loop_
_atom_site_type_symbol
_atom_site_label
_atom_site_fract_x
_atom_site_fract_y
_atom_site_fract_z
Si Si1 0.309411 0.000854 0.098437
Si Si2 0.788854 0.203777 0.610913
Si Si3 0.456316 0.248231 0.882978
Si Si4 0.812596 0.906047 0.055836
Si Si5 0.981991 0.647918 0.097091
Si Si6 0.873044 0.277113 0.168121
Si Si7 0.653548 0.409222 0.651268
Si Si8 0.358699 0.232816 0.593736
O O1 0.275230 0.115642 0.381172
O O2 0.197693 0.045028 0.050822
O O3 0.500000 0.000000 0.000000
O O4 0.253580 0.842519 0.977066
O O5 0.647742 0.215795 0.803902
O O6 0.951833 0.225288 0.668653
O O7 0.746515 0.335287 0.668262
O O8 0.816191 0.046073 0.331213
O O9 0.350017 0.178965 0.962922
O O10 0.441216 0.162820 0.626650
O O11 0.406352 0.422178 0.091370
O O12 0.971344 0.797827 0.893194
O O13 0.791235 0.668585 0.163288
O O14 0.070765 0.637883 0.894034
O O15 0.000000 0.500000 0.000000
O O16 0.777444 0.398080 0.454557
O O17 0.492351 0.322178 0.566365
#
# Coordination Sequence:
#
# PCOD8033426 Si02
#       8
#     2   2   2   2   2   2   2   2
#     4  12  25  46  73 107 144 186 246 302 356 426
#     4  11  24  44  75 101 147 191 248 297 363 435
#     4  11  24  45  72 106 143 195 245 295 366 436
#     4  12  26  45  71 112 146 193 241 297 371 432
#     4  12  27  46  72 110 145 189 245 304 365 427
#     4  12  27  47  72 108 151 191 239 299 375 433
#     4  11  24  48  74 100 150 198 240 296 366 445
#     4  11  23  46  71 102 142 187 244 305 354 423
#
# _framework density 23.691400999999999
#
# number of rings (size 3 to 8) (size 9 to 14) (size 15 to 20)
#    0.000    0.500    3.750    5.250    5.250    2.500 
#    0.000    1.875    0.000    0.000    0.000    0.000 
#    0.000    0.000    0.000    0.000    0.000    0.000 
#
# Total GULP energy -198364.422637 kJ/mol
# GULP energy per Si atom -12397.776415 kJ/mol
# Density = 2.363748 g / cm^3
# Si number density = 23.691401 Si / 1000 Ang^3
#
#
#
# Elastic Constant Matrix: (Units=GPa)
#
#
# Indices 1 2 3 4 5 6 
#
# 1 100.7211 23.0948 24.0138 -13.0031 -2.8459 13.2718
# 2 23.0948 102.0604 8.8500 -21.3576 -7.0892 13.4362
# 3 24.0138 8.8500 81.4816 -17.1842 1.2656 5.6359
# 4 -13.0031 -21.3576 -17.1842 31.8087 9.0811 -6.1548
# 5 -2.8459 -7.0892 1.2656 9.0811 31.5716 -11.8497
# 6 13.2718 13.4362 5.6359 -6.1548 -11.8497 23.0905
#
#
#
# Elastic Compliance Matrix: (Units=1/GPa)
#
#
# Indices 1 2 3 4 5 6 
#
# 1 0.011809 -0.001415 -0.002483 0.001953 -0.001896 -0.005811
# 2 -0.001415 0.012216 0.001100 0.007649 -0.001644 -0.005368
# 3 -0.002483 0.001100 0.014902 0.008398 -0.003987 -0.002658
# 4 0.001953 0.007649 0.008398 0.045002 -0.012071 -0.001822
# 5 -0.001896 -0.001644 -0.003987 -0.012071 0.042968 0.021852
# 6 -0.005811 -0.005368 -0.002658 -0.001822 0.021852 0.061148
#
#
# Mechanical properties :
#
#
# Convention : Reuss Voigt Hill
#
# Bulk Modulus (GPa) = 30.00247 44.02005 37.01126
# Shear Modulus (GPa) = 24.41971 32.51447 28.46709
#
# Velocity S-wave (km/s) = 3.21400 3.70863 3.47014
# Velocity P-wave (km/s) = 5.14436 6.07944 5.63134
#
# Compressibility (1/GPa) = 0.03333059
#
# Stress axis : x y z
#
# Youngs Moduli (GPa) = 84.68025 81.85919 67.10501
#
# Poissons Ratio (x) = 0.11583 0.16665
# Poissons Ratio (y) = 0.11982 -0.07382
# Poissons Ratio (z) = 0.21030 -0.09005
#
# Static dielectric constant tensor:
#      x y z
#    x 4.251220 0.280120 0.166350 
#    y 0.280120 4.263010 -0.012210 
#    z 0.166350 -0.012210 4.380250 
# 
# 
# High freq. dielectric constant tensor:
#      x y z
#    x 1.956630 0.019290 -0.002400 
#    y 0.019290 1.933570 -0.005860 
#    z -0.002400 -0.005860 1.937950 
# 
# From -- ./inp_files/209212.got.cif
#   From: 2010.06.25/outbox.cif.g09.slc.cpg/sg2_105_cif.got.tgz:209212.got - 2010.06.27 13:26:56.
