data_PCOD8033889
_publ_section_title
;
Structure prediction by ZEFSAII (Michael W. Deem and Ramdas Pophale) SiO2 
 PCOD8033889
Probable space group: P -1
;
_chemical_formula_sum "Si O2"
_cell_formula_units_Z 16
_cell_length_a 17.701874
_cell_length_b 11.926890
_cell_length_c 8.623617
_cell_angle_alpha 56.289247
_cell_angle_beta 131.447627
_cell_angle_gamma 149.849329
_cell_volume 684.733929
_symmetry_space_group_name_H-M "P -1"
_symmetry_group_IT_number 2
_symmetry_cell_setting 'triclinic'
loop_
_space_group_symop_operation_xyz
x,y,z
-x,-y,-z
loop_
_atom_site_type_symbol
_atom_site_label
_atom_site_fract_x
_atom_site_fract_y
_atom_site_fract_z
Si Si1 0.059075 0.202130 0.000429
Si Si2 0.293821 0.570305 0.515563
Si Si3 0.586707 0.990318 0.412443
Si Si4 0.363192 0.665735 0.886042
Si Si5 0.933360 0.314171 0.200738
Si Si6 0.663462 0.894517 0.322347
Si Si7 0.163897 0.196951 0.464654
Si Si8 0.139668 0.783775 0.154465
O O1 0.125643 0.250037 0.225694
O O2 0.188666 0.423606 0.901170
O O3 0.897548 0.125001 0.862483
O O4 0.000000 0.000000 0.000000
O O5 0.374631 0.645479 0.736198
O O6 0.101907 0.409502 0.376256
O O7 0.300747 0.424447 0.574783
O O8 0.401385 0.787706 0.388915
O O9 0.612485 0.145536 0.213208
O O10 0.714909 0.141318 0.615866
O O11 0.606658 0.870554 0.437965
O O12 0.508553 0.742833 0.112767
O O13 0.972680 0.514616 0.109541
O O14 0.811074 0.159150 0.295560
O O15 0.822435 0.145622 0.029459
O O16 0.747742 0.839798 0.456845
O O17 0.000000 0.000000 0.500000
#
# Coordination Sequence:
#
# PCOD8033889 Si02
#       8
#     2   2   2   2   2   2   2   2
#     4  12  26  44  72 105 148 184 239 295 358 426
#     4  12  25  46  75 101 147 190 237 296 355 418
#     4  12  27  45  73 108 149 182 238 302 358 419
#     4  12  28  46  71 108 148 186 238 300 359 420
#     4  11  24  43  74 102 139 188 242 291 354 425
#     4  12  27  45  72 104 146 187 238 292 364 418
#     4  12  25  48  73 102 142 190 244 291 346 427
#     4  11  24  42  72 103 138 186 241 286 360 417
#
# _framework density 23.366741999999999
#
# number of rings (size 3 to 8) (size 9 to 14) (size 15 to 20)
#    0.000    0.250    3.750    4.500    5.250    4.500 
#    0.000    0.000    0.000    0.000    0.000    0.000 
#    0.000    0.000    0.000    0.000    0.000    0.000 
#
# Total GULP energy -198337.709968 kJ/mol
# GULP energy per Si atom -12396.106873 kJ/mol
# Density = 2.331356 g / cm^3
# Si number density = 23.366742 Si / 1000 Ang^3
#
#
#
# Elastic Constant Matrix: (Units=GPa)
#
#
# Indices 1 2 3 4 5 6 
#
# 1 100.7397 29.6382 14.7796 -5.2433 -11.0929 -12.0290
# 2 29.6382 103.1484 18.8789 -10.2523 -11.5416 -0.2036
# 3 14.7796 18.8789 87.0958 8.6310 -8.8036 9.7600
# 4 -5.2433 -10.2523 8.6310 35.4432 0.5378 -3.5556
# 5 -11.0929 -11.5416 -8.8036 0.5378 33.6166 -1.0078
# 6 -12.0290 -0.2036 9.7600 -3.5556 -1.0078 43.0162
#
#
#
# Elastic Compliance Matrix: (Units=1/GPa)
#
#
# Indices 1 2 3 4 5 6 
#
# 1 0.011797 -0.002583 -0.001791 0.001786 0.002625 0.003902
# 2 -0.002583 0.011448 -0.002152 0.003432 0.002464 0.000162
# 3 -0.001791 -0.002152 0.013352 -0.004559 0.002124 -0.003867
# 4 0.001786 0.003432 -0.004559 0.030991 0.000201 0.004116
# 5 0.002625 0.002464 0.002124 0.000201 0.032044 0.001031
# 6 0.003902 0.000162 -0.003867 0.004116 0.001031 0.025581
#
#
# Mechanical properties :
#
#
# Convention : Reuss Voigt Hill
#
# Bulk Modulus (GPa) = 42.47218 46.39745 44.43481
# Shear Modulus (GPa) = 34.21990 37.59435 35.90712
#
# Velocity S-wave (km/s) = 3.83099 4.01544 3.92430
# Velocity P-wave (km/s) = 6.14691 6.43410 6.29214
#
# Compressibility (1/GPa) = 0.02354482
#
# Stress axis : x y z
#
# Youngs Moduli (GPa) = 84.76543 87.35057 74.89565
#
# Poissons Ratio (x) = 0.22563 0.13413
# Poissons Ratio (y) = 0.21895 0.16120
# Poissons Ratio (z) = 0.15181 0.18801
#
# Static dielectric constant tensor:
#      x y z
#    x 4.339300 -0.089930 -0.200450 
#    y -0.089930 4.367950 -0.087280 
#    z -0.200450 -0.087280 4.165320 
# 
# 
# High freq. dielectric constant tensor:
#      x y z
#    x 1.938750 -0.005480 -0.010150 
#    y -0.005480 1.928280 0.000530 
#    z -0.010150 0.000530 1.923670 
# 
# From -- ./inp_files/333062.got.cif
#   From: 2010.06.25/outbox.cif.g09.slc.cpg/sg2_167_cif.got.tgz:333062.got - 2010.06.27 13:26:56.
