data_PCOD8033179
_publ_section_title
;
Structure prediction by ZEFSAII (Michael W. Deem and Ramdas Pophale) SiO2 
 PCOD8033179
Probable space group: P -1
;
_chemical_formula_sum "Si O2"
_cell_formula_units_Z 14
_cell_length_a 17.814006
_cell_length_b 9.343746
_cell_length_c 11.411084
_cell_angle_alpha 62.739183
_cell_angle_beta 141.043612
_cell_angle_gamma 144.823024
_cell_volume 599.632652
_symmetry_space_group_name_H-M "P -1"
_symmetry_group_IT_number 2
_symmetry_cell_setting 'triclinic'
loop_
_space_group_symop_operation_xyz
x,y,z
-x,-y,-z
loop_
_atom_site_type_symbol
_atom_site_label
_atom_site_fract_x
_atom_site_fract_y
_atom_site_fract_z
Si Si1 0.308730 0.167289 0.869559
Si Si2 0.074042 0.082695 0.926076
Si Si3 0.951175 0.298956 0.668298
Si Si4 0.121978 0.296163 0.381434
Si Si5 0.160645 0.697022 0.228237
Si Si6 0.312283 0.914967 0.781442
Si Si7 0.582925 0.769847 0.780477
O O1 0.361367 0.132667 0.828747
O O2 0.500000 0.500000 0.000000
O O3 0.311968 0.060951 0.031305
O O4 0.065436 0.963136 0.657913
O O5 0.057478 0.243727 0.790925
O O6 0.309502 0.271560 0.128796
O O7 0.925539 0.800188 0.774971
O O8 0.000000 0.000000 0.000000
O O9 0.921198 0.274417 0.780278
O O10 0.732571 0.084717 0.408922
O O11 0.102487 0.610018 0.696728
O O12 0.195549 0.563611 0.379967
O O13 0.337461 0.443919 0.624166
O O14 0.377949 0.027437 0.327303
O O15 0.000000 0.500000 0.000000
O O16 0.500000 0.000000 0.000000
#
# Coordination Sequence:
#
# PCOD8033179 Si02
#       7
#     2   2   2   2   2   2   2
#     4  11  26  47  69 101 140 188 240 298 354 429
#     4  11  23  45  68 105 147 182 232 297 366 432
#     4  11  25  46  72 104 146 188 236 301 364 429
#     4  11  25  43  71 102 139 187 242 293 356 431
#     4  12  20  48  72 105 145 186 239 298 360 443
#     4  11  27  47  71 102 141 192 246 297 360 424
#     4  11  25  43  73 105 137 193 237 296 365 423
#
# _framework density 23.347626999999999
#
# number of rings (size 3 to 8) (size 9 to 14) (size 15 to 20)
#    0.000    0.857    5.714    0.429    8.000    1.143 
#    5.143    0.000    0.000    0.000    0.000    0.000 
#    0.000    0.000    0.000    0.000    0.000    0.000 
#
# Total GULP energy -173490.883695 kJ/mol
# GULP energy per Si atom -12392.205978 kJ/mol
# Density = 2.329449 g / cm^3
# Si number density = 23.347627 Si / 1000 Ang^3
#
#
#
# Elastic Constant Matrix: (Units=GPa)
#
#
# Indices 1 2 3 4 5 6 
#
# 1 137.5196 22.8606 74.9351 16.3174 -9.4515 -12.0903
# 2 22.8606 94.0506 26.7920 10.8335 10.0255 -15.4950
# 3 74.9351 26.7920 137.2641 8.3791 18.5473 -5.4275
# 4 16.3174 10.8335 8.3791 36.7256 4.6054 5.5967
# 5 -9.4515 10.0255 18.5473 4.6054 43.4484 1.1246
# 6 -12.0903 -15.4950 -5.4275 5.5967 1.1246 37.2192
#
#
#
# Elastic Compliance Matrix: (Units=1/GPa)
#
#
# Indices 1 2 3 4 5 6 
#
# 1 0.012642 -0.000550 -0.007213 -0.005132 0.006412 0.003404
# 2 -0.000550 0.012760 -0.001445 -0.003762 -0.002192 0.005555
# 3 -0.007213 -0.001445 0.012238 0.001859 -0.006625 -0.001239
# 4 -0.005132 -0.003762 0.001859 0.031887 -0.004224 -0.007629
# 5 0.006412 -0.002192 -0.006625 -0.004224 0.028192 -0.000012
# 6 0.003404 0.005555 -0.001239 -0.007629 -0.000012 0.031253
#
#
# Mechanical properties :
#
#
# Convention : Reuss Voigt Hill
#
# Bulk Modulus (GPa) = 52.01658 68.66775 60.34217
# Shear Modulus (GPa) = 32.51062 39.76175 36.13619
#
# Velocity S-wave (km/s) = 3.73562 4.13126 3.93841
# Velocity P-wave (km/s) = 6.39797 7.22712 6.82515
#
# Compressibility (1/GPa) = 0.01922464
#
# Stress axis : x y z
#
# Youngs Moduli (GPa) = 79.09946 78.37013 81.71546
#
# Poissons Ratio (x) = 0.04308 0.58940
# Poissons Ratio (y) = 0.04348 0.11808
# Poissons Ratio (z) = 0.57054 0.11324
#
# Static dielectric constant tensor:
#      x y z
#    x 4.458960 0.031730 -0.113470 
#    y 0.031730 4.383470 -0.162570 
#    z -0.113470 -0.162570 4.471690 
# 
# 
# High freq. dielectric constant tensor:
#      x y z
#    x 1.922260 -0.000470 -0.004830 
#    y -0.000470 1.931770 -0.006200 
#    z -0.004830 -0.006200 1.926100 
# 
# From -- ./inp_files/462061.got.cif
#   From: 2010.06.25/outbox.cif.g09.slc.cpg/sg2_232_cif.got.tgz:462061.got - 2010.06.27 13:26:56.
