data_PCOD8033819
_publ_section_title
;
Structure prediction by ZEFSAII (Michael W. Deem and Ramdas Pophale) SiO2 
 PCOD8033819
Probable space group: P -1
;
_chemical_formula_sum "Si O2"
_cell_formula_units_Z 16
_cell_length_a 18.873790
_cell_length_b 12.791878
_cell_length_c 9.005306
_cell_angle_alpha 102.229730
_cell_angle_beta 136.967388
_cell_angle_gamma 43.943762
_cell_volume 769.803712
_symmetry_space_group_name_H-M "P -1"
_symmetry_group_IT_number 2
_symmetry_cell_setting 'triclinic'
loop_
_space_group_symop_operation_xyz
x,y,z
-x,-y,-z
loop_
_atom_site_type_symbol
_atom_site_label
_atom_site_fract_x
_atom_site_fract_y
_atom_site_fract_z
Si Si1 0.840800 0.941012 0.396455
Si Si2 0.068914 0.929650 0.249866
Si Si3 0.173527 0.303686 0.104490
Si Si4 0.459664 0.261980 0.078543
Si Si5 0.044696 0.561200 0.485555
Si Si6 0.497705 0.475725 0.161381
Si Si7 0.265180 0.873234 0.026505
Si Si8 0.522872 0.135629 0.472310
O O1 0.993360 0.712363 0.544755
O O2 0.937771 0.949227 0.645024
O O3 0.649874 0.059461 0.218892
O O4 0.776494 0.043824 0.172466
O O5 0.284673 0.693661 0.498960
O O6 0.000000 0.000000 0.000000
O O7 0.936914 0.959017 0.143055
O O8 0.321757 0.267808 0.274047
O O9 0.298813 0.104835 0.323059
O O10 0.000000 0.500000 0.000000
O O11 0.077419 0.334346 0.821539
O O12 0.428880 0.415822 0.068932
O O13 0.481575 0.204227 0.262312
O O14 0.276422 0.363576 0.749872
O O15 0.000000 0.500000 0.500000
O O16 0.352487 0.678439 0.089292
O O17 0.500000 0.500000 0.000000
O O18 0.419972 0.810524 0.330544
#
# Coordination Sequence:
#
# PCOD8033819 Si02
#       8
#     2   2   2   2   2   2   2   2
#     4  11  25  43  70 102 136 180 224 280 343 402
#     4  11  25  44  67 104 139 177 224 278 340 405
#     4  11  27  48  69  97 138 179 233 286 346 405
#     4  11  25  43  70 101 140 173 229 282 342 405
#     4  12  26  46  71 105 130 180 234 284 340 407
#     4  11  24  42  68 103 135 177 227 275 338 409
#     4  12  23  42  72  95 138 180 225 281 336 406
#     4  11  26  46  67 101 136 180 228 285 346 404
#
# _framework density 20.784519
#
# number of rings (size 3 to 8) (size 9 to 14) (size 15 to 20)
#    0.000    0.750    5.000    2.625    5.250    4.500 
#    0.000    0.000    0.000    0.000    0.000    0.000 
#    0.000    0.000    0.000    0.000    0.000    0.000 
#
# Total GULP energy -198475.013153 kJ/mol
# GULP energy per Si atom -12404.688322 kJ/mol
# Density = 2.073721 g / cm^3
# Si number density = 20.784519 Si / 1000 Ang^3
#
#
#
# Elastic Constant Matrix: (Units=GPa)
#
#
# Indices 1 2 3 4 5 6 
#
# 1 111.4373 15.8590 45.9745 -14.9988 19.1755 3.4369
# 2 15.8590 62.0515 9.8870 -9.9250 5.7822 0.6880
# 3 45.9745 9.8870 135.9092 1.8825 12.4266 1.7367
# 4 -14.9988 -9.9250 1.8825 26.0508 9.1880 -0.1664
# 5 19.1755 5.7822 12.4266 9.1880 36.3941 -6.1800
# 6 3.4369 0.6880 1.7367 -0.1664 -6.1800 30.1708
#
#
#
# Elastic Compliance Matrix: (Units=1/GPa)
#
#
# Indices 1 2 3 4 5 6 
#
# 1 0.013891 -0.000169 -0.003946 0.011512 -0.009397 -0.003213
# 2 -0.000169 0.018148 -0.000920 0.008592 -0.004868 -0.001291
# 3 -0.003946 -0.000920 0.008802 -0.003272 0.000038 -0.000046
# 4 0.011512 0.008592 -0.003272 0.056029 -0.021373 -0.005388
# 5 -0.009397 -0.004868 0.000038 -0.021373 0.040162 0.009288
# 6 -0.003213 -0.001291 -0.000046 -0.005388 0.009288 0.035416
#
#
# Mechanical properties :
#
#
# Convention : Reuss Voigt Hill
#
# Bulk Modulus (GPa) = 32.49877 50.31544 41.40710
# Shear Modulus (GPa) = 25.93711 34.36829 30.15270
#
# Velocity S-wave (km/s) = 3.53640 4.07080 3.81298
# Velocity P-wave (km/s) = 5.68725 6.80852 6.27299
#
# Compressibility (1/GPa) = 0.03077040
#
# Stress axis : x y z
#
# Youngs Moduli (GPa) = 71.98825 55.10318 113.60977
#
# Poissons Ratio (x) = 0.00931 0.44830
# Poissons Ratio (y) = 0.01216 0.10457
# Poissons Ratio (z) = 0.28406 0.05072
#
# Static dielectric constant tensor:
#      x y z
#    x 3.983510 -0.145950 0.043080 
#    y -0.145950 3.659750 0.027780 
#    z 0.043080 0.027780 3.964770 
# 
# 
# High freq. dielectric constant tensor:
#      x y z
#    x 1.829640 0.002450 0.004090 
#    y 0.002450 1.811400 -0.003530 
#    z 0.004090 -0.003530 1.832730 
# 
# From -- ./inp_files/187249.got.cif
#   From: 2010.06.25/outbox.cif.g09.slc.cpg/sg2_94_cif.got.tgz:187249.got - 2010.06.27 13:26:56.
