data_PCOD8033354
_publ_section_title
;
Structure prediction by ZEFSAII (Michael W. Deem and Ramdas Pophale) SiO2 
 PCOD8033354
Probable space group: P -1
;
_chemical_formula_sum "Si O2"
_cell_formula_units_Z 14
_cell_length_a 14.927891
_cell_length_b 9.535511
_cell_length_c 11.903485
_cell_angle_alpha 42.073962
_cell_angle_beta 149.586127
_cell_angle_gamma 130.049149
_cell_volume 574.761012
_symmetry_space_group_name_H-M "P -1"
_symmetry_group_IT_number 2
_symmetry_cell_setting 'triclinic'
loop_
_space_group_symop_operation_xyz
x,y,z
-x,-y,-z
loop_
_atom_site_type_symbol
_atom_site_label
_atom_site_fract_x
_atom_site_fract_y
_atom_site_fract_z
Si Si1 0.581447 0.653424 0.281105
Si Si2 0.717690 0.043601 0.527289
Si Si3 0.431806 0.975175 0.092025
Si Si4 0.452244 0.351927 0.141368
Si Si5 0.886650 0.628707 0.968621
Si Si6 0.947112 0.677170 0.253535
Si Si7 0.209588 0.660169 0.154481
O O1 0.450325 0.796137 0.125845
O O2 0.463177 0.482461 0.190414
O O3 0.717766 0.534859 0.578520
O O4 0.671404 0.821100 0.190518
O O5 0.594748 0.165054 0.411637
O O6 0.918154 0.130804 0.695721
O O7 0.622994 0.060218 0.293033
O O8 0.730994 0.798335 0.718236
O O9 0.330356 0.869007 0.151325
O O10 0.500000 0.500000 0.000000
O O11 0.254218 0.256434 0.975796
O O12 0.816062 0.420443 0.953845
O O13 0.968895 0.583129 0.206942
O O14 0.030894 0.731367 0.978720
O O15 0.000000 0.500000 0.500000
#
# Coordination Sequence:
#
# PCOD8033354 Si02
#       7
#     2   2   2   2   2   2   2
#     4  11  23  45  76 110 147 193 257 304 373 454
#     4  12  26  47  68 111 147 189 253 299 374 454
#     4  11  24  44  78 110 145 198 252 306 377 448
#     4  12  25  45  75 109 146 199 246 299 383 445
#     4  11  27  49  68 112 146 193 256 309 378 448
#     4  12  26  47  73 103 156 191 240 315 364 441
#     4  11  25  48  78 104 153 197 250 317 375 440
#
# _framework density 24.357951
#
# number of rings (size 3 to 8) (size 9 to 14) (size 15 to 20)
#    0.000    0.571    4.286    2.571    4.000    1.714 
#    0.000    1.429    0.000    0.000    0.000    0.000 
#    0.000    0.000    0.000    0.000    0.000    0.000 
#
# Total GULP energy -173527.075423 kJ/mol
# GULP energy per Si atom -12394.791102 kJ/mol
# Density = 2.430251 g / cm^3
# Si number density = 24.357951 Si / 1000 Ang^3
#
#
#
# Elastic Constant Matrix: (Units=GPa)
#
#
# Indices 1 2 3 4 5 6 
#
# 1 86.8200 70.2657 50.0957 11.9705 -10.0429 4.1337
# 2 70.2657 102.3827 48.9308 13.8451 6.9188 -14.9232
# 3 50.0957 48.9308 108.8242 -1.0940 -5.1455 7.1977
# 4 11.9705 13.8451 -1.0940 46.4481 1.3152 0.6196
# 5 -10.0429 6.9188 -5.1455 1.3152 53.7058 7.3594
# 6 4.1337 -14.9232 7.1977 0.6196 7.3594 49.7884
#
#
#
# Elastic Compliance Matrix: (Units=1/GPa)
#
#
# Indices 1 2 3 4 5 6 
#
# 1 0.036509 -0.025229 -0.004179 -0.002153 0.011324 -0.011636
# 2 -0.025229 0.032475 -0.004486 -0.003156 -0.011196 0.014171
# 3 -0.004179 -0.004486 0.013437 0.002732 0.001454 -0.003189
# 4 -0.002153 -0.003156 0.002732 0.023111 -0.000104 -0.001434
# 5 0.011324 -0.011196 0.001454 -0.000104 0.023413 -0.007966
# 6 -0.011636 0.014171 -0.003189 -0.001434 -0.007966 0.026955
#
#
# Mechanical properties :
#
#
# Convention : Reuss Voigt Hill
#
# Bulk Modulus (GPa) = 68.34294 70.73458 69.53876
# Shear Modulus (GPa) = 21.87544 38.57078 30.22311
#
# Velocity S-wave (km/s) = 3.00005 3.98364 3.52631
# Velocity P-wave (km/s) = 6.33396 7.08956 6.72238
#
# Compressibility (1/GPa) = 0.01463209
#
# Stress axis : x y z
#
# Youngs Moduli (GPa) = 27.39081 30.79283 74.41958
#
# Poissons Ratio (x) = 0.77687 0.31100
# Poissons Ratio (y) = 0.69104 0.33388
# Poissons Ratio (z) = 0.11447 0.13815
#
# Static dielectric constant tensor:
#      x y z
#    x 4.364740 -0.667230 -0.258090 
#    y -0.667230 2.748380 -0.498220 
#    z -0.258090 -0.498220 4.260530 
# 
# 
# High freq. dielectric constant tensor:
#      x y z
#    x 1.969650 -0.007740 -0.009270 
#    y -0.007740 1.980650 0.001370 
#    z -0.009270 0.001370 1.958580 
# 
# From -- ./inp_files/446867.got.cif
#   From: 2010.06.25/outbox.cif.g09.slc.cpg/sg2_224_cif.got.tgz:446867.got - 2010.06.27 13:26:56.
