data_PCOD8033186
_publ_section_title
;
Structure prediction by ZEFSAII (Michael W. Deem and Ramdas Pophale) SiO2 
 PCOD8033186
Probable space group: P -1
;
_chemical_formula_sum "Si O2"
_cell_formula_units_Z 16
_cell_length_a 18.984846
_cell_length_b 11.058281
_cell_length_c 9.343279
_cell_angle_alpha 73.298338
_cell_angle_beta 143.446539
_cell_angle_gamma 131.754099
_cell_volume 723.693999
_symmetry_space_group_name_H-M "P -1"
_symmetry_group_IT_number 2
_symmetry_cell_setting 'triclinic'
loop_
_space_group_symop_operation_xyz
x,y,z
-x,-y,-z
loop_
_atom_site_type_symbol
_atom_site_label
_atom_site_fract_x
_atom_site_fract_y
_atom_site_fract_z
Si Si1 0.243412 0.318162 0.450166
Si Si2 0.959279 0.507504 0.235483
Si Si3 0.795343 0.486259 0.239527
Si Si4 0.091165 0.796571 0.125103
Si Si5 0.559039 0.722762 0.724953
Si Si6 0.596438 0.781788 0.427564
Si Si7 0.821782 0.772555 0.304763
Si Si8 0.308432 0.901590 0.175558
O O1 0.360399 0.540596 0.533834
O O2 0.312321 0.269160 0.469048
O O3 0.264213 0.284632 0.657573
O O4 0.032945 0.183802 0.126228
O O5 0.910484 0.572665 0.251795
O O6 0.151516 0.594342 0.553796
O O7 0.976787 0.596959 0.087105
O O8 0.790211 0.269226 0.042333
O O9 0.868447 0.665313 0.386794
O O10 0.579167 0.319058 0.915821
O O11 0.165458 0.789080 0.109121
O O12 0.258798 0.986493 0.428366
O O13 0.545857 0.718313 0.533151
O O14 0.650633 0.923372 0.873247
O O15 0.677218 0.698294 0.974366
O O16 0.000000 0.000000 0.500000
O O17 0.500000 0.000000 0.500000
#
# Coordination Sequence:
#
# PCOD8033186 Si02
#       8
#     2   2   2   2   2   2   2   2
#     4  12  24  43  69 103 138 175 230 284 343 403
#     4  11  24  43  68  99 135 187 222 283 334 405
#     4  11  25  44  65  94 143 175 230 276 341 402
#     4  11  24  41  69 100 132 177 234 276 339 408
#     4  11  24  43  71 101 134 183 226 280 341 403
#     4  11  24  43  68 103 137 179 225 281 342 406
#     4  12  26  44  67 100 139 177 226 286 343 403
#     4  11  23  45  68  99 135 177 230 280 338 406
#
# _framework density 22.108792000000001
#
# number of rings (size 3 to 8) (size 9 to 14) (size 15 to 20)
#    0.000    0.750    1.250    7.500    3.500    1.500 
#    0.000    0.000    0.000    0.000    0.000    0.000 
#    0.000    0.000    0.000    0.000    0.000    0.000 
#
# Total GULP energy -198440.308532 kJ/mol
# GULP energy per Si atom -12402.519283 kJ/mol
# Density = 2.205847 g / cm^3
# Si number density = 22.108792 Si / 1000 Ang^3
#
#
#
# Elastic Constant Matrix: (Units=GPa)
#
#
# Indices 1 2 3 4 5 6 
#
# 1 80.7662 35.5194 29.5529 2.2785 6.7860 -1.4408
# 2 35.5194 94.4271 13.0281 10.6910 -7.9281 5.1088
# 3 29.5529 13.0281 118.3365 -4.9849 11.0249 -3.1385
# 4 2.2785 10.6910 -4.9849 38.4258 -9.5267 0.7383
# 5 6.7860 -7.9281 11.0249 -9.5267 36.9509 -3.3884
# 6 -1.4408 5.1088 -3.1385 0.7383 -3.3884 29.8056
#
#
#
# Elastic Compliance Matrix: (Units=1/GPa)
#
#
# Indices 1 2 3 4 5 6 
#
# 1 0.016522 -0.006068 -0.003131 -0.000574 -0.003446 0.001132
# 2 -0.006068 0.013632 -0.000462 -0.002634 0.003293 -0.002239
# 3 -0.003131 -0.000462 0.009535 0.001032 -0.002041 0.000674
# 4 -0.000574 -0.002634 0.001032 0.028562 0.006650 0.000581
# 5 -0.003446 0.003293 -0.002041 0.006650 0.030946 0.002407
# 6 0.001132 -0.002239 0.000674 0.000581 0.002407 0.034320
#
#
# Mechanical properties :
#
#
# Convention : Reuss Voigt Hill
#
# Bulk Modulus (GPa) = 49.10335 49.97004 49.53670
# Shear Modulus (GPa) = 31.32249 35.39842 33.36046
#
# Velocity S-wave (km/s) = 3.76805 4.00572 3.88870
# Velocity P-wave (km/s) = 6.41787 6.63666 6.52818
#
# Compressibility (1/GPa) = 0.02036521
#
# Stress axis : x y z
#
# Youngs Moduli (GPa) = 60.52622 73.35437 104.87824
#
# Poissons Ratio (x) = 0.44514 0.32838
# Poissons Ratio (y) = 0.36730 0.04850
# Poissons Ratio (z) = 0.18951 0.03392
#
# Static dielectric constant tensor:
#      x y z
#    x 4.007590 -0.147770 0.100630 
#    y -0.147770 4.026480 0.093510 
#    z 0.100630 0.093510 4.293120 
# 
# 
# High freq. dielectric constant tensor:
#      x y z
#    x 1.872520 -0.010550 0.007540 
#    y -0.010550 1.867750 0.003470 
#    z 0.007540 0.003470 1.883600 
# 
# From -- ./inp_files/333303.got.cif
#   From: 2010.06.25/outbox.cif.g09.slc.cpg/sg2_167_cif.got.tgz:333303.got - 2010.06.27 13:26:56.
