data_PCOD8033874
_publ_section_title
;
Structure prediction by ZEFSAII (Michael W. Deem and Ramdas Pophale) SiO2 
 PCOD8033874
Probable space group: P -1
;
_chemical_formula_sum "Si O2"
_cell_formula_units_Z 16
_cell_length_a 17.892293
_cell_length_b 9.156367
_cell_length_c 6.596359
_cell_angle_alpha 47.602436
_cell_angle_beta 89.807614
_cell_angle_gamma 98.112676
_cell_volume 782.866427
_symmetry_space_group_name_H-M "P -1"
_symmetry_group_IT_number 2
_symmetry_cell_setting 'triclinic'
loop_
_space_group_symop_operation_xyz
x,y,z
-x,-y,-z
loop_
_atom_site_type_symbol
_atom_site_label
_atom_site_fract_x
_atom_site_fract_y
_atom_site_fract_z
Si Si1 0.204730 0.836786 0.507062
Si Si2 0.550502 0.551655 0.253447
Si Si3 0.959366 0.186010 0.326904
Si Si4 0.051550 0.524172 0.280575
Si Si5 0.291092 0.168078 0.896892
Si Si6 0.300795 0.831033 0.904204
Si Si7 0.455687 0.779870 0.749476
Si Si8 0.209708 0.517122 0.479638
O O1 0.119276 0.875619 0.490798
O O2 0.237109 0.818118 0.746332
O O3 0.199544 0.623805 0.593232
O O4 0.257878 0.018568 0.218229
O O5 0.500000 0.500000 0.500000
O O6 0.632436 0.684818 0.173215
O O7 0.562854 0.344471 0.342728
O O8 0.507153 0.673847 0.990453
O O9 0.018681 0.358539 0.273122
O O10 0.944177 0.257511 0.030801
O O11 0.000000 0.000000 0.500000
O O12 0.134910 0.494078 0.366410
O O13 0.000000 0.500000 0.500000
O O14 0.227408 0.296844 0.722047
O O15 0.309566 0.046320 0.813680
O O16 0.378871 0.799779 0.840041
O O17 0.279011 0.651730 0.232318
O O18 0.500000 0.000000 0.500000
#
# Coordination Sequence:
#
# PCOD8033874 Si02
#       8
#     2   2   2   2   2   2   2   2
#     4  11  24  43  62  94 134 165 219 264 323 382
#     4  11  24  44  66 100 130 168 220 257 320 383
#     4  11  26  42  66  97 127 170 215 272 320 381
#     4  11  24  44  66  94 129 170 219 262 326 380
#     4  11  26  40  66  97 126 174 212 263 322 383
#     4  11  24  43  63  95 132 166 216 263 323 379
#     4  11  24  42  70  95 130 170 209 270 315 380
#     4  11  24  43  65  92 131 173 211 269 318 384
#
# _framework density 20.437711
#
# number of rings (size 3 to 8) (size 9 to 14) (size 15 to 20)
#    0.000    1.000    2.500    3.000    3.500    8.500 
#    0.000    0.000    0.000    0.000    0.000    0.000 
#    0.000    0.000    0.000    0.000    0.000    0.000 
#
# Total GULP energy -198472.511945 kJ/mol
# GULP energy per Si atom -12404.531997 kJ/mol
# Density = 2.039119 g / cm^3
# Si number density = 20.437711 Si / 1000 Ang^3
#
#
#
# Elastic Constant Matrix: (Units=GPa)
#
#
# Indices 1 2 3 4 5 6 
#
# 1 116.5308 52.6016 24.8929 -1.5928 -7.6326 -11.0069
# 2 52.6016 115.9284 45.3332 9.6125 3.2734 -6.7564
# 3 24.8929 45.3332 87.0966 2.5435 -3.3864 -12.0222
# 4 -1.5928 9.6125 2.5435 31.3584 -3.3893 0.7775
# 5 -7.6326 3.2734 -3.3864 -3.3893 41.6230 1.2368
# 6 -11.0069 -6.7564 -12.0222 0.7775 1.2368 44.7936
#
#
#
# Elastic Compliance Matrix: (Units=1/GPa)
#
#
# Indices 1 2 3 4 5 6 
#
# 1 0.011374 -0.005236 -0.000243 0.002441 0.002622 0.001825
# 2 -0.005236 0.013613 -0.005656 -0.004270 -0.002821 -0.000600
# 3 -0.000243 -0.005656 0.014959 0.000603 0.001576 0.003048
# 4 0.002441 -0.004270 0.000603 0.033676 0.003591 -0.000566
# 5 0.002622 -0.002821 0.001576 0.003591 0.025152 -0.000115
# 6 0.001825 -0.000600 0.003048 -0.000566 -0.000115 0.023514
#
#
# Mechanical properties :
#
#
# Convention : Reuss Voigt Hill
#
# Bulk Modulus (GPa) = 56.57554 62.80124 59.68839
# Shear Modulus (GPa) = 33.23353 36.67020 34.95187
#
# Velocity S-wave (km/s) = 4.03685 4.24044 4.13990
# Velocity P-wave (km/s) = 7.03351 7.40067 7.21943
#
# Compressibility (1/GPa) = 0.01767548
#
# Stress axis : x y z
#
# Youngs Moduli (GPa) = 87.91680 73.46166 66.84728
#
# Poissons Ratio (x) = 0.38465 0.01624
# Poissons Ratio (y) = 0.46034 0.37812
# Poissons Ratio (z) = 0.02136 0.41553
#
# Static dielectric constant tensor:
#      x y z
#    x 3.487330 -0.029730 0.267530 
#    y -0.029730 3.880270 0.128410 
#    z 0.267530 0.128410 3.675470 
# 
# 
# High freq. dielectric constant tensor:
#      x y z
#    x 1.818160 0.002630 -0.002360 
#    y 0.002630 1.808560 0.003820 
#    z -0.002360 0.003820 1.810390 
# 
# From -- ./inp_files/14288.got.cif
#   From: 2010.06.25/outbox.cif.g09.slc.cpg/sg2_8_cif.got.tgz:14288.got - 2010.06.27 13:26:56.
