data_PCOD8033361
_publ_section_title
;
Structure prediction by ZEFSAII (Michael W. Deem and Ramdas Pophale) SiO2 
 PCOD8033361
Probable space group: P -1
;
_chemical_formula_sum "Si O2"
_cell_formula_units_Z 14
_cell_length_a 11.526264
_cell_length_b 9.133552
_cell_length_c 19.825999
_cell_angle_alpha 28.164484
_cell_angle_beta 143.390859
_cell_angle_gamma 140.695666
_cell_volume 571.070218
_symmetry_space_group_name_H-M "P -1"
_symmetry_group_IT_number 2
_symmetry_cell_setting 'triclinic'
loop_
_space_group_symop_operation_xyz
x,y,z
-x,-y,-z
loop_
_atom_site_type_symbol
_atom_site_label
_atom_site_fract_x
_atom_site_fract_y
_atom_site_fract_z
Si Si1 0.791708 0.421189 0.393642
Si Si2 0.871439 0.637508 0.191811
Si Si3 0.644515 0.740182 0.548731
Si Si4 0.234037 0.345490 0.500057
Si Si5 0.113772 0.640276 0.111118
Si Si6 0.238096 0.777880 0.812239
Si Si7 0.520544 0.210072 0.859253
O O1 0.795195 0.578264 0.256991
O O2 0.623668 0.545884 0.305762
O O3 0.000000 0.500000 0.500000
O O4 0.725256 0.041040 0.512038
O O5 0.729484 0.450317 0.141761
O O6 0.075726 0.527585 0.325202
O O7 0.916631 0.005780 0.043234
O O8 0.411645 0.604493 0.513285
O O9 0.674319 0.827099 0.448345
O O10 0.757859 0.455958 0.728854
O O11 0.134299 0.058268 0.621367
O O12 0.246331 0.604343 0.120314
O O13 0.894564 0.399834 0.114320
O O14 0.455400 0.955057 0.870811
O O15 0.500000 0.000000 0.000000
#
# Coordination Sequence:
#
# PCOD8033361 Si02
#       7
#     2   2   2   2   2   2   2
#     4  12  27  50  79 109 151 208 245 307 380 448
#     4  12  25  47  77 113 145 198 256 304 385 434
#     4  11  24  46  75 112 151 193 256 305 373 444
#     4  11  23  45  77 114 149 191 249 320 365 439
#     4  12  26  48  75 110 148 198 249 307 381 440
#     4  12  25  49  81 106 154 196 250 322 364 446
#     4  12  28  53  71 108 156 197 251 307 382 448
#
# _framework density 24.515374999999999
#
# number of rings (size 3 to 8) (size 9 to 14) (size 15 to 20)
#    0.000    0.286    5.714    3.429    0.000    2.857 
#    7.714    0.000    0.000    0.000    0.000    0.000 
#    0.000    0.000    0.000    0.000    0.000    0.000 
#
# Total GULP energy -173501.322493 kJ/mol
# GULP energy per Si atom -12392.951607 kJ/mol
# Density = 2.445958 g / cm^3
# Si number density = 24.515375 Si / 1000 Ang^3
#
#
#
# Elastic Constant Matrix: (Units=GPa)
#
#
# Indices 1 2 3 4 5 6 
#
# 1 126.2304 33.0299 24.4558 -23.3356 -21.1447 4.5118
# 2 33.0299 116.8930 35.5022 -26.4589 -5.5587 -11.1353
# 3 24.4558 35.5022 124.2653 -33.0332 -17.4894 -5.6809
# 4 -23.3356 -26.4589 -33.0332 28.8659 0.3996 -6.2842
# 5 -21.1447 -5.5587 -17.4894 0.3996 41.9156 -4.0831
# 6 4.5118 -11.1353 -5.6809 -6.2842 -4.0831 33.5856
#
#
#
# Elastic Compliance Matrix: (Units=1/GPa)
#
#
# Indices 1 2 3 4 5 6 
#
# 1 0.010604 -0.000888 0.001668 0.009829 0.005943 0.001125
# 2 -0.000888 0.012243 0.000662 0.012740 0.002004 0.006918
# 3 0.001668 0.000662 0.014025 0.019402 0.007266 0.006881
# 4 0.009829 0.012740 0.019402 0.081334 0.016245 0.023379
# 5 0.005943 0.002004 0.007266 0.016245 0.030765 0.007875
# 6 0.001125 0.006918 0.006881 0.023379 0.007875 0.038413
#
#
# Mechanical properties :
#
#
# Convention : Reuss Voigt Hill
#
# Bulk Modulus (GPa) = 25.15466 61.48494 43.31980
# Shear Modulus (GPa) = 25.28421 39.16683 32.22552
#
# Velocity S-wave (km/s) = 3.21497 4.00139 3.62954
# Velocity P-wave (km/s) = 4.90555 6.81783 5.93916
#
# Compressibility (1/GPa) = 0.03975407
#
# Stress axis : x y z
#
# Youngs Moduli (GPa) = 94.30685 81.68162 71.30195
#
# Poissons Ratio (x) = 0.07254 -0.11890
# Poissons Ratio (y) = 0.08376 -0.04720
# Poissons Ratio (z) = -0.15726 -0.05407
#
# Static dielectric constant tensor:
#      x y z
#    x 4.658510 0.040020 -0.144800 
#    y 0.040020 4.509270 -0.071210 
#    z -0.144800 -0.071210 4.471770 
# 
# 
# High freq. dielectric constant tensor:
#      x y z
#    x 1.984040 0.006330 -0.015120 
#    y 0.006330 1.964130 -0.003710 
#    z -0.015120 -0.003710 1.982340 
# 
# From -- ./inp_files/593366.got.cif
#   From: 2010.06.25/outbox.cif.g09.slc.cpg/sg2_297_cif.got.tgz:593366.got - 2010.06.27 13:26:56.
