data_PCOD8033352
_publ_section_title
;
Structure prediction by ZEFSAII (Michael W. Deem and Ramdas Pophale) SiO2 
 PCOD8033352
Probable space group: P -1
;
_chemical_formula_sum "Si O2"
_cell_formula_units_Z 12
_cell_length_a 8.637733
_cell_length_b 24.306010
_cell_length_c 26.822963
_cell_angle_alpha 170.391062
_cell_angle_beta 29.834065
_cell_angle_gamma 151.091646
_cell_volume 453.750069
_symmetry_space_group_name_H-M "P -1"
_symmetry_group_IT_number 2
_symmetry_cell_setting 'triclinic'
loop_
_space_group_symop_operation_xyz
x,y,z
-x,-y,-z
loop_
_atom_site_type_symbol
_atom_site_label
_atom_site_fract_x
_atom_site_fract_y
_atom_site_fract_z
Si Si1 0.032418 0.815556 0.705127
Si Si2 0.499921 0.649461 0.506059
Si Si3 0.924661 0.309691 0.020636
Si Si4 0.529072 0.314455 0.735954
Si Si5 0.734775 0.455177 0.700735
Si Si6 0.961374 0.612393 0.179451
O O1 0.260804 0.804956 0.678937
O O2 0.182996 0.754839 0.555959
O O3 0.691665 0.550832 0.572150
O O4 0.987825 0.200619 0.060494
O O5 0.805218 0.931563 0.693466
O O6 0.623304 0.385136 0.201154
O O7 0.050589 0.588585 0.191408
O O8 0.227686 0.351444 0.010197
O O9 0.673112 0.226503 0.564130
O O10 0.500000 0.000000 0.500000
O O11 0.192439 0.418795 0.911461
O O12 0.409961 0.585122 0.898188
O O13 0.000000 0.000000 0.500000
#
# Coordination Sequence:
#
# PCOD8033352 Si02
#       6
#     2   2   2   2   2   2
#     4  11  23  45  76 111 141 190 253 317 365 438
#     4  11  23  45  76 109 145 191 248 311 380 440
#     4  12  25  46  73 110 149 197 241 307 384 447
#     4  12  29  48  73 110 158 204 243 306 384 450
#     4  12  25  46  75 110 145 193 256 309 362 443
#     4  12  25  46  75 108 144 199 259 308 356 443
#
# _framework density 26.446279000000001
#
# number of rings (size 3 to 8) (size 9 to 14) (size 15 to 20)
#    0.000    0.333    3.333    5.000    0.000    6.667 
#    0.000    5.000    0.000    0.000    0.000    0.000 
#    0.000    0.000    0.000    0.000    0.000    0.000 
#
# Total GULP energy -148816.698097 kJ/mol
# GULP energy per Si atom -12401.391508 kJ/mol
# Density = 2.638609 g / cm^3
# Si number density = 26.446279 Si / 1000 Ang^3
#
#
#
# Elastic Constant Matrix: (Units=GPa)
#
#
# Indices 1 2 3 4 5 6 
#
# 1 58.5905 19.7151 2.0352 13.3127 19.3980 -12.7636
# 2 19.7151 123.0279 25.5365 14.5334 2.2361 -29.9070
# 3 2.0352 25.5365 99.6689 11.7385 7.0243 -6.9439
# 4 13.3127 14.5334 11.7385 35.4991 -5.3987 5.1840
# 5 19.3980 2.2361 7.0243 -5.3987 41.5007 -2.7365
# 6 -12.7636 -29.9070 -6.9439 5.1840 -2.7365 49.9568
#
#
#
# Elastic Compliance Matrix: (Units=1/GPa)
#
#
# Indices 1 2 3 4 5 6 
#
# 1 0.026772 -0.001288 0.002893 -0.013674 -0.014244 0.007110
# 2 -0.001288 0.010731 -0.001804 -0.004203 0.000197 0.006291
# 3 0.002893 -0.001804 0.011383 -0.004902 -0.003717 0.001547
# 4 -0.013674 -0.004203 -0.004902 0.039946 0.011973 -0.010180
# 5 -0.014244 0.000197 -0.003717 0.011973 0.032700 -0.003489
# 6 0.007110 0.006291 0.001547 -0.010180 -0.003489 0.026680
#
#
# Mechanical properties :
#
#
# Convention : Reuss Voigt Hill
#
# Bulk Modulus (GPa) = 20.62339 41.76232 31.19285
# Shear Modulus (GPa) = 30.34450 40.99134 35.66792
#
# Velocity S-wave (km/s) = 3.39101 3.94126 3.67644
# Velocity P-wave (km/s) = 4.81114 6.04458 5.46279
#
# Compressibility (1/GPa) = 0.04848864
#
# Stress axis : x y z
#
# Youngs Moduli (GPa) = 37.35233 93.18480 87.84760
#
# Poissons Ratio (x) = 0.12004 -0.25414
# Poissons Ratio (y) = 0.04812 0.15846
# Poissons Ratio (z) = -0.10806 0.16809
#
# Static dielectric constant tensor:
#      x y z
#    x 5.065650 0.046210 -0.025600 
#    y 0.046210 5.069710 0.067430 
#    z -0.025600 0.067430 4.378130 
# 
# 
# High freq. dielectric constant tensor:
#      x y z
#    x 2.070570 -0.009120 0.003900 
#    y -0.009120 2.071220 0.007260 
#    z 0.003900 0.007260 2.054710 
# 
# From -- ./inp_files/229397.got.cif
#   From: 2010.06.25/outbox.cif.g09.slc.cpg/sg2_115_cif.got.tgz:229397.got - 2010.06.27 13:26:56.
