data_PCOD8033306
_publ_section_title
;
Structure prediction by ZEFSAII (Michael W. Deem and Ramdas Pophale) SiO2 
 PCOD8033306
Probable space group: P -1
;
_chemical_formula_sum "Si O2"
_cell_formula_units_Z 10
_cell_length_a 11.118013
_cell_length_b 11.140788
_cell_length_c 8.896790
_cell_angle_alpha 41.113544
_cell_angle_beta 106.321771
_cell_angle_gamma 136.334158
_cell_volume 407.056479
_symmetry_space_group_name_H-M "P -1"
_symmetry_group_IT_number 2
_symmetry_cell_setting 'triclinic'
loop_
_space_group_symop_operation_xyz
x,y,z
-x,-y,-z
loop_
_atom_site_type_symbol
_atom_site_label
_atom_site_fract_x
_atom_site_fract_y
_atom_site_fract_z
Si Si1 0.123060 0.778711 0.614762
Si Si2 0.195520 0.337053 0.820779
Si Si3 0.593845 0.768068 0.973348
Si Si4 0.833525 0.564448 0.953470
Si Si5 0.276991 0.762009 0.229118
O O1 0.045694 0.823608 0.678480
O O2 0.917822 0.479833 0.725687
O O3 0.304089 0.095238 0.286096
O O4 0.229082 0.722518 0.775510
O O5 0.258312 0.592619 0.514956
O O6 0.397880 0.436487 0.789259
O O7 0.125484 0.293520 0.007464
O O8 0.000000 0.000000 0.000000
O O9 0.734379 0.052547 0.872011
O O10 0.353887 0.557895 0.088878
O O11 0.500000 0.000000 0.000000
#
# Coordination Sequence:
#
# PCOD8033306 Si02
#       5
#     2   2   2   2   2
#     4  11  23  45  74 103 142 189 233 296 351 423
#     4  12  26  46  74 105 146 190 235 297 358 424
#     4  12  24  46  76 104 145 185 242 294 356 421
#     4  11  25  44  72 109 140 190 240 290 358 423
#     4  12  25  48  74 104 143 190 239 290 358 425
#
# _framework density 24.566617999999998
#
# number of rings (size 3 to 8) (size 9 to 14) (size 15 to 20)
#    0.000    0.400    6.000    3.000    0.000    1.600 
#    0.000    0.000    0.000    0.000    0.000    0.000 
#    0.000    0.000    0.000    0.000    0.000    0.000 
#
# Total GULP energy -124055.585596 kJ/mol
# GULP energy per Si atom -12405.558560 kJ/mol
# Density = 2.451070 g / cm^3
# Si number density = 24.566618 Si / 1000 Ang^3
#
#
#
# Elastic Constant Matrix: (Units=GPa)
#
#
# Indices 1 2 3 4 5 6 
#
# 1 156.7348 33.9556 8.6179 11.3828 -0.6459 -10.9470
# 2 33.9556 83.3035 -12.9896 10.8148 1.9372 -12.6188
# 3 8.6179 -12.9896 33.8950 9.1174 -13.6451 -14.3701
# 4 11.3828 10.8148 9.1174 26.9659 1.3685 -4.7591
# 5 -0.6459 1.9372 -13.6451 1.3685 33.1839 2.0282
# 6 -10.9470 -12.6188 -14.3701 -4.7591 2.0282 51.1106
#
#
#
# Elastic Compliance Matrix: (Units=1/GPa)
#
#
# Indices 1 2 3 4 5 6 
#
# 1 0.007356 -0.003548 -0.003718 -0.000427 -0.001140 -0.000340
# 2 -0.003548 0.018138 0.015663 -0.010112 0.005304 0.006970
# 3 -0.003718 0.015663 0.058990 -0.022905 0.023200 0.016603
# 4 -0.000427 -0.010112 -0.022905 0.048886 -0.010604 -0.004055
# 5 -0.001140 0.005304 0.023200 -0.010604 0.039472 0.005034
# 6 -0.000340 0.006970 0.016603 -0.004055 0.005034 0.025304
#
#
# Mechanical properties :
#
#
# Convention : Reuss Voigt Hill
#
# Bulk Modulus (GPa) = 9.87375 37.01123 23.44249
# Shear Modulus (GPa) = 23.24369 38.54204 30.89287
#
# Velocity S-wave (km/s) = 3.07929 3.96520 3.54999
# Velocity P-wave (km/s) = 4.08297 6.00518 5.13482
#
# Compressibility (1/GPa) = 0.10127863
#
# Stress axis : x y z
#
# Youngs Moduli (GPa) = 135.94752 55.13300 16.95191
#
# Poissons Ratio (x) = 0.19559 0.06303
# Poissons Ratio (y) = 0.48230 -0.26552
# Poissons Ratio (z) = 0.50548 -0.86355
#
# Static dielectric constant tensor:
#      x y z
#    x 5.075270 0.026530 0.148120 
#    y 0.026530 4.533020 0.363690 
#    z 0.148120 0.363690 4.400330 
# 
# 
# High freq. dielectric constant tensor:
#      x y z
#    x 2.007470 -0.002070 -0.000790 
#    y -0.002070 1.982650 0.013160 
#    z -0.000790 0.013160 1.959210 
# 
# From -- ./inp_files/144100.got.cif
#   From: 2010.06.25/outbox.cif.g09.slc.cpg/sg2_73_cif.got.tgz:144100.got - 2010.06.27 13:26:56.
