data_PCOD8033381
_publ_section_title
;
Structure prediction by ZEFSAII (Michael W. Deem and Ramdas Pophale) SiO2 
 PCOD8033381
Probable space group: P -1
;
_chemical_formula_sum "Si O2"
_cell_formula_units_Z 16
_cell_length_a 9.595232
_cell_length_b 10.717884
_cell_length_c 9.027710
_cell_angle_alpha 53.967668
_cell_angle_beta 78.225773
_cell_angle_gamma 81.685391
_cell_volume 734.643950
_symmetry_space_group_name_H-M "P -1"
_symmetry_group_IT_number 2
_symmetry_cell_setting 'triclinic'
loop_
_space_group_symop_operation_xyz
x,y,z
-x,-y,-z
loop_
_atom_site_type_symbol
_atom_site_label
_atom_site_fract_x
_atom_site_fract_y
_atom_site_fract_z
Si Si1 0.967802 0.369214 0.888052
Si Si2 0.480761 0.849544 0.206887
Si Si3 0.710565 0.405278 0.695627
Si Si4 0.780326 0.831740 0.546957
Si Si5 0.953217 0.289593 0.280875
Si Si6 0.332463 0.853210 0.537508
Si Si7 0.777576 0.694920 0.321877
Si Si8 0.456149 0.385861 0.213480
O O1 0.013044 0.543354 0.781428
O O2 0.094215 0.275062 0.840693
O O3 0.822369 0.365129 0.829591
O O4 0.942281 0.285210 0.108167
O O5 0.351349 0.752324 0.239558
O O6 0.433631 0.899609 0.347172
O O7 0.627936 0.750043 0.244097
O O8 0.500000 0.000000 0.000000
O O9 0.782560 0.509587 0.480702
O O10 0.577259 0.513423 0.703726
O O11 0.805580 0.791064 0.397933
O O12 0.684838 0.704410 0.736756
O O13 0.926205 0.832976 0.605348
O O14 0.703231 0.998135 0.458659
O O15 0.808632 0.231225 0.426161
O O16 0.414905 0.733519 0.708126
O O17 0.500000 0.500000 0.000000
#
# Coordination Sequence:
#
# PCOD8033381 Si02
#       8
#     2   2   2   2   2   2   2   2
#     4  11  24  44  74 106 139 173 245 294 337 416
#     4  12  29  45  69 105 141 185 233 290 359 415
#     4  11  23  46  68 102 136 181 236 283 351 412
#     4  11  25  47  69 102 148 186 233 279 364 412
#     4  11  25  44  72 108 136 187 233 289 354 413
#     4  12  26  46  69 101 149 184 229 294 350 424
#     4  11  24  45  73 105 135 187 232 291 345 418
#     4  11  24  41  74 101 131 186 235 289 342 412
#
# _framework density 21.779256
#
# number of rings (size 3 to 8) (size 9 to 14) (size 15 to 20)
#    0.000    0.750    5.000    3.000    8.750    1.000 
#    0.000    1.250    0.000    0.000    0.000    0.000 
#    0.000    0.000    0.000    0.000    0.000    0.000 
#
# Total GULP energy -198448.260260 kJ/mol
# GULP energy per Si atom -12403.016266 kJ/mol
# Density = 2.172969 g / cm^3
# Si number density = 21.779256 Si / 1000 Ang^3
#
#
#
# Elastic Constant Matrix: (Units=GPa)
#
#
# Indices 1 2 3 4 5 6 
#
# 1 116.0769 37.4926 48.9663 6.7952 14.0198 -14.7632
# 2 37.4926 103.7666 40.0441 -1.5278 2.2275 -8.0220
# 3 48.9663 40.0441 120.0113 -3.8043 9.8575 -8.7407
# 4 6.7952 -1.5278 -3.8043 19.0808 1.7585 -4.0058
# 5 14.0198 2.2275 9.8575 1.7585 35.7516 2.0583
# 6 -14.7632 -8.0220 -8.7407 -4.0058 2.0583 37.4374
#
#
#
# Elastic Compliance Matrix: (Units=1/GPa)
#
#
# Indices 1 2 3 4 5 6 
#
# 1 0.012101 -0.002712 -0.003654 -0.004284 -0.003535 0.003074
# 2 -0.002712 0.011762 -0.002787 0.001451 0.000976 0.000902
# 3 -0.003654 -0.002787 0.011083 0.003661 -0.001689 0.001034
# 4 -0.004284 0.001451 0.003661 0.056193 -0.002508 0.005627
# 5 -0.003535 0.000976 -0.001689 -0.002508 0.030087 -0.003502
# 6 0.003074 0.000902 0.001034 0.005627 -0.003502 0.029153
#
#
# Mechanical properties :
#
#
# Convention : Reuss Voigt Hill
#
# Bulk Modulus (GPa) = 60.09027 65.87342 62.98184
# Shear Modulus (GPa) = 28.69744 32.67743 30.68744
#
# Velocity S-wave (km/s) = 3.63388 3.87769 3.75777
# Velocity P-wave (km/s) = 6.72735 7.09650 6.91439
#
# Compressibility (1/GPa) = 0.01664163
#
# Stress axis : x y z
#
# Youngs Moduli (GPa) = 82.63755 85.01671 90.22480
#
# Poissons Ratio (x) = 0.23054 0.32969
# Poissons Ratio (y) = 0.22409 0.25143
# Poissons Ratio (z) = 0.30197 0.23692
#
# Static dielectric constant tensor:
#      x y z
#    x 4.041920 -0.080130 0.228220 
#    y -0.080130 3.891280 0.008650 
#    z 0.228220 0.008650 3.589690 
# 
# 
# High freq. dielectric constant tensor:
#      x y z
#    x 1.871030 -0.007320 -0.001680 
#    y -0.007320 1.854300 0.001290 
#    z -0.001680 0.001290 1.852060 
# 
# From -- ./inp_files/184110.got.cif
#   From: 2010.06.25/outbox.cif.g09.slc.cpg/sg2_93_cif.got.tgz:184110.got - 2010.06.27 13:26:56.
