data_PCOD8033114
_publ_section_title
;
Structure prediction by ZEFSAII (Michael W. Deem and Ramdas Pophale) SiO2 
 PCOD8033114
Probable space group: P -1
;
_chemical_formula_sum "Si O2"
_cell_formula_units_Z 16
_cell_length_a 8.808698
_cell_length_b 11.173899
_cell_length_c 17.205442
_cell_angle_alpha 148.661258
_cell_angle_beta 50.939170
_cell_angle_gamma 127.055572
_cell_volume 675.158423
_symmetry_space_group_name_H-M "P -1"
_symmetry_group_IT_number 2
_symmetry_cell_setting 'triclinic'
loop_
_space_group_symop_operation_xyz
x,y,z
-x,-y,-z
loop_
_atom_site_type_symbol
_atom_site_label
_atom_site_fract_x
_atom_site_fract_y
_atom_site_fract_z
Si Si1 0.304579 0.586099 0.139622
Si Si2 0.628306 0.653074 0.476620
Si Si3 0.933130 0.129245 0.351342
Si Si4 0.874133 0.590946 0.694345
Si Si5 0.599881 0.916759 0.997967
Si Si6 0.086388 0.684708 0.825473
Si Si7 0.489438 0.000607 0.597552
Si Si8 0.762238 0.075067 0.770661
O O1 0.360239 0.781310 0.296708
O O2 0.195714 0.687583 0.159011
O O3 0.141106 0.378209 0.107614
O O4 0.500000 0.500000 0.000000
O O5 0.500000 0.500000 0.500000
O O6 0.773593 0.503615 0.303385
O O7 0.517687 0.758350 0.498385
O O8 0.758763 0.860950 0.595040
O O9 0.858536 0.310718 0.537805
O O10 0.083945 0.284602 0.332387
O O11 0.737013 0.977616 0.294125
O O12 0.053439 0.935283 0.238686
O O13 0.061263 0.693502 0.745315
O O14 0.659981 0.658067 0.827271
O O15 0.450352 0.932507 0.124722
O O16 0.812349 0.073498 0.035694
O O17 0.500000 0.000000 0.000000
O O18 0.500000 0.000000 0.500000
#
# Coordination Sequence:
#
# PCOD8033114 Si02
#       8
#     2   2   2   2   2   2   2   2
#     4  11  28  50  70 102 147 197 239 290 370 444
#     4  11  23  44  74 106 136 187 246 297 359 431
#     4  11  24  42  73 105 140 181 238 301 352 418
#     4  11  24  42  70 104 143 179 234 293 366 418
#     4  12  26  43  70 109 141 180 240 302 359 430
#     4  12  25  44  75  98 142 189 241 288 364 427
#     4  11  27  44  72 103 147 188 245 297 362 433
#     4  11  24  46  72 101 144 183 239 293 358 434
#
# _framework density 23.698142000000001
#
# number of rings (size 3 to 8) (size 9 to 14) (size 15 to 20)
#    0.000    0.750    3.750    2.625    8.750    1.000 
#    0.000    1.250    0.000    0.000    0.000    0.000 
#    0.000    0.000    0.000    0.000    0.000    0.000 
#
# Total GULP energy -198314.644193 kJ/mol
# GULP energy per Si atom -12394.665262 kJ/mol
# Density = 2.364420 g / cm^3
# Si number density = 23.698142 Si / 1000 Ang^3
#
#
#
# Elastic Constant Matrix: (Units=GPa)
#
#
# Indices 1 2 3 4 5 6 
#
# 1 138.8946 32.8843 24.8925 -1.7215 -17.6151 -11.0688
# 2 32.8843 88.7589 23.9186 -9.4377 -4.1735 -2.3650
# 3 24.8925 23.9186 91.0292 -10.1435 -21.4657 0.7674
# 4 -1.7215 -9.4377 -10.1435 27.0539 3.4880 -4.4514
# 5 -17.6151 -4.1735 -21.4657 3.4880 43.6211 -2.4489
# 6 -11.0688 -2.3650 0.7674 -4.4514 -2.4489 49.6243
#
#
#
# Elastic Compliance Matrix: (Units=1/GPa)
#
#
# Indices 1 2 3 4 5 6 
#
# 1 0.008546 -0.002796 -0.001046 -0.000886 0.002843 0.001850
# 2 -0.002796 0.013359 -0.002675 0.003718 -0.001447 0.000317
# 3 -0.001046 -0.002675 0.013722 0.003400 0.005803 0.000018
# 4 -0.000886 0.003718 0.003400 0.040223 -0.001351 0.003468
# 5 0.002843 -0.001447 0.005803 -0.001351 0.026993 0.001686
# 6 0.001850 0.000317 0.000018 0.003468 0.001686 0.020973
#
#
# Mechanical properties :
#
#
# Convention : Reuss Voigt Hill
#
# Bulk Modulus (GPa) = 44.26213 53.56370 48.91292
# Shear Modulus (GPa) = 34.63061 39.85901 37.24481
#
# Velocity S-wave (km/s) = 3.82687 4.10560 3.96869
# Velocity P-wave (km/s) = 6.18422 6.71760 6.45642
#
# Compressibility (1/GPa) = 0.02259268
#
# Stress axis : x y z
#
# Youngs Moduli (GPa) = 117.01180 74.85683 72.87764
#
# Poissons Ratio (x) = 0.20926 0.07625
# Poissons Ratio (y) = 0.32711 0.19496
# Poissons Ratio (z) = 0.12242 0.20026
#
# Static dielectric constant tensor:
#      x y z
#    x 4.566900 -0.239460 -0.172710 
#    y -0.239460 4.221050 -0.027350 
#    z -0.172710 -0.027350 4.401270 
# 
# 
# High freq. dielectric constant tensor:
#      x y z
#    x 1.956510 -0.010920 -0.013370 
#    y -0.010920 1.930240 -0.007090 
#    z -0.013370 -0.007090 1.936900 
# 
# From -- ./inp_files/560128.got.cif
#   From: 2010.06.25/outbox.cif.g09.slc.cpg/sg2_281_cif.got.tgz:560128.got - 2010.06.27 13:26:56.
