data_PCOD8033090
_publ_section_title
;
Structure prediction by ZEFSAII (Michael W. Deem and Ramdas Pophale) SiO2 
 PCOD8033090
Probable space group: P -1
;
_chemical_formula_sum "Si O2"
_cell_formula_units_Z 16
_cell_length_a 5.231399
_cell_length_b 17.744748
_cell_length_c 11.353381
_cell_angle_alpha 52.057740
_cell_angle_beta 118.637823
_cell_angle_gamma 128.284920
_cell_volume 644.132091
_symmetry_space_group_name_H-M "P -1"
_symmetry_group_IT_number 2
_symmetry_cell_setting 'triclinic'
loop_
_space_group_symop_operation_xyz
x,y,z
-x,-y,-z
loop_
_atom_site_type_symbol
_atom_site_label
_atom_site_fract_x
_atom_site_fract_y
_atom_site_fract_z
Si Si1 0.480592 0.498020 0.858872
Si Si2 0.021189 0.864649 0.165320
Si Si3 0.973397 0.584987 0.682028
Si Si4 0.466539 0.909825 0.902130
Si Si5 0.034363 0.712859 0.145276
Si Si6 0.681746 0.428608 0.573678
Si Si7 0.813917 0.068422 0.423840
Si Si8 0.098596 0.231462 0.525827
O O1 0.834097 0.557293 0.813125
O O2 0.240993 0.550136 0.731542
O O3 0.317399 0.373264 0.900059
O O4 0.500000 0.500000 0.000000
O O5 0.928759 0.850608 0.297268
O O6 0.008450 0.751024 0.235521
O O7 0.774350 0.884571 0.006385
O O8 0.391964 0.965927 0.141382
O O9 0.657894 0.511254 0.591605
O O10 0.158321 0.717565 0.578131
O O11 0.320426 0.895096 0.753371
O O12 0.168249 0.825142 0.995734
O O13 0.280736 0.661149 0.250344
O O14 0.412666 0.352252 0.490332
O O15 0.000000 0.500000 0.500000
O O16 0.074587 0.173423 0.452383
O O17 0.500000 0.000000 0.500000
O O18 0.000000 0.000000 0.500000
#
# Coordination Sequence:
#
# PCOD8033090 Si02
#       8
#     2   2   2   2   2   2   2   2
#     4  11  26  46  69 105 153 200 243 303 371 458
#     4  11  24  45  78 107 146 193 259 314 378 447
#     4  11  25  45  71 110 145 190 256 310 364 450
#     4  11  26  47  70 109 146 192 257 308 377 447
#     4  11  24  40  75 103 145 193 249 307 372 436
#     4  11  23  44  73 113 151 191 258 316 374 452
#     4  12  31  52  75 110 155 201 256 313 379 462
#     4  12  24  46  78 107 151 202 244 315 393 435
#
# _framework density 24.839624000000001
#
# number of rings (size 3 to 8) (size 9 to 14) (size 15 to 20)
#    0.000    0.750    2.500    4.125    7.000    3.000 
#    0.000    0.000    0.000    0.000    0.000    0.000 
#    0.000    0.000    0.000    0.000    0.000    0.000 
#
# Total GULP energy -198219.271831 kJ/mol
# GULP energy per Si atom -12388.704489 kJ/mol
# Density = 2.478309 g / cm^3
# Si number density = 24.839624 Si / 1000 Ang^3
#
#
#
# Elastic Constant Matrix: (Units=GPa)
#
#
# Indices 1 2 3 4 5 6 
#
# 1 90.3930 41.1852 20.6398 -3.6128 -8.2594 -11.4312
# 2 41.1852 183.3100 57.9876 -1.6275 12.0181 -34.1462
# 3 20.6398 57.9876 136.3985 16.0210 -4.4625 -10.6601
# 4 -3.6128 -1.6275 16.0210 43.9683 -5.5903 -5.3655
# 5 -8.2594 12.0181 -4.4625 -5.5903 25.8009 -4.0822
# 6 -11.4312 -34.1462 -10.6601 -5.3655 -4.0822 40.6706
#
#
#
# Elastic Compliance Matrix: (Units=1/GPa)
#
#
# Indices 1 2 3 4 5 6 
#
# 1 0.013445 -0.002764 -0.000756 0.002350 0.006319 0.002204
# 2 -0.002764 0.008256 -0.002975 0.001259 -0.004162 0.005123
# 3 -0.000756 -0.002975 0.009119 -0.003321 0.001912 -0.000567
# 4 0.002350 0.001259 -0.003321 0.025528 0.005883 0.004805
# 5 0.006319 -0.004162 0.001912 0.005883 0.044969 0.004073
# 6 0.002204 0.005123 -0.000567 0.004805 0.004073 0.030403
#
#
# Mechanical properties :
#
#
# Convention : Reuss Voigt Hill
#
# Bulk Modulus (GPa) = 56.09066 72.19187 64.14126
# Shear Modulus (GPa) = 33.18858 41.44056 37.31457
#
# Velocity S-wave (km/s) = 3.65926 4.08894 3.88005
# Velocity P-wave (km/s) = 6.36268 7.17070 6.77874
#
# Compressibility (1/GPa) = 0.01782828
#
# Stress axis : x y z
#
# Youngs Moduli (GPa) = 74.37679 121.12758 109.66003
#
# Poissons Ratio (x) = 0.33484 0.08294
# Poissons Ratio (y) = 0.20560 0.32625
# Poissons Ratio (z) = 0.05626 0.36037
#
# Static dielectric constant tensor:
#      x y z
#    x 4.489220 -0.058550 0.349240 
#    y -0.058550 5.125240 0.260840 
#    z 0.349240 0.260840 5.190840 
# 
# 
# High freq. dielectric constant tensor:
#      x y z
#    x 1.974130 -0.013750 0.004810 
#    y -0.013750 2.011430 -0.005090 
#    z 0.004810 -0.005090 2.004760 
# 
# From -- ./inp_files/369393.got.cif
#   From: 2010.06.25/outbox.cif.g09.slc.cpg/sg2_185_cif.got.tgz:369393.got - 2010.06.27 13:26:56.
