data_PCOD8033073
_publ_section_title
;
Structure prediction by ZEFSAII (Michael W. Deem and Ramdas Pophale) SiO2 
 PCOD8033073
Probable space group: P -1
;
_chemical_formula_sum "Si O2"
_cell_formula_units_Z 16
_cell_length_a 9.283929
_cell_length_b 10.982877
_cell_length_c 9.307082
_cell_angle_alpha 83.427979
_cell_angle_beta 128.684880
_cell_angle_gamma 100.217785
_cell_volume 729.020741
_symmetry_space_group_name_H-M "P -1"
_symmetry_group_IT_number 2
_symmetry_cell_setting 'triclinic'
loop_
_space_group_symop_operation_xyz
x,y,z
-x,-y,-z
loop_
_atom_site_type_symbol
_atom_site_label
_atom_site_fract_x
_atom_site_fract_y
_atom_site_fract_z
Si Si1 0.050784 0.353369 0.934605
Si Si2 0.525404 0.581975 0.866951
Si Si3 0.447544 0.831471 0.214131
Si Si4 0.589664 0.587821 0.422174
Si Si5 0.116961 0.913855 0.178188
Si Si6 0.811502 0.014180 0.462221
Si Si7 0.019305 0.393427 0.231248
Si Si8 0.686097 0.226408 0.174113
O O1 0.956998 0.456659 0.774157
O O2 0.003976 0.219811 0.849965
O O3 0.269101 0.400695 0.072952
O O4 0.971220 0.340877 0.048602
O O5 0.385087 0.504529 0.679937
O O6 0.479879 0.717448 0.858078
O O7 0.500000 0.500000 0.000000
O O8 0.454766 0.689200 0.283645
O O9 0.309557 0.896032 0.221504
O O10 0.656817 0.898676 0.349271
O O11 0.381631 0.841209 0.007101
O O12 0.500000 0.500000 0.500000
O O13 0.793069 0.653210 0.587580
O O14 0.158873 0.977715 0.349245
O O15 0.000000 0.000000 0.000000
O O16 0.743392 0.135340 0.340938
O O17 0.000000 0.000000 0.500000
O O18 0.852722 0.337070 0.237206
#
# Coordination Sequence:
#
# PCOD8033073 Si02
#       8
#     2   2   2   2   2   2   2   2
#     4  11  24  44  72 100 142 184 236 279 362 419
#     4  12  25  44  68 111 142 182 224 292 361 419
#     4  12  26  50  73 100 145 192 238 289 355 424
#     4  12  25  41  74 105 143 182 235 287 353 426
#     4  12  29  48  76 102 140 191 244 290 348 427
#     4  12  30  49  72 106 141 187 244 297 354 415
#     4  11  23  44  73 103 140 185 230 291 347 436
#     4  12  26  47  74 103 146 183 234 296 359 414
#
# _framework density 21.94725
#
# number of rings (size 3 to 8) (size 9 to 14) (size 15 to 20)
#    0.000    0.250    5.000    3.000    8.750    1.500 
#    0.000    0.000    0.000    0.000    0.000    0.000 
#    0.000    0.000    0.000    0.000    0.000    0.000 
#
# Total GULP energy -198461.590555 kJ/mol
# GULP energy per Si atom -12403.849410 kJ/mol
# Density = 2.189730 g / cm^3
# Si number density = 21.947250 Si / 1000 Ang^3
#
#
#
# Elastic Constant Matrix: (Units=GPa)
#
#
# Indices 1 2 3 4 5 6 
#
# 1 112.7957 30.1108 40.5588 -1.5155 -0.3874 -14.0190
# 2 30.1108 94.8507 36.3248 -6.6501 -4.4336 -1.3909
# 3 40.5588 36.3248 132.6783 -7.3612 -10.8823 -5.7887
# 4 -1.5155 -6.6501 -7.3612 43.5609 0.0597 4.2681
# 5 -0.3874 -4.4336 -10.8823 0.0597 41.0041 1.3310
# 6 -14.0190 -1.3909 -5.7887 4.2681 1.3310 40.9818
#
#
#
# Elastic Compliance Matrix: (Units=1/GPa)
#
#
# Indices 1 2 3 4 5 6 
#
# 1 0.010881 -0.002502 -0.002616 -0.000775 -0.000971 0.003380
# 2 -0.002502 0.012432 -0.002544 0.001475 0.000675 -0.000969
# 3 -0.002616 -0.002544 0.009276 0.001071 0.002156 0.000147
# 4 -0.000775 0.001475 0.001071 0.023583 0.000484 -0.002536
# 5 -0.000971 0.000675 0.002156 0.000484 0.025051 -0.000869
# 6 0.003380 -0.000969 0.000147 -0.002536 -0.000869 0.025837
#
#
# Mechanical properties :
#
#
# Convention : Reuss Voigt Hill
#
# Bulk Modulus (GPa) = 57.92428 61.59040 59.75734
# Shear Modulus (GPa) = 39.01976 40.66471 39.84224
#
# Velocity S-wave (km/s) = 4.22108 4.30913 4.26533
# Velocity P-wave (km/s) = 7.08565 7.27200 7.17943
#
# Compressibility (1/GPa) = 0.01726392
#
# Stress axis : x y z
#
# Youngs Moduli (GPa) = 91.90640 80.43609 107.80647
#
# Poissons Ratio (x) = 0.20128 0.28204
# Poissons Ratio (y) = 0.22998 0.27424
# Poissons Ratio (z) = 0.24045 0.20462
#
# Static dielectric constant tensor:
#      x y z
#    x 4.075320 -0.000600 0.080880 
#    y -0.000600 4.006280 -0.186620 
#    z 0.080880 -0.186620 4.184420 
# 
# 
# High freq. dielectric constant tensor:
#      x y z
#    x 1.872910 0.000910 0.003620 
#    y 0.000910 1.869310 -0.004980 
#    z 0.003620 -0.004980 1.872990 
# 
# From -- ./inp_files/187080.got.cif
#   From: 2010.06.25/outbox.cif.g09.slc.cpg/sg2_94_cif.got.tgz:187080.got - 2010.06.27 13:26:56.
