data_PCOD8033266
_publ_section_title
;
Structure prediction by ZEFSAII (Michael W. Deem and Ramdas Pophale) SiO2 
 PCOD8033266
Probable space group: P -1
;
_chemical_formula_sum "Si O2"
_cell_formula_units_Z 16
_cell_length_a 17.230749
_cell_length_b 9.408163
_cell_length_c 11.632114
_cell_angle_alpha 127.344262
_cell_angle_beta 31.435842
_cell_angle_gamma 119.939393
_cell_volume 781.080985
_symmetry_space_group_name_H-M "P -1"
_symmetry_group_IT_number 2
_symmetry_cell_setting 'triclinic'
loop_
_space_group_symop_operation_xyz
x,y,z
-x,-y,-z
loop_
_atom_site_type_symbol
_atom_site_label
_atom_site_fract_x
_atom_site_fract_y
_atom_site_fract_z
Si Si1 0.071078 0.085265 0.061073
Si Si2 0.956820 0.453048 0.404461
Si Si3 0.410118 0.686804 0.702259
Si Si4 0.418021 0.019492 0.232937
Si Si5 0.620725 0.337774 0.749432
Si Si6 0.899501 0.973312 0.438319
Si Si7 0.099378 0.746518 0.227629
Si Si8 0.373341 0.862089 0.593098
O O1 0.072505 0.296046 0.136231
O O2 0.969464 0.082431 0.300931
O O3 0.228067 0.991076 0.839222
O O4 0.000000 0.000000 0.000000
O O5 0.784463 0.406799 0.597367
O O6 0.000000 0.500000 0.500000
O O7 0.984101 0.616586 0.366318
O O8 0.500000 0.500000 0.500000
O O9 0.501982 0.845020 0.718422
O O10 0.374472 0.737622 0.641611
O O11 0.257534 0.655780 0.947924
O O12 0.252784 0.102656 0.455630
O O13 0.412482 0.823952 0.201833
O O14 0.500000 0.000000 0.000000
O O15 0.611666 0.270304 0.597841
O O16 0.500000 0.500000 0.000000
O O17 0.016053 0.815703 0.251532
O O18 0.863445 0.096589 0.654487
O O19 0.500000 0.000000 0.500000
#
# Coordination Sequence:
#
# PCOD8033266 Si02
#       8
#     2   2   2   2   2   2   2   2
#     4  12  24  47  72 101 143 185 237 292 352 421
#     4  12  26  44  73 107 141 184 238 293 352 422
#     4  12  29  47  71 107 145 190 235 294 364 423
#     4  12  25  47  73 103 145 188 236 294 356 425
#     4  12  29  47  73 109 142 188 242 292 358 430
#     4  11  23  45  72 100 140 184 236 286 353 420
#     4  11  25  44  71 105 138 186 235 289 352 420
#     4  12  27  49  72 104 145 192 238 295 360 425
#
# _framework density 20.484431000000001
#
# number of rings (size 3 to 8) (size 9 to 14) (size 15 to 20)
#    0.000    0.250    7.500    0.000    7.000    0.000 
#    0.000    1.875    0.000    0.000    0.000    0.000 
#    0.000    0.000    0.000    0.000    0.000    0.000 
#
# Total GULP energy -198421.236883 kJ/mol
# GULP energy per Si atom -12401.327305 kJ/mol
# Density = 2.043781 g / cm^3
# Si number density = 20.484431 Si / 1000 Ang^3
#
#
#
# Elastic Constant Matrix: (Units=GPa)
#
#
# Indices 1 2 3 4 5 6 
#
# 1 140.8094 51.2748 57.9145 0.0009 -6.9293 7.7859
# 2 51.2748 122.5157 46.2922 -3.6271 -11.8025 4.7864
# 3 57.9145 46.2922 145.9485 7.5766 -20.3759 7.0802
# 4 0.0009 -3.6271 7.5766 41.2759 -3.1760 -0.4878
# 5 -6.9293 -11.8025 -20.3759 -3.1760 42.3241 1.1588
# 6 7.7859 4.7864 7.0802 -0.4878 1.1588 35.7657
#
#
#
# Elastic Compliance Matrix: (Units=1/GPa)
#
#
# Indices 1 2 3 4 5 6 
#
# 1 0.009337 -0.002841 -0.002845 0.000215 -0.000588 -0.001067
# 2 -0.002841 0.010305 -0.001974 0.001384 0.001573 -0.000402
# 3 -0.002845 -0.001974 0.009207 -0.001620 0.003324 -0.001069
# 4 0.000215 0.001384 -0.001620 0.024765 0.001489 0.000378
# 5 -0.000588 0.001573 0.003324 0.001489 0.025724 -0.001554
# 6 -0.001067 -0.000402 -0.001069 0.000378 -0.001554 0.028513
#
#
# Mechanical properties :
#
#
# Convention : Reuss Voigt Hill
#
# Bulk Modulus (GPa) = 73.91980 80.02630 76.97305
# Shear Modulus (GPa) = 39.15999 40.79263 39.97631
#
# Velocity S-wave (km/s) = 4.37704 4.46735 4.42242
# Velocity P-wave (km/s) = 7.85549 8.10933 7.98342
#
# Compressibility (1/GPa) = 0.01352818
#
# Stress axis : x y z
#
# Youngs Moduli (GPa) = 107.10454 97.03677 108.61414
#
# Poissons Ratio (x) = 0.27569 0.30904
# Poissons Ratio (y) = 0.30429 0.21441
# Poissons Ratio (z) = 0.30474 0.19155
#
# Static dielectric constant tensor:
#      x y z
#    x 4.266430 0.286280 -0.202970 
#    y 0.286280 4.339280 -0.331730 
#    z -0.202970 -0.331730 3.996850 
# 
# 
# High freq. dielectric constant tensor:
#      x y z
#    x 1.823430 -0.005220 -0.002330 
#    y -0.005220 1.805020 -0.004270 
#    z -0.002330 -0.004270 1.814460 
# 
# From -- ./inp_files/206977.got.cif
#   From: 2010.06.25/outbox.cif.g09.slc.cpg/sg2_104_cif.got.tgz:206977.got - 2010.06.27 13:26:56.
