data_PCOD8033883
_publ_section_title
;
Structure prediction by ZEFSAII (Michael W. Deem and Ramdas Pophale) SiO2 
 PCOD8033883
Probable space group: P -1
;
_chemical_formula_sum "Si O2"
_cell_formula_units_Z 14
_cell_length_a 12.321123
_cell_length_b 12.883069
_cell_length_c 5.129432
_cell_angle_alpha 91.210047
_cell_angle_beta 78.719303
_cell_angle_gamma 132.980626
_cell_volume 576.965515
_symmetry_space_group_name_H-M "P -1"
_symmetry_group_IT_number 2
_symmetry_cell_setting 'triclinic'
loop_
_space_group_symop_operation_xyz
x,y,z
-x,-y,-z
loop_
_atom_site_type_symbol
_atom_site_label
_atom_site_fract_x
_atom_site_fract_y
_atom_site_fract_z
Si Si1 0.155904 0.651890 0.348707
Si Si2 0.755648 0.593492 0.116619
Si Si3 0.643395 0.410303 0.669756
Si Si4 0.335308 0.941435 0.544189
Si Si5 0.705252 0.797844 0.208394
Si Si6 0.211646 0.035377 0.331959
Si Si7 0.907100 0.204232 0.953322
O O1 0.284588 0.648104 0.249443
O O2 0.215218 0.771941 0.538229
O O3 0.124530 0.696851 0.103824
O O4 0.000000 0.500000 0.500000
O O5 0.729863 0.501853 0.372122
O O6 0.708514 0.676960 0.232230
O O7 0.934679 0.699692 0.955619
O O8 0.654895 0.500089 0.905602
O O9 0.467912 0.275565 0.666861
O O10 0.500000 0.000000 0.500000
O O11 0.349195 0.040374 0.323401
O O12 0.248044 0.937486 0.832822
O O13 0.818063 0.920348 0.383170
O O14 0.755465 0.858910 0.897447
O O15 0.074010 0.867805 0.298603
#
# Coordination Sequence:
#
# PCOD8033883 Si02
#       7
#     2   2   2   2   2   2   2
#     4  11  24  42  71 103 141 186 231 292 359 428
#     4  12  27  46  72 102 145 186 234 297 347 422
#     4  12  26  45  72 105 141 183 240 290 356 418
#     4  11  25  45  71 105 147 185 235 297 354 424
#     4  12  25  47  73 103 140 189 239 288 354 416
#     4  11  25  46  70 104 140 182 240 286 353 417
#     4  11  26  45  71 105 146 179 239 289 362 420
#
# _framework density 24.264885
#
# number of rings (size 3 to 8) (size 9 to 14) (size 15 to 20)
#    0.000    0.571    2.857    4.286    6.000    3.429 
#    0.000    0.000    0.000    0.000    0.000    0.000 
#    0.000    0.000    0.000    0.000    0.000    0.000 
#
# Total GULP energy -173513.596653 kJ/mol
# GULP energy per Si atom -12393.828332 kJ/mol
# Density = 2.420966 g / cm^3
# Si number density = 24.264885 Si / 1000 Ang^3
#
#
#
# Elastic Constant Matrix: (Units=GPa)
#
#
# Indices 1 2 3 4 5 6 
#
# 1 75.5249 6.5749 9.4191 -13.4917 3.0531 -4.2108
# 2 6.5749 80.6010 29.6212 5.5839 9.3037 -8.6129
# 3 9.4191 29.6212 112.7152 2.2894 14.3333 2.4791
# 4 -13.4917 5.5839 2.2894 39.7438 -1.7818 -3.1271
# 5 3.0531 9.3037 14.3333 -1.7818 31.9212 -1.0125
# 6 -4.2108 -8.6129 2.4791 -3.1271 -1.0125 41.3532
#
#
#
# Elastic Compliance Matrix: (Units=1/GPa)
#
#
# Indices 1 2 3 4 5 6 
#
# 1 0.014500 -0.000932 -0.001075 0.005239 -0.000285 0.001736
# 2 -0.000932 0.014495 -0.003420 -0.002045 -0.002621 0.002910
# 3 -0.001075 -0.003420 0.010376 -0.000771 -0.003653 -0.001592
# 4 0.005239 -0.002045 -0.000771 0.027543 0.002051 0.002287
# 5 -0.000285 -0.002621 -0.003653 0.002051 0.033893 0.000629
# 6 0.001736 0.002910 -0.001592 0.002287 0.000629 0.025249
#
#
# Mechanical properties :
#
#
# Convention : Reuss Voigt Hill
#
# Bulk Modulus (GPa) = 35.06883 40.00795 37.53839
# Shear Modulus (GPa) = 34.14911 37.48537 35.81724
#
# Velocity S-wave (km/s) = 3.75553 3.93471 3.84616
# Velocity P-wave (km/s) = 5.76968 6.09642 5.93530
#
# Compressibility (1/GPa) = 0.02851535
#
# Stress axis : x y z
#
# Youngs Moduli (GPa) = 68.96497 68.98877 96.37794
#
# Poissons Ratio (x) = 0.06432 0.10361
# Poissons Ratio (y) = 0.06430 0.32966
# Poissons Ratio (z) = 0.07414 0.23598
#
# Static dielectric constant tensor:
#      x y z
#    x 4.111390 1.032850 -0.156850 
#    y 1.032850 -0.146660 2.135440 
#    z -0.156850 2.135440 3.515980 
# 
# 
# High freq. dielectric constant tensor:
#      x y z
#    x 1.968660 -0.016130 0.019150 
#    y -0.016130 1.979060 0.011910 
#    z 0.019150 0.011910 1.953870 
# 
# From -- ./inp_files/70510.got.cif
#   From: 2010.06.25/outbox.cif.g09.slc.cpg/sg2_36_cif.got.tgz:70510.got - 2010.06.27 13:26:56.
