data_PCOD8033557
_publ_section_title
;
Structure prediction by ZEFSAII (Michael W. Deem and Ramdas Pophale) SiO2 
 PCOD8033557
Probable space group: P -1
;
_chemical_formula_sum "Si O2"
_cell_formula_units_Z 16
_cell_length_a 11.423321
_cell_length_b 12.234088
_cell_length_c 9.036345
_cell_angle_alpha 130.513077
_cell_angle_beta 93.119979
_cell_angle_gamma 57.374552
_cell_volume 717.143994
_symmetry_space_group_name_H-M "P -1"
_symmetry_group_IT_number 2
_symmetry_cell_setting 'triclinic'
loop_
_space_group_symop_operation_xyz
x,y,z
-x,-y,-z
loop_
_atom_site_type_symbol
_atom_site_label
_atom_site_fract_x
_atom_site_fract_y
_atom_site_fract_z
Si Si1 0.294769 0.965945 0.274990
Si Si2 0.184153 0.082583 0.687676
Si Si3 0.140679 0.361965 0.499220
Si Si4 0.413514 0.220728 0.197592
Si Si5 0.635471 0.263564 0.394111
Si Si6 0.642660 0.758703 0.112236
Si Si7 0.336481 0.639305 0.815180
Si Si8 0.847569 0.436458 0.072967
O O1 0.456885 0.920336 0.272930
O O2 0.217699 0.990092 0.447674
O O3 0.177189 0.163472 0.347412
O O4 0.327248 0.796346 0.038221
O O5 0.283729 0.144984 0.774558
O O6 0.230063 0.927058 0.675796
O O7 0.999747 0.257063 0.840865
O O8 0.290385 0.323752 0.412273
O O9 0.102312 0.461347 0.743655
O O10 0.000000 0.500000 0.500000
O O11 0.541255 0.235993 0.253050
O O12 0.327326 0.319653 0.122260
O O13 0.500000 0.000000 0.000000
O O14 0.517104 0.436420 0.653686
O O15 0.712451 0.309483 0.318439
O O16 0.717224 0.580959 0.070149
O O17 0.217667 0.627921 0.875195
#
# Coordination Sequence:
#
# PCOD8033557 Si02
#       8
#     2   2   2   2   2   2   2   2
#     4  12  26  46  73 105 138 189 239 284 347 414
#     4  12  26  44  72 104 143 184 232 298 347 412
#     4  12  26  44  71 107 143 182 232 292 351 416
#     4  12  21  41  73 106 129 178 238 294 345 399
#     4  11  23  47  72 101 137 181 239 288 344 414
#     4  12  24  43  75 103 142 176 238 297 342 410
#     4  11  26  49  70 104 140 186 239 281 351 422
#     4  12  28  46  68 106 148 187 226 287 363 416
#
# _framework density 22.310721999999998
#
# number of rings (size 3 to 8) (size 9 to 14) (size 15 to 20)
#    0.000    0.250    6.250    2.250    3.500    3.000 
#    0.000    0.000    0.000    0.000    0.000    0.000 
#    0.000    0.000    0.000    0.000    0.000    0.000 
#
# Total GULP energy -198463.611901 kJ/mol
# GULP energy per Si atom -12403.975744 kJ/mol
# Density = 2.225994 g / cm^3
# Si number density = 22.310722 Si / 1000 Ang^3
#
#
#
# Elastic Constant Matrix: (Units=GPa)
#
#
# Indices 1 2 3 4 5 6 
#
# 1 58.4887 36.4132 29.9362 8.9916 -9.5212 6.8096
# 2 36.4132 158.6772 42.5457 7.8816 -3.7398 -5.3788
# 3 29.9362 42.5457 133.5619 -2.2821 -8.2885 -1.3393
# 4 8.9916 7.8816 -2.2821 41.0489 3.0817 -2.7627
# 5 -9.5212 -3.7398 -8.2885 3.0817 36.4210 -3.2507
# 6 6.8096 -5.3788 -1.3393 -2.7627 -3.2507 35.4316
#
#
#
# Elastic Compliance Matrix: (Units=1/GPa)
#
#
# Indices 1 2 3 4 5 6 
#
# 1 0.023983 -0.004268 -0.003856 -0.005380 0.004930 -0.005370
# 2 -0.004268 0.007770 -0.001536 -0.000482 -0.000461 0.001862
# 3 -0.003856 -0.001536 0.008930 0.001645 0.000821 0.001049
# 4 -0.005380 -0.000482 0.001645 0.026139 -0.003045 0.002782
# 5 0.004930 -0.000461 0.000821 -0.003045 0.029273 0.001462
# 6 -0.005370 0.001862 0.001049 0.002782 0.001462 0.029929
#
#
# Mechanical properties :
#
#
# Convention : Reuss Voigt Hill
#
# Bulk Modulus (GPa) = 46.81212 63.16868 54.99040
# Shear Modulus (GPa) = 32.79417 38.70249 35.74833
#
# Velocity S-wave (km/s) = 3.83807 4.16950 4.00721
# Velocity P-wave (km/s) = 6.37718 7.18013 6.79053
#
# Compressibility (1/GPa) = 0.02136199
#
# Stress axis : x y z
#
# Youngs Moduli (GPa) = 41.69646 128.70317 111.97746
#
# Poissons Ratio (x) = 0.54936 0.43174
# Poissons Ratio (y) = 0.17798 0.17205
# Poissons Ratio (z) = 0.16076 0.19775
#
# Static dielectric constant tensor:
#      x y z
#    x 5.686850 1.279560 -0.985490 
#    y 1.279560 4.878650 -0.618680 
#    z -0.985490 -0.618680 4.771370 
# 
# 
# High freq. dielectric constant tensor:
#      x y z
#    x 1.859170 0.016560 -0.008330 
#    y 0.016560 1.892040 -0.004660 
#    z -0.008330 -0.004660 1.895380 
# 
# From -- ./inp_files/187817.got.cif
#   From: 2010.06.25/outbox.cif.g09.slc.cpg/sg2_94_cif.got.tgz:187817.got - 2010.06.27 13:26:56.
