data_PCOD8033958
_publ_section_title
;
Structure prediction by ZEFSAII (Michael W. Deem and Ramdas Pophale) SiO2 
 PCOD8033958
Probable space group: P -1
;
_chemical_formula_sum "Si O2"
_cell_formula_units_Z 16
_cell_length_a 9.947962
_cell_length_b 6.806049
_cell_length_c 21.467932
_cell_angle_alpha 53.715327
_cell_angle_beta 54.025378
_cell_angle_gamma 42.987410
_cell_volume 766.657564
_symmetry_space_group_name_H-M "P -1"
_symmetry_group_IT_number 2
_symmetry_cell_setting 'triclinic'
loop_
_space_group_symop_operation_xyz
x,y,z
-x,-y,-z
loop_
_atom_site_type_symbol
_atom_site_label
_atom_site_fract_x
_atom_site_fract_y
_atom_site_fract_z
Si Si1 0.299374 0.894703 0.188594
Si Si2 0.038995 0.528428 0.082336
Si Si3 0.560020 0.094653 0.713937
Si Si4 0.163635 0.103882 0.816689
Si Si5 0.169661 0.285311 0.543378
Si Si6 0.513459 0.386013 0.448567
Si Si7 0.274025 0.469455 0.915287
Si Si8 0.096094 0.553817 0.294400
O O1 0.371510 0.891645 0.238651
O O2 0.483835 0.778812 0.111501
O O3 0.228746 0.678751 0.245805
O O4 0.113369 0.225526 0.155830
O O5 0.964428 0.788448 0.104438
O O6 0.847229 0.630084 0.071520
O O7 0.220542 0.491473 0.998932
O O8 0.372075 0.072181 0.774530
O O9 0.486237 0.395499 0.641242
O O10 0.748382 0.808681 0.679320
O O11 0.023240 0.343057 0.757281
O O12 0.213663 0.784344 0.845282
O O13 0.324300 0.375349 0.487642
O O14 0.000000 0.500000 0.500000
O O15 0.072900 0.329212 0.628681
O O16 0.276304 0.944241 0.555868
O O17 0.500000 0.500000 0.500000
#
# Coordination Sequence:
#
# PCOD8033958 Si02
#       8
#     2   2   2   2   2   2   2   2
#     4  12  24  43  65 100 131 175 225 271 330 392
#     4  11  24  43  67  97 131 180 220 278 337 387
#     4  12  26  42  68  97 136 173 216 273 328 392
#     4  12  24  43  65 100 131 175 225 271 330 392
#     4  11  26  46  70 101 133 172 219 269 326 393
#     4  11  26  46  70 101 133 172 219 269 326 393
#     4  11  24  43  67  95 137 173 224 279 331 391
#     4  12  26  42  68  97 136 173 216 273 328 392
#
# _framework density 20.869812
#
# number of rings (size 3 to 8) (size 9 to 14) (size 15 to 20)
#    0.000    0.500    5.000    3.000    3.500    6.000 
#    0.000    1.250    0.000    0.000    0.000    0.000 
#    0.000    0.000    0.000    0.000    0.000    0.000 
#
# Total GULP energy -198517.192534 kJ/mol
# GULP energy per Si atom -12407.324533 kJ/mol
# Density = 2.082231 g / cm^3
# Si number density = 20.869812 Si / 1000 Ang^3
#
#
#
# Elastic Constant Matrix: (Units=GPa)
#
#
# Indices 1 2 3 4 5 6 
#
# 1 83.8600 26.6416 16.8799 3.1496 12.6330 1.4809
# 2 26.6416 113.7274 23.5213 9.3571 4.1133 0.0699
# 3 16.8799 23.5213 96.7066 12.4211 8.3239 2.7949
# 4 3.1496 9.3571 12.4211 48.7142 6.4125 1.2753
# 5 12.6330 4.1133 8.3239 6.4125 46.6503 -3.0177
# 6 1.4809 0.0699 2.7949 1.2753 -3.0177 30.0106
#
#
#
# Elastic Compliance Matrix: (Units=1/GPa)
#
#
# Indices 1 2 3 4 5 6 
#
# 1 0.013602 -0.002808 -0.001444 0.000486 -0.003302 -0.000883
# 2 -0.002808 0.009917 -0.001798 -0.001329 0.000414 0.000381
# 3 -0.001444 -0.001798 0.011461 -0.002293 -0.001246 -0.001020
# 4 0.000486 -0.001329 -0.002293 0.021712 -0.002654 -0.000997
# 5 -0.003302 0.000414 -0.001246 -0.002654 0.023056 0.002709
# 6 -0.000883 0.000381 -0.001020 -0.000997 0.002709 0.033774
#
#
# Mechanical properties :
#
#
# Convention : Reuss Voigt Hill
#
# Bulk Modulus (GPa) = 43.70468 47.59774 45.65121
# Shear Modulus (GPa) = 37.52400 40.22510 38.87455
#
# Velocity S-wave (km/s) = 4.24489 4.39501 4.32060
# Velocity P-wave (km/s) = 6.70913 6.97218 6.84192
#
# Compressibility (1/GPa) = 0.02288084
#
# Stress axis : x y z
#
# Youngs Moduli (GPa) = 73.51822 100.84018 87.25162
#
# Poissons Ratio (x) = 0.28313 0.12599
# Poissons Ratio (y) = 0.20642 0.15686
# Poissons Ratio (z) = 0.10616 0.18129
#
# Static dielectric constant tensor:
#      x y z
#    x 3.805860 -0.002080 -0.010610 
#    y -0.002080 4.005960 0.123970 
#    z -0.010610 0.123970 3.908730 
# 
# 
# High freq. dielectric constant tensor:
#      x y z
#    x 1.826380 0.000080 0.000870 
#    y 0.000080 1.833210 0.004830 
#    z 0.000870 0.004830 1.827410 
# 
# From -- ./inp_files/47302.got.cif
#   From: 2010.06.25/outbox.cif.g09.slc.cpg/sg2_24_cif.got.tgz:47302.got - 2010.06.27 13:26:56.
