data_PCOD8033178
_publ_section_title
;
Structure prediction by ZEFSAII (Michael W. Deem and Ramdas Pophale) SiO2 
 PCOD8033178
Probable space group: P -1
;
_chemical_formula_sum "Si O2"
_cell_formula_units_Z 14
_cell_length_a 13.764083
_cell_length_b 8.683425
_cell_length_c 14.192486
_cell_angle_alpha 67.797829
_cell_angle_beta 147.943210
_cell_angle_gamma 90.496051
_cell_volume 644.553930
_symmetry_space_group_name_H-M "P -1"
_symmetry_group_IT_number 2
_symmetry_cell_setting 'triclinic'
loop_
_space_group_symop_operation_xyz
x,y,z
-x,-y,-z
loop_
_atom_site_type_symbol
_atom_site_label
_atom_site_fract_x
_atom_site_fract_y
_atom_site_fract_z
Si Si1 0.735360 0.469866 0.219816
Si Si2 0.565559 0.804683 0.852927
Si Si3 0.891286 0.777684 0.550818
Si Si4 0.733221 0.507675 0.428052
Si Si5 0.084501 0.129711 0.931727
Si Si6 0.299493 0.545046 0.087699
Si Si7 0.235318 0.670011 0.204781
O O1 0.770451 0.500755 0.348346
O O2 0.971877 0.241750 0.427710
O O3 0.500000 0.500000 0.000000
O O4 0.734258 0.633734 0.113318
O O5 0.538513 0.694435 0.768117
O O6 0.315178 0.972715 0.658092
O O7 0.673902 0.910070 0.876481
O O8 0.783903 0.654405 0.484285
O O9 0.060823 0.696426 0.798241
O O10 0.459595 0.619757 0.198188
O O11 0.904391 0.264789 0.665845
O O12 0.952767 0.275739 0.883267
O O13 0.161612 0.895825 0.057699
O O14 0.223109 0.555456 0.130611
O O15 0.500000 0.500000 0.500000
#
# Coordination Sequence:
#
# PCOD8033178 Si02
#       7
#     2   2   2   2   2   2   2
#     4  11  23  45  68 105 143 180 235 279 338 413
#     4  11  25  45  67 105 143 184 232 280 343 415
#     4  11  25  44  68 101 142 184 230 281 343 408
#     4  12  22  47  72  98 147 180 223 293 337 411
#     4  11  25  45  73 105 137 181 238 281 355 414
#     4  11  24  45  70  99 141 181 232 285 342 407
#     4  11  25  45  74 104 135 183 233 292 352 409
#
# _framework density 21.720448999999999
#
# number of rings (size 3 to 8) (size 9 to 14) (size 15 to 20)
#    0.000    0.857    7.143    1.286    2.000    1.714 
#    2.571    1.429    0.000    0.000    0.000    0.000 
#    0.000    0.000    0.000    0.000    0.000    0.000 
#
# Total GULP energy -173565.897081 kJ/mol
# GULP energy per Si atom -12397.564077 kJ/mol
# Density = 2.167101 g / cm^3
# Si number density = 21.720449 Si / 1000 Ang^3
#
#
#
# Elastic Constant Matrix: (Units=GPa)
#
#
# Indices 1 2 3 4 5 6 
#
# 1 128.3934 38.5157 46.0494 -0.0996 5.7942 -23.5145
# 2 38.5157 70.8650 45.7445 -2.2465 -1.1888 -16.1921
# 3 46.0494 45.7445 91.8932 7.3805 3.1461 -21.3975
# 4 -0.0996 -2.2465 7.3805 39.6817 -5.1314 6.9608
# 5 5.7942 -1.1888 3.1461 -5.1314 47.9181 2.2737
# 6 -23.5145 -16.1921 -21.3975 6.9608 2.2737 44.8452
#
#
#
# Elastic Compliance Matrix: (Units=1/GPa)
#
#
# Indices 1 2 3 4 5 6 
#
# 1 0.010371 -0.003126 -0.002856 -0.000329 -0.001325 0.003065
# 2 -0.003126 0.022438 -0.009606 0.003056 0.001830 0.001312
# 3 -0.002856 -0.009606 0.018701 -0.005126 -0.001900 0.004849
# 4 -0.000329 0.003056 -0.005126 0.027865 0.003722 -0.006029
# 5 -0.001325 0.001830 -0.001900 0.003722 0.021722 -0.002619
# 6 0.003065 0.001312 0.004849 -0.006029 -0.002619 0.027762
#
#
# Mechanical properties :
#
#
# Convention : Reuss Voigt Hill
#
# Bulk Modulus (GPa) = 49.17456 61.30786 55.24121
# Shear Modulus (GPa) = 29.97355 37.21179 33.59267
#
# Velocity S-wave (km/s) = 3.71882 4.14359 3.93694
# Velocity P-wave (km/s) = 6.41315 7.15399 6.79368
#
# Compressibility (1/GPa) = 0.02033572
#
# Stress axis : x y z
#
# Youngs Moduli (GPa) = 96.41906 44.56638 53.47309
#
# Poissons Ratio (x) = 0.13930 0.15271
# Poissons Ratio (y) = 0.30138 0.51366
# Poissons Ratio (z) = 0.27535 0.42810
#
# Static dielectric constant tensor:
#      x y z
#    x 4.292220 -0.219930 0.117710 
#    y -0.219930 3.850890 -0.023900 
#    z 0.117710 -0.023900 3.933650 
# 
# 
# High freq. dielectric constant tensor:
#      x y z
#    x 1.872150 -0.013860 0.013310 
#    y -0.013860 1.841560 0.003560 
#    z 0.013310 0.003560 1.856350 
# 
# From -- ./inp_files/529568.got.cif
#   From: 2010.06.25/outbox.cif.g09.slc.cpg/sg2_265_cif.got.tgz:529568.got - 2010.06.27 13:26:56.
