data_PCOD8033880
_publ_section_title
;
Structure prediction by ZEFSAII (Michael W. Deem and Ramdas Pophale) SiO2 
 PCOD8033880
Probable space group: P -1
;
_chemical_formula_sum "Si O2"
_cell_formula_units_Z 16
_cell_length_a 9.939963
_cell_length_b 18.563339
_cell_length_c 11.482194
_cell_angle_alpha 52.174574
_cell_angle_beta 100.144105
_cell_angle_gamma 143.974210
_cell_volume 713.845148
_symmetry_space_group_name_H-M "P -1"
_symmetry_group_IT_number 2
_symmetry_cell_setting 'triclinic'
loop_
_space_group_symop_operation_xyz
x,y,z
-x,-y,-z
loop_
_atom_site_type_symbol
_atom_site_label
_atom_site_fract_x
_atom_site_fract_y
_atom_site_fract_z
Si Si1 0.143149 0.506479 0.304268
Si Si2 0.910464 0.556360 0.269894
Si Si3 0.871561 0.049285 0.404905
Si Si4 0.807865 0.839158 0.456018
Si Si5 0.144989 0.012355 0.094390
Si Si6 0.874415 0.209314 0.718237
Si Si7 0.737702 0.152970 0.167828
Si Si8 0.764870 0.295286 0.236532
O O1 0.955883 0.475282 0.373979
O O2 0.159120 0.429408 0.470493
O O3 0.958086 0.363182 0.302656
O O4 0.482380 0.748740 0.080224
O O5 0.555811 0.373520 0.424068
O O6 0.139327 0.752191 0.195087
O O7 0.000719 0.631892 0.075004
O O8 0.938179 0.010827 0.359824
O O9 0.526014 0.825380 0.631053
O O10 0.902490 0.159947 0.227528
O O11 0.131013 0.202748 0.396139
O O12 0.010036 0.939725 0.273946
O O13 0.070608 0.865476 0.183415
O O14 0.000000 0.000000 0.000000
O O15 0.558390 0.043954 0.764533
O O16 0.624725 0.136830 0.282945
O O17 0.000000 0.500000 0.000000
#
# Coordination Sequence:
#
# PCOD8033880 Si02
#       8
#     2   2   2   2   2   2   2   2
#     4  12  25  46  77 106 135 194 241 296 355 421
#     4  12  25  46  73 106 144 190 244 290 353 432
#     4  11  24  42  71 101 144 188 227 303 357 422
#     4  11  25  47  67 102 152 185 235 291 364 418
#     4  12  29  49  70 105 148 193 237 295 359 426
#     4  12  26  47  75 105 145 188 243 298 351 426
#     4  12  24  42  74 109 139 182 243 299 358 417
#     4  12  21  42  71 103 138 177 241 293 352 421
#
# _framework density 22.413826
#
# number of rings (size 3 to 8) (size 9 to 14) (size 15 to 20)
#    0.000    0.250    5.000    3.375    3.500    3.500 
#    0.000    0.000    0.000    0.000    0.000    0.000 
#    0.000    0.000    0.000    0.000    0.000    0.000 
#
# Total GULP energy -198454.876307 kJ/mol
# GULP energy per Si atom -12403.429769 kJ/mol
# Density = 2.236281 g / cm^3
# Si number density = 22.413826 Si / 1000 Ang^3
#
#
#
# Elastic Constant Matrix: (Units=GPa)
#
#
# Indices 1 2 3 4 5 6 
#
# 1 105.1044 51.3650 28.7647 9.1648 16.0550 5.9737
# 2 51.3650 137.2171 14.0451 7.5289 4.9197 -4.7130
# 3 28.7647 14.0451 80.8236 0.4338 5.2045 -0.6817
# 4 9.1648 7.5289 0.4338 36.9873 6.9964 -4.2419
# 5 16.0550 4.9197 5.2045 6.9964 40.4171 5.4539
# 6 5.9737 -4.7130 -0.6817 -4.2419 5.4539 40.7282
#
#
#
# Elastic Compliance Matrix: (Units=1/GPa)
#
#
# Indices 1 2 3 4 5 6 
#
# 1 0.013666 -0.004560 -0.003840 -0.001972 -0.003727 -0.002303
# 2 -0.004560 0.009060 0.000026 -0.000649 0.000606 0.001569
# 3 -0.003840 0.000026 0.013773 0.001002 -0.000556 0.000976
# 4 -0.001972 -0.000649 0.001002 0.029003 -0.004813 0.003896
# 5 -0.003727 0.000606 -0.000556 -0.004813 0.027537 -0.003581
# 6 -0.002303 0.001569 0.000976 0.003896 -0.003581 0.025974
#
#
# Mechanical properties :
#
#
# Convention : Reuss Voigt Hill
#
# Bulk Modulus (GPa) = 50.62891 56.83274 53.73083
# Shear Modulus (GPa) = 35.12633 38.89121 37.00877
#
# Velocity S-wave (km/s) = 3.96305 4.17002 4.06785
# Velocity P-wave (km/s) = 6.60138 6.97113 6.78877
#
# Compressibility (1/GPa) = 0.01975156
#
# Stress axis : x y z
#
# Youngs Moduli (GPa) = 73.17544 110.37878 72.60363
#
# Poissons Ratio (x) = 0.50330 0.27880
# Poissons Ratio (y) = 0.33366 -0.00190
# Poissons Ratio (z) = 0.28100 -0.00289
#
# Static dielectric constant tensor:
#      x y z
#    x 4.140640 -0.074750 0.035720 
#    y -0.074750 4.306690 0.174760 
#    z 0.035720 0.174760 4.141190 
# 
# 
# High freq. dielectric constant tensor:
#      x y z
#    x 1.879410 -0.004590 0.002410 
#    y -0.004590 1.898340 0.011730 
#    z 0.002410 0.011730 1.887630 
# 
# From -- ./inp_files/398930.got.cif
#   From: 2010.06.25/outbox.cif.g09.slc.cpg/sg2_200_cif.got.tgz:398930.got - 2010.06.27 13:26:56.
