data_PCOD8033724
_publ_section_title
;
Structure prediction by ZEFSAII (Michael W. Deem and Ramdas Pophale) SiO2 
 PCOD8033724
Probable space group: P -1
;
_chemical_formula_sum "Si O2"
_cell_formula_units_Z 16
_cell_length_a 11.825622
_cell_length_b 20.357598
_cell_length_c 17.581470
_cell_angle_alpha 19.702531
_cell_angle_beta 30.421449
_cell_angle_gamma 40.150046
_cell_volume 694.039652
_symmetry_space_group_name_H-M "P -1"
_symmetry_group_IT_number 2
_symmetry_cell_setting 'triclinic'
loop_
_space_group_symop_operation_xyz
x,y,z
-x,-y,-z
loop_
_atom_site_type_symbol
_atom_site_label
_atom_site_fract_x
_atom_site_fract_y
_atom_site_fract_z
Si Si1 0.581113 0.227832 0.229937
Si Si2 0.484480 0.430795 0.206783
Si Si3 0.007093 0.439419 0.175782
Si Si4 0.069410 0.259545 0.876425
Si Si5 0.644685 0.311665 0.780977
Si Si6 0.013000 0.221032 0.778286
Si Si7 0.716850 0.098856 0.820171
Si Si8 0.123867 0.231329 0.193025
O O1 0.450577 0.258648 0.349037
O O2 0.500000 0.000000 0.500000
O O3 0.507482 0.354831 0.067685
O O4 0.859389 0.294074 0.012030
O O5 0.273678 0.364867 0.459654
O O6 0.722610 0.450144 0.090675
O O7 0.984099 0.289452 0.281029
O O8 0.882617 0.306706 0.463658
O O9 0.886349 0.619181 0.034452
O O10 0.288136 0.457949 0.540794
O O11 0.958483 0.222412 0.897111
O O12 0.138185 0.063299 0.078707
O O13 0.634704 0.151715 0.893037
O O14 0.833158 0.304783 0.743084
O O15 0.394463 0.257043 0.026058
O O16 0.000000 0.000000 0.000000
O O17 0.500000 0.000000 0.000000
O O18 0.000000 0.000000 0.500000
#
# Coordination Sequence:
#
# PCOD8033724 Si02
#       8
#     2   2   2   2   2   2   2   2
#     4  11  24  41  66  99 138 178 223 271 343 410
#     4  11  25  43  67 101 141 175 223 285 340 409
#     4  11  26  47  70 102 141 177 230 286 338 408
#     4  12  25  45  70 104 140 182 230 283 350 412
#     4  12  26  46  72 103 140 182 234 284 344 412
#     4  12  25  45  71 104 143 182 227 287 349 410
#     4  12  27  47  71 102 140 185 234 288 340 407
#     4  11  27  47  72 102 134 183 233 282 341 403
#
# _framework density 23.053439000000001
#
# number of rings (size 3 to 8) (size 9 to 14) (size 15 to 20)
#    0.000    0.500    2.500    4.875    5.250    8.000 
#    0.000    0.000    0.000    0.000    0.000    0.000 
#    0.000    0.000    0.000    0.000    0.000    0.000 
#
# Total GULP energy -198511.664616 kJ/mol
# GULP energy per Si atom -12406.979038 kJ/mol
# Density = 2.300097 g / cm^3
# Si number density = 23.053439 Si / 1000 Ang^3
#
#
#
# Elastic Constant Matrix: (Units=GPa)
#
#
# Indices 1 2 3 4 5 6 
#
# 1 93.6561 15.2592 26.7051 2.6018 1.3624 -22.1434
# 2 15.2592 91.2022 31.4002 -8.6124 8.7897 -16.9446
# 3 26.7051 31.4002 112.0044 -8.4414 -10.2256 -16.4029
# 4 2.6018 -8.6124 -8.4414 50.6881 -5.0208 -6.0599
# 5 1.3624 8.7897 -10.2256 -5.0208 38.9888 2.3089
# 6 -22.1434 -16.9446 -16.4029 -6.0599 2.3089 31.6939
#
#
#
# Elastic Compliance Matrix: (Units=1/GPa)
#
#
# Indices 1 2 3 4 5 6 
#
# 1 0.013258 0.000213 -0.002156 -0.000163 -0.001592 0.008346
# 2 0.000213 0.013853 -0.003168 0.002205 -0.004070 0.006633
# 3 -0.002156 -0.003168 0.011248 0.002156 0.003854 0.002752
# 4 -0.000163 0.002205 0.002156 0.021445 0.002475 0.006101
# 5 -0.001592 -0.004070 0.003854 0.002475 0.028121 -0.002869
# 6 0.008346 0.006633 0.002752 0.006101 -0.002869 0.043729
#
#
# Mechanical properties :
#
#
# Convention : Reuss Voigt Hill
#
# Bulk Modulus (GPa) = 35.54240 49.28798 42.41519
# Shear Modulus (GPa) = 33.05638 39.17403 36.11521
#
# Velocity S-wave (km/s) = 3.79080 4.12669 3.96231
# Velocity P-wave (km/s) = 5.88312 6.64322 6.27469
#
# Compressibility (1/GPa) = 0.02813541
#
# Stress axis : x y z
#
# Youngs Moduli (GPa) = 75.42362 72.18785 88.90418
#
# Poissons Ratio (x) = -0.01535 0.19170
# Poissons Ratio (y) = -0.01604 0.28167
# Poissons Ratio (z) = 0.16263 0.22871
#
# Static dielectric constant tensor:
#      x y z
#    x 4.147140 -0.064840 0.055850 
#    y -0.064840 4.483390 0.068930 
#    z 0.055850 0.068930 4.233450 
# 
# 
# High freq. dielectric constant tensor:
#      x y z
#    x 1.909080 -0.001270 -0.002980 
#    y -0.001270 1.930610 -0.006710 
#    z -0.002980 -0.006710 1.919800 
# 
# From -- ./inp_files/570669.got.cif
#   From: 2010.06.25/outbox.cif.g09.slc.cpg/sg2_286_cif.got.tgz:570669.got - 2010.06.27 13:26:56.
