data_PCOD8033788
_publ_section_title
;
Structure prediction by ZEFSAII (Michael W. Deem and Ramdas Pophale) SiO2 
 PCOD8033788
Probable space group: P -1
;
_chemical_formula_sum "Si O2"
_cell_formula_units_Z 16
_cell_length_a 8.671045
_cell_length_b 26.423851
_cell_length_c 11.848110
_cell_angle_alpha 29.763757
_cell_angle_beta 145.685036
_cell_angle_gamma 137.928220
_cell_volume 756.600075
_symmetry_space_group_name_H-M "P -1"
_symmetry_group_IT_number 2
_symmetry_cell_setting 'triclinic'
loop_
_space_group_symop_operation_xyz
x,y,z
-x,-y,-z
loop_
_atom_site_type_symbol
_atom_site_label
_atom_site_fract_x
_atom_site_fract_y
_atom_site_fract_z
Si Si1 0.996670 0.407162 0.763497
Si Si2 0.193853 0.154271 0.757237
Si Si3 0.294939 0.767322 0.217419
Si Si4 0.800377 0.470911 0.764105
Si Si5 0.645280 0.027694 0.647839
Si Si6 0.084289 0.659086 0.705007
Si Si7 0.830618 0.898215 0.634207
Si Si8 0.475733 0.276274 0.325979
O O1 0.778958 0.317388 0.759387
O O2 0.924630 0.437370 0.787307
O O3 0.000000 0.500000 0.500000
O O4 0.302738 0.373407 0.020454
O O5 0.436184 0.161120 0.798089
O O6 0.905599 0.107568 0.620738
O O7 0.159959 0.268452 0.561317
O O8 0.265767 0.078961 0.045517
O O9 0.356164 0.713736 0.475777
O O10 0.039356 0.834488 0.955508
O O11 0.500000 0.500000 0.500000
O O12 0.981597 0.567331 0.737958
O O13 0.800907 0.379190 0.032430
O O14 0.435265 0.078841 0.501929
O O15 0.500000 0.000000 0.500000
O O16 0.327460 0.725475 0.659726
O O17 0.722882 0.829786 0.593548
O O18 0.000000 0.000000 0.500000
#
# Coordination Sequence:
#
# PCOD8033788 Si02
#       8
#     2   2   2   2   2   2   2   2
#     4  11  24  44  66 100 135 172 225 272 331 394
#     4  11  24  44  63 101 133 169 227 267 330 399
#     4  11  25  41  71  98 132 180 220 272 332 390
#     4  11  24  42  68  94 133 174 216 275 327 391
#     4  11  26  43  68  95 134 176 215 275 332 388
#     4  11  24  42  65  99 131 173 221 267 333 392
#     4  11  24  46  65 100 133 171 225 270 331 396
#     4  11  25  43  68  97 133 174 220 275 328 395
#
# _framework density 21.147234999999998
#
# number of rings (size 3 to 8) (size 9 to 14) (size 15 to 20)
#    0.000    1.000    2.500    3.000    3.500    7.500 
#    0.000    0.000    0.000    0.000    0.000    0.000 
#    0.000    0.000    0.000    0.000    0.000    0.000 
#
# Total GULP energy -198435.260191 kJ/mol
# GULP energy per Si atom -12402.203762 kJ/mol
# Density = 2.109910 g / cm^3
# Si number density = 21.147235 Si / 1000 Ang^3
#
#
#
# Elastic Constant Matrix: (Units=GPa)
#
#
# Indices 1 2 3 4 5 6 
#
# 1 86.7582 38.1908 41.5825 10.0593 -8.3486 -4.2342
# 2 38.1908 96.7002 56.0269 3.9635 -10.5087 -3.1204
# 3 41.5825 56.0269 142.2408 7.0230 2.4208 -11.5483
# 4 10.0593 3.9635 7.0230 36.7470 -0.0034 -0.2283
# 5 -8.3486 -10.5087 2.4208 -0.0034 41.9758 3.5777
# 6 -4.2342 -3.1204 -11.5483 -0.2283 3.5777 39.7465
#
#
#
# Elastic Compliance Matrix: (Units=1/GPa)
#
#
# Indices 1 2 3 4 5 6 
#
# 1 0.015201 -0.004069 -0.002694 -0.003205 0.002134 0.000307
# 2 -0.004069 0.015114 -0.004920 0.000418 0.003341 -0.000975
# 3 -0.002694 -0.004920 0.010031 -0.000634 -0.002556 0.002468
# 4 -0.003205 0.000418 -0.000634 0.028165 -0.000469 -0.000289
# 5 0.002134 0.003341 -0.002556 -0.000469 0.025449 -0.002547
# 6 0.000307 -0.000975 0.002468 -0.000289 -0.002547 0.026060
#
#
# Mechanical properties :
#
#
# Convention : Reuss Voigt Hill
#
# Bulk Modulus (GPa) = 58.89864 66.36661 62.63262
# Shear Modulus (GPa) = 33.54692 36.35380 34.95036
#
# Velocity S-wave (km/s) = 3.98722 4.15068 4.06977
# Velocity P-wave (km/s) = 7.00781 7.37713 7.19484
#
# Compressibility (1/GPa) = 0.01697832
#
# Stress axis : x y z
#
# Youngs Moduli (GPa) = 65.78624 66.16601 99.69086
#
# Poissons Ratio (x) = 0.26925 0.26857
# Poissons Ratio (y) = 0.26771 0.49048
# Poissons Ratio (z) = 0.17723 0.32554
#
# Static dielectric constant tensor:
#      x y z
#    x 3.749550 0.093330 0.126060 
#    y 0.093330 3.960900 0.006410 
#    z 0.126060 0.006410 4.119190 
# 
# 
# High freq. dielectric constant tensor:
#      x y z
#    x 1.828060 0.003570 0.010340 
#    y 0.003570 1.840220 -0.000640 
#    z 0.010340 -0.000640 1.847000 
# 
# From -- ./inp_files/84954.got.cif
#   From: 2010.06.25/outbox.cif.g09.slc.cpg/sg2_43_cif.got.tgz:84954.got - 2010.06.27 13:26:56.
