data_PCOD8033277
_publ_section_title
;
Structure prediction by ZEFSAII (Michael W. Deem and Ramdas Pophale) SiO2 
 PCOD8033277
Probable space group: P -1
;
_chemical_formula_sum "Si O2"
_cell_formula_units_Z 14
_cell_length_a 13.795118
_cell_length_b 11.237703
_cell_length_c 9.114310
_cell_angle_alpha 57.511177
_cell_angle_beta 49.770068
_cell_angle_gamma 34.839961
_cell_volume 616.182435
_symmetry_space_group_name_H-M "P -1"
_symmetry_group_IT_number 2
_symmetry_cell_setting 'triclinic'
loop_
_space_group_symop_operation_xyz
x,y,z
-x,-y,-z
loop_
_atom_site_type_symbol
_atom_site_label
_atom_site_fract_x
_atom_site_fract_y
_atom_site_fract_z
Si Si1 0.512939 0.333342 0.546129
Si Si2 0.943040 0.987057 0.296260
Si Si3 0.984110 0.490780 0.695914
Si Si4 0.492269 0.676239 0.907899
Si Si5 0.215527 0.557743 0.441604
Si Si6 0.421349 0.217348 0.973352
Si Si7 0.104177 0.094210 0.909128
O O1 0.500000 0.500000 0.500000
O O2 0.400032 0.424861 0.445699
O O3 0.410548 0.310230 0.770859
O O4 0.732760 0.116949 0.459455
O O5 0.993534 0.871912 0.169321
O O6 0.093416 0.802220 0.388486
O O7 0.983590 0.121699 0.143454
O O8 0.000000 0.500000 0.500000
O O9 0.078330 0.549597 0.640708
O O10 0.098552 0.266976 0.800894
O O11 0.775084 0.651856 0.847979
O O12 0.693116 0.564376 0.722905
O O13 0.318595 0.869912 0.851698
O O14 0.500000 0.500000 0.000000
O O15 0.465253 0.771669 0.031588
O O16 0.500000 0.000000 0.000000
#
# Coordination Sequence:
#
# PCOD8033277 Si02
#       7
#     2   2   2   2   2   2   2
#     4  12  28  48  72 107 157 197 249 320 397 444
#     4  11  23  45  72 110 141 191 255 317 370 448
#     4  12  25  48  75 109 148 203 259 309 374 468
#     4  12  24  47  80 112 144 206 267 309 371 463
#     4  12  25  46  78 103 149 197 260 310 373 460
#     4  12  29  50  73 113 164 197 246 328 393 449
#     4  11  24  41  80 108 143 191 264 316 360 444
#
# _framework density 22.720542999999999
#
# number of rings (size 3 to 8) (size 9 to 14) (size 15 to 20)
#    0.000    0.286    5.714    2.571    4.000    1.714 
#    5.143    0.000    0.000    0.000    0.000    0.000 
#    0.000    0.000    0.000    0.000    0.000    0.000 
#
# Total GULP energy -173504.897809 kJ/mol
# GULP energy per Si atom -12393.206986 kJ/mol
# Density = 2.266883 g / cm^3
# Si number density = 22.720543 Si / 1000 Ang^3
#
#
#
# Elastic Constant Matrix: (Units=GPa)
#
#
# Indices 1 2 3 4 5 6 
#
# 1 87.2245 55.8676 35.4971 -4.3070 -8.2292 7.7462
# 2 55.8676 169.0147 70.5761 -16.2481 -4.9186 -4.3176
# 3 35.4971 70.5761 148.7858 -4.8576 -25.2854 -2.4242
# 4 -4.3070 -16.2481 -4.8576 42.6720 2.3121 -14.2014
# 5 -8.2292 -4.9186 -25.2854 2.3121 35.6992 -0.2470
# 6 7.7462 -4.3176 -2.4242 -14.2014 -0.2470 49.7104
#
#
#
# Elastic Compliance Matrix: (Units=1/GPa)
#
#
# Indices 1 2 3 4 5 6 
#
# 1 0.015424 -0.004800 -0.001142 -0.001626 0.002167 -0.003330
# 2 -0.004800 0.009320 -0.003553 0.003596 -0.002556 0.002399
# 3 -0.001142 -0.003553 0.009710 -0.000633 0.006167 0.000193
# 4 -0.001626 0.003596 -0.000633 0.027465 -0.002049 0.008371
# 5 0.002167 -0.002556 0.006167 -0.002049 0.032655 -0.000682
# 6 -0.003330 0.002399 0.000193 0.008371 -0.000682 0.023241
#
#
# Mechanical properties :
#
#
# Convention : Reuss Voigt Hill
#
# Bulk Modulus (GPa) = 64.67272 80.98961 72.83116
# Shear Modulus (GPa) = 35.22161 41.82193 38.52177
#
# Velocity S-wave (km/s) = 3.94154 4.29500 4.12206
# Velocity P-wave (km/s) = 7.01716 7.76656 7.40135
#
# Compressibility (1/GPa) = 0.01546247
#
# Stress axis : x y z
#
# Youngs Moduli (GPa) = 64.83587 107.29998 102.99116
#
# Poissons Ratio (x) = 0.51501 0.11762
# Poissons Ratio (y) = 0.31119 0.36597
# Poissons Ratio (z) = 0.07404 0.38129
#
# Static dielectric constant tensor:
#      x y z
#    x 4.415640 1.077410 -0.118560 
#    y 1.077410 6.591070 -0.210840 
#    z -0.118560 -0.210840 4.227960 
# 
# 
# High freq. dielectric constant tensor:
#      x y z
#    x 1.892870 -0.007440 -0.016800 
#    y -0.007440 1.904060 -0.005130 
#    z -0.016800 -0.005130 1.906580 
# 
# From -- ./inp_files/306697.got.cif
#   From: 2010.06.25/outbox.cif.g09.slc.cpg/sg2_154_cif.got.tgz:306697.got - 2010.06.27 13:26:56.
