data_PCOD8033531
_publ_section_title
;
Structure prediction by ZEFSAII (Michael W. Deem and Ramdas Pophale) SiO2 
 PCOD8033531
Probable space group: P -1
;
_chemical_formula_sum "Si O2"
_cell_formula_units_Z 16
_cell_length_a 8.466153
_cell_length_b 18.020392
_cell_length_c 5.688880
_cell_angle_alpha 62.292153
_cell_angle_beta 119.421397
_cell_angle_gamma 110.618371
_cell_volume 660.619546
_symmetry_space_group_name_H-M "P -1"
_symmetry_group_IT_number 2
_symmetry_cell_setting 'triclinic'
loop_
_space_group_symop_operation_xyz
x,y,z
-x,-y,-z
loop_
_atom_site_type_symbol
_atom_site_label
_atom_site_fract_x
_atom_site_fract_y
_atom_site_fract_z
Si Si1 0.800976 0.509827 0.254503
Si Si2 0.716065 0.159973 0.701057
Si Si3 0.315005 0.332705 0.814344
Si Si4 0.295053 0.656758 0.769895
Si Si5 0.930697 0.788931 0.852479
Si Si6 0.213069 0.001084 0.198412
Si Si7 0.934744 0.635073 0.798657
Si Si8 0.318414 0.090552 0.652805
O O1 0.709613 0.573278 0.256504
O O2 0.673803 0.416059 0.291809
O O3 0.000000 0.500000 0.500000
O O4 0.824323 0.550275 0.953248
O O5 0.744556 0.255831 0.491356
O O6 0.525380 0.140715 0.729134
O O7 0.729399 0.092748 0.598752
O O8 0.893258 0.150283 0.003644
O O9 0.215251 0.320433 0.512499
O O10 0.530341 0.327695 0.953171
O O11 0.227311 0.252031 0.022229
O O12 0.108165 0.611761 0.821520
O O13 0.014993 0.709623 0.926646
O O14 0.830088 0.845856 0.518179
O O15 0.277316 0.045483 0.429867
O O16 0.310273 0.036552 0.968435
O O17 0.000000 0.000000 0.000000
#
# Coordination Sequence:
#
# PCOD8033531 Si02
#       8
#     2   2   2   2   2   2   2   2
#     4  11  23  47  69  97 148 188 238 299 369 441
#     4  12  26  48  76 108 149 191 248 306 373 444
#     4  11  24  46  68 104 145 185 242 298 366 443
#     4  12  24  43  73 104 140 189 243 303 366 439
#     4  11  25  45  71 106 144 193 237 308 365 436
#     4  12  28  51  82 110 153 200 244 312 382 446
#     4  11  25  43  71 100 146 192 240 301 367 435
#     4  12  28  51  78 112 153 195 253 305 379 455
#
# _framework density 24.219688999999999
#
# number of rings (size 3 to 8) (size 9 to 14) (size 15 to 20)
#    0.000    0.500    5.000    2.625    3.500    2.500 
#    4.500    0.000    0.000    0.000    0.000    0.000 
#    0.000    0.000    0.000    0.000    0.000    0.000 
#
# Total GULP energy -198253.233236 kJ/mol
# GULP energy per Si atom -12390.827077 kJ/mol
# Density = 2.416456 g / cm^3
# Si number density = 24.219689 Si / 1000 Ang^3
#
#
#
# Elastic Constant Matrix: (Units=GPa)
#
#
# Indices 1 2 3 4 5 6 
#
# 1 78.6147 27.3880 24.8349 6.7429 19.1878 5.9556
# 2 27.3880 111.2950 26.4647 -16.6563 -6.7001 -0.2972
# 3 24.8349 26.4647 90.2902 7.6160 4.3937 1.7999
# 4 6.7429 -16.6563 7.6160 30.9412 3.8388 9.4427
# 5 19.1878 -6.7001 4.3937 3.8388 48.0960 12.4571
# 6 5.9556 -0.2972 1.7999 9.4427 12.4571 21.1095
#
#
#
# Elastic Compliance Matrix: (Units=1/GPa)
#
#
# Indices 1 2 3 4 5 6 
#
# 1 0.017397 -0.004956 -0.002541 -0.005561 -0.007514 0.002160
# 2 -0.004956 0.012718 -0.003309 0.009766 0.004629 -0.005241
# 3 -0.002541 -0.003309 0.013167 -0.005070 -0.000845 0.002314
# 4 -0.005561 0.009766 -0.005070 0.046004 0.006075 -0.022025
# 5 -0.007514 0.004629 -0.000845 0.006075 0.028502 -0.017280
# 6 0.002160 -0.005241 0.002314 -0.022025 -0.017280 0.066541
#
#
# Mechanical properties :
#
#
# Convention : Reuss Voigt Hill
#
# Bulk Modulus (GPa) = 46.14682 48.61946 47.38314
# Shear Modulus (GPa) = 23.45625 33.46351 28.45988
#
# Velocity S-wave (km/s) = 3.11542 3.72111 3.43165
# Velocity P-wave (km/s) = 5.66002 6.21129 5.94205
#
# Compressibility (1/GPa) = 0.02166997
#
# Stress axis : x y z
#
# Youngs Moduli (GPa) = 57.48202 78.63048 75.94839
#
# Poissons Ratio (x) = 0.38967 0.19298
# Poissons Ratio (y) = 0.28486 0.25132
# Poissons Ratio (z) = 0.14606 0.26020
#
# Static dielectric constant tensor:
#      x y z
#    x 4.278080 -0.386290 0.158240 
#    y -0.386290 3.616040 0.032630 
#    z 0.158240 0.032630 4.471340 
# 
# 
# High freq. dielectric constant tensor:
#      x y z
#    x 1.957430 -0.001300 0.022370 
#    y -0.001300 1.979960 -0.009570 
#    z 0.022370 -0.009570 1.961050 
# 
# From -- ./inp_files/46547.got.cif
#   From: 2010.06.25/outbox.cif.g09.slc.cpg/sg2_24_cif.got.tgz:46547.got - 2010.06.27 13:26:56.
