data_PCOD8033615
_publ_section_title
;
Structure prediction by ZEFSAII (Michael W. Deem and Ramdas Pophale) SiO2 
 PCOD8033615
Probable space group: P -1
;
_chemical_formula_sum "Si O2"
_cell_formula_units_Z 16
_cell_length_a 19.238184
_cell_length_b 9.324708
_cell_length_c 12.291718
_cell_angle_alpha 150.390686
_cell_angle_beta 38.860340
_cell_angle_gamma 130.777548
_cell_volume 681.525308
_symmetry_space_group_name_H-M "P -1"
_symmetry_group_IT_number 2
_symmetry_cell_setting 'triclinic'
loop_
_space_group_symop_operation_xyz
x,y,z
-x,-y,-z
loop_
_atom_site_type_symbol
_atom_site_label
_atom_site_fract_x
_atom_site_fract_y
_atom_site_fract_z
Si Si1 0.936227 0.732623 0.443976
Si Si2 0.934081 0.788408 0.724198
Si Si3 0.460604 0.602227 0.496247
Si Si4 0.436031 0.813142 0.269758
Si Si5 0.898048 0.777781 0.141513
Si Si6 0.239827 0.117874 0.820093
Si Si7 0.649381 0.295818 0.929353
Si Si8 0.755368 0.694042 0.460501
O O1 0.883216 0.766428 0.651116
O O2 0.839473 0.640148 0.421968
O O3 0.000000 0.000000 0.500000
O O4 0.029569 0.473101 0.173137
O O5 0.000000 0.500000 0.500000
O O6 0.830975 0.919708 0.009813
O O7 0.025749 0.017690 0.750258
O O8 0.500000 0.500000 0.500000
O O9 0.333661 0.547732 0.590358
O O10 0.474926 0.944792 0.689413
O O11 0.530941 0.409048 0.195334
O O12 0.362362 0.811603 0.250360
O O13 0.353315 0.901797 0.531326
O O14 0.500000 0.500000 0.000000
O O15 0.832341 0.960683 0.248038
O O16 0.816994 0.643002 0.237243
O O17 0.266219 0.454023 0.001429
O O18 0.698838 0.020874 0.757124
#
# Coordination Sequence:
#
# PCOD8033615 Si02
#       8
#     2   2   2   2   2   2   2   2
#     4  12  27  47  70 109 157 192 249 314 367 446
#     4  12  26  47  73 107 150 199 252 304 373 458
#     4  11  24  47  75 111 142 193 260 307 376 468
#     4  11  26  50  73 107 152 191 249 326 376 447
#     4  12  24  48  71 107 152 192 252 309 362 456
#     4  11  24  44  78 106 140 203 252 300 388 450
#     4  11  23  48  73 104 145 190 250 312 381 446
#     4  12  23  45  77 106 148 200 244 313 388 435
#
# _framework density 23.476751
#
# number of rings (size 3 to 8) (size 9 to 14) (size 15 to 20)
#    0.000    0.500    5.000    3.375    0.000    2.000 
#    6.750    0.000    0.000    0.000    0.000    0.000 
#    0.000    0.000    0.000    0.000    0.000    0.000 
#
# Total GULP energy -198452.477717 kJ/mol
# GULP energy per Si atom -12403.279857 kJ/mol
# Density = 2.342332 g / cm^3
# Si number density = 23.476751 Si / 1000 Ang^3
#
#
#
# Elastic Constant Matrix: (Units=GPa)
#
#
# Indices 1 2 3 4 5 6 
#
# 1 112.8885 49.4273 40.3727 -18.9743 5.3844 2.1912
# 2 49.4273 117.7013 65.0418 -17.3507 -3.9877 10.2858
# 3 40.3727 65.0418 140.0835 -9.4462 -2.3744 -0.1981
# 4 -18.9743 -17.3507 -9.4462 49.5028 -9.3771 7.0628
# 5 5.3844 -3.9877 -2.3744 -9.3771 35.9436 -4.9541
# 6 2.1912 10.2858 -0.1981 7.0628 -4.9541 42.2446
#
#
#
# Elastic Compliance Matrix: (Units=1/GPa)
#
#
# Indices 1 2 3 4 5 6 
#
# 1 0.011505 -0.003664 -0.001468 0.002591 -0.001597 -0.000332
# 2 -0.003664 0.013688 -0.005044 0.003329 0.002124 -0.003474
# 3 -0.001468 -0.005044 0.009872 -0.000591 0.000364 0.001492
# 4 0.002591 0.003329 -0.000591 0.023919 0.005591 -0.004291
# 5 -0.001597 0.002124 0.000364 0.005591 0.030076 0.002160
# 6 -0.000332 -0.003474 0.001492 -0.004291 0.002160 0.025512
#
#
# Mechanical properties :
#
#
# Convention : Reuss Voigt Hill
#
# Bulk Modulus (GPa) = 67.95901 75.59519 71.77710
# Shear Modulus (GPa) = 35.75780 39.92695 37.84238
#
# Velocity S-wave (km/s) = 3.90695 4.12843 4.01921
# Velocity P-wave (km/s) = 7.02585 7.41587 7.22349
#
# Compressibility (1/GPa) = 0.01471475
#
# Stress axis : x y z
#
# Youngs Moduli (GPa) = 86.91602 73.05542 101.29617
#
# Poissons Ratio (x) = 0.26765 0.14867
# Poissons Ratio (y) = 0.31843 0.51095
# Poissons Ratio (z) = 0.12756 0.36850
#
# Static dielectric constant tensor:
#      x y z
#    x 4.201790 0.096960 0.106020 
#    y 0.096960 4.014090 -0.427330 
#    z 0.106020 -0.427330 4.021300 
# 
# 
# High freq. dielectric constant tensor:
#      x y z
#    x 1.930370 0.008040 0.008480 
#    y 0.008040 1.931350 -0.005440 
#    z 0.008480 -0.005440 1.942860 
# 
# From -- ./inp_files/340512.got.cif
#   From: 2010.06.25/outbox.cif.g09.slc.cpg/sg2_171_cif.got.tgz:340512.got - 2010.06.27 13:26:56.
