data_PCOD8033655
_publ_section_title
;
Structure prediction by ZEFSAII (Michael W. Deem and Ramdas Pophale) SiO2 
 PCOD8033655
Probable space group: P -1
;
_chemical_formula_sum "Si O2"
_cell_formula_units_Z 16
_cell_length_a 5.244008
_cell_length_b 20.679286
_cell_length_c 9.442261
_cell_angle_alpha 129.715356
_cell_angle_beta 108.494053
_cell_angle_gamma 68.106259
_cell_volume 726.353283
_symmetry_space_group_name_H-M "P -1"
_symmetry_group_IT_number 2
_symmetry_cell_setting 'triclinic'
loop_
_space_group_symop_operation_xyz
x,y,z
-x,-y,-z
loop_
_atom_site_type_symbol
_atom_site_label
_atom_site_fract_x
_atom_site_fract_y
_atom_site_fract_z
Si Si1 0.727912 0.774686 0.766604
Si Si2 0.282497 0.811939 0.990248
Si Si3 0.287339 0.942626 0.417759
Si Si4 0.397820 0.524108 0.169703
Si Si5 0.231259 0.415473 0.456158
Si Si6 0.497221 0.213896 0.562579
Si Si7 0.026757 0.684146 0.221303
Si Si8 0.617415 0.642060 0.895254
O O1 0.522703 0.804602 0.904680
O O2 0.870207 0.671514 0.649226
O O3 0.551000 0.802635 0.633757
O O4 0.983174 0.820474 0.878984
O O5 0.366972 0.726834 0.987243
O O6 0.255032 0.895118 0.199042
O O7 0.389571 0.877960 0.474031
O O8 0.500000 0.000000 0.500000
O O9 0.000000 0.000000 0.500000
O O10 0.596897 0.568607 0.357079
O O11 0.109333 0.595037 0.202423
O O12 0.389149 0.432926 0.102953
O O13 0.500000 0.500000 0.000000
O O14 0.410995 0.395524 0.317820
O O15 0.000000 0.500000 0.500000
O O16 0.711847 0.274960 0.701134
O O17 0.208180 0.255072 0.643118
O O18 0.905896 0.668730 0.022480
#
# Coordination Sequence:
#
# PCOD8033655 Si02
#       8
#     2   2   2   2   2   2   2   2
#     4  11  25  45  71 105 144 198 233 293 356 427
#     4  11  25  47  73 106 147 187 240 285 367 432
#     4  12  27  50  81 113 141 181 235 301 369 451
#     4  12  25  42  63 104 144 199 253 302 349 409
#     4  11  24  39  64  98 148 190 260 291 351 398
#     4  12  26  47  76 105 146 185 239 295 370 433
#     4  12  25  43  71 102 145 190 244 299 351 431
#     4  11  25  41  67  99 146 194 243 300 355 406
#
# _framework density 22.027850000000001
#
# number of rings (size 3 to 8) (size 9 to 14) (size 15 to 20)
#    0.000    0.500    2.500    5.250    7.000    0.000 
#    0.000    3.750    0.000    0.000    0.000    0.000 
#    0.000    0.000    0.000    0.000    0.000    0.000 
#
# Total GULP energy -198361.993162 kJ/mol
# GULP energy per Si atom -12397.624573 kJ/mol
# Density = 2.197771 g / cm^3
# Si number density = 22.027850 Si / 1000 Ang^3
#
#
#
# Elastic Constant Matrix: (Units=GPa)
#
#
# Indices 1 2 3 4 5 6 
#
# 1 105.6348 34.9603 49.9770 9.5758 2.7974 -7.8714
# 2 34.9603 111.0118 51.8651 5.0202 -18.6558 -0.2063
# 3 49.9770 51.8651 177.5858 -3.4481 4.1234 -5.4450
# 4 9.5758 5.0202 -3.4481 38.0631 -4.5031 -4.6704
# 5 2.7974 -18.6558 4.1234 -4.5031 35.9114 5.9561
# 6 -7.8714 -0.2063 -5.4450 -4.6704 5.9561 38.2807
#
#
#
# Elastic Compliance Matrix: (Units=1/GPa)
#
#
# Indices 1 2 3 4 5 6 
#
# 1 0.012147 -0.003046 -0.002448 -0.002955 -0.002989 0.002238
# 2 -0.003046 0.012699 -0.003105 -0.000578 0.007489 -0.002235
# 3 -0.002448 -0.003105 0.007342 0.001555 -0.002247 0.001063
# 4 -0.002955 -0.000578 0.001555 0.027882 0.002821 0.002573
# 5 -0.002989 0.007489 -0.002247 0.002821 0.033538 -0.005768
# 6 0.002238 -0.002235 0.001063 0.002573 -0.005768 0.027934
#
#
# Mechanical properties :
#
#
# Convention : Reuss Voigt Hill
#
# Bulk Modulus (GPa) = 66.71761 74.20413 70.46087
# Shear Modulus (GPa) = 34.78614 39.61304 37.19959
#
# Velocity S-wave (km/s) = 3.97821 4.24526 4.11390
# Velocity P-wave (km/s) = 7.17323 7.60192 7.39068
#
# Compressibility (1/GPa) = 0.01498855
#
# Stress axis : x y z
#
# Youngs Moduli (GPa) = 82.32715 78.74909 136.20491
#
# Poissons Ratio (x) = 0.23987 0.33344
# Poissons Ratio (y) = 0.25077 0.42293
# Poissons Ratio (z) = 0.20155 0.24452
#
# Static dielectric constant tensor:
#      x y z
#    x 3.947970 -0.324170 0.433770 
#    y -0.324170 5.233490 -1.708180 
#    z 0.433770 -1.708180 6.812860 
# 
# 
# High freq. dielectric constant tensor:
#      x y z
#    x 1.863450 -0.005470 0.000920 
#    y -0.005470 1.870370 -0.010730 
#    z 0.000920 -0.010730 1.887950 
# 
# From -- ./inp_files/141636.got.cif
#   From: 2010.06.25/outbox.cif.g09.slc.cpg/sg2_71_cif.got.tgz:141636.got - 2010.06.27 13:26:56.
