data_PCOD8033152
_publ_section_title
;
Structure prediction by ZEFSAII (Michael W. Deem and Ramdas Pophale) SiO2 
 PCOD8033152
Probable space group: P -1
;
_chemical_formula_sum "Si O2"
_cell_formula_units_Z 14
_cell_length_a 6.070834
_cell_length_b 8.937389
_cell_length_c 25.575272
_cell_angle_alpha 37.643946
_cell_angle_beta 121.317419
_cell_angle_gamma 129.323365
_cell_volume 655.141886
_symmetry_space_group_name_H-M "P -1"
_symmetry_group_IT_number 2
_symmetry_cell_setting 'triclinic'
loop_
_space_group_symop_operation_xyz
x,y,z
-x,-y,-z
loop_
_atom_site_type_symbol
_atom_site_label
_atom_site_fract_x
_atom_site_fract_y
_atom_site_fract_z
Si Si1 0.153221 0.919980 0.990676
Si Si2 0.888619 0.291435 0.146562
Si Si3 0.694255 0.111027 0.542713
Si Si4 0.309109 0.359933 0.563613
Si Si5 0.130718 0.122712 0.822964
Si Si6 0.539707 0.989416 0.747195
Si Si7 0.415941 0.291817 0.267794
O O1 0.056213 0.046806 0.895270
O O2 0.004879 0.598786 0.058652
O O3 0.500000 0.000000 0.000000
O O4 0.000000 0.000000 0.000000
O O5 0.096385 0.244100 0.227308
O O6 0.589812 0.186353 0.168479
O O7 0.823851 0.117064 0.133935
O O8 0.729884 0.413512 0.470352
O O9 0.011823 0.134916 0.566350
O O10 0.500000 0.000000 0.500000
O O11 0.565768 0.917454 0.629907
O O12 0.500000 0.500000 0.500000
O O13 0.440084 0.221252 0.658411
O O14 0.410000 0.404053 0.774432
O O15 0.875337 0.154957 0.752674
O O16 0.450126 0.767581 0.751545
#
# Coordination Sequence:
#
# PCOD8033152 Si02
#       7
#     2   2   2   2   2   2   2
#     4  12  27  50  78 108 149 190 238 298 366 431
#     4  11  25  46  73  99 142 182 231 290 356 420
#     4  11  26  40  67  96 134 181 232 289 354 421
#     4  11  24  45  63  94 139 177 229 292 349 412
#     4  11  27  43  74 104 138 183 237 285 357 433
#     4  11  25  43  69 100 136 186 230 292 352 425
#     4  11  23  45  64 102 139 176 231 290 350 421
#
# _framework density 21.369415
#
# number of rings (size 3 to 8) (size 9 to 14) (size 15 to 20)
#    0.000    0.857    4.286    1.286    8.000    3.429 
#    0.000    0.000    0.000    0.000    0.000    0.000 
#    0.000    0.000    0.000    0.000    0.000    0.000 
#
# Total GULP energy -173468.918687 kJ/mol
# GULP energy per Si atom -12390.637049 kJ/mol
# Density = 2.132078 g / cm^3
# Si number density = 21.369415 Si / 1000 Ang^3
#
#
#
# Elastic Constant Matrix: (Units=GPa)
#
#
# Indices 1 2 3 4 5 6 
#
# 1 107.0701 42.1414 20.5669 1.6210 -13.4711 -4.3336
# 2 42.1414 137.4505 35.7463 -0.1929 -3.6424 -5.5219
# 3 20.5669 35.7463 88.7966 -4.8209 -1.6195 1.6071
# 4 1.6210 -0.1929 -4.8209 40.5645 0.0364 0.9347
# 5 -13.4711 -3.6424 -1.6195 0.0364 37.8955 -4.6291
# 6 -4.3336 -5.5219 1.6071 0.9347 -4.6291 24.1055
#
#
#
# Elastic Compliance Matrix: (Units=1/GPa)
#
#
# Indices 1 2 3 4 5 6 
#
# 1 0.011369 -0.002908 -0.001469 -0.000699 0.003977 0.002266
# 2 -0.002908 0.009015 -0.003001 -0.000238 -0.000083 0.001735
# 3 -0.001469 -0.003001 0.012925 0.001626 -0.000501 -0.001972
# 4 -0.000699 -0.000238 0.001626 0.024903 -0.000388 -0.001329
# 5 0.003977 -0.000083 -0.000501 -0.000388 0.028533 0.006224
# 6 0.002266 0.001735 -0.001972 -0.001329 0.006224 0.043667
#
#
# Mechanical properties :
#
#
# Convention : Reuss Voigt Hill
#
# Bulk Modulus (GPa) = 53.90259 58.91407 56.40833
# Shear Modulus (GPa) = 33.03528 36.17061 34.60295
#
# Velocity S-wave (km/s) = 3.93608 4.11863 4.02839
# Velocity P-wave (km/s) = 6.77760 7.08849 6.93479
#
# Compressibility (1/GPa) = 0.01855198
#
# Stress axis : x y z
#
# Youngs Moduli (GPa) = 87.95754 110.93013 77.36961
#
# Poissons Ratio (x) = 0.32261 0.11365
# Poissons Ratio (y) = 0.25580 0.23220
# Poissons Ratio (z) = 0.12921 0.33293
#
# Static dielectric constant tensor:
#      x y z
#    x 4.292970 -0.026780 0.088510 
#    y -0.026780 3.830870 0.111320 
#    z 0.088510 0.111320 3.745340 
# 
# 
# High freq. dielectric constant tensor:
#      x y z
#    x 1.844170 0.004030 -0.002190 
#    y 0.004030 1.842850 -0.002920 
#    z -0.002190 -0.002920 1.852500 
# 
# From -- ./inp_files/7567.got.cif
#   From: 2010.06.25/outbox.cif.g09.slc.cpg/sg2_4_cif.got.tgz:7567.got - 2010.06.27 13:26:56.
