data_PCOD8033122
_publ_section_title
;
Structure prediction by ZEFSAII (Michael W. Deem and Ramdas Pophale) SiO2 
 PCOD8033122
Probable space group: P -1
;
_chemical_formula_sum "Si O2"
_cell_formula_units_Z 14
_cell_length_a 9.349339
_cell_length_b 21.129140
_cell_length_c 8.998038
_cell_angle_alpha 130.596358
_cell_angle_beta 58.592457
_cell_angle_gamma 152.645703
_cell_volume 611.881459
_symmetry_space_group_name_H-M "P -1"
_symmetry_group_IT_number 2
_symmetry_cell_setting 'triclinic'
loop_
_space_group_symop_operation_xyz
x,y,z
-x,-y,-z
loop_
_atom_site_type_symbol
_atom_site_label
_atom_site_fract_x
_atom_site_fract_y
_atom_site_fract_z
Si Si1 0.644212 0.161680 0.564377
Si Si2 0.314654 0.700091 0.798991
Si Si3 0.605562 0.400537 0.644773
Si Si4 0.667132 0.995650 0.198910
Si Si5 0.625042 0.541109 0.330024
Si Si6 0.711703 0.838657 0.328579
Si Si7 0.676935 0.751619 0.913246
O O1 0.406257 0.062847 0.682311
O O2 0.583586 0.220700 0.595757
O O3 0.999857 0.307157 0.652806
O O4 0.569395 0.052017 0.327385
O O5 0.414872 0.690908 0.585265
O O6 0.393647 0.678276 0.868009
O O7 0.946107 0.563224 0.777667
O O8 0.489559 0.863508 0.971180
O O9 0.489654 0.433039 0.672348
O O10 0.381516 0.286543 0.731218
O O11 0.044233 0.149153 0.203535
O O12 0.500000 0.500000 0.500000
O O13 0.465601 0.387438 0.134233
O O14 0.812451 0.866012 0.145553
O O15 0.000000 0.000000 0.500000
#
# Coordination Sequence:
#
# PCOD8033122 Si02
#       7
#     2   2   2   2   2   2   2
#     4  11  26  45  75 105 145 189 238 297 360 424
#     4  11  23  44  75 103 145 190 240 289 360 426
#     4  11  27  45  71 109 146 187 238 310 349 421
#     4  11  24  43  77 106 140 192 242 288 355 429
#     4  12  25  48  75 104 144 192 245 290 361 431
#     4  12  29  46  72 111 148 182 244 303 358 422
#     4  12  25  47  78 104 143 199 239 288 363 436
#
# _framework density 22.880248000000002
#
# number of rings (size 3 to 8) (size 9 to 14) (size 15 to 20)
#    0.000    0.571    4.286    2.143   10.000    2.857 
#    0.000    2.143    0.000    0.000    0.000    0.000 
#    0.000    0.000    0.000    0.000    0.000    0.000 
#
# Total GULP energy -173580.585829 kJ/mol
# GULP energy per Si atom -12398.613274 kJ/mol
# Density = 2.282817 g / cm^3
# Si number density = 22.880248 Si / 1000 Ang^3
#
#
#
# Elastic Constant Matrix: (Units=GPa)
#
#
# Indices 1 2 3 4 5 6 
#
# 1 166.1063 83.2248 48.2506 -1.2366 6.0779 2.3694
# 2 83.2248 135.3583 38.9608 9.2608 -1.1025 3.5194
# 3 48.2506 38.9608 124.2234 16.1341 -1.5754 6.6791
# 4 -1.2366 9.2608 16.1341 36.5136 -3.3420 1.5598
# 5 6.0779 -1.1025 -1.5754 -3.3420 34.3640 7.5893
# 6 2.3694 3.5194 6.6791 1.5598 7.5893 32.7438
#
#
#
# Elastic Compliance Matrix: (Units=1/GPa)
#
#
# Indices 1 2 3 4 5 6 
#
# 1 0.009467 -0.005338 -0.002392 0.002532 -0.001861 0.000687
# 2 -0.005338 0.011170 -0.001062 -0.002404 0.001188 -0.000758
# 3 -0.002392 -0.001062 0.009943 -0.004054 0.000835 -0.001741
# 4 0.002532 -0.002404 -0.004054 0.030147 0.002465 -0.001105
# 5 -0.001861 0.001188 0.000835 0.002465 0.031416 -0.007562
# 6 0.000687 -0.000758 -0.001741 -0.001105 -0.007562 0.032733
#
#
# Mechanical properties :
#
#
# Convention : Reuss Voigt Hill
#
# Bulk Modulus (GPa) = 76.95315 85.17339 81.06327
# Shear Modulus (GPa) = 34.06209 37.74106 35.90157
#
# Velocity S-wave (km/s) = 3.86257 4.06581 3.96549
# Velocity P-wave (km/s) = 7.32111 7.70374 7.51486
#
# Compressibility (1/GPa) = 0.01299492
#
# Stress axis : x y z
#
# Youngs Moduli (GPa) = 105.62974 89.52910 100.57362
#
# Poissons Ratio (x) = 0.47795 0.24060
# Poissons Ratio (y) = 0.56390 0.10677
# Poissons Ratio (z) = 0.25269 0.09504
#
# Static dielectric constant tensor:
#      x y z
#    x 4.507230 -0.511570 -0.329500 
#    y -0.511570 4.765600 0.205810 
#    z -0.329500 0.205810 4.457390 
# 
# 
# High freq. dielectric constant tensor:
#      x y z
#    x 1.900310 -0.002300 -0.010860 
#    y -0.002300 1.904280 0.008140 
#    z -0.010860 0.008140 1.917900 
# 
# From -- ./inp_files/224039.got.cif
#   From: 2010.06.25/outbox.cif.g09.slc.cpg/sg2_113_cif.got.tgz:224039.got - 2010.06.27 13:26:56.
