data_PCOD8033457
_publ_section_title
;
Structure prediction by ZEFSAII (Michael W. Deem and Ramdas Pophale) SiO2 
 PCOD8033457
Probable space group: P -1
;
_chemical_formula_sum "Si O2"
_cell_formula_units_Z 16
_cell_length_a 11.496610
_cell_length_b 11.591350
_cell_length_c 8.991589
_cell_angle_alpha 123.759276
_cell_angle_beta 125.557560
_cell_angle_gamma 50.433358
_cell_volume 717.909334
_symmetry_space_group_name_H-M "P -1"
_symmetry_group_IT_number 2
_symmetry_cell_setting 'triclinic'
loop_
_space_group_symop_operation_xyz
x,y,z
-x,-y,-z
loop_
_atom_site_type_symbol
_atom_site_label
_atom_site_fract_x
_atom_site_fract_y
_atom_site_fract_z
Si Si1 0.787650 0.111785 0.147829
Si Si2 0.599030 0.164267 0.748511
Si Si3 0.355744 0.614783 0.273635
Si Si4 0.728976 0.826256 0.501318
Si Si5 0.041034 0.703015 0.457763
Si Si6 0.470946 0.708799 0.705702
Si Si7 0.992167 0.763636 0.128031
Si Si8 0.776937 0.658288 0.725683
O O1 0.873295 0.217903 0.324887
O O2 0.648700 0.135785 0.182304
O O3 0.916520 0.931445 0.113724
O O4 0.709684 0.161034 0.963950
O O5 0.561818 0.314698 0.727104
O O6 0.426552 0.182941 0.688123
O O7 0.692896 0.007099 0.606822
O O8 0.358840 0.669875 0.484105
O O9 0.451206 0.426784 0.208090
O O10 0.172100 0.669855 0.131380
O O11 0.764288 0.762174 0.649034
O O12 0.881281 0.723033 0.438128
O O13 0.167334 0.520622 0.404244
O O14 0.986247 0.784798 0.315987
O O15 0.602917 0.734279 0.729805
O O16 0.901286 0.665024 0.941518
#
# Coordination Sequence:
#
# PCOD8033457 Si02
#       8
#     2   2   2   2   2   2   2   2
#     4  12  27  44  71 109 138 184 240 286 344 416
#     4  11  26  46  70 101 143 189 228 287 353 414
#     4  11  23  46  72  96 144 185 232 288 346 407
#     4  11  26  46  69 103 144 184 228 288 355 416
#     4  12  26  45  71 103 142 183 233 290 350 414
#     4  11  24  45  72 101 138 185 233 291 341 412
#     4  12  26  44  73 105 141 184 235 289 349 411
#     4  12  25  49  70 103 143 184 229 291 352 418
#
# _framework density 22.286937000000002
#
# number of rings (size 3 to 8) (size 9 to 14) (size 15 to 20)
#    0.000    0.500    5.000    2.625    5.250    2.000 
#    0.000    0.000    0.000    0.000    0.000    0.000 
#    0.000    0.000    0.000    0.000    0.000    0.000 
#
# Total GULP energy -198516.117295 kJ/mol
# GULP energy per Si atom -12407.257331 kJ/mol
# Density = 2.223621 g / cm^3
# Si number density = 22.286937 Si / 1000 Ang^3
#
#
#
# Elastic Constant Matrix: (Units=GPa)
#
#
# Indices 1 2 3 4 5 6 
#
# 1 95.2136 17.2176 15.6482 -4.8409 11.1980 -1.3735
# 2 17.2176 73.0963 27.2066 -12.8642 5.3983 4.5610
# 3 15.6482 27.2066 117.0713 -10.8854 21.3657 6.7776
# 4 -4.8409 -12.8642 -10.8854 31.6378 5.9534 0.3513
# 5 11.1980 5.3983 21.3657 5.9534 31.7135 -8.5979
# 6 -1.3735 4.5610 6.7776 0.3513 -8.5979 38.3271
#
#
#
# Elastic Compliance Matrix: (Units=1/GPa)
#
#
# Indices 1 2 3 4 5 6 
#
# 1 0.011442 -0.002044 -0.000175 0.001601 -0.003932 -0.000212
# 2 -0.002044 0.016416 -0.002490 0.005919 -0.002077 -0.002107
# 3 -0.000175 -0.002490 0.011473 0.004674 -0.009161 -0.003837
# 4 0.001601 0.005919 0.004674 0.038411 -0.013233 -0.004794
# 5 -0.003932 -0.002077 -0.009161 -0.013233 0.045179 0.011983
# 6 -0.000212 -0.002107 -0.003837 -0.004794 0.011983 0.029745
#
#
# Mechanical properties :
#
#
# Convention : Reuss Voigt Hill
#
# Bulk Modulus (GPa) = 33.43342 45.05845 39.24594
# Shear Modulus (GPa) = 29.06047 35.35627 32.20837
#
# Velocity S-wave (km/s) = 3.61491 3.98730 3.80566
# Velocity P-wave (km/s) = 5.69713 6.43890 6.07934
#
# Compressibility (1/GPa) = 0.02991019
#
# Stress axis : x y z
#
# Youngs Moduli (GPa) = 87.39700 60.91778 87.16419
#
# Poissons Ratio (x) = 0.12454 0.01529
# Poissons Ratio (y) = 0.17867 0.21706
# Poissons Ratio (z) = 0.01533 0.15170
#
# Static dielectric constant tensor:
#      x y z
#    x 3.943360 -0.085600 0.141100 
#    y -0.085600 4.048930 -0.138120 
#    z 0.141100 -0.138120 4.027190 
# 
# 
# High freq. dielectric constant tensor:
#      x y z
#    x 1.881560 -0.002390 0.012100 
#    y -0.002390 1.882970 -0.013580 
#    z 0.012100 -0.013580 1.880830 
# 
# From -- ./inp_files/263168.got.cif
#   From: 2010.06.25/outbox.cif.g09.slc.cpg/sg2_132_cif.got.tgz:263168.got - 2010.06.27 13:26:56.
