data_PCOD8033799
_publ_section_title
;
Structure prediction by ZEFSAII (Michael W. Deem and Ramdas Pophale) SiO2 
 PCOD8033799
Probable space group: P -1
;
_chemical_formula_sum "Si O2"
_cell_formula_units_Z 14
_cell_length_a 16.776121
_cell_length_b 11.620196
_cell_length_c 7.736652
_cell_angle_alpha 142.867159
_cell_angle_beta 131.188411
_cell_angle_gamma 37.849655
_cell_volume 556.924805
_symmetry_space_group_name_H-M "P -1"
_symmetry_group_IT_number 2
_symmetry_cell_setting 'triclinic'
loop_
_space_group_symop_operation_xyz
x,y,z
-x,-y,-z
loop_
_atom_site_type_symbol
_atom_site_label
_atom_site_fract_x
_atom_site_fract_y
_atom_site_fract_z
Si Si1 0.392463 0.670137 0.818743
Si Si2 0.224038 0.536505 0.570848
Si Si3 0.985339 0.236309 0.726224
Si Si4 0.688648 0.336838 0.821494
Si Si5 0.264078 0.036870 0.789634
Si Si6 0.748897 0.616750 0.039314
Si Si7 0.648688 0.909481 0.585079
O O1 0.308253 0.565367 0.581918
O O2 0.540748 0.460287 0.818518
O O3 0.375960 0.810906 0.787643
O O4 0.342763 0.869975 0.135237
O O5 0.080934 0.668723 0.443990
O O6 0.280608 0.263140 0.354204
O O7 0.227370 0.648233 0.890729
O O8 0.902032 0.421996 0.983299
O O9 0.000000 0.000000 0.500000
O O10 0.125318 0.191201 0.873127
O O11 0.754762 0.070158 0.540290
O O12 0.681892 0.482505 0.815810
O O13 0.307450 0.204974 0.992930
O O14 0.725354 0.767443 0.355332
O O15 0.500000 0.000000 0.500000
#
# Coordination Sequence:
#
# PCOD8033799 Si02
#       7
#     2   2   2   2   2   2   2
#     4  12  23  42  71 101 139 178 222 277 345 401
#     4  11  24  43  72  96 141 176 225 282 332 397
#     4  12  24  49  67  96 140 179 234 277 328 398
#     4  11  24  42  66 106 133 175 229 276 342 401
#     4  12  26  43  71  99 137 186 224 276 338 394
#     4  11  24  45  67  98 137 174 228 280 331 405
#     4  11  24  45  68 103 139 172 220 280 342 405
#
# _framework density 25.138044000000001
#
# number of rings (size 3 to 8) (size 9 to 14) (size 15 to 20)
#    0.000    0.571    5.714    3.000    2.000    1.143 
#    0.000    3.571    0.000    0.000    0.000    0.000 
#    0.000    0.000    0.000    0.000    0.000    0.000 
#
# Total GULP energy -173553.715623 kJ/mol
# GULP energy per Si atom -12396.693973 kJ/mol
# Density = 2.508083 g / cm^3
# Si number density = 25.138044 Si / 1000 Ang^3
#
#
#
# Elastic Constant Matrix: (Units=GPa)
#
#
# Indices 1 2 3 4 5 6 
#
# 1 95.0587 27.1788 28.0015 17.6333 -9.6419 8.3878
# 2 27.1788 117.2171 18.3162 4.6821 -9.3244 3.7722
# 3 28.0015 18.3162 53.2411 25.3691 -8.2294 -17.5330
# 4 17.6333 4.6821 25.3691 40.6351 4.2117 2.5862
# 5 -9.6419 -9.3244 -8.2294 4.2117 53.1137 10.7934
# 6 8.3878 3.7722 -17.5330 2.5862 10.7934 39.7542
#
#
#
# Elastic Compliance Matrix: (Units=1/GPa)
#
#
# Indices 1 2 3 4 5 6 
#
# 1 0.014641 -0.001493 -0.009241 -0.000185 0.002544 -0.007702
# 2 -0.001493 0.009682 -0.004549 0.002449 0.001156 -0.003083
# 3 -0.009241 -0.004549 0.045394 -0.025492 0.001788 0.023575
# 4 -0.000185 0.002449 -0.025492 0.041586 -0.004210 -0.012998
# 5 0.002544 0.001156 0.001788 -0.004210 0.021188 -0.005337
# 6 -0.007702 -0.003083 0.023575 -0.012998 -0.005337 0.039764
#
#
# Mechanical properties :
#
#
# Convention : Reuss Voigt Hill
#
# Bulk Modulus (GPa) = 25.54265 45.83443 35.68854
# Shear Modulus (GPa) = 23.16203 39.50195 31.33199
#
# Velocity S-wave (km/s) = 3.03874 3.96839 3.53427
# Velocity P-wave (km/s) = 4.74288 6.26659 5.55721
#
# Compressibility (1/GPa) = 0.03915021
#
# Stress axis : x y z
#
# Youngs Moduli (GPa) = 68.30164 103.28946 22.02922
#
# Poissons Ratio (x) = 0.15422 0.20358
# Poissons Ratio (y) = 0.10198 0.10020
# Poissons Ratio (z) = 0.63121 0.46983
#
# Static dielectric constant tensor:
#      x y z
#    x 4.782300 0.394260 -0.061640 
#    y 0.394260 4.457630 0.350120 
#    z -0.061640 0.350120 4.919040 
# 
# 
# High freq. dielectric constant tensor:
#      x y z
#    x 2.003970 0.028410 -0.001490 
#    y 0.028410 1.989580 0.018630 
#    z -0.001490 0.018630 2.026240 
# 
# From -- ./inp_files/333945.got.cif
#   From: 2010.06.25/outbox.cif.g09.slc.cpg/sg2_167_cif.got.tgz:333945.got - 2010.06.27 13:26:56.
