data_PCOD8033621
_publ_section_title
;
Structure prediction by ZEFSAII (Michael W. Deem and Ramdas Pophale) SiO2 
 PCOD8033621
Probable space group: P -1
;
_chemical_formula_sum "Si O2"
_cell_formula_units_Z 16
_cell_length_a 21.884429
_cell_length_b 9.046148
_cell_length_c 12.677629
_cell_angle_alpha 34.967790
_cell_angle_beta 150.824570
_cell_angle_gamma 136.307631
_cell_volume 700.942207
_symmetry_space_group_name_H-M "P -1"
_symmetry_group_IT_number 2
_symmetry_cell_setting 'triclinic'
loop_
_space_group_symop_operation_xyz
x,y,z
-x,-y,-z
loop_
_atom_site_type_symbol
_atom_site_label
_atom_site_fract_x
_atom_site_fract_y
_atom_site_fract_z
Si Si1 0.006649 0.228848 0.615629
Si Si2 0.757829 0.460859 0.791001
Si Si3 0.354940 0.121080 0.470249
Si Si4 0.896948 0.091662 0.872674
Si Si5 0.182992 0.144077 0.522171
Si Si6 0.981371 0.659888 0.664748
Si Si7 0.478572 0.745057 0.545673
Si Si8 0.533327 0.826041 0.053007
O O1 0.000000 0.500000 0.500000
O O2 0.061643 0.267296 0.559456
O O3 0.865823 0.099877 0.478648
O O4 0.100096 0.058412 0.924292
O O5 0.680261 0.668060 0.619347
O O6 0.824238 0.601894 0.709380
O O7 0.658246 0.247026 0.721552
O O8 0.866377 0.335879 0.098034
O O9 0.414635 0.267777 0.374555
O O10 0.236562 0.949498 0.357262
O O11 0.451291 0.913526 0.780195
O O12 0.919948 0.386894 0.762746
O O13 0.000000 0.000000 0.000000
O O14 0.080385 0.142017 0.463367
O O15 0.321918 0.108873 0.796105
O O16 0.487993 0.480135 0.781468
O O17 0.500000 0.000000 0.500000
O O18 0.500000 0.000000 0.000000
#
# Coordination Sequence:
#
# PCOD8033621 Si02
#       8
#     2   2   2   2   2   2   2   2
#     4  12  25  44  71 107 144 191 246 302 361 442
#     4  11  23  48  77 103 147 199 246 300 371 453
#     4  12  25  48  79 103 149 199 250 300 370 448
#     4  12  25  47  72 109 147 189 244 308 365 434
#     4  11  25  47  73 106 147 190 245 305 374 432
#     4  12  26  45  74 108 149 190 243 308 376 428
#     4  11  28  48  73 116 148 192 251 314 369 431
#     4  11  26  49  78 105 145 199 251 298 366 457
#
# _framework density 22.826416999999999
#
# number of rings (size 3 to 8) (size 9 to 14) (size 15 to 20)
#    0.000    0.500    6.250    1.125    5.250    2.500 
#    2.250    0.000    0.000    0.000    0.000    0.000 
#    0.000    0.000    0.000    0.000    0.000    0.000 
#
# Total GULP energy -198445.637225 kJ/mol
# GULP energy per Si atom -12402.852327 kJ/mol
# Density = 2.277446 g / cm^3
# Si number density = 22.826417 Si / 1000 Ang^3
#
#
#
# Elastic Constant Matrix: (Units=GPa)
#
#
# Indices 1 2 3 4 5 6 
#
# 1 110.6965 20.4016 33.6038 6.8312 0.8099 -8.4408
# 2 20.4016 178.2651 53.6101 12.7112 6.8384 -8.4992
# 3 33.6038 53.6101 141.0293 17.8732 -5.5725 -5.0984
# 4 6.8312 12.7112 17.8732 42.4677 3.8409 4.5183
# 5 0.8099 6.8384 -5.5725 3.8409 35.5614 6.4006
# 6 -8.4408 -8.4992 -5.0984 4.5183 6.4006 27.7170
#
#
#
# Elastic Compliance Matrix: (Units=1/GPa)
#
#
# Indices 1 2 3 4 5 6 
#
# 1 0.010006 -0.000276 -0.002100 -0.000871 -0.000938 0.002935
# 2 -0.000276 0.006580 -0.002306 -0.001008 -0.001891 0.002111
# 3 -0.002100 -0.002306 0.008938 -0.002959 0.002161 0.000281
# 4 -0.000871 -0.001008 -0.002959 0.025947 -0.002181 -0.004845
# 5 -0.000938 -0.001891 0.002161 -0.002181 0.030362 -0.007124
# 6 0.002935 0.002111 0.000281 -0.004845 -0.007124 0.040107
#
#
# Mechanical properties :
#
#
# Convention : Reuss Voigt Hill
#
# Bulk Modulus (GPa) = 61.87871 71.69132 66.78501
# Shear Modulus (GPa) = 36.57886 42.64090 39.60988
#
# Velocity S-wave (km/s) = 4.00744 4.32678 4.17017
# Velocity P-wave (km/s) = 6.96994 7.51244 7.24627
#
# Compressibility (1/GPa) = 0.01616065
#
# Stress axis : x y z
#
# Youngs Moduli (GPa) = 99.93563 151.98090 111.87731
#
# Poissons Ratio (x) = 0.04189 0.23496
# Poissons Ratio (y) = 0.02754 0.25801
# Poissons Ratio (z) = 0.20988 0.35050
#
# Static dielectric constant tensor:
#      x y z
#    x 4.511640 -0.060620 -0.552990 
#    y -0.060620 4.198710 0.516820 
#    z -0.552990 0.516820 5.303590 
# 
# 
# High freq. dielectric constant tensor:
#      x y z
#    x 1.904030 0.007590 -0.012230 
#    y 0.007590 1.920510 0.005240 
#    z -0.012230 0.005240 1.900220 
# 
# From -- ./inp_files/469801.got.cif
#   From: 2010.06.25/outbox.cif.g09.slc.cpg/sg2_235_cif.got.tgz:469801.got - 2010.06.27 13:26:56.
