data_PCOD8033276
_publ_section_title
;
Structure prediction by ZEFSAII (Michael W. Deem and Ramdas Pophale) SiO2 
 PCOD8033276
Probable space group: P -1
;
_chemical_formula_sum "Si O2"
_cell_formula_units_Z 16
_cell_length_a 6.829535
_cell_length_b 14.580422
_cell_length_c 8.564123
_cell_angle_alpha 69.538296
_cell_angle_beta 100.276063
_cell_angle_gamma 72.014065
_cell_volume 719.643655
_symmetry_space_group_name_H-M "P -1"
_symmetry_group_IT_number 2
_symmetry_cell_setting 'triclinic'
loop_
_space_group_symop_operation_xyz
x,y,z
-x,-y,-z
loop_
_atom_site_type_symbol
_atom_site_label
_atom_site_fract_x
_atom_site_fract_y
_atom_site_fract_z
Si Si1 0.515113 0.395864 0.156891
Si Si2 0.072302 0.763218 0.542346
Si Si3 0.325945 0.951284 0.975268
Si Si4 0.885346 0.654833 0.328190
Si Si5 0.682260 0.535468 0.573564
Si Si6 0.732234 0.911644 0.633519
Si Si7 0.381455 0.230525 0.064117
Si Si8 0.858751 0.073785 0.731995
O O1 0.770323 0.322800 0.262566
O O2 0.385907 0.422113 0.286181
O O3 0.411985 0.333627 0.069582
O O4 0.500000 0.500000 0.000000
O O5 0.215140 0.822399 0.450721
O O6 0.997660 0.702526 0.439143
O O7 0.862001 0.855176 0.532330
O O8 0.391397 0.864357 0.897689
O O9 0.307218 0.894038 0.166835
O O10 0.100820 0.048087 0.843072
O O11 0.500000 0.000000 0.000000
O O12 0.704904 0.623817 0.408353
O O13 0.077121 0.557339 0.328350
O O14 0.769510 0.740252 0.127270
O O15 0.500000 0.500000 0.500000
O O16 0.724350 0.815856 0.792081
O O17 0.500000 0.000000 0.500000
O O18 0.862876 0.969367 0.707646
#
# Coordination Sequence:
#
# PCOD8033276 Si02
#       8
#     2   2   2   2   2   2   2   2
#     4  12  28  47  74 106 150 193 242 309 365 437
#     4  12  26  46  72 109 144 194 248 291 375 440
#     4  11  23  45  72 108 146 184 244 302 362 430
#     4  11  27  44  77 107 138 190 247 301 360 441
#     4  11  24  51  73 101 146 190 242 307 369 420
#     4  12  26  46  72 105 153 192 242 305 365 436
#     4  12  26  44  75 109 144 193 242 301 368 435
#     4  11  25  43  73 102 144 192 237 298 359 437
#
# _framework density 22.233225000000001
#
# number of rings (size 3 to 8) (size 9 to 14) (size 15 to 20)
#    0.000    0.500    2.500    4.875    8.750    1.500 
#    0.000    0.000    0.000    0.000    0.000    0.000 
#    0.000    0.000    0.000    0.000    0.000    0.000 
#
# Total GULP energy -198480.330072 kJ/mol
# GULP energy per Si atom -12405.020629 kJ/mol
# Density = 2.218262 g / cm^3
# Si number density = 22.233225 Si / 1000 Ang^3
#
#
#
# Elastic Constant Matrix: (Units=GPa)
#
#
# Indices 1 2 3 4 5 6 
#
# 1 119.7448 42.6399 45.7099 -6.4735 -11.9525 6.1639
# 2 42.6399 112.2291 22.4557 9.9226 -11.6726 17.4805
# 3 45.7099 22.4557 107.2900 -11.2087 -9.3405 16.2793
# 4 -6.4735 9.9226 -11.2087 39.2869 3.5593 -13.3541
# 5 -11.9525 -11.6726 -9.3405 3.5593 45.0249 3.6729
# 6 6.1639 17.4805 16.2793 -13.3541 3.6729 47.0508
#
#
#
# Elastic Compliance Matrix: (Units=1/GPa)
#
#
# Indices 1 2 3 4 5 6 
#
# 1 0.011396 -0.003952 -0.004011 0.002322 0.000826 0.001958
# 2 -0.003952 0.012257 -0.000366 -0.006124 0.003016 -0.005883
# 3 -0.004011 -0.000366 0.011870 0.001638 0.001426 -0.003092
# 4 0.002322 -0.006124 0.001638 0.031875 -0.004029 0.010766
# 5 0.000826 0.003016 0.001426 -0.004029 0.024213 -0.004756
# 6 0.001958 -0.005883 -0.003092 0.010766 -0.004756 0.027679
#
#
# Mechanical properties :
#
#
# Convention : Reuss Voigt Hill
#
# Bulk Modulus (GPa) = 53.00622 62.31944 57.66283
# Shear Modulus (GPa) = 35.15251 41.50307 38.32779
#
# Velocity S-wave (km/s) = 3.98059 4.32524 4.15649
# Velocity P-wave (km/s) = 6.70966 7.28246 7.00192
#
# Compressibility (1/GPa) = 0.01886571
#
# Stress axis : x y z
#
# Youngs Moduli (GPa) = 87.74628 81.58910 84.24359
#
# Poissons Ratio (x) = 0.32242 0.33788
# Poissons Ratio (y) = 0.34675 0.03085
# Poissons Ratio (z) = 0.35193 0.02988
#
# Static dielectric constant tensor:
#      x y z
#    x 4.133510 -0.110050 -0.204870 
#    y -0.110050 4.281670 0.127450 
#    z -0.204870 0.127450 4.238160 
# 
# 
# High freq. dielectric constant tensor:
#      x y z
#    x 1.884700 0.000870 -0.006910 
#    y 0.000870 1.888330 0.002640 
#    z -0.006910 0.002640 1.886420 
# 
# From -- ./inp_files/47789.got.cif
#   From: 2010.06.25/outbox.cif.g09.slc.cpg/sg2_24_cif.got.tgz:47789.got - 2010.06.27 13:26:56.
