data_PCOD8033955
_publ_section_title
;
Structure prediction by ZEFSAII (Michael W. Deem and Ramdas Pophale) SiO2 
 PCOD8033955
Probable space group: P -1
;
_chemical_formula_sum "Si O2"
_cell_formula_units_Z 16
_cell_length_a 21.862072
_cell_length_b 10.827265
_cell_length_c 5.802308
_cell_angle_alpha 113.743434
_cell_angle_beta 124.013691
_cell_angle_gamma 35.449472
_cell_volume 656.252472
_symmetry_space_group_name_H-M "P -1"
_symmetry_group_IT_number 2
_symmetry_cell_setting 'triclinic'
loop_
_space_group_symop_operation_xyz
x,y,z
-x,-y,-z
loop_
_atom_site_type_symbol
_atom_site_label
_atom_site_fract_x
_atom_site_fract_y
_atom_site_fract_z
Si Si1 0.526683 0.347211 0.120830
Si Si2 0.255900 0.937423 0.348410
Si Si3 0.566203 0.914919 0.328508
Si Si4 0.099519 0.708508 0.786663
Si Si5 0.311710 0.027852 0.151231
Si Si6 0.144166 0.867001 0.329182
Si Si7 0.133872 0.352542 0.662623
Si Si8 0.296270 0.541392 0.773491
O O1 0.405996 0.461894 0.066432
O O2 0.589678 0.133863 0.957862
O O3 0.500000 0.500000 0.000000
O O4 0.612656 0.277735 0.446767
O O5 0.174788 0.924897 0.225708
O O6 0.269963 0.942659 0.107472
O O7 0.200084 0.154679 0.489541
O O8 0.634058 0.961458 0.516147
O O9 0.663903 0.662857 0.368082
O O10 0.500000 0.000000 0.500000
O O11 0.500000 0.000000 0.000000
O O12 0.144294 0.491987 0.703775
O O13 0.182180 0.688920 0.799600
O O14 0.106332 0.769158 0.099156
O O15 0.962259 0.914761 0.582815
O O16 0.196049 0.261037 0.974696
O O17 0.260201 0.685454 0.589673
O O18 0.000000 0.500000 0.500000
#
# Coordination Sequence:
#
# PCOD8033955 Si02
#       8
#     2   2   2   2   2   2   2   2
#     4  11  24  43  67 106 145 188 249 306 378 473
#     4  11  24  45  71 102 141 195 245 321 381 467
#     4  12  27  48  78 116 160 206 261 324 396 476
#     4  11  26  45  70 104 143 196 249 318 386 463
#     4  11  26  44  71 106 148 193 258 317 388 466
#     4  11  25  46  68 106 148 185 258 315 385 468
#     4  11  24  48  73 102 145 190 257 316 379 463
#     4  12  25  44  76 100 149 196 244 311 396 451
#
# _framework density 24.380859000000001
#
# number of rings (size 3 to 8) (size 9 to 14) (size 15 to 20)
#    0.000    0.750    3.750    2.625    7.000    2.000 
#    4.500    0.000    0.000    0.000    0.000    0.000 
#    0.000    0.000    0.000    0.000    0.000    0.000 
#
# Total GULP energy -198271.258004 kJ/mol
# GULP energy per Si atom -12391.953625 kJ/mol
# Density = 2.432537 g / cm^3
# Si number density = 24.380859 Si / 1000 Ang^3
#
#
#
# Elastic Constant Matrix: (Units=GPa)
#
#
# Indices 1 2 3 4 5 6 
#
# 1 141.7359 30.4722 22.5388 -14.5825 4.5553 -8.3078
# 2 30.4722 86.3988 34.0948 -26.5569 3.2251 13.8408
# 3 22.5388 34.0948 97.5671 -13.2355 4.1345 1.1452
# 4 -14.5825 -26.5569 -13.2355 36.6940 2.2342 10.3724
# 5 4.5553 3.2251 4.1345 2.2342 41.2059 -2.1813
# 6 -8.3078 13.8408 1.1452 10.3724 -2.1813 47.1511
#
#
#
# Elastic Compliance Matrix: (Units=1/GPa)
#
#
# Indices 1 2 3 4 5 6 
#
# 1 0.007942 -0.002676 -0.000857 0.000344 -0.000490 0.002107
# 2 -0.002676 0.020529 -0.004289 0.015161 -0.002223 -0.009832
# 3 -0.000857 -0.004289 0.012080 0.000790 -0.000792 0.000604
# 4 0.000344 0.015161 0.000790 0.042883 -0.004373 -0.014045
# 5 -0.000490 -0.002223 -0.000792 -0.004373 0.024956 0.002702
# 6 0.002107 -0.009832 0.000604 -0.014045 0.002702 0.027666
#
#
# Mechanical properties :
#
#
# Convention : Reuss Voigt Hill
#
# Bulk Modulus (GPa) = 40.15127 55.54594 47.84861
# Shear Modulus (GPa) = 31.24960 40.91659 36.08310
#
# Velocity S-wave (km/s) = 3.58401 4.10106 3.85122
# Velocity P-wave (km/s) = 5.79922 6.72733 6.28044
#
# Compressibility (1/GPa) = 0.02490581
#
# Stress axis : x y z
#
# Youngs Moduli (GPa) = 125.91787 48.71153 82.78307
#
# Poissons Ratio (x) = 0.13037 0.07091
# Poissons Ratio (y) = 0.33702 0.35508
# Poissons Ratio (z) = 0.10786 0.20894
#
# Static dielectric constant tensor:
#      x y z
#    x 4.463790 -0.035950 0.110070 
#    y -0.035950 4.703380 -0.082600 
#    z 0.110070 -0.082600 4.295070 
# 
# 
# High freq. dielectric constant tensor:
#      x y z
#    x 1.981720 0.003460 0.012920 
#    y 0.003460 1.987690 -0.005220 
#    z 0.012920 -0.005220 1.949940 
# 
# From -- ./inp_files/70056.got.cif
#   From: 2010.06.25/outbox.cif.g09.slc.cpg/sg2_36_cif.got.tgz:70056.got - 2010.06.27 13:26:56.
