data_PCOD8033100
_publ_section_title
;
Structure prediction by ZEFSAII (Michael W. Deem and Ramdas Pophale) SiO2 
 PCOD8033100
Probable space group: P -1
;
_chemical_formula_sum "Si O2"
_cell_formula_units_Z 16
_cell_length_a 9.043879
_cell_length_b 13.276861
_cell_length_c 16.661406
_cell_angle_alpha 24.132730
_cell_angle_beta 100.555497
_cell_angle_gamma 90.331369
_cell_volume 736.436283
_symmetry_space_group_name_H-M "P -1"
_symmetry_group_IT_number 2
_symmetry_cell_setting 'triclinic'
loop_
_space_group_symop_operation_xyz
x,y,z
-x,-y,-z
loop_
_atom_site_type_symbol
_atom_site_label
_atom_site_fract_x
_atom_site_fract_y
_atom_site_fract_z
Si Si1 0.929294 0.602192 0.614958
Si Si2 0.860586 0.899662 0.081396
Si Si3 0.859153 0.378176 0.931318
Si Si4 0.117502 0.791820 0.601528
Si Si5 0.735858 0.940871 0.210418
Si Si6 0.771895 0.808245 0.888110
Si Si7 0.573029 0.178204 0.741210
Si Si8 0.327570 0.104160 0.361997
O O1 0.848159 0.489747 0.758502
O O2 0.796443 0.718298 0.447819
O O3 0.095343 0.376764 0.759971
O O4 0.992626 0.822417 0.493493
O O5 0.855727 0.852215 0.210267
O O6 0.685756 0.108338 0.881912
O O7 0.000000 0.000000 0.000000
O O8 0.797472 0.620620 0.811775
O O9 0.048092 0.188856 0.110940
O O10 0.739961 0.219144 0.040812
O O11 0.266020 0.866769 0.537225
O O12 0.197283 0.485361 0.862149
O O13 0.000000 0.000000 0.500000
O O14 0.556843 0.956885 0.159556
O O15 0.663626 0.851986 0.764496
O O16 0.674756 0.049411 0.764325
O O17 0.500000 0.500000 0.500000
O O18 0.500000 0.000000 0.500000
#
# Coordination Sequence:
#
# PCOD8033100 Si02
#       8
#     2   2   2   2   2   2   2   2
#     4  11  23  44  74 100 138 185 242 279 353 423
#     4  12  23  48  71 102 138 187 241 291 345 431
#     4  11  24  47  71 104 143 187 241 289 341 439
#     4  11  23  44  74 100 139 186 237 284 345 427
#     4  12  27  41  74 104 142 182 234 300 362 401
#     4  11  25  49  71 101 144 192 239 285 348 432
#     4  12  28  48  72 105 146 189 233 301 356 416
#     4  12  28  41  72 109 146 182 232 296 362 410
#
# _framework density 21.726251999999999
#
# number of rings (size 3 to 8) (size 9 to 14) (size 15 to 20)
#    0.000    0.500    6.250    2.625    5.250    2.500 
#    0.000    0.000    0.000    0.000    0.000    0.000 
#    0.000    0.000    0.000    0.000    0.000    0.000 
#
# Total GULP energy -198394.978380 kJ/mol
# GULP energy per Si atom -12399.686149 kJ/mol
# Density = 2.167680 g / cm^3
# Si number density = 21.726252 Si / 1000 Ang^3
#
#
#
# Elastic Constant Matrix: (Units=GPa)
#
#
# Indices 1 2 3 4 5 6 
#
# 1 127.3697 26.2143 36.1995 -2.1639 0.0013 23.6580
# 2 26.2143 128.6094 50.7212 0.2327 12.2431 -4.7074
# 3 36.1995 50.7212 97.8482 -2.0123 5.2873 4.6641
# 4 -2.1639 0.2327 -2.0123 53.7773 5.2227 3.3974
# 5 0.0013 12.2431 5.2873 5.2227 32.0730 -4.8941
# 6 23.6580 -4.7074 4.6641 3.3974 -4.8941 43.3895
#
#
#
# Elastic Compliance Matrix: (Units=1/GPa)
#
#
# Indices 1 2 3 4 5 6 
#
# 1 0.009861 -0.001089 -0.002820 0.000629 -0.000023 -0.005244
# 2 -0.001089 0.010248 -0.004852 -0.000119 -0.002800 0.001921
# 3 -0.002820 -0.004852 0.013850 0.000522 -0.000605 -0.000587
# 4 0.000629 -0.000119 0.000522 0.019127 -0.003507 -0.002305
# 5 -0.000023 -0.002800 -0.000605 -0.003507 0.033502 0.003827
# 6 -0.005244 0.001921 -0.000587 -0.002305 0.003827 0.026790
#
#
# Mechanical properties :
#
#
# Convention : Reuss Voigt Hill
#
# Bulk Modulus (GPa) = 60.83614 64.45525 62.64569
# Shear Modulus (GPa) = 36.66264 41.89411 39.27838
#
# Velocity S-wave (km/s) = 4.11235 4.39597 4.25653
# Velocity P-wave (km/s) = 7.11411 7.44966 7.28382
#
# Compressibility (1/GPa) = 0.01643760
#
# Stress axis : x y z
#
# Youngs Moduli (GPa) = 101.40619 97.57962 72.20394
#
# Poissons Ratio (x) = 0.10626 0.20359
# Poissons Ratio (y) = 0.11042 0.35034
# Poissons Ratio (z) = 0.28593 0.47347
#
# Static dielectric constant tensor:
#      x y z
#    x 3.950130 0.065370 0.033910 
#    y 0.065370 4.281390 -0.062000 
#    z 0.033910 -0.062000 3.926580 
# 
# 
# High freq. dielectric constant tensor:
#      x y z
#    x 1.848710 0.010320 -0.004070 
#    y 0.010320 1.876990 -0.001000 
#    z -0.004070 -0.001000 1.853370 
# 
# From -- ./inp_files/499735.got.cif
#   From: 2010.06.25/outbox.cif.g09.slc.cpg/sg2_250_cif.got.tgz:499735.got - 2010.06.27 13:26:56.
