data_PCOD8033256
_publ_section_title
;
Structure prediction by ZEFSAII (Michael W. Deem and Ramdas Pophale) SiO2 
 PCOD8033256
Probable space group: P -1
;
_chemical_formula_sum "Si O2"
_cell_formula_units_Z 14
_cell_length_a 7.493641
_cell_length_b 16.500402
_cell_length_c 9.124560
_cell_angle_alpha 107.477210
_cell_angle_beta 118.226448
_cell_angle_gamma 35.488142
_cell_volume 569.111469
_symmetry_space_group_name_H-M "P -1"
_symmetry_group_IT_number 2
_symmetry_cell_setting 'triclinic'
loop_
_space_group_symop_operation_xyz
x,y,z
-x,-y,-z
loop_
_atom_site_type_symbol
_atom_site_label
_atom_site_fract_x
_atom_site_fract_y
_atom_site_fract_z
Si Si1 0.038490 0.568178 0.144963
Si Si2 0.726470 0.845071 0.473350
Si Si3 0.739483 0.374023 0.198242
Si Si4 0.888936 0.576562 0.647558
Si Si5 0.268810 0.857926 0.429849
Si Si6 0.391902 0.137253 0.880631
Si Si7 0.995775 0.840389 0.046342
O O1 0.357351 0.516780 0.183505
O O2 0.081238 0.518122 0.296178
O O3 0.683484 0.736899 0.078242
O O4 0.000000 0.500000 0.000000
O O5 0.499629 0.839454 0.409566
O O6 0.817703 0.822454 0.323845
O O7 0.054242 0.731585 0.640625
O O8 0.500000 0.000000 0.500000
O O9 0.882381 0.416933 0.218057
O O10 0.743955 0.299882 0.031270
O O11 0.497410 0.735177 0.574447
O O12 0.000000 0.500000 0.500000
O O13 0.000000 0.000000 0.500000
O O14 0.134003 0.836802 0.245967
O O15 0.789970 0.978861 0.942085
O O16 0.263735 0.143243 0.987734
#
# Coordination Sequence:
#
# PCOD8033256 Si02
#       7
#     2   2   2   2   2   2   2
#     4  12  29  46  77 108 150 194 249 303 371 447
#     4  11  23  45  71 107 144 190 244 305 366 440
#     4  11  27  49  76 109 151 194 245 312 371 434
#     4  11  28  51  73 111 151 198 247 299 376 448
#     4  11  27  44  76 106 147 191 250 305 367 438
#     4  11  26  45  73 107 142 190 251 298 374 429
#     4  11  26  47  76 105 147 190 245 314 365 433
#
# _framework density 24.599751000000001
#
# number of rings (size 3 to 8) (size 9 to 14) (size 15 to 20)
#    0.000    0.857    1.429    3.429   18.000    2.857 
#    0.000    0.000    0.000    0.000    0.000    0.000 
#    0.000    0.000    0.000    0.000    0.000    0.000 
#
# Total GULP energy -173458.395620 kJ/mol
# GULP energy per Si atom -12389.885401 kJ/mol
# Density = 2.454376 g / cm^3
# Si number density = 24.599751 Si / 1000 Ang^3
#
#
#
# Elastic Constant Matrix: (Units=GPa)
#
#
# Indices 1 2 3 4 5 6 
#
# 1 66.3318 39.9554 34.8736 -8.6779 -5.9238 6.8272
# 2 39.9554 146.0773 26.0000 3.1612 -9.2186 19.3549
# 3 34.8736 26.0000 96.0490 13.9149 -8.3233 5.8849
# 4 -8.6779 3.1612 13.9149 55.6749 7.6167 -6.6175
# 5 -5.9238 -9.2186 -8.3233 7.6167 40.1699 2.6448
# 6 6.8272 19.3549 5.8849 -6.6175 2.6448 37.5066
#
#
#
# Elastic Compliance Matrix: (Units=1/GPa)
#
#
# Indices 1 2 3 4 5 6 
#
# 1 0.023008 -0.005162 -0.007939 0.006050 -0.000639 0.000834
# 2 -0.005162 0.008958 0.000194 -0.002141 0.002019 -0.004234
# 3 -0.007939 0.000194 0.014436 -0.005525 0.003051 -0.002110
# 4 0.006050 -0.002141 -0.005525 0.021720 -0.005196 0.005069
# 5 -0.000639 0.002019 0.003051 -0.005196 0.027160 -0.004236
# 6 0.000834 -0.004234 -0.002110 0.005069 -0.004236 0.030219
#
#
# Mechanical properties :
#
#
# Convention : Reuss Voigt Hill
#
# Bulk Modulus (GPa) = 48.57538 56.67958 52.62748
# Shear Modulus (GPa) = 31.61029 40.51220 36.06125
#
# Velocity S-wave (km/s) = 3.58856 4.06255 3.83289
# Velocity P-wave (km/s) = 6.07943 6.71539 6.40531
#
# Compressibility (1/GPa) = 0.02058656
#
# Stress axis : x y z
#
# Youngs Moduli (GPa) = 43.46392 111.63529 69.27356
#
# Poissons Ratio (x) = 0.57623 0.54998
# Poissons Ratio (y) = 0.22435 -0.01343
# Poissons Ratio (z) = 0.34507 -0.02164
#
# Static dielectric constant tensor:
#      x y z
#    x 5.915630 -3.256930 0.983070 
#    y -3.256930 10.509440 -1.475550 
#    z 0.983070 -1.475550 4.439300 
# 
# 
# High freq. dielectric constant tensor:
#      x y z
#    x 1.967240 0.012890 -0.015040 
#    y 0.012890 2.002250 0.001480 
#    z -0.015040 0.001480 1.986990 
# 
# From -- ./inp_files/218087.got.cif
#   From: 2010.06.25/outbox.cif.g09.slc.cpg/sg2_110_cif.got.tgz:218087.got - 2010.06.27 13:26:56.
