data_PCOD8033906
_publ_section_title
;
Structure prediction by ZEFSAII (Michael W. Deem and Ramdas Pophale) SiO2 
 PCOD8033906
Probable space group: P -1
;
_chemical_formula_sum "Si O2"
_cell_formula_units_Z 14
_cell_length_a 5.372228
_cell_length_b 12.038719
_cell_length_c 10.429949
_cell_angle_alpha 72.256619
_cell_angle_beta 60.362770
_cell_angle_gamma 82.863885
_cell_volume 558.129293
_symmetry_space_group_name_H-M "P -1"
_symmetry_group_IT_number 2
_symmetry_cell_setting 'triclinic'
loop_
_space_group_symop_operation_xyz
x,y,z
-x,-y,-z
loop_
_atom_site_type_symbol
_atom_site_label
_atom_site_fract_x
_atom_site_fract_y
_atom_site_fract_z
Si Si1 0.149243 0.840943 0.979304
Si Si2 0.635069 0.995901 0.737960
Si Si3 0.153120 0.128484 0.697135
Si Si4 0.695112 0.442042 0.628523
Si Si5 0.540847 0.324289 0.461195
Si Si6 0.529906 0.375267 0.973660
Si Si7 0.031905 0.205388 0.226351
O O1 0.246228 0.707328 0.984314
O O2 0.907127 0.852463 0.143341
O O3 0.408155 0.933228 0.917818
O O4 0.042910 0.875598 0.851415
O O5 0.810615 0.882407 0.683338
O O6 0.450749 0.055017 0.649730
O O7 0.868782 0.083366 0.712241
O O8 0.236519 0.252173 0.564732
O O9 0.634612 0.338750 0.579704
O O10 0.474105 0.547262 0.640979
O O11 0.655453 0.383357 0.796362
O O12 0.000000 0.500000 0.500000
O O13 0.760529 0.252808 0.348743
O O14 0.500000 0.500000 0.000000
O O15 0.219130 0.313998 0.085796
#
# Coordination Sequence:
#
# PCOD8033906 Si02
#       7
#     2   2   2   2   2   2   2
#     4  11  24  44  73 106 140 187 239 297 360 423
#     4  11  26  46  73 107 144 188 241 302 355 425
#     4  12  26  45  75 105 143 191 243 294 360 426
#     4  11  24  46  69 103 143 185 240 295 358 426
#     4  11  27  44  70 102 140 192 235 296 355 435
#     4  11  24  42  73 106 142 187 235 300 357 429
#     4  11  25  46  68 104 145 185 240 293 364 423
#
# _framework density 25.083794999999999
#
# number of rings (size 3 to 8) (size 9 to 14) (size 15 to 20)
#    0.000    0.857    1.429    4.286    8.000    6.857 
#    0.000    0.000    0.000    0.000    0.000    0.000 
#    0.000    0.000    0.000    0.000    0.000    0.000 
#
# Total GULP energy -173499.985849 kJ/mol
# GULP energy per Si atom -12392.856132 kJ/mol
# Density = 2.502670 g / cm^3
# Si number density = 25.083795 Si / 1000 Ang^3
#
#
#
# Elastic Constant Matrix: (Units=GPa)
#
#
# Indices 1 2 3 4 5 6 
#
# 1 102.8695 32.4564 14.5609 -9.9373 -17.0504 13.5515
# 2 32.4564 86.0606 22.3756 -6.8643 -13.1177 21.4082
# 3 14.5609 22.3756 85.0205 -2.8179 -19.2197 22.6766
# 4 -9.9373 -6.8643 -2.8179 43.3959 -0.5614 -6.4591
# 5 -17.0504 -13.1177 -19.2197 -0.5614 36.8980 -8.6923
# 6 13.5515 21.4082 22.6766 -6.4591 -8.6923 35.3070
#
#
#
# Elastic Compliance Matrix: (Units=1/GPa)
#
#
# Indices 1 2 3 4 5 6 
#
# 1 0.011806 -0.003417 0.000189 0.002050 0.004088 -0.001200
# 2 -0.003417 0.015163 -0.001271 0.000577 0.001612 -0.006564
# 3 0.000189 -0.001271 0.015468 -0.000245 0.005841 -0.007843
# 4 0.002050 0.000577 -0.000245 0.024218 0.002342 0.004028
# 5 0.004088 0.001612 0.005841 0.002342 0.033184 0.002300
# 6 -0.001200 -0.006564 -0.007843 0.004028 0.002300 0.039104
#
#
# Mechanical properties :
#
#
# Convention : Reuss Voigt Hill
#
# Bulk Modulus (GPa) = 29.90366 45.85962 37.88164
# Shear Modulus (GPa) = 31.42919 36.75735 34.09327
#
# Velocity S-wave (km/s) = 3.54357 3.83218 3.69070
# Velocity P-wave (km/s) = 5.35629 6.15655 5.77031
#
# Compressibility (1/GPa) = 0.03344073
#
# Stress axis : x y z
#
# Youngs Moduli (GPa) = 84.70376 65.94845 64.64802
#
# Poissons Ratio (x) = 0.22532 -0.01224
# Poissons Ratio (y) = 0.28939 0.08218
# Poissons Ratio (z) = -0.01604 0.08384
#
# Static dielectric constant tensor:
#      x y z
#    x 4.651500 -0.201860 -0.155780 
#    y -0.201860 4.814120 -0.335990 
#    z -0.155780 -0.335990 4.467670 
# 
# 
# High freq. dielectric constant tensor:
#      x y z
#    x 1.995960 -0.013320 -0.017710 
#    y -0.013320 2.018820 -0.017910 
#    z -0.017710 -0.017910 2.000430 
# 
# From -- ./inp_files/82030.got.cif
#   From: 2010.06.25/outbox.cif.g09.slc.cpg/sg2_42_cif.got.tgz:82030.got - 2010.06.27 13:26:56.
