data_PCOD8033240
_publ_section_title
;
Structure prediction by ZEFSAII (Michael W. Deem and Ramdas Pophale) SiO2 
 PCOD8033240
Probable space group: P -1
;
_chemical_formula_sum "Si O2"
_cell_formula_units_Z 16
_cell_length_a 8.697681
_cell_length_b 15.391395
_cell_length_c 10.175053
_cell_angle_alpha 82.940755
_cell_angle_beta 112.483392
_cell_angle_gamma 45.595250
_cell_volume 724.971545
_symmetry_space_group_name_H-M "P -1"
_symmetry_group_IT_number 2
_symmetry_cell_setting 'triclinic'
loop_
_space_group_symop_operation_xyz
x,y,z
-x,-y,-z
loop_
_atom_site_type_symbol
_atom_site_label
_atom_site_fract_x
_atom_site_fract_y
_atom_site_fract_z
Si Si1 0.233613 0.973599 0.066814
Si Si2 0.802686 0.283635 0.746491
Si Si3 0.602918 0.700907 0.055741
Si Si4 0.470464 0.602870 0.890262
Si Si5 0.194853 0.490432 0.621714
Si Si6 0.556046 0.978367 0.678979
Si Si7 0.026659 0.333877 0.990805
Si Si8 0.059100 0.740867 0.494991
O O1 0.497127 0.816829 0.105623
O O2 0.336327 0.972855 0.238860
O O3 0.000000 0.000000 0.000000
O O4 0.094307 0.106567 0.903919
O O5 0.516091 0.357759 0.689189
O O6 0.779399 0.305962 0.578582
O O7 0.841181 0.359752 0.817420
O O8 0.790397 0.544189 0.215264
O O9 0.365037 0.736814 0.907137
O O10 0.769167 0.682951 0.003999
O O11 0.244421 0.694926 0.683911
O O12 0.500000 0.500000 0.000000
O O13 0.789638 0.488210 0.965632
O O14 0.023183 0.652686 0.515175
O O15 0.000000 0.500000 0.500000
O O16 0.258556 0.081654 0.635958
O O17 0.500000 0.000000 0.500000
O O18 0.793577 0.805182 0.826466
#
# Coordination Sequence:
#
# PCOD8033240 Si02
#       8
#     2   2   2   2   2   2   2   2
#     4  11  24  45  71 101 136 187 229 284 349 416
#     4  11  23  45  71 101 137 180 232 284 351 416
#     4  12  25  45  69 101 139 181 237 278 347 423
#     4  12  25  46  70  98 144 188 226 279 358 411
#     4  12  24  39  68 101 137 176 228 292 337 411
#     4  11  26  46  74 102 139 182 233 286 349 414
#     4  11  24  47  72 101 137 186 227 285 348 415
#     4  12  25  43  69 105 137 181 230 289 345 409
#
# _framework density 22.069832000000002
#
# number of rings (size 3 to 8) (size 9 to 14) (size 15 to 20)
#    0.000    0.500    3.750    4.500    5.250    2.000 
#    2.250    1.250    0.000    0.000    0.000    0.000 
#    0.000    0.000    0.000    0.000    0.000    0.000 
#
# Total GULP energy -198281.752632 kJ/mol
# GULP energy per Si atom -12392.609539 kJ/mol
# Density = 2.201960 g / cm^3
# Si number density = 22.069832 Si / 1000 Ang^3
#
#
#
# Elastic Constant Matrix: (Units=GPa)
#
#
# Indices 1 2 3 4 5 6 
#
# 1 102.1696 20.3566 41.6238 19.9519 10.6633 17.7610
# 2 20.3566 82.5235 23.7863 11.9997 14.5022 12.0264
# 3 41.6238 23.7863 133.2214 28.2802 13.1722 12.0636
# 4 19.9519 11.9997 28.2802 39.7054 -0.6741 10.2376
# 5 10.6633 14.5022 13.1722 -0.6741 37.9495 0.8772
# 6 17.7610 12.0264 12.0636 10.2376 0.8772 36.4625
#
#
#
# Elastic Compliance Matrix: (Units=1/GPa)
#
#
# Indices 1 2 3 4 5 6 
#
# 1 0.012555 -0.000921 -0.002474 -0.003270 -0.002282 -0.004020
# 2 -0.000921 0.014288 -0.000987 -0.002425 -0.004829 -0.003140
# 3 -0.002474 -0.000987 0.009878 -0.005501 -0.002451 -0.000134
# 4 -0.003270 -0.002425 -0.005501 0.032877 0.004457 -0.005125
# 5 -0.002282 -0.004829 -0.002451 0.004457 0.029732 0.001549
# 6 -0.004020 -0.003140 -0.000134 -0.005125 0.001549 0.031865
#
#
# Mechanical properties :
#
#
# Convention : Reuss Voigt Hill
#
# Bulk Modulus (GPa) = 35.77022 54.38311 45.07666
# Shear Modulus (GPa) = 33.49447 38.30000 35.89724
#
# Velocity S-wave (km/s) = 3.89994 4.17033 4.03740
# Velocity P-wave (km/s) = 6.04337 6.91981 6.49639
#
# Compressibility (1/GPa) = 0.02795622
#
# Stress axis : x y z
#
# Youngs Moduli (GPa) = 79.65051 69.98699 101.23769
#
# Poissons Ratio (x) = 0.06449 0.25049
# Poissons Ratio (y) = 0.07339 0.09989
# Poissons Ratio (z) = 0.19708 0.06905
#
# Static dielectric constant tensor:
#      x y z
#    x 3.924670 0.087540 0.156780 
#    y 0.087540 6.215160 -0.389630 
#    z 0.156780 -0.389630 4.094830 
# 
# 
# High freq. dielectric constant tensor:
#      x y z
#    x 1.871340 0.002770 0.007820 
#    y 0.002770 1.873800 0.005620 
#    z 0.007820 0.005620 1.881510 
# 
# From -- ./inp_files/207008.got.cif
#   From: 2010.06.25/outbox.cif.g09.slc.cpg/sg2_104_cif.got.tgz:207008.got - 2010.06.27 13:26:56.
