data_PCOD8033950
_publ_section_title
;
Structure prediction by ZEFSAII (Michael W. Deem and Ramdas Pophale) SiO2 
 PCOD8033950
Probable space group: P -1
;
_chemical_formula_sum "Si O2"
_cell_formula_units_Z 16
_cell_length_a 18.418431
_cell_length_b 24.303835
_cell_length_c 5.484732
_cell_angle_alpha 66.028307
_cell_angle_beta 103.566236
_cell_angle_gamma 160.802240
_cell_volume 640.434190
_symmetry_space_group_name_H-M "P -1"
_symmetry_group_IT_number 2
_symmetry_cell_setting 'triclinic'
loop_
_space_group_symop_operation_xyz
x,y,z
-x,-y,-z
loop_
_atom_site_type_symbol
_atom_site_label
_atom_site_fract_x
_atom_site_fract_y
_atom_site_fract_z
Si Si1 0.807098 0.803340 0.799734
Si Si2 0.481417 0.209726 0.606252
Si Si3 0.993758 0.213782 0.763346
Si Si4 0.628873 0.208946 0.429311
Si Si5 0.783770 0.720583 0.416297
Si Si6 0.107523 0.763646 0.683954
Si Si7 0.643012 0.461085 0.148982
Si Si8 0.098364 0.507047 0.234023
O O1 0.792051 0.745903 0.660674
O O2 0.532089 0.622626 0.961662
O O3 0.909992 0.857065 0.044811
O O4 0.000000 0.000000 0.500000
O O5 0.573600 0.232174 0.444638
O O6 0.463551 0.263731 0.394063
O O7 0.706470 0.385379 0.665965
O O8 0.203188 0.977092 0.892139
O O9 0.853106 0.167121 0.657270
O O10 0.075736 0.235876 0.556824
O O11 0.254736 0.431417 0.713958
O O12 0.858657 0.348589 0.490186
O O13 0.377626 0.973928 0.657438
O O14 0.744373 0.314088 0.064139
O O15 0.500000 0.500000 0.500000
O O16 0.031726 0.636216 0.814783
O O17 0.888204 0.631047 0.885141
#
# Coordination Sequence:
#
# PCOD8033950 Si02
#       8
#     2   2   2   2   2   2   2   2
#     4  12  28  49  74 109 146 191 245 298 363 434
#     4  12  24  45  66 104 132 185 230 282 354 418
#     4  12  26  43  73  99 142 183 231 293 354 425
#     4  11  24  43  67 100 138 181 225 289 349 421
#     4  12  26  48  74 105 145 192 239 294 367 428
#     4  12  24  44  69 102 135 181 236 282 356 419
#     4  12  26  44  72 100 142 181 231 299 349 422
#     4  11  24  43  67  99 141 177 227 290 349 415
#
# _framework density 24.983053000000002
#
# number of rings (size 3 to 8) (size 9 to 14) (size 15 to 20)
#    0.000    0.250    6.250    3.000    1.750    2.000 
#    0.000    1.250    0.000    0.000    0.000    0.000 
#    0.000    0.000    0.000    0.000    0.000    0.000 
#
# Total GULP energy -198251.430102 kJ/mol
# GULP energy per Si atom -12390.714381 kJ/mol
# Density = 2.492619 g / cm^3
# Si number density = 24.983053 Si / 1000 Ang^3
#
#
#
# Elastic Constant Matrix: (Units=GPa)
#
#
# Indices 1 2 3 4 5 6 
#
# 1 130.2412 7.9444 14.3903 -8.7251 -18.2928 -10.0527
# 2 7.9444 65.2148 -0.8534 -13.7347 1.8279 -7.1562
# 3 14.3903 -0.8534 76.9152 -16.1769 -5.3455 -9.9322
# 4 -8.7251 -13.7347 -16.1769 42.4032 2.2181 4.3149
# 5 -18.2928 1.8279 -5.3455 2.2181 45.3019 -0.6420
# 6 -10.0527 -7.1562 -9.9322 4.3149 -0.6420 45.3415
#
#
#
# Elastic Compliance Matrix: (Units=1/GPa)
#
#
# Indices 1 2 3 4 5 6 
#
# 1 0.008473 -0.000811 -0.001008 0.000770 0.003319 0.001503
# 2 -0.000811 0.016969 0.001793 0.005832 -0.001053 0.002321
# 3 -0.001008 0.001793 0.014839 0.005698 0.001032 0.002783
# 4 0.000770 0.005832 0.005698 0.027870 -0.000621 -0.000322
# 5 0.003319 -0.001053 0.001032 -0.000621 0.023626 0.001189
# 6 0.001503 0.002321 0.002783 -0.000322 0.001189 0.023412
#
#
# Mechanical properties :
#
#
# Convention : Reuss Voigt Hill
#
# Bulk Modulus (GPa) = 24.85737 35.03711 29.94724
# Shear Modulus (GPa) = 38.86567 43.33529 41.10048
#
# Velocity S-wave (km/s) = 3.94849 4.16936 4.06043
# Velocity P-wave (km/s) = 5.54606 6.10187 5.83059
#
# Compressibility (1/GPa) = 0.04022951
#
# Stress axis : x y z
#
# Youngs Moduli (GPa) = 118.02767 58.93158 67.38953
#
# Poissons Ratio (x) = 0.04781 0.06790
# Poissons Ratio (y) = 0.09575 -0.12085
# Poissons Ratio (z) = 0.11891 -0.10568
#
# Static dielectric constant tensor:
#      x y z
#    x 4.669410 0.378460 0.270570 
#    y 0.378460 4.482600 -0.203370 
#    z 0.270570 -0.203370 4.446260 
# 
# 
# High freq. dielectric constant tensor:
#      x y z
#    x 2.013630 0.006580 0.001310 
#    y 0.006580 1.988730 -0.024170 
#    z 0.001310 -0.024170 1.993880 
# 
# From -- ./inp_files/47191.got.cif
#   From: 2010.06.25/outbox.cif.g09.slc.cpg/sg2_24_cif.got.tgz:47191.got - 2010.06.27 13:26:56.
