data_PCOD8033275
_publ_section_title
;
Structure prediction by ZEFSAII (Michael W. Deem and Ramdas Pophale) SiO2 
 PCOD8033275
Probable space group: P -1
;
_chemical_formula_sum "Si O2"
_cell_formula_units_Z 14
_cell_length_a 5.503026
_cell_length_b 7.445466
_cell_length_c 16.585506
_cell_angle_alpha 104.391898
_cell_angle_beta 121.309321
_cell_angle_gamma 83.684574
_cell_volume 562.220393
_symmetry_space_group_name_H-M "P -1"
_symmetry_group_IT_number 2
_symmetry_cell_setting 'triclinic'
loop_
_space_group_symop_operation_xyz
x,y,z
-x,-y,-z
loop_
_atom_site_type_symbol
_atom_site_label
_atom_site_fract_x
_atom_site_fract_y
_atom_site_fract_z
Si Si1 0.828042 0.447960 0.045784
Si Si2 0.573463 0.850952 0.876873
Si Si3 0.804791 0.916881 0.559274
Si Si4 0.663771 0.486351 0.764995
Si Si5 0.261379 0.424476 0.390309
Si Si6 0.113117 0.951626 0.914111
Si Si7 0.157610 0.255102 0.623504
O O1 0.840168 0.229528 0.041676
O O2 0.008612 0.555257 0.160382
O O3 0.500000 0.500000 0.000000
O O4 0.000000 0.500000 0.000000
O O5 0.544086 0.633669 0.826017
O O6 0.254079 0.927288 0.846556
O O7 0.764864 0.963710 0.854410
O O8 0.735438 0.874395 0.994804
O O9 0.815975 0.787685 0.624903
O O10 0.887808 0.793215 0.483325
O O11 0.500000 0.000000 0.500000
O O12 0.028589 0.084529 0.633845
O O13 0.626593 0.578745 0.681482
O O14 0.483993 0.292113 0.711325
O O15 0.500000 0.500000 0.500000
O O16 0.990877 0.552238 0.363677
#
# Coordination Sequence:
#
# PCOD8033275 Si02
#       7
#     2   2   2   2   2   2   2
#     4  11  24  43  70 100 144 194 246 314 385 443
#     4   9  19  36  66  93 129 173 236 298 356 431
#     4  11  23  45  72 106 150 201 249 309 385 457
#     4  11  25  41  73 105 141 196 259 304 376 462
#     4  12  24  44  73 109 150 200 249 312 382 458
#     4   9  18  38  64  92 126 177 228 299 369 423
#     4  11  24  42  74 104 153 198 253 309 381 455
#
# _framework density 24.901266
#
# number of rings (size 3 to 8) (size 9 to 14) (size 15 to 20)
#    0.000    1.429    2.857    2.143    6.000    0.000 
#    0.000    4.286    0.000    0.000    0.000    0.000 
#    0.000    0.000    0.000    0.000    0.000    0.000 
#
# Total GULP energy -173452.374983 kJ/mol
# GULP energy per Si atom -12389.455356 kJ/mol
# Density = 2.484459 g / cm^3
# Si number density = 24.901266 Si / 1000 Ang^3
#
#
#
# Elastic Constant Matrix: (Units=GPa)
#
#
# Indices 1 2 3 4 5 6 
#
# 1 186.9309 51.7632 54.0888 6.2226 -10.3554 28.0744
# 2 51.7632 144.6053 57.4254 13.4922 7.6151 29.0186
# 3 54.0888 57.4254 116.2729 9.2221 18.4362 18.2216
# 4 6.2226 13.4922 9.2221 29.3071 8.8216 2.6269
# 5 -10.3554 7.6151 18.4362 8.8216 40.2973 12.8775
# 6 28.0744 29.0186 18.2216 2.6269 12.8775 46.1033
#
#
#
# Elastic Compliance Matrix: (Units=1/GPa)
#
#
# Indices 1 2 3 4 5 6 
#
# 1 0.007414 -0.000702 -0.003146 -0.001429 0.005126 -0.004179
# 2 -0.000702 0.009823 -0.003847 -0.003329 0.001916 -0.004580
# 3 -0.003146 -0.003847 0.012785 0.000223 -0.006310 0.001034
# 4 -0.001429 -0.003329 0.000223 0.038390 -0.009294 0.003286
# 5 0.005126 0.001916 -0.006310 -0.009294 0.034158 -0.010844
# 6 -0.004179 -0.004580 0.001034 0.003286 -0.010844 0.029551
#
#
# Mechanical properties :
#
#
# Convention : Reuss Voigt Hill
#
# Bulk Modulus (GPa) = 68.34856 86.04043 77.19449
# Shear Modulus (GPa) = 32.81084 42.11033 37.46058
#
# Velocity S-wave (km/s) = 3.63387 4.11675 3.88282
# Velocity P-wave (km/s) = 6.71670 7.56469 7.15327
#
# Compressibility (1/GPa) = 0.01463089
#
# Stress axis : x y z
#
# Youngs Moduli (GPa) = 134.88740 101.79912 78.21832
#
# Poissons Ratio (x) = 0.07149 0.24610
# Poissons Ratio (y) = 0.09473 0.30089
# Poissons Ratio (z) = 0.42440 0.39160
#
# Static dielectric constant tensor:
#      x y z
#    x 5.223560 0.270760 -0.038440 
#    y 0.270760 4.709450 0.280490 
#    z -0.038440 0.280490 4.822550 
# 
# 
# High freq. dielectric constant tensor:
#      x y z
#    x 2.013520 0.020080 -0.006470 
#    y 0.020080 1.975000 0.032460 
#    z -0.006470 0.032460 1.971700 
# 
# From -- ./inp_files/479929.got.cif
#   From: 2010.06.25/outbox.cif.g09.slc.cpg/sg2_240_cif.got.tgz:479929.got - 2010.06.27 13:26:56.
