data_PCOD8033870
_publ_section_title
;
Structure prediction by ZEFSAII (Michael W. Deem and Ramdas Pophale) SiO2 
 PCOD8033870
Probable space group: P -1
;
_chemical_formula_sum "Si O2"
_cell_formula_units_Z 16
_cell_length_a 11.136909
_cell_length_b 16.139527
_cell_length_c 9.019796
_cell_angle_alpha 135.214003
_cell_angle_beta 42.862191
_cell_angle_gamma 136.342607
_cell_volume 703.567511
_symmetry_space_group_name_H-M "P -1"
_symmetry_group_IT_number 2
_symmetry_cell_setting 'triclinic'
loop_
_space_group_symop_operation_xyz
x,y,z
-x,-y,-z
loop_
_atom_site_type_symbol
_atom_site_label
_atom_site_fract_x
_atom_site_fract_y
_atom_site_fract_z
Si Si1 0.044682 0.655774 0.438382
Si Si2 0.739000 0.740906 0.906670
Si Si3 0.645224 0.880214 0.911260
Si Si4 0.722951 0.921335 0.560813
Si Si5 0.589967 0.265643 0.603870
Si Si6 0.219583 0.796809 0.176763
Si Si7 0.878616 0.363548 0.227173
Si Si8 0.984516 0.142558 0.951848
O O1 0.236335 0.748767 0.477798
O O2 0.058980 0.720035 0.346435
O O3 0.836283 0.639772 0.672046
O O4 0.036992 0.512003 0.254135
O O5 0.725877 0.794048 0.823323
O O6 0.533574 0.681692 0.109054
O O7 0.896428 0.858381 0.009405
O O8 0.636487 0.852213 0.707685
O O9 0.766528 0.032953 0.025995
O O10 0.430282 0.842623 0.118988
O O11 0.559093 0.867468 0.510657
O O12 0.909130 0.892290 0.324946
O O13 0.801777 0.076767 0.703228
O O14 0.702935 0.362682 0.489863
O O15 0.202821 0.698128 0.935270
O O16 0.986302 0.283120 0.103344
#
# Coordination Sequence:
#
# PCOD8033870 Si02
#       8
#     2   2   2   2   2   2   2   2
#     4  12  27  48  71 100 144 187 231 286 337 412
#     4  11  26  44  69 107 141 179 230 288 346 413
#     4  12  22  43  69 101 145 174 231 288 349 412
#     4  11  24  43  73 104 140 178 230 293 346 420
#     4  11  24  48  70 106 133 186 231 284 349 400
#     4  12  25  45  72 102 142 181 231 290 349 406
#     4  12  25  48  72  98 140 190 236 276 341 417
#     4  11  24  42  70 106 138 185 227 285 354 409
#
# _framework density 22.741243999999998
#
# number of rings (size 3 to 8) (size 9 to 14) (size 15 to 20)
#    0.000    0.500    5.000    3.375    1.750    2.000 
#    2.250    0.625    0.000    0.000    0.000    0.000 
#    0.000    0.000    0.000    0.000    0.000    0.000 
#
# Total GULP energy -198305.198860 kJ/mol
# GULP energy per Si atom -12394.074929 kJ/mol
# Density = 2.268948 g / cm^3
# Si number density = 22.741244 Si / 1000 Ang^3
#
#
#
# Elastic Constant Matrix: (Units=GPa)
#
#
# Indices 1 2 3 4 5 6 
#
# 1 115.4741 37.6549 52.4713 -0.1454 0.9818 1.8956
# 2 37.6549 88.5200 51.4306 0.9152 5.5179 1.8893
# 3 52.4713 51.4306 135.0174 -14.5375 -3.4625 -6.1263
# 4 -0.1454 0.9152 -14.5375 34.2953 -1.5732 -1.5367
# 5 0.9818 5.5179 -3.4625 -1.5732 39.6720 -7.9068
# 6 1.8956 1.8893 -6.1263 -1.5367 -7.9068 16.1440
#
#
#
# Elastic Compliance Matrix: (Units=1/GPa)
#
#
# Indices 1 2 3 4 5 6 
#
# 1 0.011229 -0.002438 -0.003780 -0.001672 -0.000951 -0.003093
# 2 -0.002438 0.016244 -0.006000 -0.003454 -0.004101 -0.006229
# 3 -0.003780 -0.006000 0.012270 0.005893 0.003880 0.008263
# 4 -0.001672 -0.003454 0.005893 0.032269 0.003871 0.007805
# 5 -0.000951 -0.004101 0.003880 0.003871 0.029674 0.016966
# 6 -0.003093 -0.006229 0.008263 0.007805 0.016966 0.075223
#
#
# Mechanical properties :
#
#
# Convention : Reuss Voigt Hill
#
# Bulk Modulus (GPa) = 65.32751 69.12501 67.22626
# Shear Modulus (GPa) = 24.21911 31.18589 27.70250
#
# Velocity S-wave (km/s) = 3.26695 3.70717 3.49400
# Velocity P-wave (km/s) = 6.55892 6.98473 6.77517
#
# Compressibility (1/GPa) = 0.01530749
#
# Stress axis : x y z
#
# Youngs Moduli (GPa) = 89.05209 61.55996 81.49918
#
# Poissons Ratio (x) = 0.15008 0.30808
# Poissons Ratio (y) = 0.21710 0.48900
# Poissons Ratio (z) = 0.33663 0.36937
#
# Static dielectric constant tensor:
#      x y z
#    x 4.090920 0.168040 0.129520 
#    y 0.168040 3.801960 -0.247000 
#    z 0.129520 -0.247000 4.230480 
# 
# 
# High freq. dielectric constant tensor:
#      x y z
#    x 1.908900 0.011690 0.010770 
#    y 0.011690 1.870360 -0.019270 
#    z 0.010770 -0.019270 1.905490 
# 
# From -- ./inp_files/272444.got.cif
#   From: 2010.06.25/outbox.cif.g09.slc.cpg/sg2_137_cif.got.tgz:272444.got - 2010.06.27 13:26:56.
