data_PCOD8033853
_publ_section_title
;
Structure prediction by ZEFSAII (Michael W. Deem and Ramdas Pophale) SiO2 
 PCOD8033853
Probable space group: P -1
;
_chemical_formula_sum "Si O2"
_cell_formula_units_Z 16
_cell_length_a 9.575851
_cell_length_b 16.832364
_cell_length_c 5.280873
_cell_angle_alpha 55.314111
_cell_angle_beta 100.453165
_cell_angle_gamma 97.859437
_cell_volume 687.715893
_symmetry_space_group_name_H-M "P -1"
_symmetry_group_IT_number 2
_symmetry_cell_setting 'triclinic'
loop_
_space_group_symop_operation_xyz
x,y,z
-x,-y,-z
loop_
_atom_site_type_symbol
_atom_site_label
_atom_site_fract_x
_atom_site_fract_y
_atom_site_fract_z
Si Si1 0.741134 0.183117 0.678168
Si Si2 0.366225 0.991599 0.296595
Si Si3 0.078434 0.400642 0.680934
Si Si4 0.259907 0.143828 0.662018
Si Si5 0.993489 0.721760 0.619817
Si Si6 0.151342 0.961719 0.665979
Si Si7 0.587946 0.593730 0.271286
Si Si8 0.517376 0.698594 0.564171
O O1 0.641750 0.266202 0.599302
O O2 0.844481 0.233383 0.408641
O O3 0.622220 0.094250 0.749805
O O4 0.850770 0.138456 0.996710
O O5 0.500000 0.000000 0.500000
O O6 0.224834 0.940576 0.465035
O O7 0.333407 0.100985 0.013549
O O8 0.030894 0.349129 0.498104
O O9 0.247120 0.424658 0.691525
O O10 0.000000 0.500000 0.500000
O O11 0.034903 0.333760 0.026286
O O12 0.110244 0.188843 0.595432
O O13 0.369156 0.221491 0.432522
O O14 0.245690 0.049579 0.655061
O O15 0.000000 0.000000 0.500000
O O16 0.500000 0.500000 0.500000
O O17 0.576206 0.668209 0.364999
O O18 0.514110 0.621230 0.931184
#
# Coordination Sequence:
#
# PCOD8033853 Si02
#       8
#     2   2   2   2   2   2   2   2
#     4  11  28  42  67 114 142 198 249 298 360 423
#     4  11  24  42  69  98 151 192 244 303 355 419
#     4  12  28  51  78 110 144 187 236 306 377 438
#     4  11  24  44  67 106 140 198 241 300 356 431
#     4  12  27  46  77 106 149 189 247 294 364 446
#     4  11  24  42  69  98 151 192 244 303 355 419
#     4  12  28  51  78 110 144 187 236 306 377 438
#     4  12  27  46  77 106 149 189 247 294 364 446
#
# _framework density 23.265422000000001
#
# number of rings (size 3 to 8) (size 9 to 14) (size 15 to 20)
#    0.000    0.500    2.500    3.750   14.000    4.000 
#    0.000    0.000    0.000    0.000    0.000    0.000 
#    0.000    0.000    0.000    0.000    0.000    0.000 
#
# Total GULP energy -198280.501471 kJ/mol
# GULP energy per Si atom -12392.531342 kJ/mol
# Density = 2.321247 g / cm^3
# Si number density = 23.265422 Si / 1000 Ang^3
#
#
#
# Elastic Constant Matrix: (Units=GPa)
#
#
# Indices 1 2 3 4 5 6 
#
# 1 135.9951 10.6014 52.9810 -21.5633 9.2491 -12.9903
# 2 10.6014 73.7231 31.7462 -11.4697 4.1115 -8.3243
# 3 52.9810 31.7462 141.1197 -6.2946 7.7950 -13.4548
# 4 -21.5633 -11.4697 -6.2946 36.3368 -1.9533 -1.5951
# 5 9.2491 4.1115 7.7950 -1.9533 49.4645 -6.6778
# 6 -12.9903 -8.3243 -13.4548 -1.5951 -6.6778 42.9497
#
#
#
# Elastic Compliance Matrix: (Units=1/GPa)
#
#
# Indices 1 2 3 4 5 6 
#
# 1 0.009757 0.001250 -0.003436 0.005639 -0.000868 0.002191
# 2 0.001250 0.016055 -0.003583 0.005273 -0.000459 0.002492
# 3 -0.003436 -0.003583 0.009236 -0.001548 -0.000437 0.001034
# 4 0.005639 0.005273 -0.001548 0.032445 0.000509 0.003527
# 5 -0.000868 -0.000459 -0.000437 0.000509 0.020881 0.002777
# 6 0.002191 0.002492 0.001034 0.003527 0.002777 0.025316
#
#
# Mechanical properties :
#
#
# Convention : Reuss Voigt Hill
#
# Bulk Modulus (GPa) = 42.53598 60.16610 51.35104
# Shear Modulus (GPa) = 37.57631 42.78415 40.18023
#
# Velocity S-wave (km/s) = 4.02321 4.29296 4.16027
# Velocity P-wave (km/s) = 6.31698 7.10560 6.72286
#
# Compressibility (1/GPa) = 0.02350951
#
# Stress axis : x y z
#
# Youngs Moduli (GPa) = 102.49357 62.28715 108.27551
#
# Poissons Ratio (x) = -0.07783 0.37200
# Poissons Ratio (y) = -0.12807 0.38791
# Poissons Ratio (z) = 0.35214 0.22315
#
# Static dielectric constant tensor:
#      x y z
#    x 4.859220 0.199300 0.294020 
#    y 0.199300 4.493710 0.222960 
#    z 0.294020 0.222960 4.652300 
# 
# 
# High freq. dielectric constant tensor:
#      x y z
#    x 1.938310 -0.003880 -0.001790 
#    y -0.003880 1.922070 -0.005680 
#    z -0.001790 -0.005680 1.929730 
# 
# From -- ./inp_files/46325.got.cif
#   From: 2010.06.25/outbox.cif.g09.slc.cpg/sg2_24_cif.got.tgz:46325.got - 2010.06.27 13:26:56.
