data_PCOD8033270
_publ_section_title
;
Structure prediction by ZEFSAII (Michael W. Deem and Ramdas Pophale) SiO2 
 PCOD8033270
Probable space group: P -1
;
_chemical_formula_sum "Si O2"
_cell_formula_units_Z 16
_cell_length_a 9.241213
_cell_length_b 9.150192
_cell_length_c 11.314732
_cell_angle_alpha 103.433876
_cell_angle_beta 75.975558
_cell_angle_gamma 127.014300
_cell_volume 736.560047
_symmetry_space_group_name_H-M "P -1"
_symmetry_group_IT_number 2
_symmetry_cell_setting 'triclinic'
loop_
_space_group_symop_operation_xyz
x,y,z
-x,-y,-z
loop_
_atom_site_type_symbol
_atom_site_label
_atom_site_fract_x
_atom_site_fract_y
_atom_site_fract_z
Si Si1 0.046745 0.755844 0.366553
Si Si2 0.103352 0.101544 0.883144
Si Si3 0.625113 0.187013 0.584357
Si Si4 0.916325 0.574055 0.118838
Si Si5 0.455699 0.116744 0.858378
Si Si6 0.322802 0.458219 0.465376
Si Si7 0.803491 0.885904 0.719344
Si Si8 0.561114 0.214868 0.108543
O O1 0.050319 0.673598 0.223212
O O2 0.837956 0.635735 0.425259
O O3 0.163439 0.741607 0.442784
O O4 0.138201 0.974439 0.375908
O O5 0.114886 0.287207 0.914124
O O6 0.301444 0.142080 0.850911
O O7 0.987541 0.968540 0.772549
O O8 0.000000 0.000000 0.000000
O O9 0.574750 0.154875 0.726448
O O10 0.620154 0.346573 0.557503
O O11 0.500000 0.000000 0.500000
O O12 0.714884 0.408905 0.173105
O O13 0.000000 0.500000 0.000000
O O14 0.376335 0.915863 0.890472
O O15 0.571668 0.250253 0.970954
O O16 0.500000 0.500000 0.500000
O O17 0.265046 0.317223 0.343260
O O18 0.643020 0.870933 0.822941
#
# Coordination Sequence:
#
# PCOD8033270 Si02
#       8
#     2   2   2   2   2   2   2   2
#     4  11  25  49  67  99 139 185 235 284 346 419
#     4  11  24  43  65 107 137 179 226 285 346 419
#     4  12  28  46  71 102 139 187 236 282 348 419
#     4  11  25  41  73 101 141 181 231 284 357 412
#     4  11  25  43  72  97 143 177 235 281 350 408
#     4  12  28  46  71 101 138 183 237 290 344 410
#     4  11  24  44  71  99 137 181 229 285 356 403
#     4  11  23  45  72 102 137 187 225 286 354 419
#
# _framework density 21.722598999999999
#
# number of rings (size 3 to 8) (size 9 to 14) (size 15 to 20)
#    0.000    0.750    2.500    3.750   12.250    3.500 
#    0.000    0.000    0.000    0.000    0.000    0.000 
#    0.000    0.000    0.000    0.000    0.000    0.000 
#
# Total GULP energy -198399.463639 kJ/mol
# GULP energy per Si atom -12399.966477 kJ/mol
# Density = 2.167316 g / cm^3
# Si number density = 21.722599 Si / 1000 Ang^3
#
#
#
# Elastic Constant Matrix: (Units=GPa)
#
#
# Indices 1 2 3 4 5 6 
#
# 1 151.9385 61.2099 40.2922 4.2959 15.2309 -7.2839
# 2 61.2099 147.4608 43.3750 14.2503 11.6142 -11.2498
# 3 40.2922 43.3750 94.9076 -0.5408 -2.9120 -8.6527
# 4 4.2959 14.2503 -0.5408 34.8403 -2.8504 -5.4445
# 5 15.2309 11.6142 -2.9120 -2.8504 33.0654 -5.7827
# 6 -7.2839 -11.2498 -8.6527 -5.4445 -5.7827 36.3609
#
#
#
# Elastic Compliance Matrix: (Units=1/GPa)
#
#
# Indices 1 2 3 4 5 6 
#
# 1 0.008639 -0.002522 -0.002648 -0.000398 -0.003411 -0.000282
# 2 -0.002522 0.009405 -0.003270 -0.003700 -0.002635 0.000654
# 3 -0.002648 -0.003270 0.013553 0.002655 0.004274 0.002760
# 4 -0.000398 -0.003700 0.002655 0.031517 0.005303 0.004970
# 5 -0.003411 -0.002635 0.004274 0.005303 0.034590 0.005814
# 6 -0.000282 0.000654 0.002760 0.004970 0.005814 0.029973
#
#
# Mechanical properties :
#
#
# Convention : Reuss Voigt Hill
#
# Bulk Modulus (GPa) = 67.94326 76.00679 71.97502
# Shear Modulus (GPa) = 33.45321 37.48197 35.46759
#
# Velocity S-wave (km/s) = 3.92856 4.15840 4.04511
# Velocity P-wave (km/s) = 7.20581 7.62378 7.41774
#
# Compressibility (1/GPa) = 0.01471816
#
# Stress axis : x y z
#
# Youngs Moduli (GPa) = 115.75006 106.32646 73.78373
#
# Poissons Ratio (x) = 0.26812 0.19537
# Poissons Ratio (y) = 0.29188 0.24128
# Poissons Ratio (z) = 0.30649 0.34770
#
# Static dielectric constant tensor:
#      x y z
#    x 3.631970 0.432430 0.295750 
#    y 0.432430 3.834050 -0.168150 
#    z 0.295750 -0.168150 3.712160 
# 
# 
# High freq. dielectric constant tensor:
#      x y z
#    x 1.867830 0.005820 0.004510 
#    y 0.005820 1.863280 0.001100 
#    z 0.004510 0.001100 1.854710 
# 
# From -- ./inp_files/307788.got.cif
#   From: 2010.06.25/outbox.cif.g09.slc.cpg/sg2_154_cif.got.tgz:307788.got - 2010.06.27 13:26:56.
