data_PCOD8033126
_publ_section_title
;
Structure prediction by ZEFSAII (Michael W. Deem and Ramdas Pophale) SiO2 
 PCOD8033126
Probable space group: P -1
;
_chemical_formula_sum "Si O2"
_cell_formula_units_Z 14
_cell_length_a 11.362930
_cell_length_b 18.529689
_cell_length_c 9.582072
_cell_angle_alpha 151.086439
_cell_angle_beta 54.365041
_cell_angle_gamma 137.611268
_cell_volume 644.844211
_symmetry_space_group_name_H-M "P -1"
_symmetry_group_IT_number 2
_symmetry_cell_setting 'triclinic'
loop_
_space_group_symop_operation_xyz
x,y,z
-x,-y,-z
loop_
_atom_site_type_symbol
_atom_site_label
_atom_site_fract_x
_atom_site_fract_y
_atom_site_fract_z
Si Si1 0.325418 0.060206 0.160191
Si Si2 0.081749 0.440187 0.729330
Si Si3 0.860709 0.355994 0.464281
Si Si4 0.570375 0.184737 0.945165
Si Si5 0.656048 0.915715 0.334129
Si Si6 0.474171 0.659324 0.265021
Si Si7 0.034912 0.091102 0.277402
O O1 0.391731 0.160596 0.431824
O O2 0.181925 0.090991 0.259314
O O3 0.494676 0.154928 0.101788
O O4 0.244666 0.846471 0.872318
O O5 0.101422 0.297428 0.554428
O O6 0.953806 0.353405 0.536518
O O7 0.277809 0.601747 0.817900
O O8 0.000000 0.500000 0.000000
O O9 0.728673 0.413062 0.689233
O O10 0.000000 0.500000 0.500000
O O11 0.407578 0.109920 0.824687
O O12 0.655808 0.074638 0.678937
O O13 0.525202 0.723238 0.177693
O O14 0.857042 0.977512 0.301334
O O15 0.500000 0.500000 0.000000
O O16 0.000000 0.000000 0.000000
#
# Coordination Sequence:
#
# PCOD8033126 Si02
#       7
#     2   2   2   2   2   2   2
#     4  12  27  49  73 101 145 188 233 291 355 420
#     4  12  25  42  74 105 137 179 238 290 342 413
#     4  12  27  48  71 101 145 188 235 283 353 423
#     4  11  23  44  76 101 135 189 233 289 347 418
#     4  11  24  45  71 101 144 182 235 285 353 415
#     4  12  30  47  71 106 144 187 236 289 354 423
#     4  12  25  46  71 108 138 179 237 295 348 407
#
# _framework density 21.710667999999998
#
# number of rings (size 3 to 8) (size 9 to 14) (size 15 to 20)
#    0.000    0.286    5.714    2.143    8.000    2.286 
#    0.000    0.000    0.000    0.000    0.000    0.000 
#    0.000    0.000    0.000    0.000    0.000    0.000 
#
# Total GULP energy -173695.582149 kJ/mol
# GULP energy per Si atom -12406.827296 kJ/mol
# Density = 2.166125 g / cm^3
# Si number density = 21.710668 Si / 1000 Ang^3
#
#
#
# Elastic Constant Matrix: (Units=GPa)
#
#
# Indices 1 2 3 4 5 6 
#
# 1 82.6015 21.9950 13.3093 -8.9060 -21.7525 14.3430
# 2 21.9950 162.0045 38.5014 12.0692 -18.0706 10.5109
# 3 13.3093 38.5014 97.5547 8.2081 -17.1864 3.5371
# 4 -8.9060 12.0692 8.2081 32.0014 -8.3562 0.1196
# 5 -21.7525 -18.0706 -17.1864 -8.3562 41.3073 0.2480
# 6 14.3430 10.5109 3.5371 0.1196 0.2480 39.5104
#
#
#
# Elastic Compliance Matrix: (Units=1/GPa)
#
#
# Indices 1 2 3 4 5 6 
#
# 1 0.016992 -0.001298 -0.000535 0.007936 0.009798 -0.005861
# 2 -0.001298 0.007257 -0.002259 -0.002224 0.001109 -0.001257
# 3 -0.000535 -0.002259 0.011950 -0.001472 0.003406 -0.000292
# 4 0.007936 -0.002224 -0.001472 0.037335 0.010160 -0.002334
# 5 0.009798 0.001109 0.003406 0.010160 0.033352 -0.004397
# 6 -0.005861 -0.001257 -0.000292 -0.002334 -0.004397 0.027833
#
#
# Mechanical properties :
#
#
# Convention : Reuss Voigt Hill
#
# Bulk Modulus (GPa) = 35.69578 54.41912 45.05745
# Shear Modulus (GPa) = 32.84299 40.45416 36.64857
#
# Velocity S-wave (km/s) = 3.89364 4.32131 4.11304
# Velocity P-wave (km/s) = 6.05732 7.07237 6.58443
#
# Compressibility (1/GPa) = 0.02801451
#
# Stress axis : x y z
#
# Youngs Moduli (GPa) = 58.85257 137.80428 83.68531
#
# Poissons Ratio (x) = 0.17885 0.04477
# Poissons Ratio (y) = 0.07638 0.18903
# Poissons Ratio (z) = 0.03149 0.31127
#
# Static dielectric constant tensor:
#      x y z
#    x 3.946500 -0.021090 0.039180 
#    y -0.021090 4.067480 -0.122880 
#    z 0.039180 -0.122880 4.038640 
# 
# 
# High freq. dielectric constant tensor:
#      x y z
#    x 1.865340 0.001190 -0.003080 
#    y 0.001190 1.867540 -0.002250 
#    z -0.003080 -0.002250 1.857750 
# 
# From -- ./inp_files/156616.got.cif
#   From: 2010.06.25/outbox.cif.g09.slc.cpg/sg2_79_cif.got.tgz:156616.got - 2010.06.27 13:26:56.
