data_PCOD8033726
_publ_section_title
;
Structure prediction by ZEFSAII (Michael W. Deem and Ramdas Pophale) SiO2 
 PCOD8033726
Probable space group: P -1
;
_chemical_formula_sum "Si O2"
_cell_formula_units_Z 14
_cell_length_a 9.054674
_cell_length_b 20.683570
_cell_length_c 13.902475
_cell_angle_alpha 26.235049
_cell_angle_beta 135.902842
_cell_angle_gamma 149.604294
_cell_volume 564.119908
_symmetry_space_group_name_H-M "P -1"
_symmetry_group_IT_number 2
_symmetry_cell_setting 'triclinic'
loop_
_space_group_symop_operation_xyz
x,y,z
-x,-y,-z
loop_
_atom_site_type_symbol
_atom_site_label
_atom_site_fract_x
_atom_site_fract_y
_atom_site_fract_z
Si Si1 0.493293 0.420557 0.875873
Si Si2 0.428456 0.820302 0.063257
Si Si3 0.047355 0.833589 0.650057
Si Si4 0.722303 0.949106 0.334221
Si Si5 0.705586 0.675917 0.441655
Si Si6 0.127995 0.498058 0.661603
Si Si7 0.611420 0.944224 0.762535
O O1 0.583382 0.551067 0.648270
O O2 0.208173 0.364692 0.864153
O O3 0.796743 0.581808 0.866885
O O4 0.396121 0.207378 0.099664
O O5 0.671402 0.837039 0.208762
O O6 0.104361 0.589976 0.242489
O O7 0.402573 0.974060 0.889650
O O8 0.508398 0.858508 0.937433
O O9 0.085069 0.888185 0.706610
O O10 0.361456 0.933886 0.615577
O O11 0.930610 0.923386 0.417453
O O12 0.425858 0.724943 0.534465
O O13 0.500000 0.500000 0.500000
O O14 0.061711 0.819639 0.402092
O O15 0.000000 0.500000 0.500000
#
# Coordination Sequence:
#
# PCOD8033726 Si02
#       7
#     2   2   2   2   2   2   2
#     4  11  24  43  66 102 136 175 223 279 333 394
#     4  11  24  41  71 100 129 179 218 271 343 403
#     4   9  21  45  66  96 134 178 230 272 322 397
#     4   9  22  43  67  96 138 175 223 275 332 394
#     4  12  26  42  67 104 137 174 225 273 342 404
#     4  11  24  41  67 102 139 171 217 281 333 401
#     4  11  25  43  72  95 136 182 221 276 333 398
#
# _framework density 24.817418
#
# number of rings (size 3 to 8) (size 9 to 14) (size 15 to 20)
#    0.000    1.429    2.857    0.857    6.000    3.429 
#    0.000   23.571    0.000    0.000    0.000    0.000 
#    0.000    0.000    0.000    0.000    0.000    0.000 
#
# Total GULP energy -173465.924454 kJ/mol
# GULP energy per Si atom -12390.423175 kJ/mol
# Density = 2.476093 g / cm^3
# Si number density = 24.817418 Si / 1000 Ang^3
#
#
#
# Elastic Constant Matrix: (Units=GPa)
#
#
# Indices 1 2 3 4 5 6 
#
# 1 73.3614 28.7551 15.1713 -8.5456 10.0922 28.4372
# 2 28.7551 94.9917 8.8600 -20.2488 19.7993 24.0462
# 3 15.1713 8.8600 51.5571 -1.3967 33.6409 7.5860
# 4 -8.5456 -20.2488 -1.3967 37.0799 6.6801 8.3578
# 5 10.0922 19.7993 33.6409 6.6801 46.8938 9.4342
# 6 28.4372 24.0462 7.5860 8.3578 9.4342 50.5510
#
#
#
# Elastic Compliance Matrix: (Units=1/GPa)
#
#
# Indices 1 2 3 4 5 6 
#
# 1 0.020016 -0.001955 -0.004586 0.005591 0.001182 -0.010786
# 2 -0.001955 0.018342 0.007593 0.014156 -0.013042 -0.008671
# 3 -0.004586 0.007593 0.041919 0.011341 -0.033307 -0.002981
# 4 0.005591 0.014156 0.011341 0.043173 -0.018390 -0.015286
# 5 0.001182 -0.013042 -0.033307 -0.018390 0.052323 0.003813
# 6 -0.010786 -0.008671 -0.002981 -0.015286 0.003813 0.032237
#
#
# Mechanical properties :
#
#
# Convention : Reuss Voigt Hill
#
# Bulk Modulus (GPa) = 12.13904 36.16476 24.15190
# Shear Modulus (GPa) = 21.42536 38.04653 29.73595
#
# Velocity S-wave (km/s) = 2.94142 3.91968 3.46524
# Velocity P-wave (km/s) = 4.05436 5.92361 5.07577
#
# Compressibility (1/GPa) = 0.08237887
#
# Stress axis : x y z
#
# Youngs Moduli (GPa) = 49.96041 54.52042 23.85543
#
# Poissons Ratio (x) = 0.10661 0.10941
# Poissons Ratio (y) = 0.09769 -0.18113
# Poissons Ratio (z) = 0.22914 -0.41397
#
# Static dielectric constant tensor:
#      x y z
#    x 4.886270 0.403150 0.618100 
#    y 0.403150 5.568010 -0.037970 
#    z 0.618100 -0.037970 4.664660 
# 
# 
# High freq. dielectric constant tensor:
#      x y z
#    x 1.994910 0.020970 0.017380 
#    y 0.020970 1.995690 -0.003370 
#    z 0.017380 -0.003370 1.979180 
# 
# From -- ./inp_files/84269.got.cif
#   From: 2010.06.25/outbox.cif.g09.slc.cpg/sg2_43_cif.got.tgz:84269.got - 2010.06.27 13:26:56.
