data_PCOD8033047
_publ_section_title
;
Structure prediction by ZEFSAII (Michael W. Deem and Ramdas Pophale) SiO2 
 PCOD8033047
Probable space group: P -1
;
_chemical_formula_sum "Si O2"
_cell_formula_units_Z 12
_cell_length_a 12.441383
_cell_length_b 9.020249
_cell_length_c 9.205277
_cell_angle_alpha 46.878611
_cell_angle_beta 56.100516
_cell_angle_gamma 48.608398
_cell_volume 555.029012
_symmetry_space_group_name_H-M "P -1"
_symmetry_group_IT_number 2
_symmetry_cell_setting 'triclinic'
loop_
_space_group_symop_operation_xyz
x,y,z
-x,-y,-z
loop_
_atom_site_type_symbol
_atom_site_label
_atom_site_fract_x
_atom_site_fract_y
_atom_site_fract_z
Si Si1 0.142836 0.643107 0.304299
Si Si2 0.643897 0.447423 0.339362
Si Si3 0.846806 0.683959 0.055252
Si Si4 0.356658 0.661623 0.910075
Si Si5 0.841534 0.081117 0.625703
Si Si6 0.830593 0.817292 0.304339
O O1 0.192252 0.737966 0.341025
O O2 0.203588 0.374524 0.469835
O O3 0.970088 0.797248 0.303457
O O4 0.217237 0.661146 0.088660
O O5 0.500000 0.500000 0.500000
O O6 0.720478 0.606731 0.213491
O O7 0.613264 0.463085 0.182502
O O8 0.748072 0.189240 0.480508
O O9 0.875153 0.759233 0.141358
O O10 0.000000 0.500000 0.000000
O O11 0.796609 0.892353 0.841282
O O12 0.312453 0.932766 0.743818
O O13 0.500000 0.500000 0.000000
O O14 0.000000 0.000000 0.500000
#
# Coordination Sequence:
#
# PCOD8033047 Si02
#       6
#     2   2   2   2   2   2
#     4  11  23  44  72 107 138 184 238 296 354 413
#     4  12  28  48  69 104 146 184 237 296 358 421
#     4  12  24  44  76 108 139 187 239 292 356 424
#     4  12  27  46  70  99 143 191 233 287 359 427
#     4  12  23  43  74 106 145 183 236 296 355 419
#     4  11  24  43  76 104 140 181 244 293 347 424
#
# _framework density 21.62049
#
# number of rings (size 3 to 8) (size 9 to 14) (size 15 to 20)
#    0.000    0.333    5.000    3.500    0.000    5.333 
#    0.000    0.000    0.000    0.000    0.000    0.000 
#    0.000    0.000    0.000    0.000    0.000    0.000 
#
# Total GULP energy -148752.804906 kJ/mol
# GULP energy per Si atom -12396.067076 kJ/mol
# Density = 2.157128 g / cm^3
# Si number density = 21.620490 Si / 1000 Ang^3
#
#
#
# Elastic Constant Matrix: (Units=GPa)
#
#
# Indices 1 2 3 4 5 6 
#
# 1 95.2555 39.5688 41.7297 -8.8160 7.2248 -12.1934
# 2 39.5688 100.8281 34.7992 -9.6912 -1.6516 -12.2513
# 3 41.7297 34.7992 142.5152 -14.5092 -5.5207 -4.3462
# 4 -8.8160 -9.6912 -14.5092 57.9856 -2.7629 9.8619
# 5 7.2248 -1.6516 -5.5207 -2.7629 50.5508 2.5223
# 6 -12.1934 -12.2513 -4.3462 9.8619 2.5223 34.4126
#
#
#
# Elastic Compliance Matrix: (Units=1/GPa)
#
#
# Indices 1 2 3 4 5 6 
#
# 1 0.014233 -0.004130 -0.003162 -0.000020 -0.002684 0.003376
# 2 -0.004130 0.012498 -0.001671 0.000646 0.000725 0.002537
# 3 -0.003162 -0.001671 0.008539 0.001655 0.001481 -0.001220
# 4 -0.000020 0.000646 0.001655 0.018691 0.001477 -0.005033
# 5 -0.002684 0.000725 0.001481 0.001477 0.020553 -0.002436
# 6 0.003376 0.002537 -0.001220 -0.005033 -0.002436 0.032625
#
#
# Mechanical properties :
#
#
# Convention : Reuss Voigt Hill
#
# Bulk Modulus (GPa) = 57.65854 63.42159 60.54007
# Shear Modulus (GPa) = 38.21277 43.42322 40.81800
#
# Velocity S-wave (km/s) = 4.20865 4.48641 4.34975
# Velocity P-wave (km/s) = 7.09530 7.49899 7.29994
#
# Compressibility (1/GPa) = 0.01734348
#
# Stress axis : x y z
#
# Youngs Moduli (GPa) = 70.26076 80.01595 117.10435
#
# Poissons Ratio (x) = 0.33045 0.37029
# Poissons Ratio (y) = 0.29016 0.19571
# Poissons Ratio (z) = 0.22217 0.13372
#
# Static dielectric constant tensor:
#      x y z
#    x 3.929400 0.123410 0.085900 
#    y 0.123410 3.935610 -0.130790 
#    z 0.085900 -0.130790 4.320350 
# 
# 
# High freq. dielectric constant tensor:
#      x y z
#    x 1.844110 0.001300 0.013100 
#    y 0.001300 1.847560 -0.003700 
#    z 0.013100 -0.003700 1.879080 
# 
# From -- ./inp_files/156404.got.cif
#   From: 2010.06.25/outbox.cif.g09.slc.cpg/sg2_79_cif.got.tgz:156404.got - 2010.06.27 13:26:56.
