data_PCOD8033999
_publ_section_title
;
Structure prediction by ZEFSAII (Michael W. Deem and Ramdas Pophale) SiO2 
 PCOD8033999
Probable space group: P -1
;
_chemical_formula_sum "Si O2"
_cell_formula_units_Z 16
_cell_length_a 8.512684
_cell_length_b 12.296720
_cell_length_c 8.819617
_cell_angle_alpha 62.270959
_cell_angle_beta 110.421068
_cell_angle_gamma 118.623928
_cell_volume 707.823561
_symmetry_space_group_name_H-M "P -1"
_symmetry_group_IT_number 2
_symmetry_cell_setting 'triclinic'
loop_
_space_group_symop_operation_xyz
x,y,z
-x,-y,-z
loop_
_atom_site_type_symbol
_atom_site_label
_atom_site_fract_x
_atom_site_fract_y
_atom_site_fract_z
Si Si1 0.817377 0.362096 0.772317
Si Si2 0.014379 0.661757 0.707054
Si Si3 0.023067 0.769394 0.309579
Si Si4 0.438395 0.572343 0.564024
Si Si5 0.312543 0.339455 0.885916
Si Si6 0.762232 0.747867 0.754463
Si Si7 0.636835 0.970881 0.679851
Si Si8 0.375057 0.753018 0.932332
O O1 0.897325 0.504867 0.791785
O O2 0.971986 0.329845 0.759938
O O3 0.677832 0.352378 0.597485
O O4 0.724215 0.247761 0.941282
O O5 0.950385 0.753746 0.739100
O O6 0.986916 0.696710 0.504289
O O7 0.225709 0.694456 0.787829
O O8 0.837512 0.785216 0.178816
O O9 0.205584 0.898551 0.288347
O O10 0.500000 0.500000 0.500000
O O11 0.321672 0.474082 0.719778
O O12 0.612073 0.683185 0.621133
O O13 0.264004 0.339291 0.046378
O O14 0.513627 0.340214 0.941564
O O15 0.747622 0.889017 0.694265
O O16 0.517712 0.896153 0.832956
O O17 0.500000 0.000000 0.500000
#
# Coordination Sequence:
#
# PCOD8033999 Si02
#       8
#     2   2   2   2   2   2   2   2
#     4  12  25  42  71 104 142 174 228 288 350 406
#     4  12  24  46  69 107 136 178 230 284 354 408
#     4  12  26  46  71  99 140 188 234 278 338 408
#     4  12  21  41  68 108 140 175 223 285 353 412
#     4  11  24  43  69 104 139 181 227 289 345 407
#     4  11  25  42  72  99 143 181 228 282 345 410
#     4  11  25  50  70 101 138 185 235 278 337 408
#     4  11  25  44  72 101 139 181 230 286 341 411
#
# _framework density 22.604503000000001
#
# number of rings (size 3 to 8) (size 9 to 14) (size 15 to 20)
#    0.000    0.500    5.000    2.625    1.750    5.000 
#    0.000    0.000    0.000    0.000    0.000    0.000 
#    0.000    0.000    0.000    0.000    0.000    0.000 
#
# Total GULP energy -198344.917667 kJ/mol
# GULP energy per Si atom -12396.557354 kJ/mol
# Density = 2.255305 g / cm^3
# Si number density = 22.604503 Si / 1000 Ang^3
#
#
#
# Elastic Constant Matrix: (Units=GPa)
#
#
# Indices 1 2 3 4 5 6 
#
# 1 117.3068 40.7684 43.1211 7.9566 -3.4597 1.8033
# 2 40.7684 75.6923 19.7046 2.2670 8.5755 6.4384
# 3 43.1211 19.7046 112.4824 7.8236 -2.1369 -4.3603
# 4 7.9566 2.2670 7.8236 38.1912 14.1255 3.6563
# 5 -3.4597 8.5755 -2.1369 14.1255 49.0724 14.5831
# 6 1.8033 6.4384 -4.3603 3.6563 14.5831 42.8400
#
#
#
# Elastic Compliance Matrix: (Units=1/GPa)
#
#
# Indices 1 2 3 4 5 6 
#
# 1 0.012026 -0.005753 -0.003415 -0.002355 0.002580 -0.000667
# 2 -0.005753 0.017042 -0.001029 0.001842 -0.003551 -0.001372
# 3 -0.003415 -0.001029 0.010560 -0.001700 0.000486 0.001353
# 4 -0.002355 0.001842 -0.001700 0.030357 -0.009374 0.000249
# 5 0.002580 -0.003551 0.000486 -0.009374 0.026169 -0.007633
# 6 -0.000667 -0.001372 0.001353 0.000249 -0.007633 0.026292
#
#
# Mechanical properties :
#
#
# Convention : Reuss Voigt Hill
#
# Bulk Modulus (GPa) = 51.99451 56.96331 54.47891
# Shear Modulus (GPa) = 33.50100 39.47986 36.49043
#
# Velocity S-wave (km/s) = 3.85392 4.18371 4.02219
# Velocity P-wave (km/s) = 6.54640 6.97084 6.76195
#
# Compressibility (1/GPa) = 0.01923280
#
# Stress axis : x y z
#
# Youngs Moduli (GPa) = 83.15605 58.67970 94.69985
#
# Poissons Ratio (x) = 0.33759 0.32343
# Poissons Ratio (y) = 0.47840 0.09741
# Poissons Ratio (z) = 0.28401 0.06036
#
# Static dielectric constant tensor:
#      x y z
#    x 4.137510 0.536510 0.311100 
#    y 0.536510 3.437730 0.173530 
#    z 0.311100 0.173530 4.530720 
# 
# 
# High freq. dielectric constant tensor:
#      x y z
#    x 1.908690 0.018580 0.005420 
#    y 0.018580 1.860870 0.018570 
#    z 0.005420 0.018570 1.915000 
# 
# From -- ./inp_files/185272.got.cif
#   From: 2010.06.25/outbox.cif.g09.slc.cpg/sg2_93_cif.got.tgz:185272.got - 2010.06.27 13:26:56.
