data_PCOD8033622
_publ_section_title
;
Structure prediction by ZEFSAII (Michael W. Deem and Ramdas Pophale) SiO2 
 PCOD8033622
Probable space group: P -1
;
_chemical_formula_sum "Si O2"
_cell_formula_units_Z 14
_cell_length_a 7.542666
_cell_length_b 11.406175
_cell_length_c 9.137660
_cell_angle_alpha 126.027287
_cell_angle_beta 71.478004
_cell_angle_gamma 92.215041
_cell_volume 591.484189
_symmetry_space_group_name_H-M "P -1"
_symmetry_group_IT_number 2
_symmetry_cell_setting 'triclinic'
loop_
_space_group_symop_operation_xyz
x,y,z
-x,-y,-z
loop_
_atom_site_type_symbol
_atom_site_label
_atom_site_fract_x
_atom_site_fract_y
_atom_site_fract_z
Si Si1 0.144641 0.753321 0.888828
Si Si2 0.261995 0.132721 0.783748
Si Si3 0.341215 0.809145 0.597082
Si Si4 0.664839 0.151768 0.823021
Si Si5 0.321122 0.597395 0.196382
Si Si6 0.970412 0.529216 0.358406
Si Si7 0.747546 0.821668 0.512517
O O1 0.176979 0.813388 0.763329
O O2 0.167101 0.574591 0.746411
O O3 0.307294 0.796039 0.980672
O O4 0.929160 0.821081 0.039611
O O5 0.441322 0.169877 0.855069
O O6 0.247505 0.212125 0.688185
O O7 0.294828 0.956090 0.615992
O O8 0.369329 0.660160 0.386197
O O9 0.542391 0.809303 0.623219
O O10 0.763918 0.260527 0.777292
O O11 0.785171 0.985702 0.653308
O O12 0.169435 0.492021 0.188658
O O13 0.500000 0.500000 0.000000
O O14 0.896994 0.702911 0.475370
O O15 0.000000 0.500000 0.500000
#
# Coordination Sequence:
#
# PCOD8033622 Si02
#       7
#     2   2   2   2   2   2   2
#     4  12  28  44  73 112 149 198 240 304 373 434
#     4  11  23  48  78 110 147 190 249 309 359 450
#     4  11  24  47  74 109 147 191 242 302 376 430
#     4  11  25  47  80 111 146 193 254 301 367 436
#     4  12  25  46  78 102 146 198 240 303 365 433
#     4  12  29  48  70 109 152 193 248 304 373 439
#     4  11  25  47  77 105 147 197 251 300 365 449
#
# _framework density 23.669271999999999
#
# number of rings (size 3 to 8) (size 9 to 14) (size 15 to 20)
#    0.000    0.571    4.286    3.000    4.000    8.571 
#    0.000    0.000    0.000    0.000    0.000    0.000 
#    0.000    0.000    0.000    0.000    0.000    0.000 
#
# Total GULP energy -173613.383884 kJ/mol
# GULP energy per Si atom -12400.955992 kJ/mol
# Density = 2.361540 g / cm^3
# Si number density = 23.669272 Si / 1000 Ang^3
#
#
#
# Elastic Constant Matrix: (Units=GPa)
#
#
# Indices 1 2 3 4 5 6 
#
# 1 99.4166 58.3096 57.9260 -10.2712 7.7053 2.3255
# 2 58.3096 141.9460 55.2856 -4.3892 -0.2198 -4.7771
# 3 57.9260 55.2856 130.7024 -10.3016 2.5299 -2.7096
# 4 -10.2712 -4.3892 -10.3016 35.7718 10.5858 -3.7843
# 5 7.7053 -0.2198 2.5299 10.5858 49.1638 -2.0188
# 6 2.3255 -4.7771 -2.7096 -3.7843 -2.0188 37.7872
#
#
#
# Elastic Compliance Matrix: (Units=1/GPa)
#
#
# Indices 1 2 3 4 5 6 
#
# 1 0.016373 -0.004757 -0.004950 0.003434 -0.003145 -0.001788
# 2 -0.004757 0.009845 -0.002127 -0.000972 0.001164 0.001350
# 3 -0.004950 -0.002127 0.010891 0.001585 -0.000096 0.000970
# 4 0.003434 -0.000972 0.001585 0.031724 -0.007350 0.002564
# 5 -0.003145 0.001164 -0.000096 -0.007350 0.022459 0.000798
# 6 -0.001788 0.001350 0.000970 0.002564 0.000798 0.027114
#
#
# Mechanical properties :
#
#
# Convention : Reuss Voigt Hill
#
# Bulk Modulus (GPa) = 74.39691 79.45637 76.92664
# Shear Modulus (GPa) = 34.11717 37.91414 36.01565
#
# Velocity S-wave (km/s) = 3.80071 4.00663 3.90503
# Velocity P-wave (km/s) = 7.12465 7.41933 7.27348
#
# Compressibility (1/GPa) = 0.01344142
#
# Stress axis : x y z
#
# Youngs Moduli (GPa) = 61.07579 101.57811 91.81588
#
# Poissons Ratio (x) = 0.48319 0.45447
# Poissons Ratio (y) = 0.29053 0.19531
# Poissons Ratio (z) = 0.30232 0.21607
#
# Static dielectric constant tensor:
#      x y z
#    x 4.226760 0.369860 0.048980 
#    y 0.369860 4.451280 0.099580 
#    z 0.048980 0.099580 4.195340 
# 
# 
# High freq. dielectric constant tensor:
#      x y z
#    x 1.936810 0.021040 0.000820 
#    y 0.021040 1.943990 0.001430 
#    z 0.000820 0.001430 1.937690 
# 
# From -- ./inp_files/182254.got.cif
#   From: 2010.06.25/outbox.cif.g09.slc.cpg/sg2_92_cif.got.tgz:182254.got - 2010.06.27 13:26:56.
