data_PCOD8033744
_publ_section_title
;
Structure prediction by ZEFSAII (Michael W. Deem and Ramdas Pophale) SiO2 
 PCOD8033744
Probable space group: P -1
;
_chemical_formula_sum "Si O2"
_cell_formula_units_Z 12
_cell_length_a 11.140153
_cell_length_b 13.441102
_cell_length_c 16.477535
_cell_angle_alpha 40.337024
_cell_angle_beta 137.999777
_cell_angle_gamma 159.644585
_cell_volume 551.047872
_symmetry_space_group_name_H-M "P -1"
_symmetry_group_IT_number 2
_symmetry_cell_setting 'triclinic'
loop_
_space_group_symop_operation_xyz
x,y,z
-x,-y,-z
loop_
_atom_site_type_symbol
_atom_site_label
_atom_site_fract_x
_atom_site_fract_y
_atom_site_fract_z
Si Si1 0.878812 0.927515 0.160900
Si Si2 0.125904 0.626030 0.767528
Si Si3 0.125029 0.791647 0.413290
Si Si4 0.464727 0.573920 0.017541
Si Si5 0.303685 0.696367 0.091903
Si Si6 0.257558 0.725912 0.364890
O O1 0.789429 0.805412 0.099566
O O2 0.530310 0.717080 0.164326
O O3 0.091812 0.950937 0.300868
O O4 0.116497 0.253167 0.083233
O O5 0.843810 0.459600 0.797306
O O6 0.927476 0.396677 0.737825
O O7 0.332571 0.931530 0.652430
O O8 0.415954 0.718726 0.885925
O O9 0.069300 0.704151 0.345948
O O10 0.807932 0.492023 0.494963
O O11 0.500000 0.000000 0.500000
O O12 0.500000 0.500000 0.000000
O O13 0.000000 0.500000 0.000000
O O14 0.500000 0.000000 0.000000
#
# Coordination Sequence:
#
# PCOD8033744 Si02
#       6
#     2   2   2   2   2   2
#     4  12  25  43  67  98 130 180 223 261 339 399
#     4  12  22  41  68  97 135 169 222 272 335 387
#     4  11  25  46  70  93 138 176 225 267 339 387
#     4  12  24  39  65 102 137 162 217 280 339 400
#     4  12  23  46  66  96 137 180 215 272 333 400
#     4  11  24  41  69  96 130 178 217 278 327 390
#
# _framework density 21.776692000000001
#
# number of rings (size 3 to 8) (size 9 to 14) (size 15 to 20)
#    0.000    0.333    5.000    4.500    4.667    0.000 
#    0.000    1.667    0.000    0.000    0.000    0.000 
#    0.000    0.000    0.000    0.000    0.000    0.000 
#
# Total GULP energy -148771.193367 kJ/mol
# GULP energy per Si atom -12397.599447 kJ/mol
# Density = 2.172713 g / cm^3
# Si number density = 21.776692 Si / 1000 Ang^3
#
#
#
# Elastic Constant Matrix: (Units=GPa)
#
#
# Indices 1 2 3 4 5 6 
#
# 1 80.7546 21.2132 55.5952 4.2191 -1.9764 4.9632
# 2 21.2132 112.6060 32.5301 -9.5796 -8.0397 -15.0962
# 3 55.5952 32.5301 82.3670 0.4880 -10.6056 5.1851
# 4 4.2191 -9.5796 0.4880 46.4214 10.5795 -6.2367
# 5 -1.9764 -8.0397 -10.6056 10.5795 30.0665 2.1037
# 6 4.9632 -15.0962 5.1851 -6.2367 2.1037 35.0691
#
#
#
# Elastic Compliance Matrix: (Units=1/GPa)
#
#
# Indices 1 2 3 4 5 6 
#
# 1 0.023731 -0.000285 -0.016308 -0.001342 -0.003720 -0.001085
# 2 -0.000285 0.011416 -0.004764 0.003332 -0.000258 0.006267
# 3 -0.016308 -0.004764 0.026364 -0.002220 0.008051 -0.004518
# 4 -0.001342 0.003332 -0.002220 0.025472 -0.009436 0.007049
# 5 -0.003720 -0.000258 0.008051 -0.009436 0.039443 -0.004819
# 6 -0.001085 0.006267 -0.004518 0.007049 -0.004819 0.033577
#
#
# Mechanical properties :
#
#
# Convention : Reuss Voigt Hill
#
# Bulk Modulus (GPa) = 53.19867 54.93386 54.06626
# Shear Modulus (GPa) = 23.92556 33.40400 28.66478
#
# Velocity S-wave (km/s) = 3.31823 3.92080 3.63203
# Velocity P-wave (km/s) = 6.25804 6.76591 6.51693
#
# Compressibility (1/GPa) = 0.01879746
#
# Stress axis : x y z
#
# Youngs Moduli (GPa) = 42.13908 87.59982 37.93091
#
# Poissons Ratio (x) = 0.02494 0.61858
# Poissons Ratio (y) = 0.01200 0.18069
# Poissons Ratio (z) = 0.68720 0.41730
#
# Static dielectric constant tensor:
#      x y z
#    x 3.696780 -0.106540 -0.274190 
#    y -0.106540 4.143880 -0.194410 
#    z -0.274190 -0.194410 3.934480 
# 
# 
# High freq. dielectric constant tensor:
#      x y z
#    x 1.842430 -0.013180 -0.020180 
#    y -0.013180 1.872440 -0.012300 
#    z -0.020180 -0.012300 1.849000 
# 
# From -- ./inp_files/63395.got.cif
#   From: 2010.06.25/outbox.cif.g09.slc.cpg/sg2_32_cif.got.tgz:63395.got - 2010.06.27 13:26:56.
