data_PCOD8033293
_publ_section_title
;
Structure prediction by ZEFSAII (Michael W. Deem and Ramdas Pophale) SiO2 
 PCOD8033293
Probable space group: P -1
;
_chemical_formula_sum "Si O2"
_cell_formula_units_Z 16
_cell_length_a 10.828145
_cell_length_b 8.439197
_cell_length_c 8.664667
_cell_angle_alpha 100.076570
_cell_angle_beta 108.819831
_cell_angle_gamma 64.121384
_cell_volume 673.756503
_symmetry_space_group_name_H-M "P -1"
_symmetry_group_IT_number 2
_symmetry_cell_setting 'triclinic'
loop_
_space_group_symop_operation_xyz
x,y,z
-x,-y,-z
loop_
_atom_site_type_symbol
_atom_site_label
_atom_site_fract_x
_atom_site_fract_y
_atom_site_fract_z
Si Si1 0.012326 0.893781 0.325716
Si Si2 0.303086 0.891595 0.407041
Si Si3 0.260712 0.820282 0.847817
Si Si4 0.994357 0.532432 0.187294
Si Si5 0.499087 0.287257 0.282691
Si Si6 0.266026 0.268216 0.400240
Si Si7 0.427537 0.649570 0.166563
Si Si8 0.260565 0.479432 0.733535
O O1 0.028265 0.692407 0.296786
O O2 0.151422 0.891937 0.296804
O O3 0.869759 0.990203 0.180824
O O4 0.000000 0.000000 0.500000
O O5 0.365795 0.763948 0.556205
O O6 0.415043 0.810439 0.300218
O O7 0.286917 0.088786 0.464191
O O8 0.412134 0.822343 0.849998
O O9 0.209237 0.686729 0.710097
O O10 0.290822 0.734151 0.015200
O O11 0.838839 0.564894 0.195177
O O12 0.109519 0.353565 0.276682
O O13 0.000000 0.500000 0.000000
O O14 0.382027 0.229220 0.302074
O O15 0.420235 0.493584 0.244411
O O16 0.280089 0.392747 0.559430
O O17 0.581645 0.583223 0.131925
#
# Coordination Sequence:
#
# PCOD8033293 Si02
#       8
#     2   2   2   2   2   2   2   2
#     4  12  25  48  78 103 142 196 248 289 352 442
#     4  12  25  44  74 105 139 184 246 291 353 427
#     4  11  26  44  75 105 142 189 237 298 358 425
#     4  12  30  46  72 109 147 192 238 304 368 417
#     4  11  23  45  73 105 141 183 244 291 359 424
#     4  12  26  45  72 104 145 190 237 300 353 433
#     4  11  26  43  73 107 142 187 232 303 361 426
#     4  11  24  47  70 100 146 185 241 291 359 431
#
# _framework density 23.747451000000002
#
# number of rings (size 3 to 8) (size 9 to 14) (size 15 to 20)
#    0.000    0.500    2.500    5.625   10.500    0.500 
#    0.000    1.250    0.000    0.000    0.000    0.000 
#    0.000    0.000    0.000    0.000    0.000    0.000 
#
# Total GULP energy -198247.104107 kJ/mol
# GULP energy per Si atom -12390.444007 kJ/mol
# Density = 2.369340 g / cm^3
# Si number density = 23.747451 Si / 1000 Ang^3
#
#
#
# Elastic Constant Matrix: (Units=GPa)
#
#
# Indices 1 2 3 4 5 6 
#
# 1 133.1646 23.3943 10.1309 -15.6769 -4.0719 8.0993
# 2 23.3943 89.3968 35.3928 -18.4027 -3.5569 -4.8943
# 3 10.1309 35.3928 74.7945 -24.9955 -2.9556 -3.1144
# 4 -15.6769 -18.4027 -24.9955 40.5583 -7.0350 9.6812
# 5 -4.0719 -3.5569 -2.9556 -7.0350 31.4178 -4.8933
# 6 8.0993 -4.8943 -3.1144 9.6812 -4.8933 37.8524
#
#
#
# Elastic Compliance Matrix: (Units=1/GPa)
#
#
# Indices 1 2 3 4 5 6 
#
# 1 0.008442 -0.001894 0.001009 0.003939 0.001422 -0.002792
# 2 -0.001894 0.014570 -0.005759 0.002261 0.001593 0.001443
# 3 0.001009 -0.005759 0.019674 0.010911 0.003511 -0.001679
# 4 0.003939 0.002261 0.010911 0.037400 0.008911 -0.008066
# 5 0.001422 0.001593 0.003511 0.008911 0.034897 0.002423
# 6 -0.002792 0.001443 -0.001679 -0.008066 0.002423 0.029441
#
#
# Mechanical properties :
#
#
# Convention : Reuss Voigt Hill
#
# Bulk Modulus (GPa) = 34.01668 48.35465 41.18567
# Shear Modulus (GPa) = 29.84878 37.19488 33.52183
#
# Velocity S-wave (km/s) = 3.54916 3.96190 3.76120
# Velocity P-wave (km/s) = 5.58129 6.42924 6.02022
#
# Compressibility (1/GPa) = 0.02939734
#
# Stress axis : x y z
#
# Youngs Moduli (GPa) = 118.44857 68.63534 50.82897
#
# Poissons Ratio (x) = 0.13002 -0.05129
# Poissons Ratio (y) = 0.22438 0.29273
# Poissons Ratio (z) = -0.11952 0.39528
#
# Static dielectric constant tensor:
#      x y z
#    x 4.343570 -0.318060 -0.004520 
#    y -0.318060 4.377210 -0.069680 
#    z -0.004520 -0.069680 4.267200 
# 
# 
# High freq. dielectric constant tensor:
#      x y z
#    x 1.947670 -0.019290 -0.002900 
#    y -0.019290 1.945460 -0.009090 
#    z -0.002900 -0.009090 1.935530 
# 
# From -- ./inp_files/239878.got.cif
#   From: 2010.06.25/outbox.cif.g09.slc.cpg/sg2_120_cif.got.tgz:239878.got - 2010.06.27 13:26:56.
