data_PCOD8033701
_publ_section_title
;
Structure prediction by ZEFSAII (Michael W. Deem and Ramdas Pophale) SiO2 
 PCOD8033701
Probable space group: P -1
;
_chemical_formula_sum "Si O2"
_cell_formula_units_Z 16
_cell_length_a 20.620003
_cell_length_b 8.512968
_cell_length_c 18.560095
_cell_angle_alpha 134.315824
_cell_angle_beta 160.452301
_cell_angle_gamma 53.277158
_cell_volume 754.729578
_symmetry_space_group_name_H-M "P -1"
_symmetry_group_IT_number 2
_symmetry_cell_setting 'triclinic'
loop_
_space_group_symop_operation_xyz
x,y,z
-x,-y,-z
loop_
_atom_site_type_symbol
_atom_site_label
_atom_site_fract_x
_atom_site_fract_y
_atom_site_fract_z
Si Si1 0.630531 0.053844 0.464852
Si Si2 0.992517 0.145589 0.968306
Si Si3 0.092869 0.706386 0.450191
Si Si4 0.929705 0.712849 0.520263
Si Si5 0.768195 0.800060 0.235144
Si Si6 0.922546 0.342227 0.750654
Si Si7 0.809213 0.913079 0.985793
Si Si8 0.361567 0.437288 0.713309
O O1 0.579296 0.781390 0.326677
O O2 0.765836 0.138706 0.704295
O O3 0.746981 0.153555 0.545611
O O4 0.428965 0.136950 0.283585
O O5 0.104036 0.408129 0.182123
O O6 0.102835 0.039860 0.987463
O O7 0.000000 0.000000 0.000000
O O8 0.085673 0.708329 0.357813
O O9 0.180502 0.496849 0.498339
O O10 0.870437 0.677440 0.241410
O O11 0.233117 0.942663 0.705541
O O12 0.901638 0.846874 0.462303
O O13 0.715086 0.620407 0.304342
O O14 0.000000 0.500000 0.500000
O O15 0.095056 0.869069 0.795023
O O16 0.549367 0.650725 0.974678
O O17 0.132522 0.308978 0.991729
#
# Coordination Sequence:
#
# PCOD8033701 Si02
#       8
#     2   2   2   2   2   2   2   2
#     4  11  24  43  70 100 127 175 222 269 331 392
#     4  11  25  46  72  98 134 171 214 279 337 388
#     4  11  24  43  61  97 139 170 224 269 334 392
#     4  12  22  41  66  94 132 178 219 272 322 386
#     4  11  24  41  63  96 133 182 218 271 334 389
#     4  11  24  44  71  95 135 177 215 278 329 386
#     4  11  24  45  67  95 137 169 226 270 323 400
#     4  12  23  40  67  95 132 172 227 271 329 392
#
# _framework density 21.199646999999999
#
# number of rings (size 3 to 8) (size 9 to 14) (size 15 to 20)
#    0.000    0.750    5.000    3.750    0.000    4.500 
#    0.000    0.000    0.000    0.000    0.000    0.000 
#    0.000    0.000    0.000    0.000    0.000    0.000 
#
# Total GULP energy -198393.368936 kJ/mol
# GULP energy per Si atom -12399.585558 kJ/mol
# Density = 2.115140 g / cm^3
# Si number density = 21.199647 Si / 1000 Ang^3
#
#
#
# Elastic Constant Matrix: (Units=GPa)
#
#
# Indices 1 2 3 4 5 6 
#
# 1 120.0357 35.5038 45.8377 -10.6052 -15.1831 8.1980
# 2 35.5038 114.0884 24.0063 -3.4746 -0.1912 -0.7728
# 3 45.8377 24.0063 91.2290 -6.4401 12.1110 -6.0729
# 4 -10.6052 -3.4746 -6.4401 36.3700 -1.8285 -0.5151
# 5 -15.1831 -0.1912 12.1110 -1.8285 32.1717 -1.2973
# 6 8.1980 -0.7728 -6.0729 -0.5151 -1.2973 33.9458
#
#
#
# Elastic Compliance Matrix: (Units=1/GPa)
#
#
# Indices 1 2 3 4 5 6 
#
# 1 0.013681 -0.002606 -0.007504 0.002816 0.009252 -0.004310
# 2 -0.002606 0.009818 -0.001141 -0.000051 -0.000720 0.000621
# 3 -0.007504 -0.001141 0.016617 0.000224 -0.009614 0.004395
# 4 0.002816 -0.000051 0.000224 0.028493 0.002860 -0.000099
# 5 0.009252 -0.000720 -0.009614 0.002860 0.039129 -0.002432
# 6 -0.004310 0.000621 0.004395 -0.000099 -0.002432 0.031205
#
#
# Mechanical properties :
#
#
# Convention : Reuss Voigt Hill
#
# Bulk Modulus (GPa) = 56.77774 59.56096 58.16935
# Shear Modulus (GPa) = 29.88342 35.16451 32.52397
#
# Velocity S-wave (km/s) = 3.75856 4.07717 3.92110
# Velocity P-wave (km/s) = 6.75842 7.09371 6.92809
#
# Compressibility (1/GPa) = 0.01761254
#
# Stress axis : x y z
#
# Youngs Moduli (GPa) = 73.09500 101.85754 60.17986
#
# Poissons Ratio (x) = 0.26547 0.45162
# Poissons Ratio (y) = 0.19050 0.06864
# Poissons Ratio (z) = 0.54854 0.11618
#
# Static dielectric constant tensor:
#      x y z
#    x 2.371480 -1.608900 0.947070 
#    y -1.608900 2.333680 1.047840 
#    z 0.947070 1.047840 3.037530 
# 
# 
# High freq. dielectric constant tensor:
#      x y z
#    x 1.836880 0.001370 -0.002140 
#    y 0.001370 1.850900 0.006460 
#    z -0.002140 0.006460 1.813110 
# 
# From -- ./inp_files/577447.got.cif
#   From: 2010.06.25/outbox.cif.g09.slc.cpg/sg2_289_cif.got.tgz:577447.got - 2010.06.27 13:26:56.
