data_PCOD8033482
_publ_section_title
;
Structure prediction by ZEFSAII (Michael W. Deem and Ramdas Pophale) SiO2 
 PCOD8033482
Probable space group: P -1
;
_chemical_formula_sum "Si O2"
_cell_formula_units_Z 16
_cell_length_a 9.545814
_cell_length_b 8.520476
_cell_length_c 15.986444
_cell_angle_alpha 88.927438
_cell_angle_beta 147.070936
_cell_angle_gamma 84.739976
_cell_volume 692.763773
_symmetry_space_group_name_H-M "P -1"
_symmetry_group_IT_number 2
_symmetry_cell_setting 'triclinic'
loop_
_space_group_symop_operation_xyz
x,y,z
-x,-y,-z
loop_
_atom_site_type_symbol
_atom_site_label
_atom_site_fract_x
_atom_site_fract_y
_atom_site_fract_z
Si Si1 0.627062 0.967883 0.937172
Si Si2 0.989215 0.271528 0.957185
Si Si3 0.785776 0.507693 0.174312
Si Si4 0.866294 0.874142 0.222339
Si Si5 0.482110 0.875304 0.279964
Si Si6 0.653559 0.188297 0.419606
Si Si7 0.036487 0.654677 0.564375
Si Si8 0.876431 0.608267 0.812508
O O1 0.343004 0.987078 0.837192
O O2 0.585427 0.121337 0.853638
O O3 0.857010 0.946017 0.123081
O O4 0.715457 0.810726 0.924139
O O5 0.778743 0.174265 0.813907
O O6 0.911768 0.442146 0.877481
O O7 0.990953 0.279271 0.059738
O O8 0.806565 0.693600 0.195654
O O9 0.821111 0.403697 0.277356
O O10 0.997581 0.413311 0.215790
O O11 0.500000 0.500000 0.000000
O O12 0.142747 0.872313 0.403658
O O13 0.746865 0.753588 0.436318
O O14 0.507786 0.046622 0.324952
O O15 0.796508 0.243115 0.408810
O O16 0.437671 0.328658 0.350905
O O17 0.000000 0.500000 0.500000
#
# Coordination Sequence:
#
# PCOD8033482 Si02
#       8
#     2   2   2   2   2   2   2   2
#     4  11  23  46  74 102 149 188 244 304 366 435
#     4  11  25  46  76 109 142 197 252 300 367 439
#     4  12  29  47  74 111 149 193 250 304 369 433
#     4  11  26  45  72 109 146 192 239 311 366 433
#     4  12  26  45  75 107 145 196 245 303 366 442
#     4  12  26  47  75 109 149 196 245 301 377 433
#     4  12  26  48  75 109 149 198 246 305 363 444
#     4  11  27  47  77 105 150 196 246 305 365 441
#
# _framework density 23.095897999999998
#
# number of rings (size 3 to 8) (size 9 to 14) (size 15 to 20)
#    0.000    0.500    5.000    1.500    8.750    2.500 
#    0.000    1.250    0.000    0.000    0.000    0.000 
#    0.000    0.000    0.000    0.000    0.000    0.000 
#
# Total GULP energy -198229.905702 kJ/mol
# GULP energy per Si atom -12389.369106 kJ/mol
# Density = 2.304333 g / cm^3
# Si number density = 23.095898 Si / 1000 Ang^3
#
#
#
# Elastic Constant Matrix: (Units=GPa)
#
#
# Indices 1 2 3 4 5 6 
#
# 1 91.7629 28.5541 51.0703 -0.5068 0.2997 -28.2035
# 2 28.5541 95.5055 44.1828 5.1824 13.1398 -19.5444
# 3 51.0703 44.1828 171.8265 -18.5117 -6.5554 -3.8728
# 4 -0.5068 5.1824 -18.5117 44.1584 1.8284 9.3515
# 5 0.2997 13.1398 -6.5554 1.8284 44.9699 -4.4775
# 6 -28.2035 -19.5444 -3.8728 9.3515 -4.4775 33.6003
#
#
#
# Elastic Compliance Matrix: (Units=1/GPa)
#
#
# Indices 1 2 3 4 5 6 
#
# 1 0.019725 0.001070 -0.006397 -0.006495 0.000714 0.018345
# 2 0.001070 0.015358 -0.004813 -0.005844 -0.003925 0.010381
# 3 -0.006397 -0.004813 0.009501 0.006219 0.001727 -0.008574
# 4 -0.006495 -0.005844 0.006219 0.029326 -0.000160 -0.016318
# 5 0.000714 -0.003925 0.001727 -0.000160 0.023810 0.001733
# 6 0.018345 0.010381 -0.008574 -0.016318 0.001733 0.054983
#
#
# Mechanical properties :
#
#
# Convention : Reuss Voigt Hill
#
# Bulk Modulus (GPa) = 41.14174 67.41215 54.27695
# Shear Modulus (GPa) = 27.61148 40.23155 33.92152
#
# Velocity S-wave (km/s) = 3.46137 4.17818 3.83655
# Velocity P-wave (km/s) = 5.81609 7.24759 6.57094
#
# Compressibility (1/GPa) = 0.02430622
#
# Stress axis : x y z
#
# Youngs Moduli (GPa) = 50.69715 65.11068 105.24901
#
# Poissons Ratio (x) = -0.06970 0.67328
# Poissons Ratio (y) = -0.05427 0.50653
# Poissons Ratio (z) = 0.32431 0.31336
#
# Static dielectric constant tensor:
#      x y z
#    x 3.387600 -0.389190 -0.105260 
#    y -0.389190 4.242710 -0.048860 
#    z -0.105260 -0.048860 4.401000 
# 
# 
# High freq. dielectric constant tensor:
#      x y z
#    x 1.908710 -0.015630 -0.005110 
#    y -0.015630 1.915140 -0.017660 
#    z -0.005110 -0.017660 1.933860 
# 
# From -- ./inp_files/495085.got.cif
#   From: 2010.06.25/outbox.cif.g09.slc.cpg/sg2_248_cif.got.tgz:495085.got - 2010.06.27 13:26:56.
