data_PCOD8033392
_publ_section_title
;
Structure prediction by ZEFSAII (Michael W. Deem and Ramdas Pophale) SiO2 
 PCOD8033392
Probable space group: P -1
;
_chemical_formula_sum "Si O2"
_cell_formula_units_Z 16
_cell_length_a 20.224720
_cell_length_b 17.416137
_cell_length_c 11.282712
_cell_angle_alpha 147.925283
_cell_angle_beta 33.637904
_cell_angle_gamma 159.828583
_cell_volume 712.574077
_symmetry_space_group_name_H-M "P -1"
_symmetry_group_IT_number 2
_symmetry_cell_setting 'triclinic'
loop_
_space_group_symop_operation_xyz
x,y,z
-x,-y,-z
loop_
_atom_site_type_symbol
_atom_site_label
_atom_site_fract_x
_atom_site_fract_y
_atom_site_fract_z
Si Si1 0.441650 0.412484 0.781468
Si Si2 0.973763 0.231772 0.148431
Si Si3 0.405393 0.634378 0.949477
Si Si4 0.498869 0.231870 0.270435
Si Si5 0.656192 0.096612 0.301005
Si Si6 0.807007 0.297237 0.945374
Si Si7 0.186176 0.221732 0.132792
Si Si8 0.029926 0.375964 0.513448
O O1 0.471483 0.582389 0.880116
O O2 0.412758 0.248878 0.524762
O O3 0.630295 0.570231 0.786416
O O4 0.252976 0.247039 0.931888
O O5 0.805129 0.128315 0.180776
O O6 0.970412 0.317637 0.388237
O O7 0.177505 0.452095 0.065898
O O8 0.944294 0.032828 0.954068
O O9 0.446917 0.622492 0.737191
O O10 0.537570 0.903699 0.121892
O O11 0.335080 0.958387 0.120099
O O12 0.697247 0.344942 0.166403
O O13 0.766826 0.341792 0.403197
O O14 0.500000 0.000000 0.500000
O O15 0.859794 0.296122 0.732443
O O16 0.000000 0.500000 0.000000
O O17 0.055597 0.239974 0.348900
#
# Coordination Sequence:
#
# PCOD8033392 Si02
#       8
#     2   2   2   2   2   2   2   2
#     4  11  23  46  69 102 138 184 234 284 352 409
#     4  12  25  43  69 106 139 179 234 285 355 410
#     4  12  25  46  68 102 145 181 232 286 350 421
#     4  11  26  45  71  98 141 188 231 281 346 422
#     4  12  25  43  66 104 144 181 222 289 354 410
#     4  11  25  47  68 101 137 184 236 284 345 415
#     4  11  24  44  74 105 139 178 237 297 344 407
#     4  12  24  43  74 101 138 181 234 291 348 412
#
# _framework density 22.453804999999999
#
# number of rings (size 3 to 8) (size 9 to 14) (size 15 to 20)
#    0.000    0.500    3.750    4.125    5.250    1.000 
#    0.000    0.625    0.000    0.000    0.000    0.000 
#    0.000    0.000    0.000    0.000    0.000    0.000 
#
# Total GULP energy -198486.774478 kJ/mol
# GULP energy per Si atom -12405.423405 kJ/mol
# Density = 2.240270 g / cm^3
# Si number density = 22.453805 Si / 1000 Ang^3
#
#
#
# Elastic Constant Matrix: (Units=GPa)
#
#
# Indices 1 2 3 4 5 6 
#
# 1 87.2119 34.7742 27.4855 -1.3922 2.8038 -5.7137
# 2 34.7742 103.8243 27.2420 10.2482 -6.1262 1.9223
# 3 27.4855 27.2420 108.4987 -1.6534 2.7185 -4.5130
# 4 -1.3922 10.2482 -1.6534 38.0134 -1.4799 3.0649
# 5 2.8038 -6.1262 2.7185 -1.4799 31.2092 -5.1346
# 6 -5.7137 1.9223 -4.5130 3.0649 -5.1346 37.1267
#
#
#
# Elastic Compliance Matrix: (Units=1/GPa)
#
#
# Indices 1 2 3 4 5 6 
#
# 1 0.014144 -0.004384 -0.002347 0.001393 -0.001567 0.001787
# 2 -0.004384 0.012155 -0.002097 -0.003351 0.002653 -0.000915
# 3 -0.002347 -0.002097 0.010408 0.000830 -0.000934 0.000815
# 4 0.001393 -0.003351 0.000830 0.027445 0.000157 -0.001755
# 5 -0.001567 0.002653 -0.000934 0.000157 0.033471 0.004124
# 6 0.001787 -0.000915 0.000815 -0.001755 0.004124 0.028071
#
#
# Mechanical properties :
#
#
# Convention : Reuss Voigt Hill
#
# Bulk Modulus (GPa) = 52.49541 53.17094 52.83318
# Shear Modulus (GPa) = 33.40014 35.27207 34.33610
#
# Velocity S-wave (km/s) = 3.86100 3.96772 3.91473
# Velocity P-wave (km/s) = 6.58077 6.68745 6.63432
#
# Compressibility (1/GPa) = 0.01904928
#
# Stress axis : x y z
#
# Youngs Moduli (GPa) = 70.70142 82.27343 96.08233
#
# Poissons Ratio (x) = 0.36072 0.22554
# Poissons Ratio (y) = 0.30998 0.20146
# Poissons Ratio (z) = 0.16596 0.17251
#
# Static dielectric constant tensor:
#      x y z
#    x 4.000420 0.015670 0.057670 
#    y 0.015670 4.083100 -0.042200 
#    z 0.057670 -0.042200 4.060960 
# 
# 
# High freq. dielectric constant tensor:
#      x y z
#    x 1.889600 0.000810 0.000010 
#    y 0.000810 1.898980 0.001030 
#    z 0.000010 0.001030 1.885820 
# 
# From -- ./inp_files/428947.got.cif
#   From: 2010.06.25/outbox.cif.g09.slc.cpg/sg2_215_cif.got.tgz:428947.got - 2010.06.27 13:26:56.
