data_PCOD8033079
_publ_section_title
;
Structure prediction by ZEFSAII (Michael W. Deem and Ramdas Pophale) SiO2 
 PCOD8033079
Probable space group: P -1
;
_chemical_formula_sum "Si O2"
_cell_formula_units_Z 16
_cell_length_a 23.387344
_cell_length_b 12.249549
_cell_length_c 5.379385
_cell_angle_alpha 54.843102
_cell_angle_beta 57.300477
_cell_angle_gamma 32.296733
_cell_volume 668.143719
_symmetry_space_group_name_H-M "P -1"
_symmetry_group_IT_number 2
_symmetry_cell_setting 'triclinic'
loop_
_space_group_symop_operation_xyz
x,y,z
-x,-y,-z
loop_
_atom_site_type_symbol
_atom_site_label
_atom_site_fract_x
_atom_site_fract_y
_atom_site_fract_z
Si Si1 0.233517 0.064987 0.306027
Si Si2 0.378857 0.951230 0.731275
Si Si3 0.730158 0.447296 0.231341
Si Si4 0.043022 0.004778 0.640303
Si Si5 0.602521 0.593402 0.825214
Si Si6 0.411365 0.669870 0.686924
Si Si7 0.221890 0.333531 0.284561
Si Si8 0.999618 0.630907 0.659095
O O1 0.256791 0.182192 0.180881
O O2 0.110574 0.211321 0.440631
O O3 0.294256 0.860720 0.587665
O O4 0.287683 0.989025 0.005772
O O5 0.479456 0.840441 0.817306
O O6 0.438190 0.770453 0.619191
O O7 0.315380 0.177845 0.480644
O O8 0.826267 0.194910 0.386994
O O9 0.660290 0.572190 0.481659
O O10 0.662104 0.519346 0.047949
O O11 0.789017 0.498940 0.992843
O O12 0.001560 0.219864 0.411849
O O13 0.000000 0.000000 0.500000
O O14 0.000000 0.000000 0.000000
O O15 0.595104 0.447277 0.962261
O O16 0.500000 0.500000 0.500000
O O17 0.105084 0.458208 0.472686
O O18 0.000000 0.500000 0.000000
#
# Coordination Sequence:
#
# PCOD8033079 Si02
#       8
#     2   2   2   2   2   2   2   2
#     4  11  25  44  75 106 147 189 259 312 385 453
#     4  11  25  44  72 109 144 194 251 315 377 454
#     4  12  29  49  76 109 153 203 248 310 383 465
#     4  12  28  51  81 113 158 203 255 318 392 460
#     4  12  27  45  76 108 150 196 251 301 384 456
#     4  11  23  44  73 106 149 190 243 321 383 449
#     4  11  27  48  72 105 152 198 253 320 382 450
#     4  12  26  46  80 113 146 203 259 322 386 459
#
# _framework density 23.946944999999999
#
# number of rings (size 3 to 8) (size 9 to 14) (size 15 to 20)
#    0.000    0.500    3.750    3.000    8.750    2.000 
#    0.000    0.000    0.000    0.000    0.000    0.000 
#    0.000    0.000    0.000    0.000    0.000    0.000 
#
# Total GULP energy -198261.915881 kJ/mol
# GULP energy per Si atom -12391.369743 kJ/mol
# Density = 2.389244 g / cm^3
# Si number density = 23.946945 Si / 1000 Ang^3
#
#
#
# Elastic Constant Matrix: (Units=GPa)
#
#
# Indices 1 2 3 4 5 6 
#
# 1 83.6672 42.9297 32.1272 -0.3033 12.0596 -18.7880
# 2 42.9297 139.7200 41.4866 -9.4020 5.0863 -25.7204
# 3 32.1272 41.4866 123.4073 -0.9621 -4.5142 -1.3113
# 4 -0.3033 -9.4020 -0.9621 38.9793 0.8363 -4.0289
# 5 12.0596 5.0863 -4.5142 0.8363 46.3712 -10.4439
# 6 -18.7880 -25.7204 -1.3113 -4.0289 -10.4439 50.4712
#
#
#
# Elastic Compliance Matrix: (Units=1/GPa)
#
#
# Indices 1 2 3 4 5 6 
#
# 1 0.016123 -0.003252 -0.003191 -0.000300 -0.003343 0.003546
# 2 -0.003252 0.009757 -0.002356 0.002674 0.000398 0.003996
# 3 -0.003191 -0.002356 0.009762 -0.000578 0.001634 -0.001843
# 4 -0.000300 0.002674 -0.000578 0.026631 0.000006 0.003363
# 5 -0.003343 0.000398 0.001634 0.000006 0.023416 0.003847
# 6 0.003546 0.003996 -0.001843 0.003363 0.003847 0.024186
#
#
# Mechanical properties :
#
#
# Convention : Reuss Voigt Hill
#
# Bulk Modulus (GPa) = 55.41941 64.43129 59.92535
# Shear Modulus (GPa) = 37.45679 42.51442 39.98560
#
# Velocity S-wave (km/s) = 3.95923 4.21807 4.09070
# Velocity P-wave (km/s) = 6.64030 7.11949 6.88406
#
# Compressibility (1/GPa) = 0.01804422
#
# Stress axis : x y z
#
# Youngs Moduli (GPa) = 62.02267 102.49104 102.44259
#
# Poissons Ratio (x) = 0.33331 0.32690
# Poissons Ratio (y) = 0.20170 0.24131
# Poissons Ratio (z) = 0.19792 0.24142
#
# Static dielectric constant tensor:
#      x y z
#    x 4.639420 -0.203840 -0.165940 
#    y -0.203840 5.189290 -0.167860 
#    z -0.165940 -0.167860 4.446270 
# 
# 
# High freq. dielectric constant tensor:
#      x y z
#    x 1.941640 -0.012320 0.001190 
#    y -0.012320 1.977000 -0.009450 
#    z 0.001190 -0.009450 1.948750 
# 
# From -- ./inp_files/123565.got.cif
#   From: 2010.06.25/outbox.cif.g09.slc.cpg/sg2_62_cif.got.tgz:123565.got - 2010.06.27 13:26:56.
