data_PCOD8033773
_publ_section_title
;
Structure prediction by ZEFSAII (Michael W. Deem and Ramdas Pophale) SiO2 
 PCOD8033773
Probable space group: P -1
;
_chemical_formula_sum "Si O2"
_cell_formula_units_Z 12
_cell_length_a 9.585624
_cell_length_b 12.549305
_cell_length_c 9.761445
_cell_angle_alpha 136.371663
_cell_angle_beta 137.661464
_cell_angle_gamma 67.696192
_cell_volume 514.208209
_symmetry_space_group_name_H-M "P -1"
_symmetry_group_IT_number 2
_symmetry_cell_setting 'triclinic'
loop_
_space_group_symop_operation_xyz
x,y,z
-x,-y,-z
loop_
_atom_site_type_symbol
_atom_site_label
_atom_site_fract_x
_atom_site_fract_y
_atom_site_fract_z
Si Si1 0.683406 0.428716 0.123453
Si Si2 0.540439 0.058080 0.738450
Si Si3 0.786903 0.374407 0.655543
Si Si4 0.325406 0.162582 0.191929
Si Si5 0.104678 0.407957 0.304142
Si Si6 0.215268 0.967296 0.661968
O O1 0.814570 0.559607 0.451812
O O2 0.853790 0.410191 0.112757
O O3 0.500000 0.500000 0.000000
O O4 0.592341 0.252171 0.965482
O O5 0.500000 0.000000 0.500000
O O6 0.719805 0.981885 0.860529
O O7 0.337481 0.980322 0.618929
O O8 0.559397 0.313149 0.523024
O O9 0.739762 0.461623 0.566101
O O10 0.850217 0.218881 0.507271
O O11 0.000000 0.500000 0.000000
O O12 0.120362 0.229603 0.112258
O O13 0.349090 0.089139 0.991356
O O14 0.000000 0.000000 0.500000
#
# Coordination Sequence:
#
# PCOD8033773 Si02
#       6
#     2   2   2   2   2   2
#     4  11  26  45  69 101 146 184 237 291 368 426
#     4  11  25  44  71 100 144 188 233 294 357 428
#     4  11  24  41  73 103 140 183 239 294 358 419
#     4  11  24  47  72 103 146 186 243 298 357 428
#     4  11  25  43  71 104 137 187 235 300 355 427
#     4  11  25  44  71 105 142 191 242 294 358 426
#
# _framework density 23.336849999999998
#
# number of rings (size 3 to 8) (size 9 to 14) (size 15 to 20)
#    0.000    1.000    0.000    6.500   11.667    0.667 
#    0.000    0.000    0.000    0.000    0.000    0.000 
#    0.000    0.000    0.000    0.000    0.000    0.000 
#
# Total GULP energy -148714.676739 kJ/mol
# GULP energy per Si atom -12392.889728 kJ/mol
# Density = 2.328373 g / cm^3
# Si number density = 23.336850 Si / 1000 Ang^3
#
#
#
# Elastic Constant Matrix: (Units=GPa)
#
#
# Indices 1 2 3 4 5 6 
#
# 1 113.9234 70.7779 38.3225 -3.7902 -20.3613 -19.2265
# 2 70.7779 203.1611 30.8261 13.5392 0.1772 -24.2263
# 3 38.3225 30.8261 102.6834 3.2791 -8.4192 -3.5348
# 4 -3.7902 13.5392 3.2791 38.3937 -0.1814 -6.1645
# 5 -20.3613 0.1772 -8.4192 -0.1814 34.2516 -2.7572
# 6 -19.2265 -24.2263 -3.5348 -6.1645 -2.7572 52.9084
#
#
#
# Elastic Compliance Matrix: (Units=1/GPa)
#
#
# Indices 1 2 3 4 5 6 
#
# 1 0.015142 -0.004521 -0.003587 0.004096 0.008496 0.004113
# 2 -0.004521 0.006872 -0.000483 -0.002679 -0.002774 0.001015
# 3 -0.003587 -0.000483 0.011279 -0.001288 0.000564 -0.000891
# 4 0.004096 -0.002679 -0.001288 0.028092 0.002569 0.003583
# 5 0.008496 -0.002774 0.000564 0.002569 0.034732 0.003964
# 6 0.004113 0.001015 -0.000891 0.003583 0.003964 0.021424
#
#
# Mechanical properties :
#
#
# Convention : Reuss Voigt Hill
#
# Bulk Modulus (GPa) = 62.06355 77.73567 69.89961
# Shear Modulus (GPa) = 35.69054 43.76683 39.72868
#
# Velocity S-wave (km/s) = 3.91495 4.33533 4.13049
# Velocity P-wave (km/s) = 6.86208 7.64478 7.26398
#
# Compressibility (1/GPa) = 0.01611252
#
# Stress axis : x y z
#
# Youngs Moduli (GPa) = 66.04221 145.50840 88.66152
#
# Poissons Ratio (x) = 0.65783 0.31799
# Poissons Ratio (y) = 0.29857 0.04281
# Poissons Ratio (z) = 0.23686 0.07026
#
# Static dielectric constant tensor:
#      x y z
#    x 4.132830 0.167100 -0.038780 
#    y 0.167100 3.185960 1.280920 
#    z -0.038780 1.280920 2.278940 
# 
# 
# High freq. dielectric constant tensor:
#      x y z
#    x 1.922820 -0.010970 -0.009900 
#    y -0.010970 1.948020 0.002170 
#    z -0.009900 0.002170 1.911190 
# 
# From -- ./inp_files/191015.got.cif
#   From: 2010.06.25/outbox.cif.g09.slc.cpg/sg2_96_cif.got.tgz:191015.got - 2010.06.27 13:26:56.
