data_PCOD8033582
_publ_section_title
;
Structure prediction by ZEFSAII (Michael W. Deem and Ramdas Pophale) SiO2 
 PCOD8033582
Probable space group: P -1
;
_chemical_formula_sum "Si O2"
_cell_formula_units_Z 16
_cell_length_a 11.850795
_cell_length_b 9.002011
_cell_length_c 9.276327
_cell_angle_alpha 128.211265
_cell_angle_beta 103.377500
_cell_angle_gamma 61.741471
_cell_volume 682.190321
_symmetry_space_group_name_H-M "P -1"
_symmetry_group_IT_number 2
_symmetry_cell_setting 'triclinic'
loop_
_space_group_symop_operation_xyz
x,y,z
-x,-y,-z
loop_
_atom_site_type_symbol
_atom_site_label
_atom_site_fract_x
_atom_site_fract_y
_atom_site_fract_z
Si Si1 0.019817 0.911135 0.293721
Si Si2 0.753569 0.147277 0.199977
Si Si3 0.881085 0.528935 0.810009
Si Si4 0.561681 0.023467 0.682729
Si Si5 0.681976 0.848779 0.138595
Si Si6 0.238334 0.440799 0.502634
Si Si7 0.851424 0.521211 0.192779
Si Si8 0.762207 0.174871 0.891612
O O1 0.077412 0.660096 0.177120
O O2 0.119477 0.967409 0.262595
O O3 0.000000 0.000000 0.500000
O O4 0.890242 0.007382 0.225204
O O5 0.699670 0.396618 0.353235
O O6 0.769577 0.078841 0.995596
O O7 0.655846 0.082789 0.221535
O O8 0.855769 0.468719 0.606691
O O9 0.997978 0.598976 0.878734
O O10 0.745353 0.705439 0.931605
O O11 0.453554 0.138489 0.841050
O O12 0.500000 0.000000 0.500000
O O13 0.654115 0.793336 0.630063
O O14 0.635333 0.173219 0.777831
O O15 0.786122 0.753235 0.241787
O O16 0.151961 0.448514 0.618998
O O17 0.766449 0.399807 0.044201
#
# Coordination Sequence:
#
# PCOD8033582 Si02
#       8
#     2   2   2   2   2   2   2   2
#     4  12  24  42  75 116 152 191 237 306 378 438
#     4  11  25  46  75 112 155 187 243 309 372 438
#     4  12  24  44  78 114 151 186 242 306 372 443
#     4  12  29  51  76 102 146 203 256 305 358 439
#     4  12  25  48  75 103 149 199 246 298 367 437
#     4  11  26  46  72 114 147 196 245 302 362 439
#     4  11  23  47  74 111 146 187 241 302 381 439
#     4  11  27  47  71 108 146 196 245 303 368 439
#
# _framework density 23.453865
#
# number of rings (size 3 to 8) (size 9 to 14) (size 15 to 20)
#    0.000    0.500    5.000    2.625    3.500    6.000 
#    0.000    0.000    0.000    0.000    0.000    0.000 
#    0.000    0.000    0.000    0.000    0.000    0.000 
#
# Total GULP energy -198307.494918 kJ/mol
# GULP energy per Si atom -12394.218432 kJ/mol
# Density = 2.340048 g / cm^3
# Si number density = 23.453865 Si / 1000 Ang^3
#
#
#
# Elastic Constant Matrix: (Units=GPa)
#
#
# Indices 1 2 3 4 5 6 
#
# 1 140.4943 21.3705 58.1288 0.5257 -9.8006 7.6848
# 2 21.3705 79.5654 28.7954 -6.9876 -0.9414 9.3016
# 3 58.1288 28.7954 121.3508 -18.3265 -5.6287 4.6878
# 4 0.5257 -6.9876 -18.3265 51.6395 -3.6203 -3.6571
# 5 -9.8006 -0.9414 -5.6287 -3.6203 41.1921 -1.2427
# 6 7.6848 9.3016 4.6878 -3.6571 -1.2427 35.4677
#
#
#
# Elastic Compliance Matrix: (Units=1/GPa)
#
#
# Indices 1 2 3 4 5 6 
#
# 1 0.009233 -0.000884 -0.004363 -0.001759 0.001386 -0.001325
# 2 -0.000884 0.014219 -0.002735 0.000722 -0.000290 -0.003112
# 3 -0.004363 -0.002735 0.011583 0.003884 0.000841 0.000562
# 4 -0.001759 0.000722 0.003884 0.021139 0.002045 0.001930
# 5 0.001386 -0.000290 0.000841 0.002045 0.024917 0.000748
# 6 -0.001325 -0.003112 0.000562 0.001930 0.000748 0.029449
#
#
# Mechanical properties :
#
#
# Convention : Reuss Voigt Hill
#
# Bulk Modulus (GPa) = 52.43381 61.99998 57.21690
# Shear Modulus (GPa) = 37.63313 41.20092 39.41703
#
# Velocity S-wave (km/s) = 4.01004 4.19582 4.10398
# Velocity P-wave (km/s) = 6.62158 7.06863 6.84875
#
# Compressibility (1/GPa) = 0.01907166
#
# Stress axis : x y z
#
# Youngs Moduli (GPa) = 108.30526 70.32726 86.33047
#
# Poissons Ratio (x) = 0.06217 0.37668
# Poissons Ratio (y) = 0.09575 0.23610
# Poissons Ratio (z) = 0.47256 0.19233
#
# Static dielectric constant tensor:
#      x y z
#    x 4.339090 0.350180 -0.096090 
#    y 0.350180 4.462190 -0.168590 
#    z -0.096090 -0.168590 4.409250 
# 
# 
# High freq. dielectric constant tensor:
#      x y z
#    x 1.919520 0.018940 -0.011410 
#    y 0.018940 1.928030 -0.015750 
#    z -0.011410 -0.015750 1.941420 
# 
# From -- ./inp_files/245561.got.cif
#   From: 2010.06.25/outbox.cif.g09.slc.cpg/sg2_123_cif.got.tgz:245561.got - 2010.06.27 13:26:56.
