data_PCOD8033038
_publ_section_title
;
Structure prediction by ZEFSAII (Michael W. Deem and Ramdas Pophale) SiO2 
 PCOD8033038
Probable space group: P -1
;
_chemical_formula_sum "Si O2"
_cell_formula_units_Z 12
_cell_length_a 9.468952
_cell_length_b 6.943300
_cell_length_c 20.142802
_cell_angle_alpha 128.670507
_cell_angle_beta 35.603273
_cell_angle_gamma 108.352451
_cell_volume 544.867787
_symmetry_space_group_name_H-M "P -1"
_symmetry_group_IT_number 2
_symmetry_cell_setting 'triclinic'
loop_
_space_group_symop_operation_xyz
x,y,z
-x,-y,-z
loop_
_atom_site_type_symbol
_atom_site_label
_atom_site_fract_x
_atom_site_fract_y
_atom_site_fract_z
Si Si1 0.089221 0.878154 0.343878
Si Si2 0.558466 0.207884 0.684668
Si Si3 0.296504 0.756003 0.831977
Si Si4 0.411581 0.992457 0.142465
Si Si5 0.348375 0.746811 0.660839
Si Si6 0.153717 0.313123 0.184860
O O1 0.348338 0.799164 0.276174
O O2 0.174994 0.924952 0.247364
O O3 0.991103 0.637196 0.324964
O O4 0.828262 0.139952 0.523802
O O5 0.332511 0.503681 0.812540
O O6 0.430025 0.995372 0.675068
O O7 0.388129 0.638534 0.697907
O O8 0.497472 0.881703 0.803900
O O9 0.000000 0.000000 0.000000
O O10 0.316705 0.214516 0.168795
O O11 0.654289 0.730367 0.961777
O O12 0.500000 0.500000 0.500000
O O13 0.032724 0.846366 0.787703
#
# Coordination Sequence:
#
# PCOD8033038 Si02
#       6
#     2   2   2   2   2   2
#     4  11  23  44  72 104 138 185 232 288 350 420
#     4  11  26  43  73 104 139 185 238 282 355 423
#     4  12  26  48  70 103 145 190 233 287 357 418
#     4  11  24  44  71 101 139 190 230 285 350 421
#     4  12  26  46  71 104 144 181 234 298 349 413
#     4  11  24  45  69 104 142 180 236 289 343 418
#
# _framework density 22.023692
#
# number of rings (size 3 to 8) (size 9 to 14) (size 15 to 20)
#    0.000    0.667    6.667    0.500    2.333    3.333 
#    6.000    0.000    0.000    0.000    0.000    0.000 
#    0.000    0.000    0.000    0.000    0.000    0.000 
#
# Total GULP energy -148769.763315 kJ/mol
# GULP energy per Si atom -12397.480276 kJ/mol
# Density = 2.197356 g / cm^3
# Si number density = 22.023692 Si / 1000 Ang^3
#
#
#
# Elastic Constant Matrix: (Units=GPa)
#
#
# Indices 1 2 3 4 5 6 
#
# 1 101.3750 29.7945 25.9983 -4.4974 9.1359 7.4612
# 2 29.7945 111.9313 44.5731 2.6892 -1.6859 9.8928
# 3 25.9983 44.5731 95.8470 -11.2497 7.9359 -13.9563
# 4 -4.4974 2.6892 -11.2497 40.7633 -3.5455 0.8093
# 5 9.1359 -1.6859 7.9359 -3.5455 37.4168 -7.1354
# 6 7.4612 9.8928 -13.9563 0.8093 -7.1354 31.8420
#
#
#
# Elastic Compliance Matrix: (Units=1/GPa)
#
#
# Indices 1 2 3 4 5 6 
#
# 1 0.011650 -0.001762 -0.002614 0.000491 -0.003092 -0.004034
# 2 -0.001762 0.012711 -0.006733 -0.002681 0.000995 -0.006196
# 3 -0.002614 -0.006733 0.016245 0.004373 -0.000881 0.009516
# 4 0.000491 -0.002681 0.004373 0.026075 0.001753 0.002365
# 5 -0.003092 0.000995 -0.000881 0.001753 0.029120 0.006510
# 6 -0.004034 -0.006196 0.009516 0.002365 0.006510 0.039845
#
#
# Mechanical properties :
#
#
# Convention : Reuss Voigt Hill
#
# Bulk Modulus (GPa) = 54.38124 56.65390 55.51757
# Shear Modulus (GPa) = 30.48883 35.92358 33.20621
#
# Velocity S-wave (km/s) = 3.72474 4.04311 3.88719
# Velocity P-wave (km/s) = 6.57602 6.89751 6.73868
#
# Compressibility (1/GPa) = 0.01838869
#
# Stress axis : x y z
#
# Youngs Moduli (GPa) = 85.83702 78.67114 61.55595
#
# Poissons Ratio (x) = 0.13860 0.16093
# Poissons Ratio (y) = 0.15123 0.41444
# Poissons Ratio (z) = 0.22441 0.52967
#
# Static dielectric constant tensor:
#      x y z
#    x 4.097940 0.057960 0.120880 
#    y 0.057960 3.805330 -0.049400 
#    z 0.120880 -0.049400 3.972330 
# 
# 
# High freq. dielectric constant tensor:
#      x y z
#    x 1.874790 0.006720 0.012200 
#    y 0.006720 1.859940 -0.007870 
#    z 0.012200 -0.007870 1.867300 
# 
# From -- ./inp_files/22485.got.cif
#   From: 2010.06.25/outbox.cif.g09.slc.cpg/sg2_12_cif.got.tgz:22485.got - 2010.06.27 13:26:56.
