data_PCOD8033028
_publ_section_title
;
Structure prediction by ZEFSAII (Michael W. Deem and Ramdas Pophale) SiO2 
 PCOD8033028
Probable space group: P -1
;
_chemical_formula_sum "Si O2"
_cell_formula_units_Z 16
_cell_length_a 9.270605
_cell_length_b 9.851925
_cell_length_c 14.855457
_cell_angle_alpha 111.751908
_cell_angle_beta 66.188432
_cell_angle_gamma 146.289135
_cell_volume 687.312005
_symmetry_space_group_name_H-M "P -1"
_symmetry_group_IT_number 2
_symmetry_cell_setting 'triclinic'
loop_
_space_group_symop_operation_xyz
x,y,z
-x,-y,-z
loop_
_atom_site_type_symbol
_atom_site_label
_atom_site_fract_x
_atom_site_fract_y
_atom_site_fract_z
Si Si1 0.615916 0.639026 0.362198
Si Si2 0.571959 0.387872 0.939286
Si Si3 0.504443 0.838116 0.930958
Si Si4 0.058203 0.569223 0.860554
Si Si5 0.761819 0.239335 0.320346
Si Si6 0.604385 0.308818 0.712767
Si Si7 0.393486 0.213074 0.424640
Si Si8 0.127257 0.867165 0.249744
O O1 0.448164 0.604892 0.325067
O O2 0.432281 0.383223 0.394017
O O3 0.732308 0.831714 0.459266
O O4 0.840911 0.723886 0.270544
O O5 0.505334 0.289433 0.830824
O O6 0.877896 0.575187 0.932136
O O7 0.500000 0.500000 0.000000
O O8 0.404980 0.182914 0.009051
O O9 0.199905 0.593019 0.914064
O O10 0.692088 0.931247 0.824655
O O11 0.500000 0.000000 0.000000
O O12 0.276640 0.783059 0.784519
O O13 0.867967 0.305427 0.798321
O O14 0.660695 0.319207 0.405436
O O15 0.076013 0.467233 0.318182
O O16 0.575867 0.967343 0.335675
O O17 0.207464 0.963965 0.355582
#
# Coordination Sequence:
#
# PCOD8033028 Si02
#       8
#     2   2   2   2   2   2   2   2
#     4  11  27  45  72 110 140 189 241 313 366 434
#     4  11  26  42  67 104 144 185 241 304 364 432
#     4  12  24  41  72 103 132 193 250 289 356 435
#     4  11  23  44  71  99 139 192 245 296 356 434
#     4  11  23  47  77 102 146 198 237 296 367 450
#     4  11  28  49  70 106 156 194 236 300 381 436
#     4  11  24  46  77 105 139 186 255 299 366 432
#     4  12  23  43  76 101 143 184 250 308 356 424
#
# _framework density 23.279091000000001
#
# number of rings (size 3 to 8) (size 9 to 14) (size 15 to 20)
#    0.000    0.750    3.750    3.000    5.250    2.000 
#    0.000    3.750    0.000    0.000    0.000    0.000 
#    0.000    0.000    0.000    0.000    0.000    0.000 
#
# Total GULP energy -198272.896463 kJ/mol
# GULP energy per Si atom -12392.056029 kJ/mol
# Density = 2.322611 g / cm^3
# Si number density = 23.279091 Si / 1000 Ang^3
#
#
#
# Elastic Constant Matrix: (Units=GPa)
#
#
# Indices 1 2 3 4 5 6 
#
# 1 139.6341 50.8870 53.3203 -7.5321 5.4648 -30.2109
# 2 50.8870 98.7471 22.5252 4.5439 1.6091 -5.5049
# 3 53.3203 22.5252 100.7648 -2.6459 -1.5200 -8.4570
# 4 -7.5321 4.5439 -2.6459 35.6909 1.5181 -2.1568
# 5 5.4648 1.6091 -1.5200 1.5181 40.9278 2.3942
# 6 -30.2109 -5.5049 -8.4570 -2.1568 2.3942 32.6907
#
#
#
# Elastic Compliance Matrix: (Units=1/GPa)
#
#
# Indices 1 2 3 4 5 6 
#
# 1 0.013789 -0.005476 -0.005087 0.004003 -0.002604 0.010959
# 2 -0.005476 0.012981 -0.000345 -0.003049 0.000508 -0.003203
# 3 -0.005087 -0.000345 0.012570 -0.000249 0.001263 -0.001616
# 4 0.004003 -0.003049 -0.000249 0.029625 -0.001828 0.005210
# 5 -0.002604 0.000508 0.001263 -0.001828 0.025107 -0.003954
# 6 0.010959 -0.003203 -0.001616 0.005210 -0.003954 0.040394
#
#
# Mechanical properties :
#
#
# Convention : Reuss Voigt Hill
#
# Bulk Modulus (GPa) = 57.06602 65.84566 61.45584
# Shear Modulus (GPa) = 30.84080 36.02278 33.43179
#
# Velocity S-wave (km/s) = 3.64377 3.93801 3.79374
# Velocity P-wave (km/s) = 6.50152 7.00171 6.75625
#
# Compressibility (1/GPa) = 0.01752356
#
# Stress axis : x y z
#
# Youngs Moduli (GPa) = 72.52357 77.03486 79.55613
#
# Poissons Ratio (x) = 0.42186 0.40467
# Poissons Ratio (y) = 0.39715 0.02747
# Poissons Ratio (z) = 0.36889 0.02660
#
# Static dielectric constant tensor:
#      x y z
#    x 3.933700 -0.438620 -0.349290 
#    y -0.438620 3.422450 -0.312500 
#    z -0.349290 -0.312500 4.266240 
# 
# 
# High freq. dielectric constant tensor:
#      x y z
#    x 1.927910 -0.001750 -0.006350 
#    y -0.001750 1.905220 -0.003550 
#    z -0.006350 -0.003550 1.930100 
# 
# From -- ./inp_files/485138.got.cif
#   From: 2010.06.25/outbox.cif.g09.slc.cpg/sg2_243_cif.got.tgz:485138.got - 2010.06.27 13:26:56.
