data_PCOD8033263
_publ_section_title
;
Structure prediction by ZEFSAII (Michael W. Deem and Ramdas Pophale) SiO2 
 PCOD8033263
Probable space group: P -1
;
_chemical_formula_sum "Si O2"
_cell_formula_units_Z 16
_cell_length_a 9.305265
_cell_length_b 12.929668
_cell_length_c 14.716329
_cell_angle_alpha 112.533840
_cell_angle_beta 73.625442
_cell_angle_gamma 47.060464
_cell_volume 713.509113
_symmetry_space_group_name_H-M "P -1"
_symmetry_group_IT_number 2
_symmetry_cell_setting 'triclinic'
loop_
_space_group_symop_operation_xyz
x,y,z
-x,-y,-z
loop_
_atom_site_type_symbol
_atom_site_label
_atom_site_fract_x
_atom_site_fract_y
_atom_site_fract_z
Si Si1 0.740210 0.937570 0.963033
Si Si2 0.634117 0.218586 0.169602
Si Si3 0.758167 0.465691 0.113936
Si Si4 0.171840 0.693702 0.309678
Si Si5 0.016239 0.180561 0.308412
Si Si6 0.430838 0.722950 0.589359
Si Si7 0.838878 0.858074 0.246514
Si Si8 0.571675 0.087040 0.678361
O O1 0.065467 0.677376 0.869842
O O2 0.822246 0.953234 0.862703
O O3 0.500000 0.000000 0.000000
O O4 0.541057 0.153852 0.137279
O O5 0.368356 0.477228 0.263091
O O6 0.639220 0.230595 0.277832
O O7 0.000000 0.000000 0.000000
O O8 0.393905 0.655220 0.240514
O O9 0.711238 0.630219 0.169051
O O10 0.975283 0.273022 0.927214
O O11 0.103197 0.680736 0.220828
O O12 0.838817 0.946497 0.508201
O O13 0.805014 0.433918 0.411361
O O14 0.807207 0.212616 0.391597
O O15 0.283094 0.029589 0.286529
O O16 0.364132 0.890705 0.618888
O O17 0.588876 0.922650 0.326859
#
# Coordination Sequence:
#
# PCOD8033263 Si02
#       8
#     2   2   2   2   2   2   2   2
#     4  12  27  43  72 105 139 181 227 293 351 405
#     4  12  22  46  71 102 135 177 244 283 336 418
#     4  12  26  47  71 101 141 185 234 279 345 421
#     4  12  26  46  73 100 137 188 231 284 343 418
#     4  11  25  43  71 100 137 180 227 285 348 410
#     4  11  23  45  71  99 134 180 234 280 339 414
#     4  12  27  46  71 103 139 186 231 287 349 406
#     4  12  28  46  67 106 146 178 229 292 351 408
#
# _framework density 22.424378999999998
#
# number of rings (size 3 to 8) (size 9 to 14) (size 15 to 20)
#    0.000    0.250    5.000    3.000    7.000    1.500 
#    0.000    0.000    0.000    0.000    0.000    0.000 
#    0.000    0.000    0.000    0.000    0.000    0.000 
#
# Total GULP energy -198449.224491 kJ/mol
# GULP energy per Si atom -12403.076531 kJ/mol
# Density = 2.237334 g / cm^3
# Si number density = 22.424379 Si / 1000 Ang^3
#
#
#
# Elastic Constant Matrix: (Units=GPa)
#
#
# Indices 1 2 3 4 5 6 
#
# 1 152.0290 60.5997 13.0015 18.3048 4.6327 0.7177
# 2 60.5997 140.5650 -4.7285 18.3328 5.7175 -7.9555
# 3 13.0015 -4.7285 67.6370 -4.1202 4.5910 3.2600
# 4 18.3048 18.3328 -4.1202 41.8920 9.0313 14.8484
# 5 4.6327 5.7175 4.5910 9.0313 30.9066 3.3575
# 6 0.7177 -7.9555 3.2600 14.8484 3.3575 47.9360
#
#
#
# Elastic Compliance Matrix: (Units=1/GPa)
#
#
# Indices 1 2 3 4 5 6 
#
# 1 0.008384 -0.003352 -0.002039 -0.002560 0.000390 0.000222
# 2 -0.003352 0.009184 0.001015 -0.003210 -0.000686 0.002548
# 3 -0.002039 0.001015 0.015726 0.003225 -0.002980 -0.001661
# 4 -0.002560 -0.003210 0.003225 0.031949 -0.007744 -0.010068
# 5 0.000390 -0.000686 -0.002980 -0.007744 0.035127 0.000021
# 6 0.000222 0.002548 -0.001661 -0.010068 0.000021 0.024511
#
#
# Mechanical properties :
#
#
# Convention : Reuss Voigt Hill
#
# Bulk Modulus (GPa) = 40.74808 55.33071 48.03939
# Shear Modulus (GPa) = 35.25728 43.57080 39.41404
#
# Velocity S-wave (km/s) = 3.96949 4.41274 4.19697
# Velocity P-wave (km/s) = 6.26258 7.11976 6.70488
#
# Compressibility (1/GPa) = 0.02454104
#
# Stress axis : x y z
#
# Youngs Moduli (GPa) = 119.28081 108.88218 63.58709
#
# Poissons Ratio (x) = 0.36501 0.12966
# Poissons Ratio (y) = 0.39987 -0.06452
# Poissons Ratio (z) = 0.24322 -0.11049
#
# Static dielectric constant tensor:
#      x y z
#    x 3.755170 -0.965970 -1.128670 
#    y -0.965970 2.500320 -2.523140 
#    z -1.128670 -2.523140 0.605040 
# 
# 
# High freq. dielectric constant tensor:
#      x y z
#    x 1.895540 -0.007430 0.013290 
#    y -0.007430 1.893820 -0.001340 
#    z 0.013290 -0.001340 1.882210 
# 
# From -- ./inp_files/209545.got.cif
#   From: 2010.06.25/outbox.cif.g09.slc.cpg/sg2_105_cif.got.tgz:209545.got - 2010.06.27 13:26:56.
