data_PCOD8033609
_publ_section_title
;
Structure prediction by ZEFSAII (Michael W. Deem and Ramdas Pophale) SiO2 
 PCOD8033609
Probable space group: P -1
;
_chemical_formula_sum "Si O2"
_cell_formula_units_Z 16
_cell_length_a 19.851110
_cell_length_b 8.770912
_cell_length_c 11.382008
_cell_angle_alpha 129.521939
_cell_angle_beta 44.691818
_cell_angle_gamma 148.509408
_cell_volume 725.577822
_symmetry_space_group_name_H-M "P -1"
_symmetry_group_IT_number 2
_symmetry_cell_setting 'triclinic'
loop_
_space_group_symop_operation_xyz
x,y,z
-x,-y,-z
loop_
_atom_site_type_symbol
_atom_site_label
_atom_site_fract_x
_atom_site_fract_y
_atom_site_fract_z
Si Si1 0.146761 0.972295 0.520711
Si Si2 0.686309 0.162305 0.781697
Si Si3 0.610778 0.268593 0.151818
Si Si4 0.869580 0.946836 0.155019
Si Si5 0.137086 0.276312 0.308449
Si Si6 0.878561 0.159064 0.008848
Si Si7 0.623391 0.035350 0.250545
Si Si8 0.312865 0.532180 0.449562
O O1 0.116662 0.930617 0.676090
O O2 0.266846 0.312152 0.501378
O O3 0.196180 0.828631 0.355861
O O4 0.001440 0.796825 0.546061
O O5 0.747823 0.453660 0.788869
O O6 0.547315 0.883730 0.744384
O O7 0.640568 0.137922 0.959205
O O8 0.720141 0.610629 0.164788
O O9 0.625230 0.202201 0.229787
O O10 0.875521 0.122653 0.134521
O O11 0.000000 0.000000 0.000000
O O12 0.199129 0.348447 0.396582
O O13 0.089847 0.993395 0.175748
O O14 0.728314 0.015770 0.081277
O O15 0.000000 0.500000 0.000000
O O16 0.676238 0.227503 0.397284
O O17 0.467972 0.703562 0.295442
#
# Coordination Sequence:
#
# PCOD8033609 Si02
#       8
#     2   2   2   2   2   2   2   2
#     4  12  26  44  72 100 144 188 238 287 357 413
#     4  11  26  44  73 108 138 187 235 294 357 412
#     4  11  23  48  72 101 147 184 240 291 342 426
#     4  12  24  47  73 100 141 185 238 290 348 423
#     4  12  25  49  66 105 147 181 236 297 346 426
#     4  12  27  45  76 106 136 189 235 289 359 424
#     4  11  25  46  74 100 146 189 235 287 356 418
#     4  11  26  46  68 106 145 186 235 294 348 420
#
# _framework density 22.051389
#
# number of rings (size 3 to 8) (size 9 to 14) (size 15 to 20)
#    0.000    0.500    5.000    2.250    5.250    1.000 
#    0.000    0.000    0.000    0.000    0.000    0.000 
#    0.000    0.000    0.000    0.000    0.000    0.000 
#
# Total GULP energy -198526.744718 kJ/mol
# GULP energy per Si atom -12407.921545 kJ/mol
# Density = 2.200120 g / cm^3
# Si number density = 22.051389 Si / 1000 Ang^3
#
#
#
# Elastic Constant Matrix: (Units=GPa)
#
#
# Indices 1 2 3 4 5 6 
#
# 1 111.5916 43.8208 46.0656 -8.3266 8.4089 10.0978
# 2 43.8208 129.1776 25.3267 -19.3366 3.4634 1.2741
# 3 46.0656 25.3267 97.6424 -6.0505 -7.4694 7.4608
# 4 -8.3266 -19.3366 -6.0505 37.8406 0.8449 4.9029
# 5 8.4089 3.4634 -7.4694 0.8449 42.4266 -9.6199
# 6 10.0978 1.2741 7.4608 4.9029 -9.6199 34.9679
#
#
#
# Elastic Compliance Matrix: (Units=1/GPa)
#
#
# Indices 1 2 3 4 5 6 
#
# 1 0.013126 -0.003098 -0.005352 0.001039 -0.004180 -0.003832
# 2 -0.003098 0.009570 -0.000800 0.004084 -0.000380 0.000039
# 3 -0.005352 -0.000800 0.013294 0.000517 0.003363 -0.000409
# 4 0.001039 0.004084 0.000517 0.029565 -0.002244 -0.005322
# 5 -0.004180 -0.000380 0.003363 -0.002244 0.026932 0.008227
# 6 -0.003832 0.000039 -0.000409 -0.005322 0.008227 0.032800
#
#
# Mechanical properties :
#
#
# Convention : Reuss Voigt Hill
#
# Bulk Modulus (GPa) = 57.17000 63.20421 60.18711
# Shear Modulus (GPa) = 33.41864 37.92692 35.67278
#
# Velocity S-wave (km/s) = 3.89715 4.15171 4.02644
# Velocity P-wave (km/s) = 6.79945 7.19074 6.99783
#
# Compressibility (1/GPa) = 0.01749169
#
# Stress axis : x y z
#
# Youngs Moduli (GPa) = 76.18257 104.49064 75.21992
#
# Poissons Ratio (x) = 0.32373 0.40256
# Poissons Ratio (y) = 0.23602 0.06016
# Poissons Ratio (z) = 0.40771 0.08357
#
# Static dielectric constant tensor:
#      x y z
#    x 4.148490 0.030730 0.121870 
#    y 0.030730 4.042200 -0.287360 
#    z 0.121870 -0.287360 4.080960 
# 
# 
# High freq. dielectric constant tensor:
#      x y z
#    x 1.874900 0.004810 0.006320 
#    y 0.004810 1.878670 -0.017480 
#    z 0.006320 -0.017480 1.869110 
# 
# From -- ./inp_files/208381.got.cif
#   From: 2010.06.25/outbox.cif.g09.slc.cpg/sg2_105_cif.got.tgz:208381.got - 2010.06.27 13:26:56.
