data_PCOD8033564
_publ_section_title
;
Structure prediction by ZEFSAII (Michael W. Deem and Ramdas Pophale) SiO2 
 PCOD8033564
Probable space group: P -1
;
_chemical_formula_sum "Si O2"
_cell_formula_units_Z 16
_cell_length_a 10.049301
_cell_length_b 6.861238
_cell_length_c 21.280802
_cell_angle_alpha 128.149890
_cell_angle_beta 139.721361
_cell_angle_gamma 49.450999
_cell_volume 698.329038
_symmetry_space_group_name_H-M "P -1"
_symmetry_group_IT_number 2
_symmetry_cell_setting 'triclinic'
loop_
_space_group_symop_operation_xyz
x,y,z
-x,-y,-z
loop_
_atom_site_type_symbol
_atom_site_label
_atom_site_fract_x
_atom_site_fract_y
_atom_site_fract_z
Si Si1 0.031733 0.164083 0.187601
Si Si2 0.292394 0.446765 0.938460
Si Si3 0.875052 0.987348 0.223043
Si Si4 0.993413 0.717429 0.422023
Si Si5 0.590120 0.690163 0.453965
Si Si6 0.181473 0.625823 0.073433
Si Si7 0.621646 0.527045 0.290636
Si Si8 0.213577 0.565875 0.341000
O O1 0.245383 0.250948 0.289990
O O2 0.879655 0.433633 0.154550
O O3 0.930387 0.119780 0.207384
O O4 0.065389 0.935562 0.104488
O O5 0.311191 0.139253 0.887841
O O6 0.500000 0.500000 0.000000
O O7 0.233356 0.584778 0.011389
O O8 0.778317 0.217389 0.285871
O O9 0.097915 0.756114 0.278293
O O10 0.153483 0.465744 0.469588
O O11 0.062508 0.697571 0.371250
O O12 0.749095 0.704087 0.339225
O O13 0.000000 0.000000 0.500000
O O14 0.549080 0.638980 0.356302
O O15 0.461731 0.559781 0.428824
O O16 0.500000 0.000000 0.500000
O O17 0.402771 0.532442 0.175969
O O18 0.000000 0.500000 0.000000
#
# Coordination Sequence:
#
# PCOD8033564 Si02
#       8
#     2   2   2   2   2   2   2   2
#     4  11  24  45  72 100 150 188 246 295 362 437
#     4  11  26  43  72 105 141 194 244 299 362 439
#     4  11  23  47  72 105 149 190 242 301 370 431
#     4  12  26  47  72 109 148 188 254 308 367 448
#     4  12  27  47  77 109 150 195 246 309 378 441
#     4  12  27  45  72 108 148 196 244 299 370 436
#     4  12  27  45  77 104 149 195 239 307 373 436
#     4  11  25  44  76 106 140 193 240 300 369 441
#
# _framework density 22.911836000000001
#
# number of rings (size 3 to 8) (size 9 to 14) (size 15 to 20)
#    0.000    0.500    2.500    4.875    8.750    2.000 
#    0.000    0.000    0.000    0.000    0.000    0.000 
#    0.000    0.000    0.000    0.000    0.000    0.000 
#
# Total GULP energy -198303.419560 kJ/mol
# GULP energy per Si atom -12393.963722 kJ/mol
# Density = 2.285969 g / cm^3
# Si number density = 22.911836 Si / 1000 Ang^3
#
#
#
# Elastic Constant Matrix: (Units=GPa)
#
#
# Indices 1 2 3 4 5 6 
#
# 1 169.1257 36.9045 63.2939 23.4744 3.0352 17.9446
# 2 36.9045 108.9706 45.8266 29.2155 1.3745 5.1750
# 3 63.2939 45.8266 113.0588 28.3005 9.7641 9.3812
# 4 23.4744 29.2155 28.3005 59.3913 2.9613 -2.8478
# 5 3.0352 1.3745 9.7641 2.9613 59.6156 5.3825
# 6 17.9446 5.1750 9.3812 -2.8478 5.3825 34.2446
#
#
#
# Elastic Compliance Matrix: (Units=1/GPa)
#
#
# Indices 1 2 3 4 5 6 
#
# 1 0.007927 -0.000675 -0.003629 -0.001256 0.000562 -0.003251
# 2 -0.000675 0.011976 -0.003433 -0.004065 0.000608 -0.000950
# 3 -0.003629 -0.003433 0.013313 -0.003198 -0.001646 -0.001234
# 4 -0.001256 -0.004065 -0.003198 0.021086 -0.000729 0.004017
# 5 0.000562 0.000608 -0.001646 -0.000729 0.017282 -0.002712
# 6 -0.003251 -0.000950 -0.001234 0.004017 -0.002712 0.032147
#
#
# Mechanical properties :
#
#
# Convention : Reuss Voigt Hill
#
# Bulk Modulus (GPa) = 56.35844 75.91165 66.13505
# Shear Modulus (GPa) = 39.96198 46.99232 43.47715
#
# Velocity S-wave (km/s) = 4.18085 4.53372 4.36085
# Velocity P-wave (km/s) = 6.92512 7.78525 7.36775
#
# Compressibility (1/GPa) = 0.01774357
#
# Stress axis : x y z
#
# Youngs Moduli (GPa) = 126.14802 83.49959 75.11420
#
# Poissons Ratio (x) = 0.05632 0.27258
# Poissons Ratio (y) = 0.08509 0.25787
# Poissons Ratio (z) = 0.45778 0.28665
#
# Static dielectric constant tensor:
#      x y z
#    x 4.242550 -0.087970 0.152690 
#    y -0.087970 4.227490 0.097090 
#    z 0.152690 0.097090 4.403930 
# 
# 
# High freq. dielectric constant tensor:
#      x y z
#    x 1.916880 0.008830 0.003720 
#    y 0.008830 1.906270 0.018640 
#    z 0.003720 0.018640 1.925430 
# 
# From -- ./inp_files/585881.got.cif
#   From: 2010.06.25/outbox.cif.g09.slc.cpg/sg2_293_cif.got.tgz:585881.got - 2010.06.27 13:26:56.
