data_PCOD8033333
_publ_section_title
;
Structure prediction by ZEFSAII (Michael W. Deem and Ramdas Pophale) SiO2 
 PCOD8033333
Probable space group: P -1
;
_chemical_formula_sum "Si O2"
_cell_formula_units_Z 16
_cell_length_a 17.110150
_cell_length_b 12.559487
_cell_length_c 8.530813
_cell_angle_alpha 96.105046
_cell_angle_beta 139.187786
_cell_angle_gamma 52.587886
_cell_volume 697.000154
_symmetry_space_group_name_H-M "P -1"
_symmetry_group_IT_number 2
_symmetry_cell_setting 'triclinic'
loop_
_space_group_symop_operation_xyz
x,y,z
-x,-y,-z
loop_
_atom_site_type_symbol
_atom_site_label
_atom_site_fract_x
_atom_site_fract_y
_atom_site_fract_z
Si Si1 0.833359 0.500597 0.392109
Si Si2 0.013685 0.233447 0.162781
Si Si3 0.823960 0.542021 0.733079
Si Si4 0.707607 0.365533 0.202919
Si Si5 0.294023 0.701072 0.146752
Si Si6 0.438301 0.960954 0.269462
Si Si7 0.774098 0.777087 0.271132
Si Si8 0.118797 0.055577 0.968850
O O1 0.856614 0.458120 0.605218
O O2 0.714237 0.480680 0.153042
O O3 0.715159 0.699655 0.225656
O O4 0.044407 0.359359 0.600493
O O5 0.181002 0.177050 0.508561
O O6 0.842670 0.443217 0.884983
O O7 0.905129 0.223040 0.099625
O O8 0.116682 0.108601 0.146223
O O9 0.604936 0.750287 0.460852
O O10 0.000000 0.500000 0.000000
O O11 0.895074 0.197613 0.576106
O O12 0.500000 0.500000 0.000000
O O13 0.697536 0.294611 0.027735
O O14 0.500000 0.500000 0.500000
O O15 0.250410 0.852423 0.164013
O O16 0.500000 0.000000 0.500000
O O17 0.418463 0.036460 0.085407
O O18 0.228948 0.055506 0.015404
#
# Coordination Sequence:
#
# PCOD8033333 Si02
#       8
#     2   2   2   2   2   2   2   2
#     4  11  23  45  75 102 146 184 239 290 364 429
#     4  12  23  46  73 103 143 189 239 300 360 430
#     4  12  24  45  73 103 145 194 231 292 372 438
#     4  12  26  48  76 104 142 199 247 295 367 435
#     4  12  27  47  70 107 140 190 245 304 358 426
#     4  12  27  45  72 108 147 191 240 297 367 437
#     4  11  24  45  75 110 143 188 238 302 359 427
#     4  12  26  50  72 104 146 192 241 302 363 435
#
# _framework density 22.955515999999999
#
# number of rings (size 3 to 8) (size 9 to 14) (size 15 to 20)
#    0.000    0.250    5.000    3.750    3.500    1.500 
#    2.250    0.000    0.000    0.000    0.000    0.000 
#    0.000    0.000    0.000    0.000    0.000    0.000 
#
# Total GULP energy -198421.300479 kJ/mol
# GULP energy per Si atom -12401.331280 kJ/mol
# Density = 2.290327 g / cm^3
# Si number density = 22.955516 Si / 1000 Ang^3
#
#
#
# Elastic Constant Matrix: (Units=GPa)
#
#
# Indices 1 2 3 4 5 6 
#
# 1 85.9211 22.7565 21.8489 -7.0436 -7.7250 2.7945
# 2 22.7565 132.7446 53.1485 0.4345 -20.3133 -2.6104
# 3 21.8489 53.1485 116.2152 -6.5784 -22.3117 -5.5524
# 4 -7.0436 0.4345 -6.5784 27.1689 -7.0067 -7.9665
# 5 -7.7250 -20.3133 -22.3117 -7.0067 47.1948 2.2702
# 6 2.7945 -2.6104 -5.5524 -7.9665 2.2702 52.6523
#
#
#
# Elastic Compliance Matrix: (Units=1/GPa)
#
#
# Indices 1 2 3 4 5 6 
#
# 1 0.012762 -0.001480 -0.001305 0.003227 0.001336 -0.000458
# 2 -0.001480 0.009609 -0.003800 -0.000976 0.001956 -0.000078
# 3 -0.001305 -0.003800 0.011704 0.004100 0.004218 0.001554
# 4 0.003227 -0.000976 0.004100 0.042581 0.008065 0.006308
# 5 0.001336 0.001956 0.004218 0.008065 0.025412 0.000595
# 6 -0.000458 -0.000078 0.001554 0.006308 0.000595 0.020105
#
#
# Mechanical properties :
#
#
# Convention : Reuss Voigt Hill
#
# Bulk Modulus (GPa) = 47.83558 58.93209 53.38383
# Shear Modulus (GPa) = 35.13394 41.21166 38.17280
#
# Velocity S-wave (km/s) = 3.91643 4.24168 4.08229
# Velocity P-wave (km/s) = 6.42922 7.05104 6.74730
#
# Compressibility (1/GPa) = 0.02090494
#
# Stress axis : x y z
#
# Youngs Moduli (GPa) = 78.35741 104.06465 85.44188
#
# Poissons Ratio (x) = 0.15406 0.11150
# Poissons Ratio (y) = 0.11600 0.32465
# Poissons Ratio (z) = 0.10226 0.39542
#
# Static dielectric constant tensor:
#      x y z
#    x 4.327720 0.042810 -0.106680 
#    y 0.042810 4.501270 0.030140 
#    z -0.106680 0.030140 3.947990 
# 
# 
# High freq. dielectric constant tensor:
#      x y z
#    x 1.921600 -0.001010 -0.006780 
#    y -0.001010 1.927450 0.000920 
#    z -0.006780 0.000920 1.894460 
# 
# From -- ./inp_files/333447.got.cif
#   From: 2010.06.25/outbox.cif.g09.slc.cpg/sg2_167_cif.got.tgz:333447.got - 2010.06.27 13:26:56.
