data_PCOD8033948
_publ_section_title
;
Structure prediction by ZEFSAII (Michael W. Deem and Ramdas Pophale) SiO2 
 PCOD8033948
Probable space group: P -1
;
_chemical_formula_sum "Si O2"
_cell_formula_units_Z 16
_cell_length_a 21.482459
_cell_length_b 9.620469
_cell_length_c 14.577913
_cell_angle_alpha 115.294479
_cell_angle_beta 159.266450
_cell_angle_gamma 53.499213
_cell_volume 764.185243
_symmetry_space_group_name_H-M "P -1"
_symmetry_group_IT_number 2
_symmetry_cell_setting 'triclinic'
loop_
_space_group_symop_operation_xyz
x,y,z
-x,-y,-z
loop_
_atom_site_type_symbol
_atom_site_label
_atom_site_fract_x
_atom_site_fract_y
_atom_site_fract_z
Si Si1 0.872314 0.680986 0.088783
Si Si2 0.864110 0.148225 0.773615
Si Si3 0.567264 0.325152 0.838345
Si Si4 0.504863 0.703064 0.913875
Si Si5 0.514261 0.870173 0.799710
Si Si6 0.993252 0.059571 0.722672
Si Si7 0.784616 0.542810 0.761645
Si Si8 0.325080 0.300930 0.661256
O O1 0.968364 0.788099 0.214106
O O2 0.075538 0.461164 0.330360
O O3 0.727464 0.790572 0.009531
O O4 0.724570 0.676488 0.805947
O O5 0.623946 0.197169 0.451515
O O6 0.829789 0.345956 0.801142
O O7 0.998591 0.051615 0.837728
O O8 0.000000 0.000000 0.000000
O O9 0.533335 0.524296 0.853755
O O10 0.419082 0.335895 0.555108
O O11 0.501868 0.280951 0.830757
O O12 0.823778 0.153469 0.124366
O O13 0.592814 0.784795 0.986806
O O14 0.244440 0.869628 0.623169
O O15 0.644019 0.637568 0.179810
O O16 0.358261 0.101650 0.655584
O O17 0.000000 0.500000 0.000000
#
# Coordination Sequence:
#
# PCOD8033948 Si02
#       8
#     2   2   2   2   2   2   2   2
#     4  12  25  42  71 101 135 177 227 270 335 405
#     4  11  24  43  66  97 139 177 219 271 332 398
#     4  12  24  42  72 102 130 179 228 273 334 395
#     4  11  25  48  67  99 141 168 229 289 325 393
#     4  11  26  45  63 104 137 171 226 275 337 399
#     4  11  24  44  67 100 134 176 225 276 332 392
#     4  12  22  44  70  96 141 173 217 280 328 397
#     4  12  24  44  74  97 133 184 221 277 340 393
#
# _framework density 20.937329999999999
#
# number of rings (size 3 to 8) (size 9 to 14) (size 15 to 20)
#    0.000    0.500    7.500    1.500    1.750    6.000 
#    0.000    0.000    0.000    0.000    0.000    0.000 
#    0.000    0.000    0.000    0.000    0.000    0.000 
#
# Total GULP energy -198504.896449 kJ/mol
# GULP energy per Si atom -12406.556028 kJ/mol
# Density = 2.088968 g / cm^3
# Si number density = 20.937330 Si / 1000 Ang^3
#
#
#
# Elastic Constant Matrix: (Units=GPa)
#
#
# Indices 1 2 3 4 5 6 
#
# 1 126.3912 26.2284 34.1164 0.2806 -13.0221 9.5403
# 2 26.2284 82.8352 26.3834 -4.7811 6.2143 12.1843
# 3 34.1164 26.3834 59.6498 -5.4871 -5.5419 -10.8097
# 4 0.2806 -4.7811 -5.4871 27.9833 2.9640 3.7450
# 5 -13.0221 6.2143 -5.5419 2.9640 21.9460 -5.1209
# 6 9.5403 12.1843 -10.8097 3.7450 -5.1209 39.0012
#
#
#
# Elastic Compliance Matrix: (Units=1/GPa)
#
#
# Indices 1 2 3 4 5 6 
#
# 1 0.010429 -0.001614 -0.005450 -0.001591 0.004837 -0.002769
# 2 -0.001614 0.018131 -0.009571 0.003740 -0.011292 -0.009764
# 3 -0.005450 -0.009571 0.027442 0.001068 0.009307 0.013048
# 4 -0.001591 0.003740 0.001068 0.038156 -0.008102 -0.005211
# 5 0.004837 -0.011292 0.009307 -0.008102 0.058192 0.013342
# 6 -0.002769 -0.009764 0.013048 -0.005211 0.013342 0.035237
#
#
# Mechanical properties :
#
#
# Convention : Reuss Voigt Hill
#
# Bulk Modulus (GPa) = 43.98836 49.14805 46.56821
# Shear Modulus (GPa) = 21.88836 29.92932 25.90884
#
# Velocity S-wave (km/s) = 3.23681 3.78494 3.52155
# Velocity P-wave (km/s) = 5.91814 6.52885 6.23098
#
# Compressibility (1/GPa) = 0.02273328
#
# Stress axis : x y z
#
# Youngs Moduli (GPa) = 95.88811 55.15552 36.44020
#
# Poissons Ratio (x) = 0.08900 0.19859
# Poissons Ratio (y) = 0.15473 0.34876
# Poissons Ratio (z) = 0.52256 0.52788
#
# Static dielectric constant tensor:
#      x y z
#    x 4.092410 0.137590 -0.158640 
#    y 0.137590 3.887600 -0.021480 
#    z -0.158640 -0.021480 3.846470 
# 
# 
# High freq. dielectric constant tensor:
#      x y z
#    x 1.834250 0.010730 -0.004710 
#    y 0.010730 1.830260 0.000420 
#    z -0.004710 0.000420 1.812890 
# 
# From -- ./inp_files/186433.got.cif
#   From: 2010.06.25/outbox.cif.g09.slc.cpg/sg2_94_cif.got.tgz:186433.got - 2010.06.27 13:26:56.
