data_PCOD8033545
_publ_section_title
;
Structure prediction by ZEFSAII (Michael W. Deem and Ramdas Pophale) SiO2 
 PCOD8033545
Probable space group: P -1
;
_chemical_formula_sum "Si O2"
_cell_formula_units_Z 16
_cell_length_a 11.659316
_cell_length_b 9.121353
_cell_length_c 9.303183
_cell_angle_alpha 75.235946
_cell_angle_beta 83.600702
_cell_angle_gamma 51.193780
_cell_volume 744.010072
_symmetry_space_group_name_H-M "P -1"
_symmetry_group_IT_number 2
_symmetry_cell_setting 'triclinic'
loop_
_space_group_symop_operation_xyz
x,y,z
-x,-y,-z
loop_
_atom_site_type_symbol
_atom_site_label
_atom_site_fract_x
_atom_site_fract_y
_atom_site_fract_z
Si Si1 0.722997 0.078884 0.111179
Si Si2 0.009257 0.608421 0.840468
Si Si3 0.711867 0.429648 0.112725
Si Si4 0.539805 0.614773 0.376125
Si Si5 0.761956 0.610331 0.544194
Si Si6 0.932428 0.687187 0.324459
Si Si7 0.586354 0.764625 0.823215
Si Si8 0.304923 0.010008 0.180026
O O1 0.744582 0.236157 0.100611
O O2 0.586610 0.119795 0.208612
O O3 0.871943 0.872590 0.189961
O O4 0.695780 0.077832 0.947480
O O5 0.136084 0.626022 0.841113
O O6 0.041593 0.487229 0.724930
O O7 0.859972 0.824924 0.783671
O O8 0.000000 0.500000 0.000000
O O9 0.593078 0.523281 0.233360
O O10 0.648794 0.573188 0.951515
O O11 0.500000 0.500000 0.500000
O O12 0.668455 0.602309 0.438502
O O13 0.393024 0.837253 0.327073
O O14 0.814756 0.733488 0.451240
O O15 0.664966 0.714746 0.672340
O O16 0.909399 0.390819 0.613766
O O17 0.611679 0.897804 0.876290
#
# Coordination Sequence:
#
# PCOD8033545 Si02
#       8
#     2   2   2   2   2   2   2   2
#     4  12  26  42  73 109 142 185 239 293 360 416
#     4  12  22  47  73 106 138 184 243 295 346 420
#     4  12  26  46  72 104 148 186 236 295 351 429
#     4  12  28  48  69 105 151 189 230 296 364 420
#     4  11  25  45  74 100 145 185 234 297 354 414
#     4  11  23  47  71 104 143 185 239 296 350 425
#     4  12  24  45  74 106 138 188 242 293 347 429
#     4  12  26  44  77 105 142 188 242 294 352 420
#
# _framework density 21.505085000000001
#
# number of rings (size 3 to 8) (size 9 to 14) (size 15 to 20)
#    0.000    0.250    6.250    2.250    1.750    4.500 
#    0.000    1.250    0.000    0.000    0.000    0.000 
#    0.000    0.000    0.000    0.000    0.000    0.000 
#
# Total GULP energy -198475.356064 kJ/mol
# GULP energy per Si atom -12404.709754 kJ/mol
# Density = 2.145614 g / cm^3
# Si number density = 21.505085 Si / 1000 Ang^3
#
#
#
# Elastic Constant Matrix: (Units=GPa)
#
#
# Indices 1 2 3 4 5 6 
#
# 1 66.7208 62.6750 28.9418 -14.3617 3.2644 -9.8237
# 2 62.6750 145.2795 54.3669 -11.2552 8.8060 -2.3312
# 3 28.9418 54.3669 106.1630 1.0016 5.9560 -4.6504
# 4 -14.3617 -11.2552 1.0016 38.3447 -12.0978 10.8642
# 5 3.2644 8.8060 5.9560 -12.0978 37.0900 -1.2069
# 6 -9.8237 -2.3312 -4.6504 10.8642 -1.2069 34.3815
#
#
#
# Elastic Compliance Matrix: (Units=1/GPa)
#
#
# Indices 1 2 3 4 5 6 
#
# 1 0.028293 -0.010978 -0.002101 0.006930 0.002875 0.004967
# 2 -0.010978 0.013081 -0.003743 0.000133 -0.001588 -0.002854
# 3 -0.002101 -0.003743 0.012123 -0.003298 -0.001892 0.001762
# 4 0.006930 0.000133 -0.003298 0.034827 0.010953 -0.009078
# 5 0.002875 -0.001588 -0.001892 0.010953 0.030899 -0.001918
# 6 0.004967 -0.002854 0.001762 -0.009078 -0.001918 0.033351
#
#
# Mechanical properties :
#
#
# Convention : Reuss Voigt Hill
#
# Bulk Modulus (GPa) = 50.36640 67.79231 59.07936
# Shear Modulus (GPa) = 25.92880 33.44187 29.68534
#
# Velocity S-wave (km/s) = 3.47609 3.94771 3.71939
# Velocity P-wave (km/s) = 6.29146 7.23682 6.78064
#
# Compressibility (1/GPa) = 0.01985450
#
# Stress axis : x y z
#
# Youngs Moduli (GPa) = 35.34417 76.44833 82.48450
#
# Poissons Ratio (x) = 0.83922 0.17326
# Poissons Ratio (y) = 0.38799 0.30876
# Poissons Ratio (z) = 0.07424 0.28617
#
# Static dielectric constant tensor:
#      x y z
#    x 4.189100 -0.190050 0.176840 
#    y -0.190050 3.970550 0.036550 
#    z 0.176840 0.036550 4.023410 
# 
# 
# High freq. dielectric constant tensor:
#      x y z
#    x 1.852180 -0.013940 0.008950 
#    y -0.013940 1.846230 0.000970 
#    z 0.008950 0.000970 1.855000 
# 
# From -- ./inp_files/190855.got.cif
#   From: 2010.06.25/outbox.cif.g09.slc.cpg/sg2_96_cif.got.tgz:190855.got - 2010.06.27 13:26:56.
