data_PCOD8033087
_publ_section_title
;
Structure prediction by ZEFSAII (Michael W. Deem and Ramdas Pophale) SiO2 
 PCOD8033087
Probable space group: P -1
;
_chemical_formula_sum "Si O2"
_cell_formula_units_Z 14
_cell_length_a 5.034747
_cell_length_b 9.441068
_cell_length_c 20.299868
_cell_angle_alpha 140.172510
_cell_angle_beta 58.153168
_cell_angle_gamma 112.162824
_cell_volume 524.282023
_symmetry_space_group_name_H-M "P -1"
_symmetry_group_IT_number 2
_symmetry_cell_setting 'triclinic'
loop_
_space_group_symop_operation_xyz
x,y,z
-x,-y,-z
loop_
_atom_site_type_symbol
_atom_site_label
_atom_site_fract_x
_atom_site_fract_y
_atom_site_fract_z
Si Si1 0.120306 0.482715 0.608903
Si Si2 0.675875 0.846845 0.368517
Si Si3 0.358072 0.570047 0.974303
Si Si4 0.384887 0.254654 0.309960
Si Si5 0.619448 0.534240 0.791628
Si Si6 0.634735 0.035345 0.077036
Si Si7 0.703359 0.977659 0.635462
O O1 0.946029 0.663335 0.648359
O O2 0.974341 0.489650 0.704580
O O3 0.478654 0.546563 0.593560
O O4 0.108066 0.242215 0.493979
O O5 0.597039 0.957261 0.346519
O O6 0.042911 0.833265 0.333447
O O7 0.500000 0.000000 0.500000
O O8 0.573969 0.593660 0.285671
O O9 0.535417 0.444347 0.843981
O O10 0.500000 0.500000 0.000000
O O11 0.000000 0.500000 0.000000
O O12 0.420962 0.827423 0.045140
O O13 0.631239 0.176679 0.194616
O O14 0.369164 0.047220 0.287085
O O15 0.528244 0.801266 0.899143
O O16 0.000000 0.000000 0.000000
#
# Coordination Sequence:
#
# PCOD8033087 Si02
#       7
#     2   2   2   2   2   2   2
#     4  11  23  44  73 108 147 200 250 301 376 470
#     4  12  27  46  74 109 151 205 251 306 372 464
#     4  12  29  50  79 114 152 192 259 330 387 438
#     4  11  25  42  75 108 147 194 251 314 384 445
#     4  11  27  49  81 107 157 206 257 305 387 463
#     4  11  26  52  81 111 154 206 267 310 388 467
#     4  12  25  44  71 107 159 188 254 312 382 437
#
# _framework density 26.703184
#
# number of rings (size 3 to 8) (size 9 to 14) (size 15 to 20)
#    0.000    0.571    1.429    5.143    6.000    5.714 
#    0.000    0.000    0.000    0.000    0.000    0.000 
#    0.000    0.000    0.000    0.000    0.000    0.000 
#
# Total GULP energy -173509.817672 kJ/mol
# GULP energy per Si atom -12393.558405 kJ/mol
# Density = 2.664241 g / cm^3
# Si number density = 26.703184 Si / 1000 Ang^3
#
#
#
# Elastic Constant Matrix: (Units=GPa)
#
#
# Indices 1 2 3 4 5 6 
#
# 1 106.0460 41.6163 2.7621 -10.8897 21.5043 -1.2030
# 2 41.6163 146.5416 16.8207 5.0371 10.6777 -13.2949
# 3 2.7621 16.8207 67.9719 7.1904 3.3581 -7.0837
# 4 -10.8897 5.0371 7.1904 45.8453 4.9452 20.0731
# 5 21.5043 10.6777 3.3581 4.9452 40.8578 1.2212
# 6 -1.2030 -13.2949 -7.0837 20.0731 1.2212 57.2557
#
#
#
# Elastic Compliance Matrix: (Units=1/GPa)
#
#
# Indices 1 2 3 4 5 6 
#
# 1 0.012545 -0.003466 -0.000100 0.005000 -0.006229 -0.002174
# 2 -0.003466 0.008293 -0.001356 -0.002671 0.000014 0.002621
# 3 -0.000100 -0.001356 0.015755 -0.003552 -0.000544 0.002889
# 4 0.005000 -0.002671 -0.003552 0.029234 -0.004848 -0.011100
# 5 -0.006229 0.000014 -0.000544 -0.004848 0.028354 0.000900
# 6 -0.002174 0.002621 0.002889 -0.011100 0.000900 0.022258
#
#
# Mechanical properties :
#
#
# Convention : Reuss Voigt Hill
#
# Bulk Modulus (GPa) = 37.38580 49.21751 43.30165
# Shear Modulus (GPa) = 36.98230 46.08244 41.53237
#
# Velocity S-wave (km/s) = 3.72552 4.15870 3.94805
# Velocity P-wave (km/s) = 5.70411 6.44446 6.08555
#
# Compressibility (1/GPa) = 0.02674812
#
# Stress axis : x y z
#
# Youngs Moduli (GPa) = 79.71555 120.58819 63.47036
#
# Poissons Ratio (x) = 0.41800 0.00633
# Poissons Ratio (y) = 0.27632 0.08608
# Poissons Ratio (z) = 0.00795 0.16355
#
# Static dielectric constant tensor:
#      x y z
#    x 4.213550 -0.372220 0.390200 
#    y -0.372220 5.085350 0.079150 
#    z 0.390200 0.079150 5.176880 
# 
# 
# High freq. dielectric constant tensor:
#      x y z
#    x 2.068150 -0.006740 0.018210 
#    y -0.006740 2.092130 -0.000270 
#    z 0.018210 -0.000270 2.091870 
# 
# From -- ./inp_files/582646.got.cif
#   From: 2010.06.25/outbox.cif.g09.slc.cpg/sg2_292_cif.got.tgz:582646.got - 2010.06.27 13:26:56.
