data_PCOD8033923
_publ_section_title
;
Structure prediction by ZEFSAII (Michael W. Deem and Ramdas Pophale) SiO2 
 PCOD8033923
Probable space group: P -1
;
_chemical_formula_sum "Si O2"
_cell_formula_units_Z 16
_cell_length_a 11.556684
_cell_length_b 20.963594
_cell_length_c 8.085363
_cell_angle_alpha 52.137422
_cell_angle_beta 146.800519
_cell_angle_gamma 139.093264
_cell_volume 701.402653
_symmetry_space_group_name_H-M "P -1"
_symmetry_group_IT_number 2
_symmetry_cell_setting 'triclinic'
loop_
_space_group_symop_operation_xyz
x,y,z
-x,-y,-z
loop_
_atom_site_type_symbol
_atom_site_label
_atom_site_fract_x
_atom_site_fract_y
_atom_site_fract_z
Si Si1 0.191861 0.116561 0.541999
Si Si2 0.738597 0.324405 0.496931
Si Si3 0.250660 0.951877 0.382482
Si Si4 0.086531 0.611822 0.738993
Si Si5 0.268216 0.795280 0.823756
Si Si6 0.944867 0.731354 0.854725
Si Si7 0.355025 0.594116 0.407218
Si Si8 0.260930 0.132336 0.238894
O O1 0.035286 0.166758 0.286391
O O2 0.343485 0.148617 0.501521
O O3 0.426598 0.160842 0.880934
O O4 0.000000 0.000000 0.500000
O O5 0.842099 0.400629 0.344268
O O6 0.696907 0.366327 0.549150
O O7 0.476602 0.232408 0.252144
O O8 0.922509 0.286098 0.805826
O O9 0.246588 0.886436 0.628752
O O10 0.500000 0.000000 0.500000
O O11 0.237457 0.036301 0.308353
O O12 0.010940 0.883352 0.086377
O O13 0.131605 0.718267 0.631754
O O14 0.795303 0.522619 0.566278
O O15 0.262991 0.616747 0.092043
O O16 0.102276 0.733466 0.881867
O O17 0.651595 0.639901 0.658399
#
# Coordination Sequence:
#
# PCOD8033923 Si02
#       8
#     2   2   2   2   2   2   2   2
#     4  12  25  42  68  96 141 188 232 286 343 405
#     4  12  25  46  72 104 141 182 236 286 352 418
#     4  11  26  41  65  98 140 179 236 285 342 417
#     4  11  25  47  76  99 141 185 226 302 348 413
#     4  12  25  45  67 108 135 185 237 279 354 415
#     4  12  24  45  70  99 147 179 233 295 337 431
#     4  11  25  51  69 105 140 179 239 289 354 414
#     4  11  24  43  62 101 137 179 230 284 340 413
#
# _framework density 22.811436
#
# number of rings (size 3 to 8) (size 9 to 14) (size 15 to 20)
#    0.000    0.500    5.000    2.625    7.000    4.000 
#    0.000    0.000    0.000    0.000    0.000    0.000 
#    0.000    0.000    0.000    0.000    0.000    0.000 
#
# Total GULP energy -198250.100724 kJ/mol
# GULP energy per Si atom -12390.631295 kJ/mol
# Density = 2.275952 g / cm^3
# Si number density = 22.811436 Si / 1000 Ang^3
#
#
#
# Elastic Constant Matrix: (Units=GPa)
#
#
# Indices 1 2 3 4 5 6 
#
# 1 101.0517 25.7000 44.2341 0.4282 -10.0307 14.8773
# 2 25.7000 130.2277 53.0133 25.2696 5.8797 12.8029
# 3 44.2341 53.0133 118.5854 18.0884 9.8762 5.5741
# 4 0.4282 25.2696 18.0884 31.7095 8.0711 2.4190
# 5 -10.0307 5.8797 9.8762 8.0711 36.6452 0.9874
# 6 14.8773 12.8029 5.5741 2.4190 0.9874 37.8293
#
#
#
# Elastic Compliance Matrix: (Units=1/GPa)
#
#
# Indices 1 2 3 4 5 6 
#
# 1 0.013549 -0.000794 -0.005279 0.002585 0.004813 -0.004573
# 2 -0.000794 0.010707 -0.003425 -0.006508 0.000486 -0.002403
# 3 -0.005279 -0.003425 0.012710 -0.003673 -0.003558 0.001690
# 4 0.002585 -0.006508 -0.003673 0.040398 -0.006137 -0.000696
# 5 0.004813 0.000486 -0.003558 -0.006137 0.030891 -0.001947
# 6 -0.004573 -0.002403 0.001690 -0.000696 -0.001947 0.028892
#
#
# Mechanical properties :
#
#
# Convention : Reuss Voigt Hill
#
# Bulk Modulus (GPa) = 55.65015 66.19551 60.92283
# Shear Modulus (GPa) = 30.83862 36.36461 33.60162
#
# Velocity S-wave (km/s) = 3.68080 3.99700 3.84215
# Velocity P-wave (km/s) = 6.52020 7.09809 6.81528
#
# Compressibility (1/GPa) = 0.01796940
#
# Stress axis : x y z
#
# Youngs Moduli (GPa) = 73.80775 93.39597 78.67704
#
# Poissons Ratio (x) = 0.07417 0.41534
# Poissons Ratio (y) = 0.05861 0.26948
# Poissons Ratio (z) = 0.38963 0.31989
#
# Static dielectric constant tensor:
#      x y z
#    x 4.080900 0.252030 -0.193940 
#    y 0.252030 4.406430 0.216850 
#    z -0.193940 0.216850 4.223700 
# 
# 
# High freq. dielectric constant tensor:
#      x y z
#    x 1.901630 0.011080 -0.005450 
#    y 0.011080 1.917280 0.010630 
#    z -0.005450 0.010630 1.896780 
# 
# From -- ./inp_files/117410.got.cif
#   From: 2010.06.25/outbox.cif.g09.slc.cpg/sg2_59_cif.got.tgz:117410.got - 2010.06.27 13:26:56.
