data_PCOD8033464
_publ_section_title
;
Structure prediction by ZEFSAII (Michael W. Deem and Ramdas Pophale) SiO2 
 PCOD8033464
Probable space group: P -1
;
_chemical_formula_sum "Si O2"
_cell_formula_units_Z 16
_cell_length_a 14.577044
_cell_length_b 8.875839
_cell_length_c 20.084907
_cell_angle_alpha 49.931548
_cell_angle_beta 21.951657
_cell_angle_gamma 49.990726
_cell_volume 733.797921
_symmetry_space_group_name_H-M "P -1"
_symmetry_group_IT_number 2
_symmetry_cell_setting 'triclinic'
loop_
_space_group_symop_operation_xyz
x,y,z
-x,-y,-z
loop_
_atom_site_type_symbol
_atom_site_label
_atom_site_fract_x
_atom_site_fract_y
_atom_site_fract_z
Si Si1 0.488799 0.378542 0.757954
Si Si2 0.119973 0.812842 0.644801
Si Si3 0.704481 0.141960 0.804797
Si Si4 0.841894 0.227282 0.097582
Si Si5 0.682577 0.832738 0.285507
Si Si6 0.728308 0.336820 0.870208
Si Si7 0.162830 0.461657 0.623042
Si Si8 0.891692 0.894301 0.919334
O O1 0.656632 0.250996 0.736139
O O2 0.350180 0.572247 0.832789
O O3 0.633655 0.437361 0.580282
O O4 0.299204 0.249269 0.890610
O O5 0.416238 0.802509 0.445077
O O6 0.043895 0.619256 0.714616
O O7 0.019884 0.823863 0.783867
O O8 0.975642 0.009577 0.650064
O O9 0.716061 0.307683 0.807211
O O10 0.500000 0.000000 0.000000
O O11 0.892777 0.135460 0.162822
O O12 0.704891 0.065657 0.198531
O O13 0.092373 0.276268 0.880418
O O14 0.716874 0.742121 0.362895
O O15 0.973214 0.418897 0.705828
O O16 0.738963 0.118899 0.958273
O O17 0.500000 0.500000 0.000000
#
# Coordination Sequence:
#
# PCOD8033464 Si02
#       8
#     2   2   2   2   2   2   2   2
#     4  12  26  43  74 102 142 181 238 283 350 420
#     4  11  24  44  75  97 144 181 234 287 344 421
#     4  11  24  48  71 101 137 188 229 280 356 412
#     4  11  25  44  72 104 143 182 237 290 349 416
#     4  11  25  44  70 106 142 184 230 294 353 409
#     4  11  25  43  75 100 141 188 231 287 346 419
#     4  12  26  45  69 108 141 181 236 290 351 408
#     4  11  23  46  73 103 136 188 234 281 355 409
#
# _framework density 21.804366999999999
#
# number of rings (size 3 to 8) (size 9 to 14) (size 15 to 20)
#    0.000    0.750    3.750    3.750    5.250    2.000 
#    2.250    0.000    0.000    0.000    0.000    0.000 
#    0.000    0.000    0.000    0.000    0.000    0.000 
#
# Total GULP energy -198390.304729 kJ/mol
# GULP energy per Si atom -12399.394046 kJ/mol
# Density = 2.175474 g / cm^3
# Si number density = 21.804367 Si / 1000 Ang^3
#
#
#
# Elastic Constant Matrix: (Units=GPa)
#
#
# Indices 1 2 3 4 5 6 
#
# 1 89.0683 19.2649 24.6513 -1.2781 -1.2092 -1.2075
# 2 19.2649 103.7810 39.3969 5.6960 9.2295 4.9490
# 3 24.6513 39.3969 85.5618 -1.9238 12.3587 -1.9547
# 4 -1.2781 5.6960 -1.9238 29.5528 -4.5481 -3.2896
# 5 -1.2092 9.2295 12.3587 -4.5481 30.2049 -7.5795
# 6 -1.2075 4.9490 -1.9547 -3.2896 -7.5795 45.4158
#
#
#
# Elastic Compliance Matrix: (Units=1/GPa)
#
#
# Indices 1 2 3 4 5 6 
#
# 1 0.012508 -0.001410 -0.003294 0.001105 0.002664 0.000869
# 2 -0.001410 0.012353 -0.004995 -0.003472 -0.002896 -0.002333
# 3 -0.003294 -0.004995 0.015655 0.001159 -0.004730 0.000425
# 4 0.001105 -0.003472 0.001159 0.036207 0.007156 0.004274
# 5 0.002664 -0.002896 -0.004730 0.007156 0.038917 0.007196
# 6 0.000869 -0.002333 0.000425 0.004274 0.007196 0.023825
#
#
# Mechanical properties :
#
#
# Convention : Reuss Voigt Hill
#
# Bulk Modulus (GPa) = 47.35404 49.44862 48.40133
# Shear Modulus (GPa) = 30.13792 34.04122 32.08957
#
# Velocity S-wave (km/s) = 3.72182 3.95550 3.84044
# Velocity P-wave (km/s) = 6.34304 6.60219 6.47391
#
# Compressibility (1/GPa) = 0.02111752
#
# Stress axis : x y z
#
# Youngs Moduli (GPa) = 79.94902 80.95260 63.87568
#
# Poissons Ratio (x) = 0.11416 0.21043
# Poissons Ratio (y) = 0.11275 0.31904
# Poissons Ratio (z) = 0.26339 0.40433
#
# Static dielectric constant tensor:
#      x y z
#    x 4.059010 0.003780 -0.136170 
#    y 0.003780 4.132040 0.034620 
#    z -0.136170 0.034620 3.836610 
# 
# 
# High freq. dielectric constant tensor:
#      x y z
#    x 1.868640 0.003270 -0.007750 
#    y 0.003270 1.870480 -0.001390 
#    z -0.007750 -0.001390 1.847720 
# 
# From -- ./inp_files/185691.got.cif
#   From: 2010.06.25/outbox.cif.g09.slc.cpg/sg2_93_cif.got.tgz:185691.got - 2010.06.27 13:26:56.
