data_PCOD8033515
_publ_section_title
;
Structure prediction by ZEFSAII (Michael W. Deem and Ramdas Pophale) SiO2 
 PCOD8033515
Probable space group: P -1
;
_chemical_formula_sum "Si O2"
_cell_formula_units_Z 14
_cell_length_a 9.186753
_cell_length_b 14.174610
_cell_length_c 11.212915
_cell_angle_alpha 149.563421
_cell_angle_beta 125.813890
_cell_angle_gamma 65.425443
_cell_volume 585.693179
_symmetry_space_group_name_H-M "P -1"
_symmetry_group_IT_number 2
_symmetry_cell_setting 'triclinic'
loop_
_space_group_symop_operation_xyz
x,y,z
-x,-y,-z
loop_
_atom_site_type_symbol
_atom_site_label
_atom_site_fract_x
_atom_site_fract_y
_atom_site_fract_z
Si Si1 0.464103 0.875289 0.660958
Si Si2 0.188058 0.476774 0.506841
Si Si3 0.908754 0.751336 0.413943
Si Si4 0.804241 0.853263 0.234307
Si Si5 0.785857 0.449899 0.664865
Si Si6 0.867456 0.954651 0.001024
Si Si7 0.399434 0.395169 0.726065
O O1 0.378781 0.706267 0.527489
O O2 0.664731 0.995699 0.926549
O O3 0.488520 0.764257 0.429289
O O4 0.342248 0.028944 0.749637
O O5 0.237035 0.594498 0.536850
O O6 0.160324 0.262941 0.216562
O O7 0.360484 0.525038 0.736139
O O8 0.000000 0.500000 0.500000
O O9 0.766388 0.775680 0.267617
O O10 0.804673 0.701592 0.434416
O O11 0.015848 0.590198 0.245776
O O12 0.058512 0.941969 0.727126
O O13 0.790094 0.668464 0.941623
O O14 0.000000 0.000000 0.500000
O O15 0.000000 0.000000 0.000000
O O16 0.500000 0.500000 0.000000
#
# Coordination Sequence:
#
# PCOD8033515 Si02
#       7
#     2   2   2   2   2   2   2
#     4  11  27  51  77 112 157 199 258 321 374 458
#     4  11  23  46  78 108 144 206 250 310 383 452
#     4  12  24  49  76 106 156 199 253 324 374 455
#     4  12  27  48  78 114 154 209 248 313 396 451
#     4  12  26  50  78 112 154 198 265 308 382 460
#     4  11  23  50  73 109 154 195 259 319 377 451
#     4  11  25  46  73 113 151 194 255 315 381 451
#
# _framework density 23.903300999999999
#
# number of rings (size 3 to 8) (size 9 to 14) (size 15 to 20)
#    0.000    0.571    5.714    2.143    2.000    4.571 
#   18.000    0.000    0.000    0.000    0.000    0.000 
#    0.000    0.000    0.000    0.000    0.000    0.000 
#
# Total GULP energy -173505.615817 kJ/mol
# GULP energy per Si atom -12393.258273 kJ/mol
# Density = 2.384890 g / cm^3
# Si number density = 23.903301 Si / 1000 Ang^3
#
#
#
# Elastic Constant Matrix: (Units=GPa)
#
#
# Indices 1 2 3 4 5 6 
#
# 1 145.3041 54.9516 44.1904 -4.0863 -2.4923 -11.2450
# 2 54.9516 137.6097 63.5717 -14.4410 -6.6382 -16.1201
# 3 44.1904 63.5717 122.2548 -27.6631 -19.4733 -9.2779
# 4 -4.0863 -14.4410 -27.6631 34.7170 2.7742 -7.8368
# 5 -2.4923 -6.6382 -19.4733 2.7742 39.6388 0.3965
# 6 -11.2450 -16.1201 -9.2779 -7.8368 0.3965 50.4881
#
#
#
# Elastic Compliance Matrix: (Units=1/GPa)
#
#
# Indices 1 2 3 4 5 6 
#
# 1 0.008489 -0.002522 -0.002243 -0.001672 -0.000878 0.000420
# 2 -0.002522 0.010599 -0.004226 0.001298 -0.000573 0.002252
# 3 -0.002243 -0.004226 0.014389 0.009504 0.005533 0.002227
# 4 -0.001672 0.001298 0.009504 0.038301 0.002023 0.007718
# 5 -0.000878 -0.000573 0.005533 0.002023 0.027646 0.000735
# 6 0.000420 0.002252 0.002227 0.007718 0.000735 0.022221
#
#
# Mechanical properties :
#
#
# Convention : Reuss Voigt Hill
#
# Bulk Modulus (GPa) = 64.54455 81.17732 72.86094
# Shear Modulus (GPa) = 34.53256 41.13245 37.83250
#
# Velocity S-wave (km/s) = 3.80501 4.15273 3.98267
# Velocity P-wave (km/s) = 6.80920 7.55169 7.19004
#
# Compressibility (1/GPa) = 0.01549317
#
# Stress axis : x y z
#
# Youngs Moduli (GPa) = 117.80558 94.34943 69.49830
#
# Poissons Ratio (x) = 0.23795 0.15589
# Poissons Ratio (y) = 0.29711 0.29373
# Poissons Ratio (z) = 0.26425 0.39876
#
# Static dielectric constant tensor:
#      x y z
#    x 11.428150 2.203750 3.085400 
#    y 2.203750 5.038320 1.029550 
#    z 3.085400 1.029550 5.707720 
# 
# 
# High freq. dielectric constant tensor:
#      x y z
#    x 1.967510 0.003410 -0.007720 
#    y 0.003410 1.951650 -0.003650 
#    z -0.007720 -0.003650 1.951190 
# 
# From -- ./inp_files/400185.got.cif
#   From: 2010.06.25/outbox.cif.g09.slc.cpg/sg2_201_cif.got.tgz:400185.got - 2010.06.27 13:26:56.
