data_PCOD8033411
_publ_section_title
;
Structure prediction by ZEFSAII (Michael W. Deem and Ramdas Pophale) SiO2 
 PCOD8033411
Probable space group: P -1
;
_chemical_formula_sum "Si O2"
_cell_formula_units_Z 14
_cell_length_a 8.637624
_cell_length_b 6.607215
_cell_length_c 12.008623
_cell_angle_alpha 98.502431
_cell_angle_beta 91.875574
_cell_angle_gamma 73.924106
_cell_volume 651.278139
_symmetry_space_group_name_H-M "P -1"
_symmetry_group_IT_number 2
_symmetry_cell_setting 'triclinic'
loop_
_space_group_symop_operation_xyz
x,y,z
-x,-y,-z
loop_
_atom_site_type_symbol
_atom_site_label
_atom_site_fract_x
_atom_site_fract_y
_atom_site_fract_z
Si Si1 0.637179 0.138832 0.741642
Si Si2 0.806846 0.452264 0.852866
Si Si3 0.019723 0.649358 0.727773
Si Si4 0.910884 0.944455 0.139757
Si Si5 0.126104 0.104119 0.456481
Si Si6 0.266999 0.229655 0.688601
Si Si7 0.322401 0.093263 0.049146
O O1 0.660242 0.363449 0.800829
O O2 0.456407 0.169882 0.702665
O O3 0.755038 0.062912 0.634840
O O4 0.684157 0.963716 0.826174
O O5 0.886356 0.539537 0.758386
O O6 0.942124 0.263757 0.900670
O O7 0.730742 0.650140 0.949588
O O8 0.977645 0.698149 0.601708
O O9 0.194874 0.481278 0.729211
O O10 0.017313 0.858698 0.816237
O O11 0.806615 0.909278 0.239843
O O12 0.199684 0.998014 0.967652
O O13 0.230553 0.179504 0.557623
O O14 0.000000 0.000000 0.500000
O O15 0.500000 0.000000 0.000000
#
# Coordination Sequence:
#
# PCOD8033411 Si02
#       7
#     2   2   2   2   2   2   2
#     4  12  26  46  66 108 140 176 228 282 339 409
#     4  11  24  45  69 100 139 180 230 276 338 407
#     4  11  23  46  71 101 136 179 231 277 336 407
#     4  11  23  46  70 102 134 182 233 276 333 408
#     4  12  22  48  73  98 137 180 228 283 332 408
#     4  11  25  41  71 103 139 177 225 281 343 398
#     4  12  26  44  72 100 143 179 223 287 344 396
#
# _framework density 21.496193000000002
#
# number of rings (size 3 to 8) (size 9 to 14) (size 15 to 20)
#    0.000    0.571    5.714    2.143    2.000    5.143 
#    0.000    1.429    0.000    0.000    0.000    0.000 
#    0.000    0.000    0.000    0.000    0.000    0.000 
#
# Total GULP energy -173650.669324 kJ/mol
# GULP energy per Si atom -12403.619237 kJ/mol
# Density = 2.144727 g / cm^3
# Si number density = 21.496193 Si / 1000 Ang^3
#
#
#
# Elastic Constant Matrix: (Units=GPa)
#
#
# Indices 1 2 3 4 5 6 
#
# 1 144.3954 52.6195 43.1952 0.4778 18.2297 -5.6927
# 2 52.6195 105.4263 32.4099 4.8667 7.0993 -0.3658
# 3 43.1952 32.4099 95.0537 2.9739 10.4076 -12.4022
# 4 0.4778 4.8667 2.9739 35.4857 -3.8426 2.9029
# 5 18.2297 7.0993 10.4076 -3.8426 42.3954 -0.3652
# 6 -5.6927 -0.3658 -12.4022 2.9029 -0.3652 33.0666
#
#
#
# Elastic Compliance Matrix: (Units=1/GPa)
#
#
# Indices 1 2 3 4 5 6 
#
# 1 0.009446 -0.003721 -0.002660 0.000264 -0.002757 0.000534
# 2 -0.003721 0.012196 -0.002614 -0.001283 0.000071 -0.001373
# 3 -0.002660 -0.002614 0.013467 -0.001311 -0.001803 0.004659
# 4 0.000264 -0.001283 -0.001311 0.029034 0.003029 -0.002976
# 5 -0.002757 0.000071 -0.001803 0.003029 0.025468 -0.001135
# 6 0.000534 -0.001373 0.004659 -0.002976 -0.001135 0.032315
#
#
# Mechanical properties :
#
#
# Convention : Reuss Voigt Hill
#
# Bulk Modulus (GPa) = 58.42125 66.81383 62.61754
# Shear Modulus (GPa) = 34.33533 36.63293 35.48413
#
# Velocity S-wave (km/s) = 4.00093 4.13262 4.06731
# Velocity P-wave (km/s) = 6.96992 7.34307 7.15892
#
# Compressibility (1/GPa) = 0.01711706
#
# Stress axis : x y z
#
# Youngs Moduli (GPa) = 105.87043 81.99475 74.25591
#
# Poissons Ratio (x) = 0.30512 0.19754
# Poissons Ratio (y) = 0.39397 0.19411
# Poissons Ratio (z) = 0.28165 0.21434
#
# Static dielectric constant tensor:
#      x y z
#    x 3.940750 -0.070930 0.029390 
#    y -0.070930 4.177950 0.059730 
#    z 0.029390 0.059730 4.073800 
# 
# 
# High freq. dielectric constant tensor:
#      x y z
#    x 1.853760 -0.002370 -0.001650 
#    y -0.002370 1.850360 -0.001680 
#    z -0.001650 -0.001680 1.849160 
# 
# From -- ./inp_files/35853.got.cif
#   From: 2010.06.25/outbox.cif.g09.slc.cpg/sg2_18_cif.got.tgz:35853.got - 2010.06.27 13:26:56.
