data_PCOD8033996
_publ_section_title
;
Structure prediction by ZEFSAII (Michael W. Deem and Ramdas Pophale) SiO2 
 PCOD8033996
Probable space group: P -1
;
_chemical_formula_sum "Si O2"
_cell_formula_units_Z 14
_cell_length_a 11.591474
_cell_length_b 6.528668
_cell_length_c 23.207809
_cell_angle_alpha 69.343799
_cell_angle_beta 146.695362
_cell_angle_gamma 85.911773
_cell_volume 633.097254
_symmetry_space_group_name_H-M "P -1"
_symmetry_group_IT_number 2
_symmetry_cell_setting 'triclinic'
loop_
_space_group_symop_operation_xyz
x,y,z
-x,-y,-z
loop_
_atom_site_type_symbol
_atom_site_label
_atom_site_fract_x
_atom_site_fract_y
_atom_site_fract_z
Si Si1 0.128656 0.798232 0.516310
Si Si2 0.787572 0.831542 0.273885
Si Si3 0.878320 0.763324 0.015861
Si Si4 0.840956 0.217362 0.186049
Si Si5 0.127868 0.228223 0.406159
Si Si6 0.260566 0.069712 0.282018
Si Si7 0.722529 0.133713 0.810066
O O1 0.436971 0.443494 0.694599
O O2 0.891844 0.810547 0.384941
O O3 0.208291 0.930231 0.492501
O O4 0.000000 0.000000 0.500000
O O5 0.935666 0.497410 0.347317
O O6 0.431421 0.068711 0.099312
O O7 0.890923 0.944250 0.262126
O O8 0.832368 0.837718 0.920650
O O9 0.109481 0.400597 0.161807
O O10 0.005018 0.897853 0.079833
O O11 0.941538 0.341201 0.258040
O O12 0.033511 0.088061 0.221085
O O13 0.500000 0.500000 0.000000
O O14 0.447683 0.104042 0.539611
O O15 0.380270 0.850461 0.298363
#
# Coordination Sequence:
#
# PCOD8033996 Si02
#       7
#     2   2   2   2   2   2   2
#     4  11  24  43  69 102 141 173 229 277 333 414
#     4  11  25  45  71 102 133 181 226 280 343 396
#     4  11  25  42  69 101 140 175 227 278 336 400
#     4  11  26  46  69 104 133 176 234 283 332 404
#     4  11  25  44  69 100 136 179 229 275 343 400
#     4  12  24  46  70  96 143 179 224 282 335 401
#     4  11  25  43  68 105 133 185 227 269 341 409
#
# _framework density 22.113506000000001
#
# number of rings (size 3 to 8) (size 9 to 14) (size 15 to 20)
#    0.000    0.857    4.286    1.714    4.000    5.714 
#    0.000    0.000    0.000    0.000    0.000    0.000 
#    0.000    0.000    0.000    0.000    0.000    0.000 
#
# Total GULP energy -173640.553731 kJ/mol
# GULP energy per Si atom -12402.896695 kJ/mol
# Density = 2.206318 g / cm^3
# Si number density = 22.113506 Si / 1000 Ang^3
#
#
#
# Elastic Constant Matrix: (Units=GPa)
#
#
# Indices 1 2 3 4 5 6 
#
# 1 103.1153 35.7828 40.4117 9.2766 6.1857 -4.9694
# 2 35.7828 86.7149 46.4698 0.0963 1.6126 -10.3356
# 3 40.4117 46.4698 149.2666 17.7867 13.0670 -12.3477
# 4 9.2766 0.0963 17.7867 27.3795 0.9733 3.9355
# 5 6.1857 1.6126 13.0670 0.9733 41.6944 0.0186
# 6 -4.9694 -10.3356 -12.3477 3.9355 0.0186 34.7252
#
#
#
# Elastic Compliance Matrix: (Units=1/GPa)
#
#
# Indices 1 2 3 4 5 6 
#
# 1 0.012074 -0.004120 -0.001493 -0.003114 -0.001092 0.000324
# 2 -0.004120 0.015678 -0.004127 0.003663 0.001212 0.002194
# 3 -0.001493 -0.004127 0.009532 -0.005961 -0.002468 0.002624
# 4 -0.003114 0.003663 -0.005961 0.042297 0.001204 -0.006269
# 5 -0.001092 0.001212 -0.002468 0.001204 0.024845 -0.000823
# 6 0.000324 0.002194 0.002624 -0.006269 -0.000823 0.031141
#
#
# Mechanical properties :
#
#
# Convention : Reuss Voigt Hill
#
# Bulk Modulus (GPa) = 56.16260 64.93617 60.54938
# Shear Modulus (GPa) = 31.05956 35.18866 33.12411
#
# Velocity S-wave (km/s) = 3.75180 3.99341 3.87449
# Velocity P-wave (km/s) = 6.64985 7.11981 6.88884
#
# Compressibility (1/GPa) = 0.01780544
#
# Stress axis : x y z
#
# Youngs Moduli (GPa) = 82.82356 63.78172 104.91166
#
# Poissons Ratio (x) = 0.26278 0.15660
# Poissons Ratio (y) = 0.34123 0.43294
# Poissons Ratio (z) = 0.12363 0.26321
#
# Static dielectric constant tensor:
#      x y z
#    x 3.903780 0.160000 -0.086900 
#    y 0.160000 4.000780 0.202370 
#    z -0.086900 0.202370 4.127590 
# 
# 
# High freq. dielectric constant tensor:
#      x y z
#    x 1.866750 0.009940 0.002350 
#    y 0.009940 1.868610 0.006640 
#    z 0.002350 0.006640 1.887270 
# 
# From -- ./inp_files/27486.got.cif
#   From: 2010.06.25/outbox.cif.g09.slc.cpg/sg2_14_cif.got.tgz:27486.got - 2010.06.27 13:26:56.
