data_PCOD8033410
_publ_section_title
;
Structure prediction by ZEFSAII (Michael W. Deem and Ramdas Pophale) SiO2 
 PCOD8033410
Probable space group: P -1
;
_chemical_formula_sum "Si O2"
_cell_formula_units_Z 12
_cell_length_a 27.660294
_cell_length_b 17.968728
_cell_length_c 5.155837
_cell_angle_alpha 65.730940
_cell_angle_beta 108.401006
_cell_angle_gamma 163.639354
_cell_volume 626.358887
_symmetry_space_group_name_H-M "P -1"
_symmetry_group_IT_number 2
_symmetry_cell_setting 'triclinic'
loop_
_space_group_symop_operation_xyz
x,y,z
-x,-y,-z
loop_
_atom_site_type_symbol
_atom_site_label
_atom_site_fract_x
_atom_site_fract_y
_atom_site_fract_z
Si Si1 0.123652 0.686824 0.695692
Si Si2 0.273576 0.179481 0.834133
Si Si3 0.104798 0.344162 0.965217
Si Si4 0.666407 0.829041 0.541626
Si Si5 0.296015 0.628117 0.375185
Si Si6 0.308569 0.799570 0.838828
O O1 0.244103 0.791854 0.774538
O O2 0.000000 0.500000 0.500000
O O3 0.261762 0.973646 0.530179
O O4 0.000000 0.500000 0.000000
O O5 0.451112 0.504195 0.595027
O O6 0.239217 0.058412 0.725075
O O7 0.292501 0.170425 0.161605
O O8 0.106504 0.985019 0.852767
O O9 0.158057 0.390196 0.710100
O O10 0.168895 0.538024 0.786959
O O11 0.213444 0.463288 0.205415
O O12 0.491502 0.891178 0.390479
O O13 0.314643 0.755991 0.181764
#
# Coordination Sequence:
#
# PCOD8033410 Si02
#       6
#     2   2   2   2   2   2
#     4  12  25  35  55  82 116 143 170 217 281 332
#     4  10  20  35  58  71 111 137 191 223 245 325
#     4  10  17  31  52  79  95 134 183 224 254 302
#     4  10  21  37  50  81 103 151 175 216 274 306
#     4   9  20  31  53  77 102 139 180 216 267 296
#     4   9  21  33  52  75 111 137 173 221 266 317
#
# _framework density 19.158348
#
# number of rings (size 3 to 8) (size 9 to 14) (size 15 to 20)
#    1.000    1.000    0.000    4.500    4.667    0.000 
#    0.000    0.000    0.000    2.000    0.000    0.000 
#    0.000    0.000    0.000    0.000    0.000    0.000 
#
# Total GULP energy -148699.048375 kJ/mol
# GULP energy per Si atom -12391.587365 kJ/mol
# Density = 1.911474 g / cm^3
# Si number density = 19.158348 Si / 1000 Ang^3
#
#
#
# Elastic Constant Matrix: (Units=GPa)
#
#
# Indices 1 2 3 4 5 6 
#
# 1 77.5233 37.1597 24.2892 -2.8462 -6.5792 14.7337
# 2 37.1597 94.5181 37.3897 0.0242 -8.2610 6.6941
# 3 24.2892 37.3897 101.6632 9.3606 -31.6455 9.7316
# 4 -2.8462 0.0242 9.3606 31.0630 -1.7600 -8.8511
# 5 -6.5792 -8.2610 -31.6455 -1.7600 25.7458 -6.3892
# 6 14.7337 6.6941 9.7316 -8.8511 -6.3892 30.8219
#
#
#
# Elastic Compliance Matrix: (Units=1/GPa)
#
#
# Indices 1 2 3 4 5 6 
#
# 1 0.017402 -0.005762 -0.001809 0.000158 -0.001281 -0.006716
# 2 -0.005762 0.014514 -0.004962 0.001075 -0.002608 0.000937
# 3 -0.001809 -0.004962 0.019177 -0.005118 0.020854 -0.001259
# 4 0.000158 0.001075 -0.005118 0.037109 -0.000421 0.011876
# 5 -0.001281 -0.002608 0.020854 -0.000421 0.065268 0.008003
# 6 -0.006716 0.000937 -0.001259 0.011876 0.008003 0.040919
#
#
# Mechanical properties :
#
#
# Convention : Reuss Voigt Hill
#
# Bulk Modulus (GPa) = 38.42244 52.37573 45.39909
# Shear Modulus (GPa) = 21.91761 29.18387 25.55074
#
# Velocity S-wave (km/s) = 3.38601 3.90718 3.65589
# Velocity P-wave (km/s) = 5.94857 6.91031 6.44740
#
# Compressibility (1/GPa) = 0.02602646
#
# Stress axis : x y z
#
# Youngs Moduli (GPa) = 57.46597 68.90119 52.14697
#
# Poissons Ratio (x) = 0.39703 0.09432
# Poissons Ratio (y) = 0.33113 0.25873
# Poissons Ratio (z) = 0.10394 0.34186
#
# Static dielectric constant tensor:
#      x y z
#    x 3.234030 -0.019740 -0.214900 
#    y -0.019740 3.681850 0.000260 
#    z -0.214900 0.000260 3.515010 
# 
# 
# High freq. dielectric constant tensor:
#      x y z
#    x 1.696640 0.017730 -0.025210 
#    y 0.017730 1.755350 0.004180 
#    z -0.025210 0.004180 1.748540 
# 
# From -- ./inp_files/68780.got.cif
#   From: 2010.06.25/outbox.cif.g09.slc.cpg/sg2_35_cif.got.tgz:68780.got - 2010.06.27 13:26:56.
