data_PCOD8033653
_publ_section_title
;
Structure prediction by ZEFSAII (Michael W. Deem and Ramdas Pophale) SiO2 
 PCOD8033653
Probable space group: P -1
;
_chemical_formula_sum "Si O2"
_cell_formula_units_Z 16
_cell_length_a 9.170245
_cell_length_b 10.686395
_cell_length_c 12.865612
_cell_angle_alpha 132.740902
_cell_angle_beta 84.739020
_cell_angle_gamma 114.857806
_cell_volume 803.935493
_symmetry_space_group_name_H-M "P -1"
_symmetry_group_IT_number 2
_symmetry_cell_setting 'triclinic'
loop_
_space_group_symop_operation_xyz
x,y,z
-x,-y,-z
loop_
_atom_site_type_symbol
_atom_site_label
_atom_site_fract_x
_atom_site_fract_y
_atom_site_fract_z
Si Si1 0.940005 0.367269 0.236360
Si Si2 0.793876 0.100442 0.276689
Si Si3 0.525514 0.313896 0.902137
Si Si4 0.513199 0.808284 0.379023
Si Si5 0.864906 0.466459 0.079834
Si Si6 0.836613 0.802356 0.382767
Si Si7 0.278773 0.582877 0.433859
Si Si8 0.137808 0.325231 0.479019
O O1 0.138530 0.451984 0.283704
O O2 0.832337 0.159845 0.185360
O O3 0.889985 0.350417 0.109011
O O4 0.914991 0.521812 0.391236
O O5 0.732149 0.233633 0.415405
O O6 0.968469 0.135898 0.339639
O O7 0.650153 0.875103 0.161205
O O8 0.593332 0.293276 0.773877
O O9 0.500000 0.500000 0.000000
O O10 0.671889 0.339474 0.985423
O O11 0.700452 0.847429 0.363740
O O12 0.450593 0.672420 0.408248
O O13 0.500000 0.000000 0.500000
O O14 0.886452 0.671436 0.233981
O O15 0.000000 0.500000 0.000000
O O16 0.773551 0.720465 0.457290
O O17 0.000000 0.000000 0.500000
O O18 0.273621 0.434695 0.439987
#
# Coordination Sequence:
#
# PCOD8033653 Si02
#       8
#     2   2   2   2   2   2   2   2
#     4   8  17  35  61  90 113 154 201 245 296 353
#     4   9  17  35  62  88 118 154 199 243 299 357
#     4  12  24  39  57  88 126 163 196 244 303 355
#     4  12  24  38  63  90 120 161 204 244 296 356
#     4  11  24  40  61  87 122 161 198 247 302 357
#     4  11  24  39  61  90 121 156 203 250 295 355
#     4   9  17  34  62  90 115 149 202 251 292 349
#     4   8  17  34  61  89 116 150 196 254 297 340
#
# _framework density 19.902094000000002
#
# number of rings (size 3 to 8) (size 9 to 14) (size 15 to 20)
#    0.000    2.000    2.500    3.000    5.250    1.000 
#    0.000    0.000    2.750    2.250    0.000    0.000 
#    0.000    0.000    0.000    0.000    0.000    0.000 
#
# Total GULP energy -198232.252595 kJ/mol
# GULP energy per Si atom -12389.515787 kJ/mol
# Density = 1.985680 g / cm^3
# Si number density = 19.902094 Si / 1000 Ang^3
#
#
#
# Elastic Constant Matrix: (Units=GPa)
#
#
# Indices 1 2 3 4 5 6 
#
# 1 72.3948 35.4336 40.2225 -3.3534 5.5105 -2.7863
# 2 35.4336 129.8076 63.8241 -1.3920 1.0900 13.2329
# 3 40.2225 63.8241 115.2462 -7.3282 9.2012 -2.0121
# 4 -3.3534 -1.3920 -7.3282 38.7101 0.5239 4.2035
# 5 5.5105 1.0900 9.2012 0.5239 27.4031 -1.5610
# 6 -2.7863 13.2329 -2.0121 4.2035 -1.5610 29.2415
#
#
#
# Elastic Compliance Matrix: (Units=1/GPa)
#
#
# Indices 1 2 3 4 5 6 
#
# 1 0.017983 -0.002991 -0.004401 0.000359 -0.001877 0.002613
# 2 -0.002991 0.011994 -0.005863 -0.000312 0.001759 -0.005978
# 3 -0.004401 -0.005863 0.013895 0.001786 -0.003425 0.002750
# 4 0.000359 -0.000312 0.001786 0.026600 -0.001373 -0.003599
# 5 -0.001877 0.001759 -0.003425 -0.001373 0.038034 0.001017
# 6 0.002613 -0.005978 0.002750 -0.003599 0.001017 0.037913
#
#
# Mechanical properties :
#
#
# Convention : Reuss Voigt Hill
#
# Bulk Modulus (GPa) = 57.60146 66.26769 61.93457
# Shear Modulus (GPa) = 27.97704 30.93549 29.45626
#
# Velocity S-wave (km/s) = 3.75338 3.94684 3.85133
# Velocity P-wave (km/s) = 6.91296 7.35794 7.13892
#
# Compressibility (1/GPa) = 0.01736067
#
# Stress axis : x y z
#
# Youngs Moduli (GPa) = 55.60905 83.37266 71.96729
#
# Poissons Ratio (x) = 0.24941 0.31674
# Poissons Ratio (y) = 0.16635 0.42195
# Poissons Ratio (z) = 0.24475 0.48882
#
# Static dielectric constant tensor:
#      x y z
#    x 2.632220 1.483830 -0.609780 
#    y 1.483830 0.979180 1.488910 
#    z -0.609780 1.488910 2.504560 
# 
# 
# High freq. dielectric constant tensor:
#      x y z
#    x 1.755420 0.000180 0.018620 
#    y 0.000180 1.790740 -0.014300 
#    z 0.018620 -0.014300 1.765600 
# 
# From -- ./inp_files/391347.got.cif
#   From: 2010.06.25/outbox.cif.g09.slc.cpg/sg2_196_cif.got.tgz:391347.got - 2010.06.27 13:26:56.
