data_PCOD8033619
_publ_section_title
;
Structure prediction by ZEFSAII (Michael W. Deem and Ramdas Pophale) SiO2 
 PCOD8033619
Probable space group: P -1
;
_chemical_formula_sum "Si O2"
_cell_formula_units_Z 14
_cell_length_a 18.162082
_cell_length_b 5.577962
_cell_length_c 11.974712
_cell_angle_alpha 105.781106
_cell_angle_beta 28.605485
_cell_angle_gamma 102.884687
_cell_volume 558.595907
_symmetry_space_group_name_H-M "P -1"
_symmetry_group_IT_number 2
_symmetry_cell_setting 'triclinic'
loop_
_space_group_symop_operation_xyz
x,y,z
-x,-y,-z
loop_
_atom_site_type_symbol
_atom_site_label
_atom_site_fract_x
_atom_site_fract_y
_atom_site_fract_z
Si Si1 0.316949 0.372173 0.277034
Si Si2 0.499082 0.255433 0.355412
Si Si3 0.385528 0.629036 0.008126
Si Si4 0.267069 0.670429 0.767392
Si Si5 0.715141 0.130730 0.477516
Si Si6 0.950935 0.879158 0.281750
Si Si7 0.947465 0.216124 0.514462
O O1 0.343864 0.387849 0.109155
O O2 0.308552 0.652328 0.374138
O O3 0.158272 0.247447 0.498211
O O4 0.465579 0.237639 0.120307
O O5 0.344082 0.391846 0.629410
O O6 0.619926 0.177639 0.282316
O O7 0.445904 0.008627 0.332926
O O8 0.576539 0.433997 0.180883
O O9 0.236684 0.810229 0.235166
O O10 0.248676 0.775967 0.681957
O O11 0.093520 0.684841 0.047445
O O12 0.856744 0.943419 0.302502
O O13 0.004018 0.133879 0.304001
O O14 0.000000 0.500000 0.500000
O O15 0.000000 0.000000 0.500000
#
# Coordination Sequence:
#
# PCOD8033619 Si02
#       7
#     2   2   2   2   2   2   2
#     4  11  25  44  75 114 146 196 253 319 389 449
#     4  11  25  47  72 109 146 203 248 313 387 451
#     4  11  23  48  75 107 151 194 249 318 381 464
#     4  11  26  48  71 106 151 198 253 314 376 462
#     4  12  23  46  72 110 144 195 261 304 380 455
#     4  12  26  48  75 109 150 196 252 317 382 455
#     4  12  28  50  75 115 155 203 253 316 398 465
#
# _framework density 25.062842
#
# number of rings (size 3 to 8) (size 9 to 14) (size 15 to 20)
#    0.000    0.571    4.286    2.571    0.000    9.143 
#    5.143    0.000    0.000    0.000    0.000    0.000 
#    0.000    0.000    0.000    0.000    0.000    0.000 
#
# Total GULP energy -173460.750045 kJ/mol
# GULP energy per Si atom -12390.053575 kJ/mol
# Density = 2.500580 g / cm^3
# Si number density = 25.062842 Si / 1000 Ang^3
#
#
#
# Elastic Constant Matrix: (Units=GPa)
#
#
# Indices 1 2 3 4 5 6 
#
# 1 67.7703 4.2505 14.2404 11.5649 -16.3000 1.2586
# 2 4.2505 76.8959 24.1564 0.1838 -7.1019 9.3678
# 3 14.2404 24.1564 147.4035 13.5276 -18.5233 -3.3526
# 4 11.5649 0.1838 13.5276 31.9399 -10.3809 -4.1496
# 5 -16.3000 -7.1019 -18.5233 -10.3809 46.2431 11.7676
# 6 1.2586 9.3678 -3.3526 -4.1496 11.7676 28.6989
#
#
#
# Elastic Compliance Matrix: (Units=1/GPa)
#
#
# Indices 1 2 3 4 5 6 
#
# 1 0.017120 0.000285 -0.000643 -0.004556 0.005805 -0.003958
# 2 0.000285 0.014772 -0.002272 0.001026 0.003293 -0.006302
# 3 -0.000643 -0.002272 0.007676 -0.002336 0.001827 0.000580
# 4 -0.004556 0.001026 -0.002336 0.035917 0.004981 0.002743
# 5 0.005805 0.003293 0.001827 0.004981 0.029171 -0.012357
# 6 -0.003958 -0.006302 0.000580 0.002743 -0.012357 0.042606
#
#
# Mechanical properties :
#
#
# Convention : Reuss Voigt Hill
#
# Bulk Modulus (GPa) = 29.14814 41.92936 35.53875
# Shear Modulus (GPa) = 30.49551 38.00455 34.25003
#
# Velocity S-wave (km/s) = 3.49200 3.89828 3.70072
# Velocity P-wave (km/s) = 5.28337 6.08508 5.69834
#
# Compressibility (1/GPa) = 0.03430750
#
# Stress axis : x y z
#
# Youngs Moduli (GPa) = 58.41060 67.69591 130.28096
#
# Poissons Ratio (x) = -0.01929 0.08378
# Poissons Ratio (y) = -0.01664 0.29600
# Poissons Ratio (z) = 0.03756 0.15381
#
# Static dielectric constant tensor:
#      x y z
#    x 5.079270 0.038030 -0.229810 
#    y 0.038030 4.265290 0.074870 
#    z -0.229810 0.074870 4.752620 
# 
# 
# High freq. dielectric constant tensor:
#      x y z
#    x 2.025210 -0.010860 -0.004950 
#    y -0.010860 1.973130 0.010300 
#    z -0.004950 0.010300 2.001160 
# 
# From -- ./inp_files/459547.got.cif
#   From: 2010.06.25/outbox.cif.g09.slc.cpg/sg2_230_cif.got.tgz:459547.got - 2010.06.27 13:26:56.
