data_PCOD8033933
_publ_section_title
;
Structure prediction by ZEFSAII (Michael W. Deem and Ramdas Pophale) SiO2 
 PCOD8033933
Probable space group: P -1
;
_chemical_formula_sum "Si O2"
_cell_formula_units_Z 16
_cell_length_a 17.200136
_cell_length_b 14.908688
_cell_length_c 12.215641
_cell_angle_alpha 29.352632
_cell_angle_beta 126.912515
_cell_angle_gamma 146.417764
_cell_volume 752.795614
_symmetry_space_group_name_H-M "P -1"
_symmetry_group_IT_number 2
_symmetry_cell_setting 'triclinic'
loop_
_space_group_symop_operation_xyz
x,y,z
-x,-y,-z
loop_
_atom_site_type_symbol
_atom_site_label
_atom_site_fract_x
_atom_site_fract_y
_atom_site_fract_z
Si Si1 0.998605 0.622116 0.764710
Si Si2 0.517091 0.567761 0.313590
Si Si3 0.245083 0.752285 0.204758
Si Si4 0.075985 0.658544 0.507985
Si Si5 0.775144 0.721381 0.757604
Si Si6 0.225285 0.683262 0.777143
Si Si7 0.670521 0.659616 0.978668
Si Si8 0.571652 0.309970 0.472535
O O1 0.124817 0.709682 0.700837
O O2 0.811681 0.352929 0.858144
O O3 0.067055 0.929051 0.507749
O O4 0.000000 0.500000 0.000000
O O5 0.500000 0.500000 0.500000
O O6 0.357033 0.422324 0.289787
O O7 0.552183 0.442065 0.404037
O O8 0.662294 0.922551 0.041889
O O9 0.345704 0.730691 0.350664
O O10 0.071956 0.494475 0.383749
O O11 0.174967 0.623993 0.669372
O O12 0.000000 0.500000 0.500000
O O13 0.197874 0.003989 0.230536
O O14 0.825103 0.583980 0.928088
O O15 0.708503 0.634332 0.917915
O O16 0.406426 0.991855 0.625754
O O17 0.671002 0.510812 0.234857
O O18 0.500000 0.500000 0.000000
#
# Coordination Sequence:
#
# PCOD8033933 Si02
#       8
#     2   2   2   2   2   2   2   2
#     4  11  24  48  70  95 142 179 223 288 341 399
#     4  12  25  44  71 102 136 178 232 288 337 405
#     4  11  26  43  65 108 133 170 231 283 343 393
#     4  11  24  43  65 101 142 172 222 284 336 400
#     4  12  24  44  72 103 134 181 236 269 344 420
#     4  11  24  44  69  99 134 183 227 274 342 408
#     4  12  22  44  73  94 139 188 222 275 341 418
#     4  12  25  44  72 100 137 182 231 278 342 409
#
# _framework density 21.254109
#
# number of rings (size 3 to 8) (size 9 to 14) (size 15 to 20)
#    0.000    0.500    7.500    1.500    1.750    6.000 
#    0.000    0.000    0.000    0.000    0.000    0.000 
#    0.000    0.000    0.000    0.000    0.000    0.000 
#
# Total GULP energy -198269.070370 kJ/mol
# GULP energy per Si atom -12391.816898 kJ/mol
# Density = 2.120573 g / cm^3
# Si number density = 21.254109 Si / 1000 Ang^3
#
#
#
# Elastic Constant Matrix: (Units=GPa)
#
#
# Indices 1 2 3 4 5 6 
#
# 1 27.2713 33.0681 34.5063 5.4460 10.0669 8.0678
# 2 33.0681 204.4338 72.0964 8.7185 16.1508 6.5237
# 3 34.5063 72.0964 150.4951 -0.4279 25.2489 -2.1302
# 4 5.4460 8.7185 -0.4279 51.6530 -3.0138 -1.2517
# 5 10.0669 16.1508 25.2489 -3.0138 32.4304 7.1546
# 6 8.0678 6.5237 -2.1302 -1.2517 7.1546 34.7649
#
#
#
# Elastic Compliance Matrix: (Units=1/GPa)
#
#
# Indices 1 2 3 4 5 6 
#
# 1 0.065633 -0.005263 -0.011703 -0.006828 -0.006202 -0.013930
# 2 -0.005263 0.006435 -0.001852 -0.000558 -0.000162 -0.000086
# 3 -0.011703 -0.001852 0.011134 0.001462 -0.005045 0.004836
# 4 -0.006828 -0.000558 0.001462 0.020392 0.002724 0.001952
# 5 -0.006202 -0.000162 -0.005045 0.002724 0.038492 -0.006663
# 6 -0.013930 -0.000086 0.004836 0.001952 -0.006663 0.033751
#
#
# Mechanical properties :
#
#
# Convention : Reuss Voigt Hill
#
# Bulk Modulus (GPa) = 21.94637 73.50461 47.72549
# Shear Modulus (GPa) = 21.86624 39.93828 30.90226
#
# Velocity S-wave (km/s) = 3.21097 4.33954 3.81720
# Velocity P-wave (km/s) = 4.90869 7.73095 6.47545
#
# Compressibility (1/GPa) = 0.04556562
#
# Stress axis : x y z
#
# Youngs Moduli (GPa) = 15.23632 155.39197 89.81381
#
# Poissons Ratio (x) = 0.81789 1.05111
# Poissons Ratio (y) = 0.08019 0.16631
# Poissons Ratio (z) = 0.17831 0.28774
#
# Static dielectric constant tensor:
#      x y z
#    x 4.292050 -0.157040 0.313890 
#    y -0.157040 4.618270 -0.008350 
#    z 0.313890 -0.008350 4.028600 
# 
# 
# High freq. dielectric constant tensor:
#      x y z
#    x 1.811770 -0.003390 0.002100 
#    y -0.003390 1.867530 0.004360 
#    z 0.002100 0.004360 1.850650 
# 
# From -- ./inp_files/352031.got.cif
#   From: 2010.06.25/outbox.cif.g09.slc.cpg/sg2_177_cif.got.tgz:352031.got - 2010.06.27 13:26:56.
