data_PCOD8033998
_publ_section_title
;
Structure prediction by ZEFSAII (Michael W. Deem and Ramdas Pophale) SiO2 
 PCOD8033998
Probable space group: P -1
;
_chemical_formula_sum "Si O2"
_cell_formula_units_Z 16
_cell_length_a 8.628599
_cell_length_b 9.367835
_cell_length_c 15.750443
_cell_angle_alpha 35.590578
_cell_angle_beta 90.763654
_cell_angle_gamma 104.821384
_cell_volume 672.040481
_symmetry_space_group_name_H-M "P -1"
_symmetry_group_IT_number 2
_symmetry_cell_setting 'triclinic'
loop_
_space_group_symop_operation_xyz
x,y,z
-x,-y,-z
loop_
_atom_site_type_symbol
_atom_site_label
_atom_site_fract_x
_atom_site_fract_y
_atom_site_fract_z
Si Si1 0.908362 0.746090 0.182069
Si Si2 0.511732 0.120651 0.698387
Si Si3 0.007664 0.719798 0.584144
Si Si4 0.972189 0.688307 0.797781
Si Si5 0.163703 0.892564 0.866273
Si Si6 0.691955 0.861144 0.721979
Si Si7 0.664746 0.656812 0.537190
Si Si8 0.451404 0.684410 0.666951
O O1 0.748115 0.510509 0.247669
O O2 0.032244 0.597773 0.274664
O O3 0.858803 0.851329 0.217896
O O4 0.000000 0.000000 0.000000
O O5 0.635134 0.411179 0.593639
O O6 0.407647 0.144035 0.603350
O O7 0.363997 0.951840 0.846886
O O8 0.637916 0.979974 0.746667
O O9 0.006580 0.789410 0.651165
O O10 0.865903 0.785116 0.501001
O O11 0.192512 0.900046 0.457833
O O12 0.797577 0.691542 0.831189
O O13 0.118683 0.875402 0.773546
O O14 0.952403 0.380655 0.952294
O O15 0.514801 0.662184 0.772812
O O16 0.555931 0.564918 0.666591
O O17 0.500000 0.000000 0.500000
#
# Coordination Sequence:
#
# PCOD8033998 Si02
#       8
#     2   2   2   2   2   2   2   2
#     4  12  26  48  73 104 145 191 238 289 361 433
#     4  11  25  44  67 101 146 189 224 297 361 427
#     4  12  25  44  72 109 138 183 247 295 351 419
#     4  11  26  46  70 103 142 189 237 299 349 426
#     4  11  26  48  68  97 149 191 234 283 369 426
#     4  12  26  42  73 106 140 183 245 295 352 417
#     4  11  24  43  69 103 144 182 231 301 358 412
#     4  12  23  44  71 106 137 181 241 291 352 421
#
# _framework density 23.808087
#
# number of rings (size 3 to 8) (size 9 to 14) (size 15 to 20)
#    0.000    0.500    6.250    1.125    7.000    1.000 
#    2.250    1.875    0.000    0.000    0.000    0.000 
#    0.000    0.000    0.000    0.000    0.000    0.000 
#
# Total GULP energy -198339.114215 kJ/mol
# GULP energy per Si atom -12396.194638 kJ/mol
# Density = 2.375390 g / cm^3
# Si number density = 23.808087 Si / 1000 Ang^3
#
#
#
# Elastic Constant Matrix: (Units=GPa)
#
#
# Indices 1 2 3 4 5 6 
#
# 1 110.3179 48.6852 15.6693 -11.6560 -1.7847 -8.3231
# 2 48.6852 121.2083 26.4959 -12.1779 -1.5611 -9.9274
# 3 15.6693 26.4959 64.4542 -8.0814 -1.2434 11.7720
# 4 -11.6560 -12.1779 -8.0814 31.3039 -5.5255 1.4111
# 5 -1.7847 -1.5611 -1.2434 -5.5255 35.4996 -3.9050
# 6 -8.3231 -9.9274 11.7720 1.4111 -3.9050 49.4169
#
#
#
# Elastic Compliance Matrix: (Units=1/GPa)
#
#
# Indices 1 2 3 4 5 6 
#
# 1 0.011340 -0.003949 -0.001050 0.002512 0.000901 0.001366
# 2 -0.003949 0.011064 -0.003790 0.001871 0.000717 0.002463
# 3 -0.001050 -0.003790 0.018745 0.003282 0.000346 -0.005470
# 4 0.002512 0.001871 0.003282 0.035502 0.005790 -0.000539
# 5 0.000901 0.000717 0.000346 0.005790 0.029421 0.002373
# 6 0.001366 0.002463 -0.005470 -0.000539 0.002373 0.022467
#
#
# Mechanical properties :
#
#
# Convention : Reuss Voigt Hill
#
# Bulk Modulus (GPa) = 42.42618 53.07570 47.75094
# Shear Modulus (GPa) = 32.47304 36.91940 34.69622
#
# Velocity S-wave (km/s) = 3.69718 3.94218 3.82164
# Velocity P-wave (km/s) = 6.00702 6.56220 6.29074
#
# Compressibility (1/GPa) = 0.02357035
#
# Stress axis : x y z
#
# Youngs Moduli (GPa) = 88.18400 90.38374 53.34678
#
# Poissons Ratio (x) = 0.35695 0.05604
# Poissons Ratio (y) = 0.34827 0.20216
# Poissons Ratio (z) = 0.09264 0.34252
#
# Static dielectric constant tensor:
#      x y z
#    x 4.442460 -0.117030 0.115440 
#    y -0.117030 4.453620 -0.097060 
#    z 0.115440 -0.097060 3.973830 
# 
# 
# High freq. dielectric constant tensor:
#      x y z
#    x 1.950590 -0.007200 -0.002190 
#    y -0.007200 1.959500 -0.012910 
#    z -0.002190 -0.012910 1.921270 
# 
# From -- ./inp_files/494279.got.cif
#   From: 2010.06.25/outbox.cif.g09.slc.cpg/sg2_248_cif.got.tgz:494279.got - 2010.06.27 13:26:56.
