data_PCOD8033691
_publ_section_title
;
Structure prediction by ZEFSAII (Michael W. Deem and Ramdas Pophale) SiO2 
 PCOD8033691
Probable space group: P -1
;
_chemical_formula_sum "Si O2"
_cell_formula_units_Z 16
_cell_length_a 11.868639
_cell_length_b 8.663707
_cell_length_c 14.486555
_cell_angle_alpha 48.952840
_cell_angle_beta 135.644041
_cell_angle_gamma 139.503594
_cell_volume 655.021309
_symmetry_space_group_name_H-M "P -1"
_symmetry_group_IT_number 2
_symmetry_cell_setting 'triclinic'
loop_
_space_group_symop_operation_xyz
x,y,z
-x,-y,-z
loop_
_atom_site_type_symbol
_atom_site_label
_atom_site_fract_x
_atom_site_fract_y
_atom_site_fract_z
Si Si1 0.082229 0.281321 0.932068
Si Si2 0.333554 0.445287 0.850969
Si Si3 0.833010 0.645203 0.535854
Si Si4 0.963254 0.610503 0.805269
Si Si5 0.439068 0.155011 0.458369
Si Si6 0.690751 0.531140 0.833286
Si Si7 0.289716 0.126739 0.774398
Si Si8 0.157050 0.703412 0.582263
O O1 0.136304 0.335167 0.836023
O O2 0.938216 0.362835 0.847708
O O3 0.268586 0.430326 0.049186
O O4 0.000000 0.000000 0.000000
O O5 0.297464 0.261658 0.820124
O O6 0.339155 0.675764 0.718530
O O7 0.500000 0.500000 0.000000
O O8 0.637746 0.377608 0.528452
O O9 0.820256 0.836710 0.389026
O O10 0.859180 0.699770 0.640005
O O11 0.031144 0.668921 0.612464
O O12 0.871389 0.562403 0.871883
O O13 0.188940 0.839525 0.851613
O O14 0.351500 0.266062 0.297460
O O15 0.500000 0.000000 0.500000
O O16 0.269713 0.981821 0.500353
O O17 0.509592 0.252037 0.819799
O O18 0.000000 0.500000 0.500000
#
# Coordination Sequence:
#
# PCOD8033691 Si02
#       8
#     2   2   2   2   2   2   2   2
#     4  12  28  47  74 104 145 194 254 303 372 455
#     4  12  25  47  73 111 145 195 251 311 377 444
#     4  11  24  42  70 109 143 193 247 299 375 448
#     4  12  27  47  73 107 147 201 249 300 383 447
#     4  11  24  40  73 107 146 188 246 311 374 426
#     4  11  26  48  72 105 151 194 240 314 371 438
#     4  11  24  47  74 106 151 188 246 311 371 449
#     4  12  22  41  74 106 145 191 249 312 370 430
#
# _framework density 24.426684999999999
#
# number of rings (size 3 to 8) (size 9 to 14) (size 15 to 20)
#    0.000    0.500    5.000    3.000    3.500    3.500 
#    2.250    0.000    0.000    0.000    0.000    0.000 
#    0.000    0.000    0.000    0.000    0.000    0.000 
#
# Total GULP energy -198237.036303 kJ/mol
# GULP energy per Si atom -12389.814769 kJ/mol
# Density = 2.437109 g / cm^3
# Si number density = 24.426685 Si / 1000 Ang^3
#
#
#
# Elastic Constant Matrix: (Units=GPa)
#
#
# Indices 1 2 3 4 5 6 
#
# 1 82.0201 22.9045 15.3551 -18.8476 -2.4648 10.9973
# 2 22.9045 102.5231 3.2476 -30.9882 6.3320 23.5841
# 3 15.3551 3.2476 79.5419 11.6704 8.4821 2.9819
# 4 -18.8476 -30.9882 11.6704 26.5803 2.1271 -3.1984
# 5 -2.4648 6.3320 8.4821 2.1271 40.7322 0.7879
# 6 10.9973 23.5841 2.9819 -3.1984 0.7879 37.3049
#
#
#
# Elastic Compliance Matrix: (Units=1/GPa)
#
#
# Indices 1 2 3 4 5 6 
#
# 1 0.017163 0.002523 -0.005850 0.017023 0.001067 -0.004750
# 2 0.002523 0.019708 -0.004321 0.025639 -0.003145 -0.010593
# 3 -0.005850 -0.004321 0.016399 -0.015982 -0.002298 0.001824
# 4 0.017023 0.025639 -0.015982 0.085398 -0.003844 -0.012547
# 5 0.001067 -0.003145 -0.002298 -0.003844 0.025764 0.000984
# 6 -0.004750 -0.010593 0.001824 -0.012547 0.000984 0.033661
#
#
# Mechanical properties :
#
#
# Convention : Reuss Voigt Hill
#
# Bulk Modulus (GPa) = 26.33313 38.56661 32.44987
# Shear Modulus (GPa) = 22.11922 35.76201 28.94061
#
# Velocity S-wave (km/s) = 3.01248 3.83045 3.44582
# Velocity P-wave (km/s) = 4.78580 5.94862 5.39861
#
# Compressibility (1/GPa) = 0.03797498
#
# Stress axis : x y z
#
# Youngs Moduli (GPa) = 58.26341 50.74163 60.97842
#
# Poissons Ratio (x) = -0.12801 0.35670
# Poissons Ratio (y) = -0.14699 0.26348
# Poissons Ratio (z) = 0.34082 0.21925
#
# Static dielectric constant tensor:
#      x y z
#    x 4.671650 0.251290 -0.519100 
#    y 0.251290 4.365340 -0.296810 
#    z -0.519100 -0.296810 5.331900 
# 
# 
# High freq. dielectric constant tensor:
#      x y z
#    x 1.974580 0.007760 -0.009050 
#    y 0.007760 1.965390 -0.003520 
#    z -0.009050 -0.003520 1.988780 
# 
# From -- ./inp_files/515103.got.cif
#   From: 2010.06.25/outbox.cif.g09.slc.cpg/sg2_258_cif.got.tgz:515103.got - 2010.06.27 13:26:56.
