data_PCOD8033669
_publ_section_title
;
Structure prediction by ZEFSAII (Michael W. Deem and Ramdas Pophale) SiO2 
 PCOD8033669
Probable space group: P -1
;
_chemical_formula_sum "Si O2"
_cell_formula_units_Z 16
_cell_length_a 14.490708
_cell_length_b 15.949908
_cell_length_c 5.332356
_cell_angle_alpha 71.543455
_cell_angle_beta 83.872709
_cell_angle_gamma 38.418586
_cell_volume 705.267800
_symmetry_space_group_name_H-M "P -1"
_symmetry_group_IT_number 2
_symmetry_cell_setting 'triclinic'
loop_
_space_group_symop_operation_xyz
x,y,z
-x,-y,-z
loop_
_atom_site_type_symbol
_atom_site_label
_atom_site_fract_x
_atom_site_fract_y
_atom_site_fract_z
Si Si1 0.163135 0.146550 0.333931
Si Si2 0.783655 0.590007 0.451372
Si Si3 0.871379 0.723264 0.297439
Si Si4 0.359160 0.669875 0.408619
Si Si5 0.670159 0.156045 0.389109
Si Si6 0.357339 0.379600 0.040509
Si Si7 0.129408 0.872414 0.900283
Si Si8 0.151145 0.699363 0.741589
O O1 0.211593 0.168298 0.541459
O O2 0.994664 0.241608 0.377272
O O3 0.285746 0.975948 0.413014
O O4 0.158022 0.204060 0.022792
O O5 0.797821 0.683437 0.322931
O O6 0.699058 0.636710 0.694266
O O7 0.947923 0.418865 0.570236
O O8 0.688383 0.626077 0.208895
O O9 0.500000 0.500000 0.500000
O O10 0.405540 0.724465 0.488554
O O11 0.217067 0.723048 0.513622
O O12 0.300896 0.742275 0.086310
O O13 0.541725 0.245950 0.123325
O O14 0.837228 0.075611 0.361268
O O15 0.285312 0.531665 0.944418
O O16 0.088794 0.804145 0.893713
O O17 0.000000 0.000000 0.000000
#
# Coordination Sequence:
#
# PCOD8033669 Si02
#       8
#     2   2   2   2   2   2   2   2
#     4  12  25  43  72 103 139 180 230 286 344 420
#     4  11  24  46  74 106 135 175 230 295 350 409
#     4  11  24  46  74 106 135 175 230 295 350 409
#     4  11  24  42  66  91 142 183 229 288 337 400
#     4  11  28  42  63 106 140 186 231 282 344 415
#     4  12  25  43  72 103 139 180 230 286 344 420
#     4  11  24  42  66  91 142 183 229 288 337 400
#     4  11  24  40  65 104 128 180 241 282 338 403
#
# _framework density 22.686416000000001
#
# number of rings (size 3 to 8) (size 9 to 14) (size 15 to 20)
#    0.000    0.750    2.500    3.750   10.500    6.000 
#    0.000    3.750    0.000    0.000    0.000    0.000 
#    0.000    0.000    0.000    0.000    0.000    0.000 
#
# Total GULP energy -198333.470592 kJ/mol
# GULP energy per Si atom -12395.841912 kJ/mol
# Density = 2.263478 g / cm^3
# Si number density = 22.686416 Si / 1000 Ang^3
#
#
#
# Elastic Constant Matrix: (Units=GPa)
#
#
# Indices 1 2 3 4 5 6 
#
# 1 86.1578 36.3692 32.1928 -1.1176 -8.2083 16.0394
# 2 36.3692 130.8753 36.5347 -7.9532 -4.3449 32.4850
# 3 32.1928 36.5347 101.1601 3.8453 -5.1415 26.3167
# 4 -1.1176 -7.9532 3.8453 42.7137 4.5756 -0.3470
# 5 -8.2083 -4.3449 -5.1415 4.5756 28.2067 1.4379
# 6 16.0394 32.4850 26.3167 -0.3470 1.4379 35.2684
#
#
#
# Elastic Compliance Matrix: (Units=1/GPa)
#
#
# Indices 1 2 3 4 5 6 
#
# 1 0.014523 -0.002572 -0.002942 -0.000220 0.003441 -0.002183
# 2 -0.002572 0.010768 -0.001017 0.001875 0.000829 -0.008005
# 3 -0.002942 -0.001017 0.013400 -0.001763 0.002115 -0.007827
# 4 -0.000220 0.001875 -0.001763 0.024349 -0.004051 0.000093
# 5 0.003441 0.000829 0.002115 -0.004051 0.037904 -0.005491
# 6 -0.002183 -0.008005 -0.007827 0.000093 -0.005491 0.042785
#
#
# Mechanical properties :
#
#
# Convention : Reuss Voigt Hill
#
# Bulk Modulus (GPa) = 39.01821 58.70963 48.86392
# Shear Modulus (GPa) = 30.24207 35.44420 32.84314
#
# Velocity S-wave (km/s) = 3.65505 3.95695 3.80899
# Velocity P-wave (km/s) = 5.92020 6.84190 6.39767
#
# Compressibility (1/GPa) = 0.02562906
#
# Stress axis : x y z
#
# Youngs Moduli (GPa) = 68.85733 92.86883 74.62913
#
# Poissons Ratio (x) = 0.23884 0.21953
# Poissons Ratio (y) = 0.17709 0.07591
# Poissons Ratio (z) = 0.20255 0.09446
#
# Static dielectric constant tensor:
#      x y z
#    x 4.087860 0.143670 0.009270 
#    y 0.143670 4.088880 -0.066560 
#    z 0.009270 -0.066560 4.139280 
# 
# 
# High freq. dielectric constant tensor:
#      x y z
#    x 1.898950 0.011210 -0.001930 
#    y 0.011210 1.898910 -0.003020 
#    z -0.001930 -0.003020 1.903380 
# 
# From -- ./inp_files/38884.got.cif
#   From: 2010.06.25/outbox.cif.g09.slc.cpg/sg2_20_cif.got.tgz:38884.got - 2010.06.27 13:26:56.
