data_PCOD8033649
_publ_section_title
;
Structure prediction by ZEFSAII (Michael W. Deem and Ramdas Pophale) SiO2 
 PCOD8033649
Probable space group: P -1
;
_chemical_formula_sum "Si O2"
_cell_formula_units_Z 16
_cell_length_a 15.914683
_cell_length_b 10.356611
_cell_length_c 10.076495
_cell_angle_alpha 97.036665
_cell_angle_beta 123.631620
_cell_angle_gamma 128.693947
_cell_volume 747.526607
_symmetry_space_group_name_H-M "P -1"
_symmetry_group_IT_number 2
_symmetry_cell_setting 'triclinic'
loop_
_space_group_symop_operation_xyz
x,y,z
-x,-y,-z
loop_
_atom_site_type_symbol
_atom_site_label
_atom_site_fract_x
_atom_site_fract_y
_atom_site_fract_z
Si Si1 0.517895 0.974217 0.664144
Si Si2 0.622271 0.813631 0.654860
Si Si3 0.956378 0.748966 0.474074
Si Si4 0.117535 0.488975 0.358351
Si Si5 0.979101 0.766274 0.012167
Si Si6 0.290603 0.295928 0.837610
Si Si7 0.688576 0.629531 0.836375
Si Si8 0.127820 0.521676 0.879869
O O1 0.500000 0.000000 0.500000
O O2 0.616750 0.940645 0.746833
O O3 0.325003 0.762013 0.546264
O O4 0.652090 0.211171 0.898878
O O5 0.617746 0.695893 0.746288
O O6 0.451310 0.627022 0.380352
O O7 0.802040 0.988330 0.742944
O O8 0.904079 0.594988 0.526060
O O9 0.814247 0.716874 0.353063
O O10 0.935253 0.648451 0.306597
O O11 0.168733 0.031349 0.705268
O O12 0.061683 0.315225 0.185712
O O13 0.985500 0.468996 0.230433
O O14 0.889357 0.809652 0.973924
O O15 0.903022 0.570344 0.013490
O O16 0.500000 0.500000 0.000000
O O17 0.302278 0.377233 0.000203
#
# Coordination Sequence:
#
# PCOD8033649 Si02
#       8
#     2   2   2   2   2   2   2   2
#     4  12  24  43  68 105 139 178 231 281 340 408
#     4  11  24  38  69 103 135 171 227 286 341 403
#     4  11  28  48  67 104 137 181 236 274 342 413
#     4  12  25  43  73  98 141 182 226 288 333 407
#     4  12  22  43  71  99 135 179 221 286 344 399
#     4  11  27  47  73  96 141 184 223 283 344 412
#     4  11  24  43  66 106 131 175 229 284 341 409
#     4  12  25  45  68 100 138 183 229 278 345 404
#
# _framework density 21.403919999999999
#
# number of rings (size 3 to 8) (size 9 to 14) (size 15 to 20)
#    0.000    0.500    5.000    2.625    3.500    1.500 
#    0.000    0.000    0.000    0.000    0.000    0.000 
#    0.000    0.000    0.000    0.000    0.000    0.000 
#
# Total GULP energy -198451.205474 kJ/mol
# GULP energy per Si atom -12403.200342 kJ/mol
# Density = 2.135520 g / cm^3
# Si number density = 21.403920 Si / 1000 Ang^3
#
#
#
# Elastic Constant Matrix: (Units=GPa)
#
#
# Indices 1 2 3 4 5 6 
#
# 1 68.2813 10.7463 27.8137 1.4013 5.0905 10.1291
# 2 10.7463 76.0062 43.1990 18.8824 2.6679 15.5465
# 3 27.8137 43.1990 98.4781 12.0223 7.0349 12.8321
# 4 1.4013 18.8824 12.0223 38.7191 3.3657 12.6798
# 5 5.0905 2.6679 7.0349 3.3657 39.0869 3.5205
# 6 10.1291 15.5465 12.8321 12.6798 3.5205 28.4110
#
#
#
# Elastic Compliance Matrix: (Units=1/GPa)
#
#
# Indices 1 2 3 4 5 6 
#
# 1 0.017281 0.000812 -0.004738 0.002303 -0.001170 -0.005348
# 2 0.000812 0.019826 -0.007608 -0.005685 0.000875 -0.005274
# 3 -0.004738 -0.007608 0.015067 -0.000487 -0.001484 -0.000552
# 4 0.002303 -0.005685 -0.000487 0.032697 -0.001569 -0.011888
# 5 -0.001170 0.000875 -0.001484 -0.001569 0.026254 -0.001944
# 6 -0.005348 -0.005274 -0.000552 -0.011888 -0.001944 0.045786
#
#
# Mechanical properties :
#
#
# Convention : Reuss Voigt Hill
#
# Bulk Modulus (GPa) = 34.35474 45.14261 39.74868
# Shear Modulus (GPa) = 26.36018 31.97719 29.16868
#
# Velocity S-wave (km/s) = 3.51316 3.86941 3.69558
# Velocity P-wave (km/s) = 5.70455 6.41090 6.06802
#
# Compressibility (1/GPa) = 0.02910806
#
# Stress axis : x y z
#
# Youngs Moduli (GPa) = 57.86824 50.43811 66.36876
#
# Poissons Ratio (x) = -0.04098 0.31443
# Poissons Ratio (y) = -0.04702 0.50492
# Poissons Ratio (z) = 0.27416 0.38373
#
# Static dielectric constant tensor:
#      x y z
#    x 3.869700 -0.107710 0.111350 
#    y -0.107710 3.901930 0.153040 
#    z 0.111350 0.153040 4.087170 
# 
# 
# High freq. dielectric constant tensor:
#      x y z
#    x 1.839780 -0.010890 0.009800 
#    y -0.010890 1.844800 0.006140 
#    z 0.009800 0.006140 1.855640 
# 
# From -- ./inp_files/333287.got.cif
#   From: 2010.06.25/outbox.cif.g09.slc.cpg/sg2_167_cif.got.tgz:333287.got - 2010.06.27 13:26:56.
