data_PCOD8033815
_publ_section_title
;
Structure prediction by ZEFSAII (Michael W. Deem and Ramdas Pophale) SiO2 
 PCOD8033815
Probable space group: P -1
;
_chemical_formula_sum "Si O2"
_cell_formula_units_Z 12
_cell_length_a 12.168114
_cell_length_b 8.461026
_cell_length_c 15.158271
_cell_angle_alpha 143.896958
_cell_angle_beta 141.183236
_cell_angle_gamma 53.877105
_cell_volume 573.028393
_symmetry_space_group_name_H-M "P -1"
_symmetry_group_IT_number 2
_symmetry_cell_setting 'triclinic'
loop_
_space_group_symop_operation_xyz
x,y,z
-x,-y,-z
loop_
_atom_site_type_symbol
_atom_site_label
_atom_site_fract_x
_atom_site_fract_y
_atom_site_fract_z
Si Si1 0.063820 0.903602 0.903089
Si Si2 0.469887 0.707120 0.305860
Si Si3 0.849531 0.687064 0.004664
Si Si4 0.160749 0.467806 0.518963
Si Si5 0.664463 0.461543 0.029079
Si Si6 0.134977 0.020230 0.674980
O O1 0.180432 0.653318 0.871043
O O2 0.889020 0.791552 0.690540
O O3 0.170652 0.138880 0.018336
O O4 0.000000 0.000000 0.000000
O O5 0.338945 0.491927 0.182331
O O6 0.654062 0.583936 0.344638
O O7 0.500000 0.000000 0.500000
O O8 0.380605 0.746302 0.173104
O O9 0.923734 0.875051 0.218446
O O10 0.000000 0.500000 0.000000
O O11 0.000000 0.500000 0.500000
O O12 0.199244 0.729111 0.598784
O O13 0.707348 0.763073 0.156487
O O14 0.500000 0.500000 0.000000
O O15 0.000000 0.000000 0.500000
#
# Coordination Sequence:
#
# PCOD8033815 Si02
#       6
#     2   2   2   2   2   2
#     4  12  24  45  68  98 134 179 223 274 341 398
#     4  11  26  46  66  99 135 180 226 274 338 401
#     4  11  25  44  71  97 139 179 221 281 337 398
#     4  12  24  44  72  98 135 179 226 281 333 399
#     4  11  25  42  67  97 136 170 223 282 329 397
#     4  11  24  42  68 101 132 176 228 270 341 398
#
# _framework density 20.941369999999999
#
# number of rings (size 3 to 8) (size 9 to 14) (size 15 to 20)
#    0.000    0.667    3.333    5.000    2.333    1.333 
#    0.000    1.667    0.000    0.000    0.000    0.000 
#    0.000    0.000    0.000    0.000    0.000    0.000 
#
# Total GULP energy -148730.320965 kJ/mol
# GULP energy per Si atom -12394.193414 kJ/mol
# Density = 2.089371 g / cm^3
# Si number density = 20.941370 Si / 1000 Ang^3
#
#
#
# Elastic Constant Matrix: (Units=GPa)
#
#
# Indices 1 2 3 4 5 6 
#
# 1 141.3788 39.8490 46.3887 3.5331 1.1974 6.9644
# 2 39.8490 96.5986 15.2862 4.4052 18.1626 7.7866
# 3 46.3887 15.2862 128.1663 3.2813 -5.1583 9.9566
# 4 3.5331 4.4052 3.2813 35.9046 2.4938 4.6104
# 5 1.1974 18.1626 -5.1583 2.4938 32.8804 -5.4868
# 6 6.9644 7.7866 9.9566 4.6104 -5.4868 43.2852
#
#
#
# Elastic Compliance Matrix: (Units=1/GPa)
#
#
# Indices 1 2 3 4 5 6 
#
# 1 0.008957 -0.003463 -0.002774 -0.000284 0.001173 -0.000001
# 2 -0.003463 0.013571 -0.000459 -0.000384 -0.007870 -0.002735
# 3 -0.002774 -0.000459 0.009038 -0.000440 0.001589 -0.001302
# 4 -0.000284 -0.000384 -0.000440 0.028547 -0.002536 -0.003146
# 5 0.001173 -0.007870 0.001589 -0.002536 0.036112 0.005709
# 6 -0.000001 -0.002735 -0.001302 -0.003146 0.005709 0.024953
#
#
# Mechanical properties :
#
#
# Convention : Reuss Voigt Hill
#
# Bulk Modulus (GPa) = 55.03142 63.24351 59.13747
# Shear Modulus (GPa) = 35.55453 40.05537 37.80495
#
# Velocity S-wave (km/s) = 4.12492 4.37823 4.25346
# Velocity P-wave (km/s) = 7.00161 7.47157 7.24040
#
# Compressibility (1/GPa) = 0.01817144
#
# Stress axis : x y z
#
# Youngs Moduli (GPa) = 111.64590 73.68516 110.64900
#
# Poissons Ratio (x) = 0.25520 0.30697
# Poissons Ratio (y) = 0.38668 0.05084
# Poissons Ratio (z) = 0.30973 0.03386
#
# Static dielectric constant tensor:
#      x y z
#    x 3.879860 0.176740 0.042190 
#    y 0.176740 3.559820 0.072560 
#    z 0.042190 0.072560 4.182810 
# 
# 
# High freq. dielectric constant tensor:
#      x y z
#    x 1.825520 0.010260 -0.002500 
#    y 0.010260 1.824790 0.005490 
#    z -0.002500 0.005490 1.836820 
# 
# From -- ./inp_files/145878.got.cif
#   From: 2010.06.25/outbox.cif.g09.slc.cpg/sg2_73_cif.got.tgz:145878.got - 2010.06.27 13:26:56.
