data_PCOD8033606
_publ_section_title
;
Structure prediction by ZEFSAII (Michael W. Deem and Ramdas Pophale) SiO2 
 PCOD8033606
Probable space group: P -1
;
_chemical_formula_sum "Si O2"
_cell_formula_units_Z 14
_cell_length_a 9.207797
_cell_length_b 6.738222
_cell_length_c 20.171692
_cell_angle_alpha 42.653393
_cell_angle_beta 125.330390
_cell_angle_gamma 131.943329
_cell_volume 621.337002
_symmetry_space_group_name_H-M "P -1"
_symmetry_group_IT_number 2
_symmetry_cell_setting 'triclinic'
loop_
_space_group_symop_operation_xyz
x,y,z
-x,-y,-z
loop_
_atom_site_type_symbol
_atom_site_label
_atom_site_fract_x
_atom_site_fract_y
_atom_site_fract_z
Si Si1 0.373070 0.175184 0.443194
Si Si2 0.984961 0.833611 0.891736
Si Si3 0.660488 0.884613 0.884735
Si Si4 0.130708 0.809381 0.586515
Si Si5 0.008689 0.924386 0.307941
Si Si6 0.351669 0.113064 0.693549
Si Si7 0.619252 0.849452 0.027410
O O1 0.528430 0.551094 0.395981
O O2 0.500000 0.000000 0.500000
O O3 0.313221 0.023040 0.536649
O O4 0.182055 0.099307 0.364494
O O5 0.847187 0.940931 0.874306
O O6 0.929530 0.837221 0.798823
O O7 0.202741 0.131477 0.883911
O O8 0.000000 0.500000 0.000000
O O9 0.532482 0.503679 0.945588
O O10 0.527945 0.048878 0.783584
O O11 0.719605 0.025755 0.940661
O O12 0.007283 0.432208 0.625593
O O13 0.215091 0.825860 0.678539
O O14 0.000000 0.000000 0.500000
O O15 0.793955 0.871780 0.291145
O O16 0.500000 0.000000 0.000000
#
# Coordination Sequence:
#
# PCOD8033606 Si02
#       7
#     2   2   2   2   2   2   2
#     4  12  26  47  77 105 146 190 237 296 364 434
#     4  12  27  46  73 103 145 189 241 298 354 425
#     4  11  27  43  73 105 135 192 240 292 361 428
#     4  12  25  49  75 105 148 189 237 300 368 432
#     4  12  28  48  71 108 151 190 240 303 364 425
#     4  12  27  46  73 106 146 188 243 294 362 437
#     4  11  23  48  71  97 142 183 237 299 356 414
#
# _framework density 22.532053999999999
#
# number of rings (size 3 to 8) (size 9 to 14) (size 15 to 20)
#    0.000    0.286    4.286    3.857    8.000    2.286 
#    0.000    0.000    0.000    0.000    0.000    0.000 
#    0.000    0.000    0.000    0.000    0.000    0.000 
#
# Total GULP energy -173472.050462 kJ/mol
# GULP energy per Si atom -12390.860747 kJ/mol
# Density = 2.248077 g / cm^3
# Si number density = 22.532054 Si / 1000 Ang^3
#
#
#
# Elastic Constant Matrix: (Units=GPa)
#
#
# Indices 1 2 3 4 5 6 
#
# 1 143.3721 16.8129 26.6159 -10.9633 9.3232 -4.2962
# 2 16.8129 78.6138 6.6961 1.7362 -1.9601 -3.9632
# 3 26.6159 6.6961 85.2498 -3.0754 0.7579 -10.4287
# 4 -10.9633 1.7362 -3.0754 34.3974 0.3624 7.8297
# 5 9.3232 -1.9601 0.7579 0.3624 49.6385 4.0198
# 6 -4.2962 -3.9632 -10.4287 7.8297 4.0198 32.6755
#
#
#
# Elastic Compliance Matrix: (Units=1/GPa)
#
#
# Indices 1 2 3 4 5 6 
#
# 1 0.007859 -0.001594 -0.002261 0.002464 -0.001499 -0.000288
# 2 -0.001594 0.013228 -0.000414 -0.001574 0.000714 0.001552
# 3 -0.002261 -0.000414 0.012931 -0.000429 -0.000101 0.003895
# 4 0.002464 -0.001574 -0.000429 0.031622 -0.000137 -0.007564
# 5 -0.001499 0.000714 -0.000101 -0.000137 0.020673 -0.002653
# 6 -0.000288 0.001552 0.003895 -0.007564 -0.002653 0.034136
#
#
# Mechanical properties :
#
#
# Convention : Reuss Voigt Hill
#
# Bulk Modulus (GPa) = 39.25190 45.27615 42.26402
# Shear Modulus (GPa) = 36.36869 40.48299 38.42584
#
# Velocity S-wave (km/s) = 4.02193 4.24333 4.13411
# Velocity P-wave (km/s) = 6.24709 6.64421 6.44871
#
# Compressibility (1/GPa) = 0.02547647
#
# Stress axis : x y z
#
# Youngs Moduli (GPa) = 127.24329 75.60004 77.33546
#
# Poissons Ratio (x) = 0.12054 0.17489
# Poissons Ratio (y) = 0.20289 0.03205
# Poissons Ratio (z) = 0.28775 0.03133
#
# Static dielectric constant tensor:
#      x y z
#    x 4.563500 0.378550 -0.198050 
#    y 0.378550 4.312540 0.042860 
#    z -0.198050 0.042860 4.257390 
# 
# 
# High freq. dielectric constant tensor:
#      x y z
#    x 1.911840 -0.004320 0.001810 
#    y -0.004320 1.896760 0.005190 
#    z 0.001810 0.005190 1.893450 
# 
# From -- ./inp_files/52143.got.cif
#   From: 2010.06.25/outbox.cif.g09.slc.cpg/sg2_27_cif.got.tgz:52143.got - 2010.06.27 13:26:56.
