data_PCOD8033196
_publ_section_title
;
Structure prediction by ZEFSAII (Michael W. Deem and Ramdas Pophale) SiO2 
 PCOD8033196
Probable space group: P -1
;
_chemical_formula_sum "Si O2"
_cell_formula_units_Z 14
_cell_length_a 8.990123
_cell_length_b 22.298173
_cell_length_c 8.694024
_cell_angle_alpha 38.849454
_cell_angle_beta 49.318103
_cell_angle_gamma 31.004425
_cell_volume 562.468837
_symmetry_space_group_name_H-M "P -1"
_symmetry_group_IT_number 2
_symmetry_cell_setting 'triclinic'
loop_
_space_group_symop_operation_xyz
x,y,z
-x,-y,-z
loop_
_atom_site_type_symbol
_atom_site_label
_atom_site_fract_x
_atom_site_fract_y
_atom_site_fract_z
Si Si1 0.057226 0.255245 0.980278
Si Si2 0.924800 0.401490 0.085552
Si Si3 0.301799 0.943479 0.027018
Si Si4 0.807158 0.137006 0.456319
Si Si5 0.418353 0.492588 0.401642
Si Si6 0.311492 0.782643 0.114086
Si Si7 0.688363 0.677545 0.784444
O O1 0.399871 0.114634 0.998550
O O2 0.907731 0.361620 0.720837
O O3 0.043355 0.333754 0.974821
O O4 0.902561 0.212591 0.219029
O O5 0.609939 0.471101 0.181445
O O6 0.146223 0.295414 0.289610
O O7 0.918721 0.518746 0.877438
O O8 0.186956 0.896515 0.303933
O O9 0.347928 0.878892 0.957213
O O10 0.036597 0.115757 0.859289
O O11 0.481882 0.229317 0.437158
O O12 0.000000 0.000000 0.500000
O O13 0.500000 0.500000 0.500000
O O14 0.503617 0.350356 0.627728
O O15 0.444078 0.720541 0.978785
#
# Coordination Sequence:
#
# PCOD8033196 Si02
#       7
#     2   2   2   2   2   2   2
#     4  12  27  48  75 111 144 193 248 298 364 439
#     4  11  24  44  72 103 143 188 238 299 362 427
#     4  11  27  46  76 102 150 192 240 297 364 440
#     4  12  26  47  72 104 146 189 241 303 365 432
#     4  12  25  43  72 107 145 186 246 306 355 428
#     4  11  23  49  68 108 145 188 240 301 361 430
#     4  11  23  45  69 101 147 184 237 299 363 423
#
# _framework density 24.890267999999999
#
# number of rings (size 3 to 8) (size 9 to 14) (size 15 to 20)
#    0.000    0.571    5.714    1.286    4.000    2.286 
#    0.000    2.857    0.000    0.000    0.000    0.000 
#    0.000    0.000    0.000    0.000    0.000    0.000 
#
# Total GULP energy -173460.367147 kJ/mol
# GULP energy per Si atom -12390.026225 kJ/mol
# Density = 2.483362 g / cm^3
# Si number density = 24.890268 Si / 1000 Ang^3
#
#
#
# Elastic Constant Matrix: (Units=GPa)
#
#
# Indices 1 2 3 4 5 6 
#
# 1 98.5154 38.3521 14.1097 -13.9884 19.3015 -4.1790
# 2 38.3521 125.2084 18.0076 -13.5939 4.6285 -18.1856
# 3 14.1097 18.0076 70.9750 -16.3889 8.9348 -4.9867
# 4 -13.9884 -13.5939 -16.3889 32.1435 -1.4188 8.3074
# 5 19.3015 4.6285 8.9348 -1.4188 25.1019 -7.4446
# 6 -4.1790 -18.1856 -4.9867 8.3074 -7.4446 58.4429
#
#
#
# Elastic Compliance Matrix: (Units=1/GPa)
#
#
# Indices 1 2 3 4 5 6 
#
# 1 0.014307 -0.003835 0.000479 0.004942 -0.010842 -0.002213
# 2 -0.003835 0.009822 -0.001619 0.001044 0.002612 0.002828
# 3 0.000479 -0.001619 0.016968 0.008156 -0.005926 -0.000936
# 4 0.004942 0.001044 0.008156 0.038865 -0.006163 -0.004935
# 5 -0.010842 0.002612 -0.005926 -0.006163 0.051521 0.006971
# 6 -0.002213 0.002828 -0.000936 -0.004935 0.006971 0.019342
#
#
# Mechanical properties :
#
#
# Convention : Reuss Voigt Hill
#
# Bulk Modulus (GPa) = 32.10460 48.40416 40.25438
# Shear Modulus (GPa) = 29.21296 38.08628 33.64962
#
# Velocity S-wave (km/s) = 3.42960 3.91598 3.68083
# Velocity P-wave (km/s) = 5.34877 6.31948 5.85428
#
# Compressibility (1/GPa) = 0.03114818
#
# Stress axis : x y z
#
# Youngs Moduli (GPa) = 69.89527 101.81413 58.93285
#
# Poissons Ratio (x) = 0.39050 -0.02825
# Poissons Ratio (y) = 0.26808 0.09539
# Poissons Ratio (z) = -0.03351 0.16480
#
# Static dielectric constant tensor:
#      x y z
#    x 3.818380 -0.043960 -0.158870 
#    y -0.043960 4.847670 -0.174990 
#    z -0.158870 -0.174990 4.221400 
# 
# 
# High freq. dielectric constant tensor:
#      x y z
#    x 1.991470 -0.006510 0.024090 
#    y -0.006510 2.012220 -0.009760 
#    z 0.024090 -0.009760 1.960140 
# 
# From -- ./inp_files/225931.got.cif
#   From: 2010.06.25/outbox.cif.g09.slc.cpg/sg2_113_cif.got.tgz:225931.got - 2010.06.27 13:26:56.
