data_PCOD8033602
_publ_section_title
;
Structure prediction by ZEFSAII (Michael W. Deem and Ramdas Pophale) SiO2 
 PCOD8033602
Probable space group: P -1
;
_chemical_formula_sum "Si O2"
_cell_formula_units_Z 14
_cell_length_a 5.369505
_cell_length_b 10.731916
_cell_length_c 22.444842
_cell_angle_alpha 29.521408
_cell_angle_beta 104.233034
_cell_angle_gamma 112.973092
_cell_volume 574.099474
_symmetry_space_group_name_H-M "P -1"
_symmetry_group_IT_number 2
_symmetry_cell_setting 'triclinic'
loop_
_space_group_symop_operation_xyz
x,y,z
-x,-y,-z
loop_
_atom_site_type_symbol
_atom_site_label
_atom_site_fract_x
_atom_site_fract_y
_atom_site_fract_z
Si Si1 0.848961 0.581435 0.305255
Si Si2 0.715040 0.848722 0.080604
Si Si3 0.340905 0.900605 0.272567
Si Si4 0.027510 0.755672 0.856864
Si Si5 0.606731 0.180104 0.558924
Si Si6 0.094285 0.806071 0.624220
Si Si7 0.731952 0.667461 0.760033
O O1 0.772523 0.815128 0.169115
O O2 0.679711 0.452759 0.409383
O O3 0.771497 0.345492 0.349347
O O4 0.171715 0.691206 0.298295
O O5 0.580317 0.554435 0.161406
O O6 0.500000 0.000000 0.000000
O O7 0.000000 0.000000 0.000000
O O8 0.653029 0.042937 0.209144
O O9 0.177100 0.103678 0.188281
O O10 0.337732 0.739995 0.401312
O O11 0.924333 0.628831 0.839226
O O12 0.000000 0.500000 0.000000
O O13 0.290680 0.988782 0.611074
O O14 0.768114 0.985043 0.629697
O O15 0.837917 0.593360 0.733774
O O16 0.000000 0.000000 0.500000
#
# Coordination Sequence:
#
# PCOD8033602 Si02
#       7
#     2   2   2   2   2   2   2
#     4  12  26  47  75 113 152 193 248 312 382 444
#     4  12  29  46  70 106 152 195 243 305 365 434
#     4  11  27  47  75 112 148 191 245 315 377 434
#     4  11  26  48  76 101 146 204 254 296 360 453
#     4  11  23  48  70 112 143 192 247 307 375 446
#     4  12  22  42  76 107 147 193 246 301 375 447
#     4  11  24  46  74 104 145 194 254 305 367 440
#
# _framework density 24.386018
#
# number of rings (size 3 to 8) (size 9 to 14) (size 15 to 20)
#    0.000    0.571    4.286    3.000    4.000    2.286 
#    0.000    2.857    0.000    0.000    0.000    0.000 
#    0.000    0.000    0.000    0.000    0.000    0.000 
#
# Total GULP energy -173502.051671 kJ/mol
# GULP energy per Si atom -12393.003691 kJ/mol
# Density = 2.433051 g / cm^3
# Si number density = 24.386018 Si / 1000 Ang^3
#
#
#
# Elastic Constant Matrix: (Units=GPa)
#
#
# Indices 1 2 3 4 5 6 
#
# 1 100.2670 11.0472 45.3583 6.3332 -2.3375 21.3772
# 2 11.0472 106.4047 41.2186 13.9070 1.1619 38.2566
# 3 45.3583 41.2186 179.6006 27.8853 -3.2503 14.7432
# 4 6.3332 13.9070 27.8853 36.9735 12.1325 -0.9853
# 5 -2.3375 1.1619 -3.2503 12.1325 39.4883 -5.1007
# 6 21.3772 38.2566 14.7432 -0.9853 -5.1007 38.3755
#
#
#
# Elastic Compliance Matrix: (Units=1/GPa)
#
#
# Indices 1 2 3 4 5 6 
#
# 1 0.013150 0.003524 -0.003132 -0.001334 -0.000430 -0.009726
# 2 0.003524 0.017449 -0.002560 -0.005308 -0.001298 -0.018684
# 3 -0.003132 -0.002560 0.007629 -0.004947 0.002236 0.001536
# 4 -0.001334 -0.005308 -0.004947 0.036693 -0.010639 0.007463
# 5 -0.000430 -0.001298 0.002236 -0.010639 0.029345 0.004302
# 6 -0.009726 -0.018684 0.001536 0.007463 0.004302 0.050275
#
#
# Mechanical properties :
#
#
# Convention : Reuss Voigt Hill
#
# Bulk Modulus (GPa) = 29.50567 64.61341 47.05954
# Shear Modulus (GPa) = 29.38145 42.21067 35.79606
#
# Velocity S-wave (km/s) = 3.47486 4.16497 3.83547
# Velocity P-wave (km/s) = 5.31274 7.04861 6.24132
#
# Compressibility (1/GPa) = 0.03389179
#
# Stress axis : x y z
#
# Youngs Moduli (GPa) = 76.04623 57.30841 131.07945
#
# Poissons Ratio (x) = -0.20196 0.41054
# Poissons Ratio (y) = -0.26799 0.33561
# Poissons Ratio (z) = 0.23818 0.14673
#
# Static dielectric constant tensor:
#      x y z
#    x 4.284360 0.321780 0.120870 
#    y 0.321780 4.487480 0.277060 
#    z 0.120870 0.277060 4.695860 
# 
# 
# High freq. dielectric constant tensor:
#      x y z
#    x 1.964980 0.024010 0.003900 
#    y 0.024010 1.974290 0.015990 
#    z 0.003900 0.015990 1.981900 
# 
# From -- ./inp_files/72471.got.cif
#   From: 2010.06.25/outbox.cif.g09.slc.cpg/sg2_37_cif.got.tgz:72471.got - 2010.06.27 13:26:56.
