data_PCOD8033943
_publ_section_title
;
Structure prediction by ZEFSAII (Michael W. Deem and Ramdas Pophale) SiO2 
 PCOD8033943
Probable space group: P -1
;
_chemical_formula_sum "Si O2"
_cell_formula_units_Z 14
_cell_length_a 9.267745
_cell_length_b 6.458527
_cell_length_c 27.720780
_cell_angle_alpha 49.285827
_cell_angle_beta 28.024028
_cell_angle_gamma 51.112333
_cell_volume 584.575388
_symmetry_space_group_name_H-M "P -1"
_symmetry_group_IT_number 2
_symmetry_cell_setting 'triclinic'
loop_
_space_group_symop_operation_xyz
x,y,z
-x,-y,-z
loop_
_atom_site_type_symbol
_atom_site_label
_atom_site_fract_x
_atom_site_fract_y
_atom_site_fract_z
Si Si1 0.513037 0.836660 0.400050
Si Si2 0.424500 0.448027 0.830577
Si Si3 0.085912 0.190905 0.538327
Si Si4 0.996223 0.400205 0.880453
Si Si5 0.462277 0.065205 0.057931
Si Si6 0.073892 0.425170 0.602164
Si Si7 0.437309 0.039514 0.738756
O O1 0.217767 0.683301 0.497940
O O2 0.785810 0.636614 0.376693
O O3 0.656662 0.938176 0.293344
O O4 0.396244 0.080365 0.434458
O O5 0.702452 0.490140 0.705510
O O6 0.141878 0.352612 0.898280
O O7 0.324647 0.756748 0.835610
O O8 0.543732 0.226935 0.869893
O O9 0.156388 0.177039 0.577070
O O10 0.000000 0.500000 0.500000
O O11 0.808296 0.011784 0.638724
O O12 0.852533 0.724678 0.869095
O O13 0.266384 0.310937 0.775116
O O14 0.739990 0.203581 0.977441
O O15 0.500000 0.000000 0.000000
#
# Coordination Sequence:
#
# PCOD8033943 Si02
#       7
#     2   2   2   2   2   2   2
#     4  11  25  43  65 103 152 191 240 292 348 413
#     4  12  26  47  75 109 144 188 245 298 366 435
#     4  12  22  42  67  97 145 196 240 288 348 413
#     4  11  27  50  76 108 142 190 236 301 370 441
#     4  11  28  54  79 106 142 184 237 307 376 439
#     4  11  24  43  66 104 143 195 241 292 348 423
#     4  12  25  43  74 107 145 192 242 298 356 425
#
# _framework density 23.949006000000001
#
# number of rings (size 3 to 8) (size 9 to 14) (size 15 to 20)
#    0.000    0.571    4.286    3.000    4.000    4.571 
#    5.143    0.000    0.000    0.000    0.000    0.000 
#    0.000    0.000    0.000    0.000    0.000    0.000 
#
# Total GULP energy -173599.747866 kJ/mol
# GULP energy per Si atom -12399.981990 kJ/mol
# Density = 2.389450 g / cm^3
# Si number density = 23.949006 Si / 1000 Ang^3
#
#
#
# Elastic Constant Matrix: (Units=GPa)
#
#
# Indices 1 2 3 4 5 6 
#
# 1 118.6709 55.1183 31.3866 -8.5377 9.4514 6.3209
# 2 55.1183 143.0529 39.9218 3.1789 14.9514 -2.8239
# 3 31.3866 39.9218 60.7455 2.9811 2.7295 -3.9337
# 4 -8.5377 3.1789 2.9811 48.7777 2.6491 2.2898
# 5 9.4514 14.9514 2.7295 2.6491 37.4554 -3.1825
# 6 6.3209 -2.8239 -3.9337 2.2898 -3.1825 38.9630
#
#
#
# Elastic Compliance Matrix: (Units=1/GPa)
#
#
# Indices 1 2 3 4 5 6 
#
# 1 0.011477 -0.003226 -0.004045 0.002693 -0.001742 -0.002805
# 2 -0.003226 0.009823 -0.004590 -0.000808 -0.002664 0.000602
# 3 -0.004045 -0.004590 0.021771 -0.001959 0.001640 0.002771
# 4 0.002693 -0.000808 -0.001959 0.021347 -0.001903 -0.002103
# 5 -0.001742 -0.002664 0.001640 -0.001903 0.028445 0.002690
# 6 -0.002805 0.000602 0.002771 -0.002103 0.002690 0.026787
#
#
# Mechanical properties :
#
#
# Convention : Reuss Voigt Hill
#
# Bulk Modulus (GPa) = 51.68739 63.92475 57.80607
# Shear Modulus (GPa) = 33.37301 38.10874 35.74087
#
# Velocity S-wave (km/s) = 3.73701 3.99337 3.86732
# Velocity P-wave (km/s) = 6.34425 6.92911 6.64312
#
# Compressibility (1/GPa) = 0.01934708
#
# Stress axis : x y z
#
# Youngs Moduli (GPa) = 87.13164 101.80429 45.93329
#
# Poissons Ratio (x) = 0.32845 0.18581
# Poissons Ratio (y) = 0.28111 0.21084
# Poissons Ratio (z) = 0.35246 0.46730
#
# Static dielectric constant tensor:
#      x y z
#    x 4.352900 0.225000 -0.173250 
#    y 0.225000 4.461380 0.132740 
#    z -0.173250 0.132740 4.205290 
# 
# 
# High freq. dielectric constant tensor:
#      x y z
#    x 1.958510 0.010500 -0.013650 
#    y 0.010500 1.958400 0.004600 
#    z -0.013650 0.004600 1.937420 
# 
# From -- ./inp_files/40070.got.cif
#   From: 2010.06.25/outbox.cif.g09.slc.cpg/sg2_21_cif.got.tgz:40070.got - 2010.06.27 13:26:56.
