data_PCOD8033290
_publ_section_title
;
Structure prediction by ZEFSAII (Michael W. Deem and Ramdas Pophale) SiO2 
 PCOD8033290
Probable space group: P -1
;
_chemical_formula_sum "Si O2"
_cell_formula_units_Z 14
_cell_length_a 16.600446
_cell_length_b 11.113961
_cell_length_c 16.188201
_cell_angle_alpha 33.745353
_cell_angle_beta 157.150879
_cell_angle_gamma 147.808609
_cell_volume 598.285204
_symmetry_space_group_name_H-M "P -1"
_symmetry_group_IT_number 2
_symmetry_cell_setting 'triclinic'
loop_
_space_group_symop_operation_xyz
x,y,z
-x,-y,-z
loop_
_atom_site_type_symbol
_atom_site_label
_atom_site_fract_x
_atom_site_fract_y
_atom_site_fract_z
Si Si1 0.247996 0.838489 0.042653
Si Si2 0.532116 0.236423 0.546153
Si Si3 0.903612 0.056640 0.609743
Si Si4 0.250598 0.359697 0.870714
Si Si5 0.668577 0.243496 0.160448
Si Si6 0.109949 0.895792 0.093566
Si Si7 0.713570 0.451044 0.910922
O O1 0.311581 0.717004 0.251279
O O2 0.237190 0.673195 0.050458
O O3 0.417990 0.105077 0.035499
O O4 0.005807 0.856238 0.812001
O O5 0.671472 0.168911 0.641765
O O6 0.496234 0.470641 0.349853
O O7 0.295135 0.031220 0.459622
O O8 0.812804 0.091594 0.413551
O O9 0.070515 0.314280 0.652182
O O10 0.211727 0.499132 0.833172
O O11 0.500000 0.500000 0.000000
O O12 0.213465 0.093567 0.009298
O O13 0.660523 0.267436 0.040990
O O14 0.925515 0.675776 0.004439
O O15 0.000000 0.000000 0.000000
#
# Coordination Sequence:
#
# PCOD8033290 Si02
#       7
#     2   2   2   2   2   2   2
#     4  11  24  46  71 101 139 189 245 283 345 422
#     4  11  24  46  72 101 137 188 235 291 347 422
#     4  11  23  45  73 102 138 187 239 286 342 425
#     4  12  21  47  74 101 138 184 238 287 347 424
#     4  11  25  42  68 104 142 184 232 295 358 411
#     4  12  26  47  69 107 143 178 237 294 362 412
#     4  12  26  45  69 103 147 183 232 300 352 413
#
# _framework density 23.400210000000001
#
# number of rings (size 3 to 8) (size 9 to 14) (size 15 to 20)
#    0.000    0.571    5.714    2.143    0.000    6.857 
#    0.000    0.000    0.000    0.000    0.000    0.000 
#    0.000    0.000    0.000    0.000    0.000    0.000 
#
# Total GULP energy -173504.821739 kJ/mol
# GULP energy per Si atom -12393.201553 kJ/mol
# Density = 2.334695 g / cm^3
# Si number density = 23.400210 Si / 1000 Ang^3
#
#
#
# Elastic Constant Matrix: (Units=GPa)
#
#
# Indices 1 2 3 4 5 6 
#
# 1 124.5435 30.8050 76.8463 4.6326 15.4393 -5.9287
# 2 30.8050 76.7548 37.2222 -3.2626 2.8077 -8.7515
# 3 76.8463 37.2222 170.5173 -3.5767 17.4971 -1.4892
# 4 4.6326 -3.2626 -3.5767 26.5678 1.3473 1.6738
# 5 15.4393 2.8077 17.4971 1.3473 48.6808 -9.2513
# 6 -5.9287 -8.7515 -1.4892 1.6738 -9.2513 35.4326
#
#
#
# Elastic Compliance Matrix: (Units=1/GPa)
#
#
# Indices 1 2 3 4 5 6 
#
# 1 0.011907 -0.002458 -0.004711 -0.002982 -0.001690 0.000887
# 2 -0.002458 0.015601 -0.002371 0.001728 0.001372 0.003619
# 3 -0.004711 -0.002371 0.008722 0.001898 -0.001857 -0.001582
# 4 -0.002982 0.001728 0.001898 0.038831 -0.001324 -0.002172
# 5 -0.001690 0.001372 -0.001857 -0.001324 0.022844 0.006005
# 6 0.000887 0.003619 -0.001582 -0.002172 0.006005 0.030869
#
#
# Mechanical properties :
#
#
# Convention : Reuss Voigt Hill
#
# Bulk Modulus (GPa) = 58.30919 73.50696 65.90807
# Shear Modulus (GPa) = 32.55881 37.26571 34.91226
#
# Velocity S-wave (km/s) = 3.73418 3.99499 3.86678
# Velocity P-wave (km/s) = 6.60034 7.26368 6.93994
#
# Compressibility (1/GPa) = 0.01714996
#
# Stress axis : x y z
#
# Youngs Moduli (GPa) = 83.98707 64.10049 114.65908
#
# Poissons Ratio (x) = 0.15756 0.54013
# Poissons Ratio (y) = 0.20644 0.27181
# Poissons Ratio (z) = 0.39564 0.15196
#
# Static dielectric constant tensor:
#      x y z
#    x 4.367490 -0.049030 0.099370 
#    y -0.049030 4.447910 -0.078450 
#    z 0.099370 -0.078450 4.665550 
# 
# 
# High freq. dielectric constant tensor:
#      x y z
#    x 1.919380 -0.000630 0.006560 
#    y -0.000630 1.929340 0.002110 
#    z 0.006560 0.002110 1.935620 
# 
# From -- ./inp_files/473430.got.cif
#   From: 2010.06.25/outbox.cif.g09.slc.cpg/sg2_237_cif.got.tgz:473430.got - 2010.06.27 13:26:56.
