data_PCOD8033712
_publ_section_title
;
Structure prediction by ZEFSAII (Michael W. Deem and Ramdas Pophale) SiO2 
 PCOD8033712
Probable space group: P -1
;
_chemical_formula_sum "Si O2"
_cell_formula_units_Z 14
_cell_length_a 16.040230
_cell_length_b 15.651801
_cell_length_c 10.007745
_cell_angle_alpha 144.299598
_cell_angle_beta 34.951767
_cell_angle_gamma 152.965634
_cell_volume 620.951164
_symmetry_space_group_name_H-M "P -1"
_symmetry_group_IT_number 2
_symmetry_cell_setting 'triclinic'
loop_
_space_group_symop_operation_xyz
x,y,z
-x,-y,-z
loop_
_atom_site_type_symbol
_atom_site_label
_atom_site_fract_x
_atom_site_fract_y
_atom_site_fract_z
Si Si1 0.777219 0.832225 0.226728
Si Si2 0.435858 0.610985 0.782284
Si Si3 0.981060 0.598320 0.032606
Si Si4 0.169769 0.665017 0.583750
Si Si5 0.195974 0.991191 0.842423
Si Si6 0.437860 0.593639 0.057022
Si Si7 0.823081 0.972637 0.634925
O O1 0.791991 0.985251 0.305794
O O2 0.736355 0.855028 0.459175
O O3 0.609744 0.609064 0.098999
O O4 0.974797 0.870566 0.024274
O O5 0.500000 0.500000 0.500000
O O6 0.252315 0.542701 0.852636
O O7 0.628785 0.846235 0.823101
O O8 0.353767 0.546397 0.957693
O O9 0.089965 0.810038 0.220815
O O10 0.000000 0.500000 0.000000
O O11 0.088485 0.627188 0.791310
O O12 0.334487 0.648972 0.353623
O O13 0.000000 0.500000 0.500000
O O14 0.260163 0.876587 0.670660
O O15 0.330227 0.213576 0.007011
O O16 0.000000 0.000000 0.500000
#
# Coordination Sequence:
#
# PCOD8033712 Si02
#       7
#     2   2   2   2   2   2   2
#     4  11  24  41  65 105 138 174 228 301 333 410
#     4  12  23  43  73 103 138 187 233 287 351 422
#     4  12  29  47  71 108 143 187 234 294 351 417
#     4  12  24  48  70  94 144 184 226 280 350 416
#     4  11  25  41  68 101 136 182 230 281 355 406
#     4  12  23  44  74  98 136 182 237 279 351 416
#     4  12  24  43  71 101 145 185 237 282 361 419
#
# _framework density 22.546054000000002
#
# number of rings (size 3 to 8) (size 9 to 14) (size 15 to 20)
#    0.000    0.286    5.714    3.429    2.000    1.714 
#    0.000    0.000    0.000    0.000    0.000    0.000 
#    0.000    0.000    0.000    0.000    0.000    0.000 
#
# Total GULP energy -173568.027319 kJ/mol
# GULP energy per Si atom -12397.716237 kJ/mol
# Density = 2.249474 g / cm^3
# Si number density = 22.546054 Si / 1000 Ang^3
#
#
#
# Elastic Constant Matrix: (Units=GPa)
#
#
# Indices 1 2 3 4 5 6 
#
# 1 74.8778 24.8141 36.9917 -2.3690 6.8645 -26.8035
# 2 24.8141 149.6767 36.1140 12.2335 -3.2920 -6.0622
# 3 36.9917 36.1140 105.6488 1.9364 7.4279 -14.9979
# 4 -2.3690 12.2335 1.9364 37.8941 0.9044 -0.5970
# 5 6.8645 -3.2920 7.4279 0.9044 30.7732 3.6778
# 6 -26.8035 -6.0622 -14.9979 -0.5970 3.6778 48.5791
#
#
#
# Elastic Compliance Matrix: (Units=1/GPa)
#
#
# Indices 1 2 3 4 5 6 
#
# 1 0.020517 -0.002170 -0.004721 0.002500 -0.004937 0.009996
# 2 -0.002170 0.007772 -0.002145 -0.002601 0.002038 -0.001076
# 3 -0.004721 -0.002145 0.012160 -0.000154 -0.002232 0.001049
# 4 0.002500 -0.002601 -0.000154 0.027459 -0.001782 0.001480
# 5 -0.004937 0.002038 -0.002232 -0.001782 0.035104 -0.005839
# 6 0.009996 -0.001076 0.001049 0.001480 -0.005839 0.026750
#
#
# Mechanical properties :
#
#
# Convention : Reuss Voigt Hill
#
# Bulk Modulus (GPa) = 44.69180 58.44921 51.57050
# Shear Modulus (GPa) = 32.19669 38.93485 35.56577
#
# Velocity S-wave (km/s) = 3.78304 4.16011 3.97605
# Velocity P-wave (km/s) = 6.24078 7.00400 6.63338
#
# Compressibility (1/GPa) = 0.02237547
#
# Stress axis : x y z
#
# Youngs Moduli (GPa) = 48.74051 128.66191 82.23359
#
# Poissons Ratio (x) = 0.27922 0.38827
# Poissons Ratio (y) = 0.10578 0.17642
# Poissons Ratio (z) = 0.23013 0.27602
#
# Static dielectric constant tensor:
#      x y z
#    x 4.023630 -0.774100 0.214040 
#    y -0.774100 -1.601390 0.926870 
#    z 0.214040 0.926870 4.018000 
# 
# 
# High freq. dielectric constant tensor:
#      x y z
#    x 1.895640 -0.000080 0.012930 
#    y -0.000080 1.914490 0.001200 
#    z 0.012930 0.001200 1.875430 
# 
# From -- ./inp_files/246032.got.cif
#   From: 2010.06.25/outbox.cif.g09.slc.cpg/sg2_124_cif.got.tgz:246032.got - 2010.06.27 13:26:56.
