data_PCOD8033756
_publ_section_title
;
Structure prediction by ZEFSAII (Michael W. Deem and Ramdas Pophale) SiO2 
 PCOD8033756
Probable space group: P -1
;
_chemical_formula_sum "Si O2"
_cell_formula_units_Z 10
_cell_length_a 9.222150
_cell_length_b 7.415833
_cell_length_c 10.068922
_cell_angle_alpha 119.965414
_cell_angle_beta 44.278935
_cell_angle_gamma 97.302463
_cell_volume 385.063213
_symmetry_space_group_name_H-M "P -1"
_symmetry_group_IT_number 2
_symmetry_cell_setting 'triclinic'
loop_
_space_group_symop_operation_xyz
x,y,z
-x,-y,-z
loop_
_atom_site_type_symbol
_atom_site_label
_atom_site_fract_x
_atom_site_fract_y
_atom_site_fract_z
Si Si1 0.706747 0.324791 0.377133
Si Si2 0.013920 0.836993 0.257434
Si Si3 0.463695 0.466346 0.855435
Si Si4 0.171547 0.188168 0.903324
Si Si5 0.929884 0.323129 0.560606
O O1 0.500000 0.500000 0.500000
O O2 0.660350 0.386023 0.584083
O O3 0.727081 0.075617 0.229652
O O4 0.947823 0.333134 0.185812
O O5 0.932516 0.766876 0.425347
O O6 0.883551 0.765617 0.200340
O O7 0.283654 0.708125 0.019379
O O8 0.967819 0.099298 0.367371
O O9 0.359719 0.276611 0.859299
O O10 0.661350 0.443878 0.831618
O O11 0.000000 0.500000 0.500000
#
# Coordination Sequence:
#
# PCOD8033756 Si02
#       5
#     2   2   2   2   2
#     4  11  24  41  70 111 144 187 227 297 372 421
#     4  11  25  49  72 105 145 190 239 299 357 426
#     4  12  25  45  75 106 141 188 238 300 360 421
#     4  11  25  45  74 110 144 180 243 300 360 428
#     4  11  28  49  72 103 147 197 243 289 358 436
#
# _framework density 25.969763
#
# number of rings (size 3 to 8) (size 9 to 14) (size 15 to 20)
#    0.000    0.800    4.000    1.800    2.800    0.800 
#    3.600    0.000    0.000    0.000    0.000    0.000 
#    0.000    0.000    0.000    0.000    0.000    0.000 
#
# Total GULP energy -123995.098197 kJ/mol
# GULP energy per Si atom -12399.509820 kJ/mol
# Density = 2.591065 g / cm^3
# Si number density = 25.969763 Si / 1000 Ang^3
#
#
#
# Elastic Constant Matrix: (Units=GPa)
#
#
# Indices 1 2 3 4 5 6 
#
# 1 136.8237 61.3800 25.7705 -1.4790 -14.6554 6.1269
# 2 61.3800 157.1120 43.2740 0.0343 -6.9407 -3.7492
# 3 25.7705 43.2740 117.2661 8.5899 -16.2234 -6.1021
# 4 -1.4790 0.0343 8.5899 53.8621 -5.5498 -8.7651
# 5 -14.6554 -6.9407 -16.2234 -5.5498 46.1993 8.7465
# 6 6.1269 -3.7492 -6.1021 -8.7651 8.7465 39.6934
#
#
#
# Elastic Compliance Matrix: (Units=1/GPa)
#
#
# Indices 1 2 3 4 5 6 
#
# 1 0.009360 -0.003442 -0.000550 0.000238 0.002743 -0.002406
# 2 -0.003442 0.008366 -0.002416 0.000396 -0.000868 0.001229
# 3 -0.000550 -0.002416 0.010037 -0.001247 0.002739 0.000521
# 4 0.000238 0.000396 -0.001247 0.019530 0.001318 0.003831
# 5 0.002743 -0.000868 0.002739 0.001318 0.024488 -0.005189
# 6 -0.002406 0.001229 0.000521 0.003831 -0.005189 0.027750
#
#
# Mechanical properties :
#
#
# Convention : Reuss Voigt Hill
#
# Bulk Modulus (GPa) = 66.89856 74.67231 70.78544
# Shear Modulus (GPa) = 42.61476 46.66944 44.64210
#
# Velocity S-wave (km/s) = 4.05524 4.24378 4.15058
# Velocity P-wave (km/s) = 6.90961 7.26835 7.09125
#
# Compressibility (1/GPa) = 0.01494800
#
# Stress axis : x y z
#
# Youngs Moduli (GPa) = 106.83297 119.53433 99.62668
#
# Poissons Ratio (x) = 0.41140 0.05481
# Poissons Ratio (y) = 0.36768 0.24070
# Poissons Ratio (z) = 0.05877 0.28880
#
# Static dielectric constant tensor:
#      x y z
#    x 5.215500 -0.272500 0.461420 
#    y -0.272500 4.447220 0.026920 
#    z 0.461420 0.026920 5.665650 
# 
# 
# High freq. dielectric constant tensor:
#      x y z
#    x 2.075320 -0.017300 0.011290 
#    y -0.017300 2.026280 0.012490 
#    z 0.011290 0.012490 2.079460 
# 
# From -- ./inp_files/375160.got.cif
#   From: 2010.06.25/outbox.cif.g09.slc.cpg/sg2_188_cif.got.tgz:375160.got - 2010.06.27 13:26:56.
