data_PCOD8033666
_publ_section_title
;
Structure prediction by ZEFSAII (Michael W. Deem and Ramdas Pophale) SiO2 
 PCOD8033666
Probable space group: P -1
;
_chemical_formula_sum "Si O2"
_cell_formula_units_Z 14
_cell_length_a 17.017664
_cell_length_b 7.795282
_cell_length_c 7.203526
_cell_angle_alpha 142.461193
_cell_angle_beta 86.496386
_cell_angle_gamma 89.794490
_cell_volume 579.026591
_symmetry_space_group_name_H-M "P -1"
_symmetry_group_IT_number 2
_symmetry_cell_setting 'triclinic'
loop_
_space_group_symop_operation_xyz
x,y,z
-x,-y,-z
loop_
_atom_site_type_symbol
_atom_site_label
_atom_site_fract_x
_atom_site_fract_y
_atom_site_fract_z
Si Si1 0.910580 0.404381 0.154180
Si Si2 0.189990 0.102420 0.231779
Si Si3 0.775048 0.963655 0.246052
Si Si4 0.412143 0.414596 0.432190
Si Si5 0.946301 0.829667 0.222810
Si Si6 0.326435 0.517301 0.159117
Si Si7 0.647392 0.128946 0.887061
O O1 0.871982 0.624930 0.497177
O O2 0.917271 0.548464 0.077022
O O3 0.001353 0.262920 0.050533
O O4 0.853913 0.163587 0.936619
O O5 0.267513 0.054754 0.309420
O O6 0.223686 0.123153 0.041838
O O7 0.864512 0.000526 0.329234
O O8 0.735257 0.273052 0.543312
O O9 0.722174 0.726866 0.140267
O O10 0.500000 0.500000 0.500000
O O11 0.387602 0.388873 0.196724
O O12 0.413514 0.107555 0.269044
O O13 0.354698 0.651401 0.751516
O O14 0.000000 0.000000 0.500000
O O15 0.371356 0.686402 0.138745
#
# Coordination Sequence:
#
# PCOD8033666 Si02
#       7
#     2   2   2   2   2   2   2
#     4  11  24  40  64  91 132 181 233 289 357 410
#     4  12  22  43  66  98 132 181 242 292 346 418
#     4  12  26  43  71  96 143 186 241 299 345 422
#     4  12  26  48  75 112 149 180 233 294 350 433
#     4  11  25  45  61  96 138 183 240 298 360 407
#     4  12  25  48  73 107 143 192 240 285 357 421
#     4  12  25  45  75 107 146 191 233 288 358 421
#
# _framework density 24.178508999999998
#
# number of rings (size 3 to 8) (size 9 to 14) (size 15 to 20)
#    0.000    0.286    4.286    4.714    4.000    2.286 
#    0.000    0.000    0.000    0.000    0.000    0.000 
#    0.000    0.000    0.000    0.000    0.000    0.000 
#
# Total GULP energy -173464.404229 kJ/mol
# GULP energy per Si atom -12390.314588 kJ/mol
# Density = 2.412348 g / cm^3
# Si number density = 24.178509 Si / 1000 Ang^3
#
#
#
# Elastic Constant Matrix: (Units=GPa)
#
#
# Indices 1 2 3 4 5 6 
#
# 1 107.9045 40.4186 17.0830 8.4193 18.3023 -0.9638
# 2 40.4186 117.0475 18.6196 12.2136 16.8801 14.1716
# 3 17.0830 18.6196 103.5027 17.2509 8.6740 0.6724
# 4 8.4193 12.2136 17.2509 33.2077 9.7872 9.8808
# 5 18.3023 16.8801 8.6740 9.7872 35.4247 4.0609
# 6 -0.9638 14.1716 0.6724 9.8808 4.0609 34.9403
#
#
#
# Elastic Compliance Matrix: (Units=1/GPa)
#
#
# Indices 1 2 3 4 5 6 
#
# 1 0.011472 -0.003449 -0.000822 -0.000704 -0.004165 0.002414
# 2 -0.003449 0.010807 -0.001033 -0.000646 -0.002479 -0.003988
# 3 -0.000822 -0.001033 0.010924 -0.005487 -0.000447 0.001790
# 4 -0.000704 -0.000646 -0.005487 0.038465 -0.007505 -0.009657
# 5 -0.004165 -0.002479 -0.000447 -0.007505 0.033849 -0.000913
# 6 0.002414 -0.003988 0.001790 -0.009657 -0.000913 0.033107
#
#
# Mechanical properties :
#
#
# Convention : Reuss Voigt Hill
#
# Bulk Modulus (GPa) = 44.26178 53.41078 48.83628
# Shear Modulus (GPa) = 31.89490 37.53677 34.71583
#
# Velocity S-wave (km/s) = 3.63594 3.94443 3.79332
# Velocity P-wave (km/s) = 5.99773 6.54850 6.27916
#
# Compressibility (1/GPa) = 0.02259286
#
# Stress axis : x y z
#
# Youngs Moduli (GPa) = 87.16505 92.53538 91.54538
#
# Poissons Ratio (x) = 0.31916 0.07529
# Poissons Ratio (y) = 0.30064 0.09461
# Poissons Ratio (z) = 0.07168 0.09563
#
# Static dielectric constant tensor:
#      x y z
#    x 4.572970 0.137760 -0.254440 
#    y 0.137760 4.507150 0.215450 
#    z -0.254440 0.215450 4.369010 
# 
# 
# High freq. dielectric constant tensor:
#      x y z
#    x 1.958500 0.023540 -0.008270 
#    y 0.023540 1.956420 0.016630 
#    z -0.008270 0.016630 1.969800 
# 
# From -- ./inp_files/329724.got.cif
#   From: 2010.06.25/outbox.cif.g09.slc.cpg/sg2_165_cif.got.tgz:329724.got - 2010.06.27 13:26:56.
