data_PCOD8033219
_publ_section_title
;
Structure prediction by ZEFSAII (Michael W. Deem and Ramdas Pophale) SiO2 
 PCOD8033219
Probable space group: P -1
;
_chemical_formula_sum "Si O2"
_cell_formula_units_Z 14
_cell_length_a 9.363215
_cell_length_b 19.479996
_cell_length_c 9.750497
_cell_angle_alpha 36.034355
_cell_angle_beta 138.531954
_cell_angle_gamma 146.007923
_cell_volume 567.853023
_symmetry_space_group_name_H-M "P -1"
_symmetry_group_IT_number 2
_symmetry_cell_setting 'triclinic'
loop_
_space_group_symop_operation_xyz
x,y,z
-x,-y,-z
loop_
_atom_site_type_symbol
_atom_site_label
_atom_site_fract_x
_atom_site_fract_y
_atom_site_fract_z
Si Si1 0.965086 0.995019 0.718815
Si Si2 0.545379 0.572970 0.772247
Si Si3 0.811328 0.165336 0.510900
Si Si4 0.452209 0.012179 0.143366
Si Si5 0.140058 0.687503 0.956109
Si Si6 0.332837 0.152646 0.495797
Si Si7 0.750467 0.545330 0.518821
O O1 0.072888 0.090521 0.503249
O O2 0.916118 0.078659 0.659634
O O3 0.161803 0.964758 0.976925
O O4 0.718474 0.851149 0.701262
O O5 0.479936 0.687440 0.574608
O O6 0.329128 0.469687 0.672817
O O7 0.840358 0.638482 0.826209
O O8 0.500000 0.500000 0.000000
O O9 0.747952 0.245628 0.223114
O O10 0.026644 0.288495 0.568499
O O11 0.559414 0.047838 0.612070
O O12 0.666484 0.182265 0.011875
O O13 0.535485 0.931393 0.234194
O O14 0.153452 0.554280 0.209017
O O15 0.500000 0.500000 0.500000
#
# Coordination Sequence:
#
# PCOD8033219 Si02
#       7
#     2   2   2   2   2   2   2
#     4  11  23  46  70 105 146 189 236 304 366 433
#     4  12  29  49  75 106 149 198 250 303 366 446
#     4  12  25  48  72 113 145 192 245 305 368 438
#     4  12  26  42  77 108 145 186 247 303 369 432
#     4  12  25  49  75 105 149 193 243 306 367 434
#     4  11  23  45  70 102 146 187 246 295 367 430
#     4  12  27  49  77 105 152 198 246 300 371 443
#
# _framework density 24.654266
#
# number of rings (size 3 to 8) (size 9 to 14) (size 15 to 20)
#    0.000    0.286    4.286    4.286    4.000    1.714 
#    0.000    0.000    0.000    0.000    0.000    0.000 
#    0.000    0.000    0.000    0.000    0.000    0.000 
#
# Total GULP energy -173511.678764 kJ/mol
# GULP energy per Si atom -12393.691340 kJ/mol
# Density = 2.459815 g / cm^3
# Si number density = 24.654266 Si / 1000 Ang^3
#
#
#
# Elastic Constant Matrix: (Units=GPa)
#
#
# Indices 1 2 3 4 5 6 
#
# 1 68.1958 39.2350 7.0984 -14.5387 17.0593 -23.8457
# 2 39.2350 135.9282 25.3504 0.6105 10.1775 -31.8245
# 3 7.0984 25.3504 69.7593 14.4060 10.0970 -7.1298
# 4 -14.5387 0.6105 14.4060 40.3949 1.5397 -1.8380
# 5 17.0593 10.1775 10.0970 1.5397 48.2275 -2.1853
# 6 -23.8457 -31.8245 -7.1298 -1.8380 -2.1853 40.2558
#
#
#
# Elastic Compliance Matrix: (Units=1/GPa)
#
#
# Indices 1 2 3 4 5 6 
#
# 1 0.025204 -0.003795 -0.000994 0.010314 -0.007700 0.011806
# 2 -0.003795 0.010207 -0.002716 -0.000310 0.000008 0.005326
# 3 -0.000994 -0.002716 0.017069 -0.006317 -0.002453 -0.000134
# 4 0.010314 -0.000310 -0.006317 0.031112 -0.002982 0.006005
# 5 -0.007700 0.000008 -0.002453 -0.002982 0.023892 -0.003828
# 6 0.011806 0.005326 -0.000134 0.006005 -0.003828 0.036088
#
#
# Mechanical properties :
#
#
# Convention : Reuss Voigt Hill
#
# Bulk Modulus (GPa) = 26.68870 46.36122 36.52496
# Shear Modulus (GPa) = 29.22762 39.25562 34.24162
#
# Velocity S-wave (km/s) = 3.44684 3.99462 3.73080
# Velocity P-wave (km/s) = 5.16620 6.33414 5.77975
#
# Compressibility (1/GPa) = 0.03746904
#
# Stress axis : x y z
#
# Youngs Moduli (GPa) = 39.67643 97.97667 58.58618
#
# Poissons Ratio (x) = 0.37184 0.05824
# Poissons Ratio (y) = 0.15058 0.15911
# Poissons Ratio (z) = 0.03944 0.26608
#
# Static dielectric constant tensor:
#      x y z
#    x 4.126260 0.479000 -0.680960 
#    y 0.479000 4.285300 0.494900 
#    z -0.680960 0.494900 3.968170 
# 
# 
# High freq. dielectric constant tensor:
#      x y z
#    x 1.985300 -0.020340 0.004370 
#    y -0.020340 1.992530 0.006160 
#    z 0.004370 0.006160 1.982420 
# 
# From -- ./inp_files/214175.got.cif
#   From: 2010.06.25/outbox.cif.g09.slc.cpg/sg2_108_cif.got.tgz:214175.got - 2010.06.27 13:26:56.
