data_PCOD8033286
_publ_section_title
;
Structure prediction by ZEFSAII (Michael W. Deem and Ramdas Pophale) SiO2 
 PCOD8033286
Probable space group: P -1
;
_chemical_formula_sum "Si O2"
_cell_formula_units_Z 16
_cell_length_a 11.337465
_cell_length_b 9.168304
_cell_length_c 19.095013
_cell_angle_alpha 142.729168
_cell_angle_beta 50.517582
_cell_angle_gamma 103.299303
_cell_volume 748.769792
_symmetry_space_group_name_H-M "P -1"
_symmetry_group_IT_number 2
_symmetry_cell_setting 'triclinic'
loop_
_space_group_symop_operation_xyz
x,y,z
-x,-y,-z
loop_
_atom_site_type_symbol
_atom_site_label
_atom_site_fract_x
_atom_site_fract_y
_atom_site_fract_z
Si Si1 0.309572 0.156440 0.089929
Si Si2 0.180579 0.480600 0.652338
Si Si3 0.772569 0.283259 0.003184
Si Si4 0.282546 0.703858 0.131152
Si Si5 0.817684 0.003406 0.212611
Si Si6 0.822791 0.716705 0.960440
Si Si7 0.451957 0.049839 0.617700
Si Si8 0.016548 0.212796 0.524737
O O1 0.330554 0.150654 0.994908
O O2 0.193773 0.487532 0.295655
O O3 0.500000 0.000000 0.000000
O O4 0.218494 0.976612 0.059327
O O5 0.231633 0.678013 0.667904
O O6 0.106573 0.363012 0.580516
O O7 0.020204 0.659739 0.841536
O O8 0.360958 0.186697 0.502745
O O9 0.610682 0.619930 0.215577
O O10 0.721410 0.249391 0.931548
O O11 0.970122 0.228223 0.926764
O O12 0.158442 0.580703 0.143082
O O13 0.151558 0.033748 0.339787
O O14 0.500000 0.500000 0.000000
O O15 0.697309 0.016154 0.328240
O O16 0.760496 0.903912 0.126977
O O17 0.500000 0.000000 0.500000
O O18 0.000000 0.000000 0.500000
#
# Coordination Sequence:
#
# PCOD8033286 Si02
#       8
#     2   2   2   2   2   2   2   2
#     4  11  25  46  72 111 143 188 240 299 360 426
#     4  11  24  46  70 103 141 184 241 296 360 433
#     4  12  26  47  69 106 146 182 240 304 359 436
#     4  12  25  44  74 106 143 195 242 294 364 430
#     4  12  25  49  69 105 143 188 241 285 376 432
#     4  11  23  45  77 100 141 195 231 294 363 438
#     4  12  28  43  70 104 142 185 238 304 358 433
#     4  11  23  45  73 101 140 190 245 291 355 432
#
# _framework density 21.368382
#
# number of rings (size 3 to 8) (size 9 to 14) (size 15 to 20)
#    0.000    0.500    6.250    3.375    5.250    0.500 
#    0.000    0.000    0.000    0.000    0.000    0.000 
#    0.000    0.000    0.000    0.000    0.000    0.000 
#
# Total GULP energy -198222.219730 kJ/mol
# GULP energy per Si atom -12388.888733 kJ/mol
# Density = 2.131975 g / cm^3
# Si number density = 21.368382 Si / 1000 Ang^3
#
#
#
# Elastic Constant Matrix: (Units=GPa)
#
#
# Indices 1 2 3 4 5 6 
#
# 1 121.8949 27.7336 58.9013 1.8837 -7.1872 -9.4633
# 2 27.7336 119.0931 62.5665 7.8285 12.1488 16.3925
# 3 58.9013 62.5665 148.2830 6.6268 3.4248 -12.5548
# 4 1.8837 7.8285 6.6268 41.7190 -8.0599 0.3653
# 5 -7.1872 12.1488 3.4248 -8.0599 39.4962 5.3688
# 6 -9.4633 16.3925 -12.5548 0.3653 5.3688 42.1358
#
#
#
# Elastic Compliance Matrix: (Units=1/GPa)
#
#
# Indices 1 2 3 4 5 6 
#
# 1 0.010462 -0.000957 -0.003736 0.000773 0.002505 0.001283
# 2 -0.000957 0.012790 -0.005390 -0.002062 -0.003195 -0.006372
# 3 -0.003736 -0.005390 0.010944 -0.000744 -0.000751 0.004621
# 4 0.000773 -0.002062 -0.000744 0.025621 0.006101 -0.000245
# 5 0.002505 -0.003195 -0.000751 0.006101 0.028351 -0.002083
# 6 0.001283 -0.006372 0.004621 -0.000245 -0.002083 0.028144
#
#
# Mechanical properties :
#
#
# Convention : Reuss Voigt Hill
#
# Bulk Modulus (GPa) = 71.27272 76.40820 73.84046
# Shear Modulus (GPa) = 35.42230 40.67483 38.04856
#
# Velocity S-wave (km/s) = 4.07590 4.36765 4.22429
# Velocity P-wave (km/s) = 7.45502 7.82754 7.64355
#
# Compressibility (1/GPa) = 0.01403061
#
# Stress axis : x y z
#
# Youngs Moduli (GPa) = 95.58345 78.18731 91.37465
#
# Poissons Ratio (x) = 0.07479 0.34137
# Poissons Ratio (y) = 0.09144 0.49251
# Poissons Ratio (z) = 0.35710 0.42143
#
# Static dielectric constant tensor:
#      x y z
#    x 3.987800 0.091670 -0.035310 
#    y 0.091670 4.403830 -0.406120 
#    z -0.035310 -0.406120 4.675900 
# 
# 
# High freq. dielectric constant tensor:
#      x y z
#    x 1.848700 0.001900 -0.000620 
#    y 0.001900 1.856780 0.009750 
#    z -0.000620 0.009750 1.836210 
# 
# From -- ./inp_files/245151.got.cif
#   From: 2010.06.25/outbox.cif.g09.slc.cpg/sg2_123_cif.got.tgz:245151.got - 2010.06.27 13:26:56.
