data_PCOD8033484
_publ_section_title
;
Structure prediction by ZEFSAII (Michael W. Deem and Ramdas Pophale) SiO2 
 PCOD8033484
Probable space group: P -1
;
_chemical_formula_sum "Si O2"
_cell_formula_units_Z 14
_cell_length_a 19.731135
_cell_length_b 11.132372
_cell_length_c 4.977837
_cell_angle_alpha 94.963034
_cell_angle_beta 80.022850
_cell_angle_gamma 151.282073
_cell_volume 512.462969
_symmetry_space_group_name_H-M "P -1"
_symmetry_group_IT_number 2
_symmetry_cell_setting 'triclinic'
loop_
_space_group_symop_operation_xyz
x,y,z
-x,-y,-z
loop_
_atom_site_type_symbol
_atom_site_label
_atom_site_fract_x
_atom_site_fract_y
_atom_site_fract_z
Si Si1 0.292453 0.805534 0.590886
Si Si2 0.875851 0.376178 0.812186
Si Si3 0.203067 0.407996 0.533870
Si Si4 0.906589 0.936280 0.852597
Si Si5 0.152231 0.892832 0.914343
Si Si6 0.473328 0.338116 0.830682
Si Si7 0.562037 0.350225 0.298101
O O1 0.194199 0.735503 0.452553
O O2 0.288684 0.661583 0.462442
O O3 0.457497 0.102412 0.500003
O O4 0.231488 0.722967 0.919609
O O5 0.907694 0.283643 0.835078
O O6 0.026808 0.682888 0.738572
O O7 0.215401 0.328546 0.270227
O O8 0.275571 0.457056 0.763274
O O9 0.034230 0.182653 0.621217
O O10 0.823954 0.927514 0.016405
O O11 0.000000 0.000000 0.000000
O O12 0.308701 0.074991 0.783584
O O13 0.507216 0.286470 0.021510
O O14 0.500000 0.500000 0.000000
O O15 0.567952 0.476865 0.518663
#
# Coordination Sequence:
#
# PCOD8033484 Si02
#       7
#     2   2   2   2   2   2   2
#     4  12  23  50  68 110 142 184 243 290 355 423
#     4  11  25  43  75 106 143 181 240 296 357 413
#     4  11  27  44  74 103 144 192 236 295 352 427
#     4  11  25  49  70 106 143 187 242 291 359 423
#     4  11  23  46  74 105 142 189 234 304 349 423
#     4  12  27  47  71 107 145 188 237 288 357 426
#     4  12  26  48  71 106 143 189 238 288 356 423
#
# _framework density 27.319047999999999
#
# number of rings (size 3 to 8) (size 9 to 14) (size 15 to 20)
#    0.000    0.571    4.286    2.571    4.000    3.429 
#    7.714    2.857    0.000    0.000    0.000    0.000 
#    0.000    0.000    0.000    0.000    0.000    0.000 
#
# Total GULP energy -173475.124226 kJ/mol
# GULP energy per Si atom -12391.080302 kJ/mol
# Density = 2.725687 g / cm^3
# Si number density = 27.319048 Si / 1000 Ang^3
#
#
#
# Elastic Constant Matrix: (Units=GPa)
#
#
# Indices 1 2 3 4 5 6 
#
# 1 119.7720 22.9222 9.9375 10.1272 2.9464 1.4388
# 2 22.9222 81.7295 10.2729 15.7952 -12.2432 24.3941
# 3 9.9375 10.2729 80.2437 8.9444 6.1515 16.3591
# 4 10.1272 15.7952 8.9444 33.4263 10.9284 -8.1290
# 5 2.9464 -12.2432 6.1515 10.9284 32.7771 6.6802
# 6 1.4388 24.3941 16.3591 -8.1290 6.6802 56.1448
#
#
#
# Elastic Compliance Matrix: (Units=1/GPa)
#
#
# Indices 1 2 3 4 5 6 
#
# 1 0.009087 -0.003417 -0.000920 0.000349 -0.002415 0.001858
# 2 -0.003417 0.025447 0.001559 -0.022231 0.020411 -0.017070
# 3 -0.000920 0.001559 0.014138 -0.006044 0.001207 -0.005792
# 4 0.000349 -0.022231 -0.006044 0.057883 -0.031292 0.023515
# 5 -0.002415 0.020411 0.001207 -0.031292 0.052623 -0.019950
# 6 0.001858 -0.017070 -0.005792 0.023515 -0.019950 0.032646
#
#
# Mechanical properties :
#
#
# Convention : Reuss Voigt Hill
#
# Bulk Modulus (GPa) = 23.19354 40.89004 32.04179
# Shear Modulus (GPa) = 23.61242 40.37713 31.99477
#
# Velocity S-wave (km/s) = 2.94312 3.84863 3.42592
# Velocity P-wave (km/s) = 4.47857 5.89486 5.23483
#
# Compressibility (1/GPa) = 0.04311545
#
# Stress axis : x y z
#
# Youngs Moduli (GPa) = 110.04678 39.29759 70.72910
#
# Poissons Ratio (x) = 0.13427 0.06510
# Poissons Ratio (y) = 0.37600 -0.11025
# Poissons Ratio (z) = 0.10129 -0.06125
#
# Static dielectric constant tensor:
#      x y z
#    x 5.044290 0.230910 -0.122560 
#    y 0.230910 5.727460 0.003000 
#    z -0.122560 0.003000 4.996330 
# 
# 
# High freq. dielectric constant tensor:
#      x y z
#    x 2.102120 0.007520 -0.001980 
#    y 0.007520 2.121150 0.009930 
#    z -0.001980 0.009930 2.085540 
# 
# From -- ./inp_files/118725.got.cif
#   From: 2010.06.25/outbox.cif.g09.slc.cpg/sg2_60_cif.got.tgz:118725.got - 2010.06.27 13:26:56.
