data_PCOD8033375
_publ_section_title
;
Structure prediction by ZEFSAII (Michael W. Deem and Ramdas Pophale) SiO2 
 PCOD8033375
Probable space group: P -1
;
_chemical_formula_sum "Si O2"
_cell_formula_units_Z 16
_cell_length_a 8.621630
_cell_length_b 8.733913
_cell_length_c 11.982211
_cell_angle_alpha 83.520386
_cell_angle_beta 84.838714
_cell_angle_gamma 127.418109
_cell_volume 697.508399
_symmetry_space_group_name_H-M "P -1"
_symmetry_group_IT_number 2
_symmetry_cell_setting 'triclinic'
loop_
_space_group_symop_operation_xyz
x,y,z
-x,-y,-z
loop_
_atom_site_type_symbol
_atom_site_label
_atom_site_fract_x
_atom_site_fract_y
_atom_site_fract_z
Si Si1 0.676178 0.473441 0.108064
Si Si2 0.973331 0.851139 0.925471
Si Si3 0.734512 0.798691 0.746338
Si Si4 0.428948 0.787716 0.499070
Si Si5 0.720571 0.151133 0.699519
Si Si6 0.210206 0.208107 0.495055
Si Si7 0.841206 0.580437 0.320986
Si Si8 0.373945 0.907432 0.903488
O O1 0.439061 0.353506 0.142605
O O2 0.764527 0.597070 0.207331
O O3 0.708761 0.313113 0.098376
O O4 0.782914 0.628047 0.987805
O O5 0.935241 0.894758 0.798641
O O6 0.179701 0.890435 0.913643
O O7 0.000000 0.000000 0.000000
O O8 0.722756 0.689782 0.641779
O O9 0.721134 0.967170 0.686991
O O10 0.287197 0.726273 0.407397
O O11 0.618297 0.794519 0.464329
O O12 0.293842 0.651075 0.623225
O O13 0.500000 0.000000 0.500000
O O14 0.930660 0.320972 0.729076
O O15 0.527458 0.067700 0.790790
O O16 0.181299 0.324756 0.576802
O O17 0.000000 0.000000 0.500000
O O18 0.500000 0.000000 0.000000
#
# Coordination Sequence:
#
# PCOD8033375 Si02
#       8
#     2   2   2   2   2   2   2   2
#     4  11  24  47  73 101 143 183 231 293 350 421
#     4  12  26  45  78 105 137 184 233 294 359 413
#     4  11  23  46  67 104 144 182 231 289 345 412
#     4  12  23  44  69 101 138 189 233 282 351 406
#     4  11  24  43  68 101 142 187 229 289 338 422
#     4  12  25  44  72 103 148 183 233 291 345 417
#     4  12  24  46  70 105 145 185 233 289 350 411
#     4  11  25  49  73 103 139 183 236 291 354 417
#
# _framework density 22.938790999999998
#
# number of rings (size 3 to 8) (size 9 to 14) (size 15 to 20)
#    0.000    0.500    3.750    5.250    1.750    0.000 
#    6.750    0.000    0.000    0.000    0.000    0.000 
#    0.000    0.000    0.000    0.000    0.000    0.000 
#
# Total GULP energy -198260.234397 kJ/mol
# GULP energy per Si atom -12391.264650 kJ/mol
# Density = 2.288658 g / cm^3
# Si number density = 22.938791 Si / 1000 Ang^3
#
#
#
# Elastic Constant Matrix: (Units=GPa)
#
#
# Indices 1 2 3 4 5 6 
#
# 1 140.6909 40.8278 50.5012 3.3202 6.3784 14.9270
# 2 40.8278 86.5346 13.1236 1.6513 -8.0546 6.4537
# 3 50.5012 13.1236 93.4218 13.9541 10.2028 -7.5683
# 4 3.3202 1.6513 13.9541 51.2034 11.8506 -7.4069
# 5 6.3784 -8.0546 10.2028 11.8506 43.4791 4.2623
# 6 14.9270 6.4537 -7.5683 -7.4069 4.2623 30.4661
#
#
#
# Elastic Compliance Matrix: (Units=1/GPa)
#
#
# Indices 1 2 3 4 5 6 
#
# 1 0.010979 -0.003901 -0.005853 0.000264 -0.000456 -0.005879
# 2 -0.003901 0.013949 -0.000225 -0.001283 0.003749 -0.001936
# 3 -0.005853 -0.000225 0.015049 -0.002129 -0.002774 0.006524
# 4 0.000264 -0.001283 -0.002129 0.022506 -0.006499 0.005994
# 5 -0.000456 0.003749 -0.002774 -0.006499 0.026829 -0.006593
# 6 -0.005879 -0.001936 0.006524 0.005994 -0.006593 0.040114
#
#
# Mechanical properties :
#
#
# Convention : Reuss Voigt Hill
#
# Bulk Modulus (GPa) = 49.95434 58.83916 54.39675
# Shear Modulus (GPa) = 32.03961 39.44270 35.74115
#
# Velocity S-wave (km/s) = 3.74136 4.15115 3.95157
# Velocity P-wave (km/s) = 6.36303 6.97727 6.67722
#
# Compressibility (1/GPa) = 0.02001828
#
# Stress axis : x y z
#
# Youngs Moduli (GPa) = 91.08344 71.69146 66.44940
#
# Poissons Ratio (x) = 0.27969 0.38891
# Poissons Ratio (y) = 0.35535 0.01495
# Poissons Ratio (z) = 0.53309 0.01613
#
# Static dielectric constant tensor:
#      x y z
#    x 4.140820 0.238710 -0.450700 
#    y 0.238710 4.300440 0.096070 
#    z -0.450700 0.096070 3.891560 
# 
# 
# High freq. dielectric constant tensor:
#      x y z
#    x 1.911310 0.024530 0.001240 
#    y 0.024530 1.908250 -0.000180 
#    z 0.001240 -0.000180 1.916130 
# 
# From -- ./inp_files/207526.got.cif
#   From: 2010.06.25/outbox.cif.g09.slc.cpg/sg2_104_cif.got.tgz:207526.got - 2010.06.27 13:26:56.
