data_PCOD8033708
_publ_section_title
;
Structure prediction by ZEFSAII (Michael W. Deem and Ramdas Pophale) SiO2 
 PCOD8033708
Probable space group: P -1
;
_chemical_formula_sum "Si O2"
_cell_formula_units_Z 14
_cell_length_a 8.378625
_cell_length_b 9.466072
_cell_length_c 17.682192
_cell_angle_alpha 66.327034
_cell_angle_beta 78.075735
_cell_angle_gamma 32.076514
_cell_volume 655.849280
_symmetry_space_group_name_H-M "P -1"
_symmetry_group_IT_number 2
_symmetry_cell_setting 'triclinic'
loop_
_space_group_symop_operation_xyz
x,y,z
-x,-y,-z
loop_
_atom_site_type_symbol
_atom_site_label
_atom_site_fract_x
_atom_site_fract_y
_atom_site_fract_z
Si Si1 0.978869 0.288489 0.337258
Si Si2 0.647244 0.812483 0.951343
Si Si3 0.156863 0.229139 0.500000
Si Si4 0.695572 0.199799 0.337256
Si Si5 0.255465 0.833471 0.951344
Si Si6 0.524287 0.915403 0.245405
Si Si7 0.033525 0.151570 0.754596
O O1 0.860895 0.208567 0.361045
O O2 0.710772 0.615929 0.262658
O O3 0.999147 0.317129 0.417048
O O4 0.293309 0.063964 0.306154
O O5 0.457105 0.814349 0.957098
O O6 0.654565 0.901639 0.853421
O O7 0.000000 0.500000 0.000000
O O8 0.500000 0.000000 0.000000
O O9 0.000000 0.500000 0.500000
O O10 0.500000 0.000000 0.500000
O O11 0.165094 0.068233 0.582955
O O12 0.318925 0.517561 0.306134
O O13 0.814688 0.096030 0.262674
O O14 0.052329 0.038056 0.853425
O O15 0.500000 0.500000 0.000000
O O16 0.000000 0.000000 0.000000
O O17 0.761216 0.858130 0.261322
#
# Coordination Sequence:
#
# PCOD8033708 Si02
#       7
#     2   2   2   2   2   2   2
#     4  12  25  42  66  98 129 162 211 269 316 368
#     4  11  24  41  64  93 128 168 214 264 316 377
#     4  12  25  44  69  94 127 172 211 254 317 388
#     4  12  25  42  66  98 129 162 211 269 316 368
#     4  11  24  41  64  93 128 168 214 264 316 377
#     4  11  24  43  65  92 128 172 214 256 316 387
#     4  11  24  43  65  92 128 172 214 256 316 387
#
# _framework density 21.346367999999998
#
# number of rings (size 3 to 8) (size 9 to 14) (size 15 to 20)
#    0.000    0.571    0.000    9.000    0.000   11.429 
#    0.000    4.286    0.000    0.000    0.000    0.000 
#    0.000    0.000    0.000    0.000    0.000    0.000 
#
# Total GULP energy -173517.404933 kJ/mol
# GULP energy per Si atom -12394.100352 kJ/mol
# Density = 2.129778 g / cm^3
# Si number density = 21.346368 Si / 1000 Ang^3
#
#
#
# Elastic Constant Matrix: (Units=GPa)
#
#
# Indices 1 2 3 4 5 6 
#
# 1 103.6307 49.7859 72.8357 0.8299 4.1572 8.6930
# 2 49.7859 162.0976 48.9559 -0.4214 0.3122 -2.1712
# 3 72.8357 48.9559 123.8487 -1.6005 -2.3413 0.4069
# 4 0.8299 -0.4214 -1.6005 43.7966 5.5135 -0.2509
# 5 4.1572 0.3122 -2.3413 5.5135 34.3364 -0.6034
# 6 8.6930 -2.1712 0.4069 -0.2509 -0.6034 47.9392
#
#
#
# Elastic Compliance Matrix: (Units=1/GPa)
#
#
# Indices 1 2 3 4 5 6 
#
# 1 0.018115 -0.002694 -0.009636 -0.000385 -0.002823 -0.003363
# 2 -0.002694 0.007414 -0.001345 0.000056 0.000173 0.000838
# 3 -0.009636 -0.001345 0.014313 0.000436 0.002113 0.001594
# 4 -0.000385 0.000056 0.000436 0.023319 -0.003666 0.000145
# 5 -0.002823 0.000173 0.002113 -0.003666 0.030212 0.000863
# 6 -0.003363 0.000838 0.001594 0.000145 0.000863 0.021506
#
#
# Mechanical properties :
#
#
# Convention : Reuss Voigt Hill
#
# Bulk Modulus (GPa) = 80.05008 81.41468 80.73238
# Shear Modulus (GPa) = 34.15510 39.74774 36.95142
#
# Velocity S-wave (km/s) = 4.00439 4.31981 4.16509
# Velocity P-wave (km/s) = 7.67868 7.94378 7.81236
#
# Compressibility (1/GPa) = 0.01249218
#
# Stress axis : x y z
#
# Youngs Moduli (GPa) = 55.20405 134.88326 69.86635
#
# Poissons Ratio (x) = 0.36340 0.67320
# Poissons Ratio (y) = 0.14873 0.09396
# Poissons Ratio (z) = 0.53192 0.18141
#
# Static dielectric constant tensor:
#      x y z
#    x 4.035080 0.058270 0.011670 
#    y 0.058270 3.985670 -0.002360 
#    z 0.011670 -0.002360 4.152740 
# 
# 
# High freq. dielectric constant tensor:
#      x y z
#    x 1.849750 0.001110 0.001020 
#    y 0.001110 1.859330 -0.000130 
#    z 0.001020 -0.000130 1.859170 
# 
# From -- ./inp_files/223965.got.cif
#   From: 2010.06.25/outbox.cif.g09.slc.cpg/sg2_112_cif.got.tgz:223965.got - 2010.06.27 13:26:56.
