data_PCOD8033417
_publ_section_title
;
Structure prediction by ZEFSAII (Michael W. Deem and Ramdas Pophale) SiO2 
 PCOD8033417
Probable space group: P -1
;
_chemical_formula_sum "Si O2"
_cell_formula_units_Z 14
_cell_length_a 9.135664
_cell_length_b 8.959921
_cell_length_c 20.334313
_cell_angle_alpha 52.426353
_cell_angle_beta 151.346980
_cell_angle_gamma 130.938145
_cell_volume 600.125516
_symmetry_space_group_name_H-M "P -1"
_symmetry_group_IT_number 2
_symmetry_cell_setting 'triclinic'
loop_
_space_group_symop_operation_xyz
x,y,z
-x,-y,-z
loop_
_atom_site_type_symbol
_atom_site_label
_atom_site_fract_x
_atom_site_fract_y
_atom_site_fract_z
Si Si1 0.403590 0.572974 0.565902
Si Si2 0.634326 0.395488 0.900104
Si Si3 0.420694 0.056568 0.798431
Si Si4 0.609514 0.701327 0.029799
Si Si5 0.312396 0.076778 0.502116
Si Si6 0.292457 0.655964 0.643313
Si Si7 0.313846 0.727392 0.284763
O O1 0.462034 0.795395 0.501844
O O2 0.359066 0.550557 0.632048
O O3 0.699018 0.497598 0.679122
O O4 0.068402 0.418266 0.450462
O O5 0.464195 0.217976 0.830154
O O6 0.589062 0.307960 0.979015
O O7 0.492207 0.579982 0.796337
O O8 0.000000 0.500000 0.000000
O O9 0.628873 0.146516 0.792873
O O10 0.051399 0.981080 0.649980
O O11 0.545888 0.877456 0.916796
O O12 0.986831 0.742389 0.183788
O O13 0.500000 0.500000 0.000000
O O14 0.390385 0.205239 0.564997
O O15 0.418957 0.887859 0.614842
#
# Coordination Sequence:
#
# PCOD8033417 Si02
#       7
#     2   2   2   2   2   2   2
#     4  11  23  46  70 109 151 195 240 312 369 449
#     4  12  28  50  77 104 151 203 255 311 369 455
#     4  12  26  50  75 107 156 198 252 305 383 448
#     4  12  29  48  77 113 149 199 255 309 379 450
#     4  12  26  42  81 110 150 195 250 313 378 438
#     4  11  24  45  73 106 150 189 260 300 372 439
#     4  12  25  48  74 112 154 196 246 313 377 446
#
# _framework density 23.328451999999999
#
# number of rings (size 3 to 8) (size 9 to 14) (size 15 to 20)
#    0.000    0.286    2.857    5.571    6.000    1.143 
#    0.000    0.000    0.000    0.000    0.000    0.000 
#    0.000    0.000    0.000    0.000    0.000    0.000 
#
# Total GULP energy -173549.752892 kJ/mol
# GULP energy per Si atom -12396.410921 kJ/mol
# Density = 2.327536 g / cm^3
# Si number density = 23.328452 Si / 1000 Ang^3
#
#
#
# Elastic Constant Matrix: (Units=GPa)
#
#
# Indices 1 2 3 4 5 6 
#
# 1 106.5505 30.7733 29.5558 15.7621 1.1085 10.8410
# 2 30.7733 133.3532 50.4516 -10.3389 -1.3644 12.5040
# 3 29.5558 50.4516 96.0746 -7.2223 -3.1045 -3.1492
# 4 15.7621 -10.3389 -7.2223 46.5790 -2.8417 -9.0008
# 5 1.1085 -1.3644 -3.1045 -2.8417 33.1818 -4.9755
# 6 10.8410 12.5040 -3.1492 -9.0008 -4.9755 38.2881
#
#
#
# Elastic Compliance Matrix: (Units=1/GPa)
#
#
# Indices 1 2 3 4 5 6 
#
# 1 0.012277 -0.001459 -0.003706 -0.006152 -0.002097 -0.005023
# 2 -0.001459 0.010047 -0.004832 0.001379 -0.000319 -0.002983
# 3 -0.003706 -0.004832 0.014591 0.003546 0.002338 0.004965
# 4 -0.006152 0.001379 0.003546 0.026257 0.004085 0.008287
# 5 -0.002097 -0.000319 0.002338 0.004085 0.031657 0.005964
# 6 -0.005023 -0.002983 0.004965 0.008287 0.005964 0.031646
#
#
# Mechanical properties :
#
#
# Convention : Reuss Voigt Hill
#
# Bulk Modulus (GPa) = 59.09192 61.94885 60.52039
# Shear Modulus (GPa) = 32.87156 38.62295 35.74725
#
# Velocity S-wave (km/s) = 3.75784 4.07334 3.91877
# Velocity P-wave (km/s) = 6.64935 6.98108 6.81723
#
# Compressibility (1/GPa) = 0.01692279
#
# Stress axis : x y z
#
# Youngs Moduli (GPa) = 81.45081 99.53504 68.53670
#
# Poissons Ratio (x) = 0.14517 0.25399
# Poissons Ratio (y) = 0.11880 0.33114
# Poissons Ratio (z) = 0.30185 0.48091
#
# Static dielectric constant tensor:
#      x y z
#    x 4.231450 0.053990 -0.094520 
#    y 0.053990 4.433120 -0.224930 
#    z -0.094520 -0.224930 4.588440 
# 
# 
# High freq. dielectric constant tensor:
#      x y z
#    x 1.930120 0.007440 -0.006480 
#    y 0.007440 1.932040 -0.012430 
#    z -0.006480 -0.012430 1.929100 
# 
# From -- ./inp_files/587867.got.cif
#   From: 2010.06.25/outbox.cif.g09.slc.cpg/sg2_294_cif.got.tgz:587867.got - 2010.06.27 13:26:56.
