data_PCOD8033858
_publ_section_title
;
Structure prediction by ZEFSAII (Michael W. Deem and Ramdas Pophale) SiO2 
 PCOD8033858
Probable space group: P -1
;
_chemical_formula_sum "Si O2"
_cell_formula_units_Z 16
_cell_length_a 9.301706
_cell_length_b 11.290452
_cell_length_c 9.199984
_cell_angle_alpha 131.916775
_cell_angle_beta 91.424022
_cell_angle_gamma 82.364236
_cell_volume 709.898786
_symmetry_space_group_name_H-M "P -1"
_symmetry_group_IT_number 2
_symmetry_cell_setting 'triclinic'
loop_
_space_group_symop_operation_xyz
x,y,z
-x,-y,-z
loop_
_atom_site_type_symbol
_atom_site_label
_atom_site_fract_x
_atom_site_fract_y
_atom_site_fract_z
Si Si1 0.454002 0.555892 0.256635
Si Si2 0.902802 0.724656 0.636088
Si Si3 0.234373 0.557347 0.707728
Si Si4 0.004004 0.224360 0.996727
Si Si5 0.235217 0.061119 0.680321
Si Si6 0.789202 0.014660 0.709990
Si Si7 0.216596 0.744860 0.593201
Si Si8 0.496323 0.765752 0.166862
O O1 0.614527 0.538651 0.314434
O O2 0.325818 0.599769 0.403417
O O3 0.440071 0.703632 0.265728
O O4 0.429120 0.387165 0.048496
O O5 0.850097 0.551410 0.488982
O O6 0.922065 0.781869 0.848066
O O7 0.049851 0.722655 0.542680
O O8 0.776071 0.845504 0.648721
O O9 0.123964 0.618752 0.889464
O O10 0.251081 0.717348 0.744364
O O11 0.929603 0.067286 0.834033
O O12 0.127819 0.217251 0.869446
O O13 0.392949 0.110415 0.700279
O O14 0.181305 0.005390 0.478455
O O15 0.246627 0.918714 0.683448
O O16 0.644289 0.141286 0.843466
#
# Coordination Sequence:
#
# PCOD8033858 Si02
#       8
#     2   2   2   2   2   2   2   2
#     4  11  24  47  67  98 135 181 222 279 331 404
#     4  11  26  44  73 100 137 176 224 282 335 398
#     4  11  25  46  70  98 135 184 220 277 340 397
#     4  11  24  45  67 100 137 175 225 277 334 399
#     4  12  26  42  71 102 137 178 224 279 335 400
#     4  12  23  47  68  98 138 179 224 278 338 393
#     4  11  24  42  69  99 138 171 225 278 333 397
#     4  11  26  44  69  96 138 177 226 276 338 395
#
# _framework density 22.538423000000002
#
# number of rings (size 3 to 8) (size 9 to 14) (size 15 to 20)
#    0.000    0.750    3.750    3.750    7.000    0.000 
#    0.000    2.500    0.000    0.000    0.000    0.000 
#    0.000    0.000    0.000    0.000    0.000    0.000 
#
# Total GULP energy -198375.344026 kJ/mol
# GULP energy per Si atom -12398.459002 kJ/mol
# Density = 2.248712 g / cm^3
# Si number density = 22.538423 Si / 1000 Ang^3
#
#
#
# Elastic Constant Matrix: (Units=GPa)
#
#
# Indices 1 2 3 4 5 6 
#
# 1 72.5889 29.4779 36.2402 1.9882 -4.4929 -6.9026
# 2 29.4779 76.7571 24.7883 11.2611 -1.6941 -10.7897
# 3 36.2402 24.7883 105.9808 -3.7553 0.3440 4.2504
# 4 1.9882 11.2611 -3.7553 18.4177 -0.9469 5.5526
# 5 -4.4929 -1.6941 0.3440 -0.9469 41.3499 3.4055
# 6 -6.9026 -10.7897 4.2504 5.5526 3.4055 29.4728
#
#
#
# Elastic Compliance Matrix: (Units=1/GPa)
#
#
# Indices 1 2 3 4 5 6 
#
# 1 0.018958 -0.004767 -0.005560 -0.001253 0.001590 0.003549
# 2 -0.004767 0.019693 -0.003900 -0.015266 -0.000821 0.009626
# 3 -0.005560 -0.003900 0.012748 0.007361 -0.000213 -0.005931
# 4 -0.001253 -0.015266 0.007361 0.071647 0.002525 -0.020734
# 5 0.001590 -0.000821 -0.000213 0.002525 0.024648 -0.003221
# 6 0.003549 0.009626 -0.005931 -0.020734 -0.003221 0.043419
#
#
# Mechanical properties :
#
#
# Convention : Reuss Voigt Hill
#
# Bulk Modulus (GPa) = 43.58194 48.48221 46.03207
# Shear Modulus (GPa) = 22.00550 28.83611 25.42081
#
# Velocity S-wave (km/s) = 3.12806 3.58078 3.36205
# Velocity P-wave (km/s) = 5.69430 6.21720 5.96149
#
# Compressibility (1/GPa) = 0.02294528
#
# Stress axis : x y z
#
# Youngs Moduli (GPa) = 52.74807 50.77861 78.44120
#
# Poissons Ratio (x) = 0.24208 0.43610
# Poissons Ratio (y) = 0.25147 0.30594
# Poissons Ratio (z) = 0.29326 0.19805
#
# Static dielectric constant tensor:
#      x y z
#    x 4.022990 -0.125130 -0.168230 
#    y -0.125130 3.946780 0.078310 
#    z -0.168230 0.078310 4.036070 
# 
# 
# High freq. dielectric constant tensor:
#      x y z
#    x 1.891830 -0.014810 -0.009510 
#    y -0.014810 1.882740 0.009690 
#    z -0.009510 0.009690 1.892500 
# 
# From -- ./inp_files/190889.got.cif
#   From: 2010.06.25/outbox.cif.g09.slc.cpg/sg2_96_cif.got.tgz:190889.got - 2010.06.27 13:26:56.
