data_PCOD8033337
_publ_section_title
;
Structure prediction by ZEFSAII (Michael W. Deem and Ramdas Pophale) SiO2 
 PCOD8033337
Probable space group: P -1
;
_chemical_formula_sum "Si O2"
_cell_formula_units_Z 16
_cell_length_a 8.929706
_cell_length_b 11.495427
_cell_length_c 14.066887
_cell_angle_alpha 51.747278
_cell_angle_beta 38.440355
_cell_angle_gamma 68.288852
_cell_volume 685.127792
_symmetry_space_group_name_H-M "P -1"
_symmetry_group_IT_number 2
_symmetry_cell_setting 'triclinic'
loop_
_space_group_symop_operation_xyz
x,y,z
-x,-y,-z
loop_
_atom_site_type_symbol
_atom_site_label
_atom_site_fract_x
_atom_site_fract_y
_atom_site_fract_z
Si Si1 0.126820 0.482176 0.824693
Si Si2 0.384652 0.108225 0.068455
Si Si3 0.428089 0.950684 0.316220
Si Si4 0.327869 0.383407 0.217804
Si Si5 0.429384 0.573172 0.252874
Si Si6 0.768382 0.367394 0.486493
Si Si7 0.316148 0.806845 0.815454
Si Si8 0.115455 0.813991 0.716805
O O1 0.298581 0.432878 0.843211
O O2 0.280082 0.523101 0.629698
O O3 0.035893 0.630007 0.832798
O O4 0.903746 0.340041 0.981658
O O5 0.360535 0.059815 0.214303
O O6 0.113442 0.121989 0.162971
O O7 0.568428 0.273175 0.883558
O O8 0.500000 0.000000 0.000000
O O9 0.683675 0.042816 0.195016
O O10 0.442036 0.792372 0.336823
O O11 0.220007 0.904104 0.524642
O O12 0.328071 0.440726 0.296677
O O13 0.427040 0.230780 0.257327
O O14 0.044559 0.339931 0.345215
O O15 0.500000 0.500000 0.000000
O O16 0.246149 0.556532 0.442816
O O17 0.321381 0.849055 0.680168
#
# Coordination Sequence:
#
# PCOD8033337 Si02
#       8
#     2   2   2   2   2   2   2   2
#     4  11  23  45  75 106 135 184 241 287 348 412
#     4  12  25  44  69  99 142 189 228 283 360 414
#     4  11  27  44  68 104 140 186 235 284 348 422
#     4  12  25  42  72 108 136 179 239 293 346 409
#     4  12  24  47  73 102 144 184 235 292 351 416
#     4  11  26  46  68 106 144 186 228 292 351 416
#     4  12  23  42  72 109 133 181 240 289 343 412
#     4  11  24  46  72 100 140 183 242 291 341 418
#
# _framework density 23.353307999999998
#
# number of rings (size 3 to 8) (size 9 to 14) (size 15 to 20)
#    0.000    0.500    5.000    3.375    7.000    0.000 
#    0.000    2.500    0.000    0.000    0.000    0.000 
#    0.000    0.000    0.000    0.000    0.000    0.000 
#
# Total GULP energy -198302.575724 kJ/mol
# GULP energy per Si atom -12393.910983 kJ/mol
# Density = 2.330015 g / cm^3
# Si number density = 23.353308 Si / 1000 Ang^3
#
#
#
# Elastic Constant Matrix: (Units=GPa)
#
#
# Indices 1 2 3 4 5 6 
#
# 1 110.4525 43.3823 42.8854 -7.6488 18.2480 21.9931
# 2 43.3823 96.6582 43.4710 1.1339 -1.5785 14.5387
# 3 42.8854 43.4710 92.4407 -9.1713 12.3999 2.3112
# 4 -7.6488 1.1339 -9.1713 39.5671 7.7111 -4.8714
# 5 18.2480 -1.5785 12.3999 7.7111 45.9506 -7.0216
# 6 21.9931 14.5387 2.3112 -4.8714 -7.0216 40.2394
#
#
#
# Elastic Compliance Matrix: (Units=1/GPa)
#
#
# Indices 1 2 3 4 5 6 
#
# 1 0.014742 -0.004029 -0.003638 0.002506 -0.006536 -0.007230
# 2 -0.004029 0.015506 -0.006272 -0.003808 0.004037 -0.002797
# 3 -0.003638 -0.006272 0.016255 0.004304 -0.003382 0.003252
# 4 0.002506 -0.003808 0.004304 0.028429 -0.006749 0.002023
# 5 -0.006536 0.004037 -0.003382 -0.006749 0.027503 0.006290
# 6 -0.007230 -0.002797 0.003252 0.002023 0.006290 0.030969
#
#
# Mechanical properties :
#
#
# Convention : Reuss Voigt Hill
#
# Bulk Modulus (GPa) = 53.69513 62.11431 57.90472
# Shear Modulus (GPa) = 29.85258 36.47227 33.16243
#
# Velocity S-wave (km/s) = 3.57921 3.95620 3.77242
# Velocity P-wave (km/s) = 6.33431 6.89377 6.61995
#
# Compressibility (1/GPa) = 0.01862366
#
# Stress axis : x y z
#
# Youngs Moduli (GPa) = 67.83524 64.49101 61.52116
#
# Poissons Ratio (x) = 0.25982 0.22384
# Poissons Ratio (y) = 0.27329 0.38587
# Poissons Ratio (z) = 0.24681 0.40450
#
# Static dielectric constant tensor:
#      x y z
#    x 4.451870 0.073740 0.250180 
#    y 0.073740 4.266920 -0.195690 
#    z 0.250180 -0.195690 4.206480 
# 
# 
# High freq. dielectric constant tensor:
#      x y z
#    x 1.937370 0.012980 0.026450 
#    y 0.012980 1.916820 -0.012340 
#    z 0.026450 -0.012340 1.921800 
# 
# From -- ./inp_files/318196.got.cif
#   From: 2010.06.25/outbox.cif.g09.slc.cpg/sg2_160_cif.got.tgz:318196.got - 2010.06.27 13:26:56.
