data_PCOD8033551
_publ_section_title
;
Structure prediction by ZEFSAII (Michael W. Deem and Ramdas Pophale) SiO2 
 PCOD8033551
Probable space group: P -1
;
_chemical_formula_sum "Si O2"
_cell_formula_units_Z 16
_cell_length_a 17.251031
_cell_length_b 11.838022
_cell_length_c 9.348961
_cell_angle_alpha 87.182910
_cell_angle_beta 137.164120
_cell_angle_gamma 126.656079
_cell_volume 730.664872
_symmetry_space_group_name_H-M "P -1"
_symmetry_group_IT_number 2
_symmetry_cell_setting 'triclinic'
loop_
_space_group_symop_operation_xyz
x,y,z
-x,-y,-z
loop_
_atom_site_type_symbol
_atom_site_label
_atom_site_fract_x
_atom_site_fract_y
_atom_site_fract_z
Si Si1 0.073287 0.574310 0.253552
Si Si2 0.069204 0.923224 0.921606
Si Si3 0.964924 0.700136 0.276933
Si Si4 0.325922 0.343478 0.162122
Si Si5 0.396432 0.407718 0.713770
Si Si6 0.103167 0.756548 0.769224
Si Si7 0.714186 0.930495 0.496735
Si Si8 0.493681 0.014821 0.822174
O O1 0.309866 0.787362 0.536015
O O2 0.962386 0.587057 0.181868
O O3 0.038577 0.434599 0.309126
O O4 0.000000 0.500000 0.000000
O O5 0.161610 0.916445 0.927163
O O6 0.825896 0.719784 0.590136
O O7 0.148183 0.114133 0.985482
O O8 0.139866 0.944957 0.174046
O O9 0.977275 0.680926 0.461881
O O10 0.762002 0.603892 0.985304
O O11 0.155813 0.933769 0.476602
O O12 0.500000 0.500000 0.500000
O O13 0.441067 0.391045 0.174883
O O14 0.388532 0.274053 0.650855
O O15 0.500000 0.500000 0.000000
O O16 0.305308 0.857127 0.994124
O O17 0.538361 0.880593 0.272846
O O18 0.500000 0.000000 0.000000
#
# Coordination Sequence:
#
# PCOD8033551 Si02
#       8
#     2   2   2   2   2   2   2   2
#     4  11  26  47  71 107 144 185 239 294 356 427
#     4  12  27  48  70 106 149 184 240 298 357 428
#     4  11  24  45  72 102 145 183 237 303 350 417
#     4  12  26  45  73 105 138 194 242 287 361 426
#     4  12  27  45  73 105 142 189 238 297 358 424
#     4  12  26  45  76 105 144 189 232 300 357 423
#     4  11  23  47  71  99 148 187 231 307 351 415
#     4  11  25  45  74 104 140 187 240 289 356 423
#
# _framework density 21.897863000000001
#
# number of rings (size 3 to 8) (size 9 to 14) (size 15 to 20)
#    0.000    0.500    5.000    3.750    3.500    6.000 
#    0.000    0.000    0.000    0.000    0.000    0.000 
#    0.000    0.000    0.000    0.000    0.000    0.000 
#
# Total GULP energy -198416.525535 kJ/mol
# GULP energy per Si atom -12401.032846 kJ/mol
# Density = 2.184802 g / cm^3
# Si number density = 21.897863 Si / 1000 Ang^3
#
#
#
# Elastic Constant Matrix: (Units=GPa)
#
#
# Indices 1 2 3 4 5 6 
#
# 1 95.7728 26.5341 44.2221 -16.6369 -6.6509 -4.4154
# 2 26.5341 87.4866 26.6510 -20.8916 -2.3627 2.2432
# 3 44.2221 26.6510 138.1621 -26.3771 -1.9556 -9.2803
# 4 -16.6369 -20.8916 -26.3771 37.7750 2.0170 -3.5452
# 5 -6.6509 -2.3627 -1.9556 2.0170 49.0033 -5.3004
# 6 -4.4154 2.2432 -9.2803 -3.5452 -5.3004 36.3073
#
#
#
# Elastic Compliance Matrix: (Units=1/GPa)
#
#
# Indices 1 2 3 4 5 6 
#
# 1 0.013167 -0.002477 -0.003192 0.002245 0.001598 0.001391
# 2 -0.002477 0.013865 -0.000799 0.005946 -0.000029 -0.000786
# 3 -0.003192 -0.000799 0.009556 0.005069 -0.000018 0.002596
# 4 0.002245 0.005946 0.005069 0.034726 -0.000141 0.004572
# 5 0.001598 -0.000029 -0.000018 -0.000141 0.020978 0.003240
# 6 0.001391 -0.000786 0.002596 0.004572 0.003240 0.029343
#
#
# Mechanical properties :
#
#
# Convention : Reuss Voigt Hill
#
# Bulk Modulus (GPa) = 42.28392 57.35954 49.82173
# Shear Modulus (GPa) = 35.09893 39.55141 37.32517
#
# Velocity S-wave (km/s) = 4.00790 4.25452 4.13305
# Velocity P-wave (km/s) = 6.38508 7.09828 6.75111
#
# Compressibility (1/GPa) = 0.02364965
#
# Stress axis : x y z
#
# Youngs Moduli (GPa) = 75.94960 72.12634 104.65120
#
# Poissons Ratio (x) = 0.17869 0.33402
# Poissons Ratio (y) = 0.18816 0.08366
# Poissons Ratio (z) = 0.24241 0.05766
#
# Static dielectric constant tensor:
#      x y z
#    x 4.326300 0.675150 -0.136820 
#    y 0.675150 5.611740 -0.431720 
#    z -0.136820 -0.431720 4.056070 
# 
# 
# High freq. dielectric constant tensor:
#      x y z
#    x 1.868810 0.007330 0.002310 
#    y 0.007330 1.872680 -0.008100 
#    z 0.002310 -0.008100 1.871920 
# 
# From -- ./inp_files/245850.got.cif
#   From: 2010.06.25/outbox.cif.g09.slc.cpg/sg2_123_cif.got.tgz:245850.got - 2010.06.27 13:26:56.
