data_PCOD8033429
_publ_section_title
;
Structure prediction by ZEFSAII (Michael W. Deem and Ramdas Pophale) SiO2 
 PCOD8033429
Probable space group: P -1
;
_chemical_formula_sum "Si O2"
_cell_formula_units_Z 16
_cell_length_a 18.753870
_cell_length_b 9.767276
_cell_length_c 19.574219
_cell_angle_alpha 144.533377
_cell_angle_beta 152.248133
_cell_angle_gamma 25.853487
_cell_volume 725.163451
_symmetry_space_group_name_H-M "P -1"
_symmetry_group_IT_number 2
_symmetry_cell_setting 'triclinic'
loop_
_space_group_symop_operation_xyz
x,y,z
-x,-y,-z
loop_
_atom_site_type_symbol
_atom_site_label
_atom_site_fract_x
_atom_site_fract_y
_atom_site_fract_z
Si Si1 0.603423 0.513297 0.892758
Si Si2 0.314073 0.707496 0.372367
Si Si3 0.911226 0.156779 0.559683
Si Si4 0.508371 0.347798 0.876956
Si Si5 0.530903 0.234928 0.598795
Si Si6 0.776659 0.803072 0.113027
Si Si7 0.767326 0.715673 0.912567
Si Si8 0.962687 0.268098 0.388105
O O1 0.633598 0.360491 0.929931
O O2 0.622900 0.290563 0.761905
O O3 0.386007 0.869149 0.851177
O O4 0.776343 0.536462 0.034402
O O5 0.500000 0.500000 0.500000
O O6 0.334068 0.894899 0.408710
O O7 0.305659 0.478022 0.228158
O O8 0.092394 0.973436 0.326454
O O9 0.673438 0.434589 0.465575
O O10 0.004592 0.301392 0.730065
O O11 0.000000 0.000000 0.500000
O O12 0.953626 0.880281 0.527074
O O13 0.277183 0.538987 0.735786
O O14 0.628512 0.985389 0.847565
O O15 0.500000 0.500000 0.000000
O O16 0.500000 0.000000 0.500000
O O17 0.730238 0.856025 0.014134
O O18 0.000000 0.500000 0.000000
O O19 0.000000 0.500000 0.500000
#
# Coordination Sequence:
#
# PCOD8033429 Si02
#       8
#     2   2   2   2   2   2   2   2
#     4  11  24  45  71 102 143 184 236 288 355 427
#     4  12  26  47  71 104 143 189 238 295 364 420
#     4  12  24  46  72 104 143 187 241 292 354 426
#     4  12  24  45  72 104 136 184 239 290 347 428
#     4  12  28  47  70 104 146 188 235 301 358 420
#     4  11  23  46  71 103 140 188 233 285 360 429
#     4  12  26  46  73 103 145 188 232 301 360 419
#     4  12  27  45  72 105 140 186 243 290 355 430
#
# _framework density 22.063991000000001
#
# number of rings (size 3 to 8) (size 9 to 14) (size 15 to 20)
#    0.000    0.250    6.250    2.250    5.250    1.000 
#    2.250    1.250    0.000    0.000    0.000    0.000 
#    0.000    0.000    0.000    0.000    0.000    0.000 
#
# Total GULP energy -198422.160465 kJ/mol
# GULP energy per Si atom -12401.385029 kJ/mol
# Density = 2.201377 g / cm^3
# Si number density = 22.063991 Si / 1000 Ang^3
#
#
#
# Elastic Constant Matrix: (Units=GPa)
#
#
# Indices 1 2 3 4 5 6 
#
# 1 161.4451 41.8209 30.5598 5.5143 -8.6973 33.9943
# 2 41.8209 100.5483 16.0641 -1.6419 0.8556 20.1377
# 3 30.5598 16.0641 86.5853 16.0330 -5.5470 18.1955
# 4 5.5143 -1.6419 16.0330 39.5296 0.9284 6.8309
# 5 -8.6973 0.8556 -5.5470 0.9284 39.8882 5.9849
# 6 33.9943 20.1377 18.1955 6.8309 5.9849 48.0077
#
#
#
# Elastic Compliance Matrix: (Units=1/GPa)
#
#
# Indices 1 2 3 4 5 6 
#
# 1 0.008125 -0.002264 -0.001345 0.000057 0.002321 -0.004591
# 2 -0.002264 0.011713 -0.001085 0.001788 -0.000473 -0.003095
# 3 -0.001345 -0.001085 0.014033 -0.005001 0.002322 -0.003489
# 4 0.000057 0.001788 -0.005001 0.027889 -0.000959 -0.002744
# 5 0.002321 -0.000473 0.002322 -0.000959 0.026760 -0.005524
# 6 -0.004591 -0.003095 -0.003489 -0.002744 -0.005524 0.027781
#
#
# Mechanical properties :
#
#
# Convention : Reuss Voigt Hill
#
# Bulk Modulus (GPa) = 40.84299 58.38537 49.61418
# Shear Modulus (GPa) = 37.35514 42.82733 40.09124
#
# Velocity S-wave (km/s) = 4.11912 4.41052 4.26730
# Velocity P-wave (km/s) = 6.41671 7.24266 6.84216
#
# Compressibility (1/GPa) = 0.02448400
#
# Stress axis : x y z
#
# Youngs Moduli (GPa) = 123.07925 85.37197 71.25943
#
# Poissons Ratio (x) = 0.19326 0.09582
# Poissons Ratio (y) = 0.27863 0.07734
# Poissons Ratio (z) = 0.16549 0.09266
#
# Static dielectric constant tensor:
#      x y z
#    x 3.864900 0.542120 -0.203640 
#    y 0.542120 3.883040 0.403220 
#    z -0.203640 0.403220 4.025470 
# 
# 
# High freq. dielectric constant tensor:
#      x y z
#    x 1.892760 0.006900 0.000930 
#    y 0.006900 1.863590 0.009310 
#    z 0.000930 0.009310 1.870030 
# 
# From -- ./inp_files/216512.got.cif
#   From: 2010.06.25/outbox.cif.g09.slc.cpg/sg2_109_cif.got.tgz:216512.got - 2010.06.27 13:26:56.
