data_PCOD8033499
_publ_section_title
;
Structure prediction by ZEFSAII (Michael W. Deem and Ramdas Pophale) SiO2 
 PCOD8033499
Probable space group: P -1
;
_chemical_formula_sum "Si O2"
_cell_formula_units_Z 16
_cell_length_a 11.337752
_cell_length_b 13.936721
_cell_length_c 9.113624
_cell_angle_alpha 78.595837
_cell_angle_beta 90.031507
_cell_angle_gamma 149.103136
_cell_volume 682.722268
_symmetry_space_group_name_H-M "P -1"
_symmetry_group_IT_number 2
_symmetry_cell_setting 'triclinic'
loop_
_space_group_symop_operation_xyz
x,y,z
-x,-y,-z
loop_
_atom_site_type_symbol
_atom_site_label
_atom_site_fract_x
_atom_site_fract_y
_atom_site_fract_z
Si Si1 0.529919 0.462564 0.863776
Si Si2 0.341909 0.161391 0.140214
Si Si3 0.582446 0.762309 0.551005
Si Si4 0.727672 0.195144 0.345674
Si Si5 0.986941 0.775762 0.589839
Si Si6 0.085746 0.486039 0.623243
Si Si7 0.809958 0.765937 0.337931
Si Si8 0.592473 0.021709 0.846471
O O1 0.809929 0.674710 0.753479
O O2 0.375307 0.391373 0.746656
O O3 0.500000 0.500000 0.000000
O O4 0.458187 0.299632 0.956913
O O5 0.446486 0.278134 0.261055
O O6 0.390155 0.082536 0.134255
O O7 0.056421 0.982912 0.197568
O O8 0.314609 0.587344 0.536765
O O9 0.700230 0.759306 0.461384
O O10 0.758922 0.983146 0.463342
O O11 0.803964 0.365063 0.292621
O O12 0.957735 0.299364 0.372911
O O13 0.500000 0.000000 0.500000
O O14 0.630911 0.100498 0.213649
O O15 0.871355 0.712612 0.448049
O O16 0.000000 0.500000 0.500000
O O17 0.861636 0.256365 0.740003
O O18 0.500000 0.000000 0.000000
#
# Coordination Sequence:
#
# PCOD8033499 Si02
#       8
#     2   2   2   2   2   2   2   2
#     4  12  27  45  71 108 149 196 242 298 379 445
#     4  11  25  49  70 105 156 192 242 310 371 442
#     4  11  23  46  75 107 143 189 244 310 367 439
#     4  12  23  49  72 110 148 187 250 317 353 439
#     4  11  24  43  74 104 143 186 247 307 367 428
#     4  12  26  44  80 107 145 196 253 303 376 425
#     4  11  25  45  74 106 144 190 251 301 369 444
#     4  12  29  48  72 112 155 201 246 302 375 444
#
# _framework density 23.435592
#
# number of rings (size 3 to 8) (size 9 to 14) (size 15 to 20)
#    0.000    0.500    3.750    4.500    3.500    5.500 
#    0.000    0.000    0.000    0.000    0.000    0.000 
#    0.000    0.000    0.000    0.000    0.000    0.000 
#
# Total GULP energy -198301.642245 kJ/mol
# GULP energy per Si atom -12393.852640 kJ/mol
# Density = 2.338225 g / cm^3
# Si number density = 23.435592 Si / 1000 Ang^3
#
#
#
# Elastic Constant Matrix: (Units=GPa)
#
#
# Indices 1 2 3 4 5 6 
#
# 1 125.4867 52.1744 44.0139 12.3289 -2.6142 14.2527
# 2 52.1744 109.4414 46.9417 2.6644 7.7249 4.0829
# 3 44.0139 46.9417 123.7425 3.6845 -3.3611 7.1684
# 4 12.3289 2.6644 3.6845 45.3776 -5.3492 -7.5130
# 5 -2.6142 7.7249 -3.3611 -5.3492 33.7702 1.3238
# 6 14.2527 4.0829 7.1684 -7.5130 1.3238 43.5006
#
#
#
# Elastic Compliance Matrix: (Units=1/GPa)
#
#
# Indices 1 2 3 4 5 6 
#
# 1 0.011215 -0.004378 -0.001999 -0.003051 0.001325 -0.003502
# 2 -0.004378 0.012942 -0.003521 0.000453 -0.003617 0.000988
# 3 -0.001999 -0.003521 0.010218 -0.000004 0.001697 -0.000751
# 4 -0.003051 0.000453 -0.000004 0.024056 0.003274 0.005013
# 5 0.001325 -0.003617 0.001697 0.003274 0.031259 -0.000760
# 6 -0.003502 0.000988 -0.000751 0.005013 -0.000760 0.025055
#
#
# Mechanical properties :
#
#
# Convention : Reuss Voigt Hill
#
# Bulk Modulus (GPa) = 68.59115 71.65897 70.12506
# Shear Modulus (GPa) = 35.86751 38.89907 37.38329
#
# Velocity S-wave (km/s) = 3.91637 4.07852 3.99827
# Velocity P-wave (km/s) = 7.05564 7.26791 7.16256
#
# Compressibility (1/GPa) = 0.01457914
#
# Stress axis : x y z
#
# Youngs Moduli (GPa) = 89.16297 77.26607 97.86888
#
# Poissons Ratio (x) = 0.33828 0.19561
# Poissons Ratio (y) = 0.39036 0.34464
# Poissons Ratio (z) = 0.17821 0.27209
#
# Static dielectric constant tensor:
#      x y z
#    x 3.419230 -0.022390 -0.210320 
#    y -0.022390 4.640670 -0.067600 
#    z -0.210320 -0.067600 4.444350 
# 
# 
# High freq. dielectric constant tensor:
#      x y z
#    x 1.940990 0.001530 -0.000060 
#    y 0.001530 1.946360 -0.001760 
#    z -0.000060 -0.001760 1.920760 
# 
# From -- ./inp_files/272937.got.cif
#   From: 2010.06.25/outbox.cif.g09.slc.cpg/sg2_137_cif.got.tgz:272937.got - 2010.06.27 13:26:56.
