data_PCOD8033041
_publ_section_title
;
Structure prediction by ZEFSAII (Michael W. Deem and Ramdas Pophale) SiO2 
 PCOD8033041
Probable space group: P -1
;
_chemical_formula_sum "Si O2"
_cell_formula_units_Z 16
_cell_length_a 17.755615
_cell_length_b 13.731691
_cell_length_c 22.523534
_cell_angle_alpha 159.701787
_cell_angle_beta 21.379209
_cell_angle_gamma 148.607364
_cell_volume 685.952593
_symmetry_space_group_name_H-M "P -1"
_symmetry_group_IT_number 2
_symmetry_cell_setting 'triclinic'
loop_
_space_group_symop_operation_xyz
x,y,z
-x,-y,-z
loop_
_atom_site_type_symbol
_atom_site_label
_atom_site_fract_x
_atom_site_fract_y
_atom_site_fract_z
Si Si1 0.014099 0.742777 0.294679
Si Si2 0.544776 0.890194 0.695737
Si Si3 0.153012 0.679267 0.023476
Si Si4 0.128477 0.651691 0.675078
Si Si5 0.920360 0.699544 0.596042
Si Si6 0.649344 0.490140 0.776390
Si Si7 0.753139 0.770075 0.094965
Si Si8 0.524870 0.459643 0.556555
O O1 0.126660 0.767415 0.162425
O O2 0.780320 0.733357 0.441210
O O3 0.137176 0.452551 0.064844
O O4 0.000000 0.000000 0.500000
O O5 0.431029 0.722055 0.732334
O O6 0.477113 0.833976 0.645903
O O7 0.502278 0.224288 0.929247
O O8 0.136995 0.967297 0.161897
O O9 0.380844 0.491315 0.739245
O O10 0.000000 0.500000 0.000000
O O11 0.151781 0.379180 0.460792
O O12 0.240337 0.547489 0.595758
O O13 0.229320 0.905057 0.713491
O O14 0.881737 0.739187 0.920758
O O15 0.787002 0.532469 0.642194
O O16 0.173596 0.612863 0.363727
O O17 0.491009 0.262745 0.752776
#
# Coordination Sequence:
#
# PCOD8033041 Si02
#       8
#     2   2   2   2   2   2   2   2
#     4  12  24  44  71 107 142 186 244 295 360 431
#     4  11  23  44  72 104 142 189 240 293 367 431
#     4  12  27  46  73 110 147 190 245 300 361 438
#     4  11  27  46  71 108 142 183 248 300 357 435
#     4  11  28  48  70 106 146 190 239 301 360 432
#     4  11  26  47  73 100 147 191 240 291 372 433
#     4  11  26  45  70 106 142 190 237 303 363 429
#     4  11  25  44  72 105 144 189 236 301 363 427
#
# _framework density 23.325227000000002
#
# number of rings (size 3 to 8) (size 9 to 14) (size 15 to 20)
#    0.000    0.750    5.000    0.750    7.000    3.500 
#    0.000    0.000    0.000    0.000    0.000    0.000 
#    0.000    0.000    0.000    0.000    0.000    0.000 
#
# Total GULP energy -198248.737241 kJ/mol
# GULP energy per Si atom -12390.546078 kJ/mol
# Density = 2.327214 g / cm^3
# Si number density = 23.325227 Si / 1000 Ang^3
#
#
#
# Elastic Constant Matrix: (Units=GPa)
#
#
# Indices 1 2 3 4 5 6 
#
# 1 123.6836 33.5204 38.7662 -6.4981 5.9967 17.5648
# 2 33.5204 127.3976 34.8568 -9.5321 -2.0377 15.0808
# 3 38.7662 34.8568 88.7818 -8.9731 -1.1486 5.8339
# 4 -6.4981 -9.5321 -8.9731 44.4809 -1.2034 -5.6650
# 5 5.9967 -2.0377 -1.1486 -1.2034 39.3355 -0.5539
# 6 17.5648 15.0808 5.8339 -5.6650 -0.5539 32.4392
#
#
#
# Elastic Compliance Matrix: (Units=1/GPa)
#
#
# Indices 1 2 3 4 5 6 
#
# 1 0.010297 -0.001195 -0.003774 -0.000122 -0.001807 -0.004393
# 2 -0.001195 0.009383 -0.002866 0.000887 0.000569 -0.003035
# 3 -0.003774 -0.002866 0.014160 0.001865 0.000914 0.001171
# 4 -0.000122 0.000887 0.001865 0.023492 0.000886 0.003436
# 5 -0.001807 0.000569 0.000914 0.000886 0.025797 0.001145
# 6 -0.004393 -0.003035 0.001171 0.003436 0.001145 0.035026
#
#
# Mechanical properties :
#
#
# Convention : Reuss Voigt Hill
#
# Bulk Modulus (GPa) = 55.03321 61.57220 58.30271
# Shear Modulus (GPa) = 35.74494 38.76577 37.25536
#
# Velocity S-wave (km/s) = 3.91891 4.08115 4.00085
# Velocity P-wave (km/s) = 6.64246 6.97583 6.81118
#
# Compressibility (1/GPa) = 0.01817085
#
# Stress axis : x y z
#
# Youngs Moduli (GPa) = 97.11556 106.58069 70.62154
#
# Poissons Ratio (x) = 0.12732 0.26653
# Poissons Ratio (y) = 0.11602 0.20238
# Poissons Ratio (z) = 0.36652 0.30542
#
# Static dielectric constant tensor:
#      x y z
#    x 4.165170 -0.001680 0.032590 
#    y -0.001680 4.224620 -0.144480 
#    z 0.032590 -0.144480 4.261330 
# 
# 
# High freq. dielectric constant tensor:
#      x y z
#    x 1.919250 0.001880 0.000240 
#    y 0.001880 1.927130 -0.004120 
#    z 0.000240 -0.004120 1.927520 
# 
# From -- ./inp_files/613264.got.cif
#   From: 2010.06.25/outbox.cif.g09.slc.cpg/sg2_307_cif.got.tgz:613264.got - 2010.06.27 13:26:56.
