data_PCOD8033663
_publ_section_title
;
Structure prediction by ZEFSAII (Michael W. Deem and Ramdas Pophale) SiO2 
 PCOD8033663
Probable space group: P -1
;
_chemical_formula_sum "Si O2"
_cell_formula_units_Z 16
_cell_length_a 26.817204
_cell_length_b 21.160652
_cell_length_c 9.720294
_cell_angle_alpha 41.401946
_cell_angle_beta 148.389362
_cell_angle_gamma 161.963682
_cell_volume 832.406641
_symmetry_space_group_name_H-M "P -1"
_symmetry_group_IT_number 2
_symmetry_cell_setting 'triclinic'
loop_
_space_group_symop_operation_xyz
x,y,z
-x,-y,-z
loop_
_atom_site_type_symbol
_atom_site_label
_atom_site_fract_x
_atom_site_fract_y
_atom_site_fract_z
Si Si1 0.475104 0.311020 0.897377
Si Si2 0.320581 0.318446 0.144825
Si Si3 0.243016 0.768374 0.798406
Si Si4 0.009876 0.365427 0.819792
Si Si5 0.233190 0.758046 0.102307
Si Si6 0.689966 0.525693 0.760469
Si Si7 0.893489 0.895391 0.716428
Si Si8 0.371592 0.016107 0.248786
O O1 0.565924 0.476096 0.941709
O O2 0.619634 0.430210 0.904455
O O3 0.228482 0.119972 0.596262
O O4 0.471805 0.209827 0.137026
O O5 0.480331 0.371665 0.433091
O O6 0.194064 0.209678 0.168078
O O7 0.150271 0.149769 0.896906
O O8 0.130959 0.563922 0.850772
O O9 0.115989 0.724566 0.470170
O O10 0.218690 0.784570 0.869995
O O11 0.500000 0.000000 0.000000
O O12 0.832614 0.161275 0.839499
O O13 0.199898 0.462240 0.077886
O O14 0.282803 0.890390 0.104112
O O15 0.432706 0.864650 0.414323
O O16 0.000000 0.500000 0.000000
O O17 0.853588 0.763751 0.750493
#
# Coordination Sequence:
#
# PCOD8033663 Si02
#       8
#     2   2   2   2   2   2   2   2
#     4   9  19  33  56  85 114 150 194 240 285 341
#     4   8  15  33  54  80 114 152 190 239 279 342
#     4  11  24  43  62  84 118 160 198 241 295 352
#     4  11  24  40  60  89 124 153 193 248 297 350
#     4  11  24  43  62  84 118 160 198 241 295 352
#     4   9  19  33  56  85 114 150 194 240 285 341
#     4   8  15  33  54  80 115 147 194 236 284 336
#     4  11  24  40  60  89 124 153 193 248 297 350
#
# _framework density 19.221374000000001
#
# number of rings (size 3 to 8) (size 9 to 14) (size 15 to 20)
#    0.000    2.250    2.500    1.500    3.500    2.000 
#    4.500    2.500    0.000    1.500    0.000    0.000 
#    0.000    0.000    0.000    0.000    0.000    0.000 
#
# Total GULP energy -198313.912718 kJ/mol
# GULP energy per Si atom -12394.619545 kJ/mol
# Density = 1.917763 g / cm^3
# Si number density = 19.221374 Si / 1000 Ang^3
#
#
#
# Elastic Constant Matrix: (Units=GPa)
#
#
# Indices 1 2 3 4 5 6 
#
# 1 88.9451 28.1946 46.4588 -2.5473 4.5864 7.9314
# 2 28.1946 96.1192 46.0578 7.3405 3.4611 8.4303
# 3 46.4588 46.0578 87.4029 7.8757 3.8531 -4.4880
# 4 -2.5473 7.3405 7.8757 42.8066 -2.1045 1.0046
# 5 4.5864 3.4611 3.8531 -2.1045 33.5318 1.0189
# 6 7.9314 8.4303 -4.4880 1.0046 1.0189 24.0946
#
#
#
# Elastic Compliance Matrix: (Units=1/GPa)
#
#
# Indices 1 2 3 4 5 6 
#
# 1 0.017115 0.000143 -0.009791 0.002934 -0.000816 -0.007595
# 2 0.000143 0.014976 -0.008212 -0.000914 -0.000474 -0.006758
# 3 -0.009791 -0.008212 0.021856 -0.003481 -0.000857 0.010348
# 4 0.002934 -0.000914 -0.003481 0.024472 0.001701 -0.002387
# 5 -0.000816 -0.000474 -0.000857 0.001701 0.030221 -0.001074
# 6 -0.007595 -0.006758 0.010348 -0.002387 -0.001074 0.048440
#
#
# Mechanical properties :
#
#
# Convention : Reuss Voigt Hill
#
# Bulk Modulus (GPa) = 54.86304 57.09884 55.98094
# Shear Modulus (GPa) = 25.14125 30.20368 27.67246
#
# Velocity S-wave (km/s) = 3.62053 3.96834 3.79842
# Velocity P-wave (km/s) = 6.78840 7.12512 6.95880
#
# Compressibility (1/GPa) = 0.01822721
#
# Stress axis : x y z
#
# Youngs Moduli (GPa) = 58.42740 66.77254 45.75454
#
# Poissons Ratio (x) = -0.00953 0.44799
# Poissons Ratio (y) = -0.00834 0.37572
# Poissons Ratio (z) = 0.57207 0.54831
#
# Static dielectric constant tensor:
#      x y z
#    x 1.308870 -0.000420 1.527900 
#    y -0.000420 3.988480 0.329290 
#    z 1.527900 0.329290 2.372140 
# 
# 
# High freq. dielectric constant tensor:
#      x y z
#    x 1.728070 -0.004710 0.006340 
#    y -0.004710 1.755050 0.015060 
#    z 0.006340 0.015060 1.747990 
# 
# From -- ./inp_files/338131.got.cif
#   From: 2010.06.25/outbox.cif.g09.slc.cpg/sg2_170_cif.got.tgz:338131.got - 2010.06.27 13:26:56.
