data_PCOD8033532
_publ_section_title
;
Structure prediction by ZEFSAII (Michael W. Deem and Ramdas Pophale) SiO2 
 PCOD8033532
Probable space group: P -1
;
_chemical_formula_sum "Si O2"
_cell_formula_units_Z 16
_cell_length_a 11.562071
_cell_length_b 12.337849
_cell_length_c 8.680406
_cell_angle_alpha 48.559536
_cell_angle_beta 113.169642
_cell_angle_gamma 130.580288
_cell_volume 703.512858
_symmetry_space_group_name_H-M "P -1"
_symmetry_group_IT_number 2
_symmetry_cell_setting 'triclinic'
loop_
_space_group_symop_operation_xyz
x,y,z
-x,-y,-z
loop_
_atom_site_type_symbol
_atom_site_label
_atom_site_fract_x
_atom_site_fract_y
_atom_site_fract_z
Si Si1 0.041117 0.327436 0.133408
Si Si2 0.589807 0.954728 0.975180
Si Si3 0.927145 0.382815 0.312478
Si Si4 0.082539 0.262807 0.717220
Si Si5 0.096951 0.971717 0.869146
Si Si6 0.592166 0.439452 0.400426
Si Si7 0.387290 0.837975 0.487064
Si Si8 0.621211 0.438843 0.778724
O O1 0.212472 0.458614 0.157883
O O2 0.925065 0.278799 0.258922
O O3 0.006191 0.146734 0.217142
O O4 0.004131 0.417452 0.891074
O O5 0.662307 0.092660 0.744890
O O6 0.475014 0.761238 0.025361
O O7 0.500000 0.000000 0.000000
O O8 0.728125 0.963868 0.126287
O O9 0.757625 0.298460 0.360417
O O10 0.028765 0.378152 0.504668
O O11 0.251764 0.398275 0.747731
O O12 0.091358 0.141975 0.706543
O O13 0.966192 0.136494 0.904635
O O14 0.538401 0.260511 0.450625
O O15 0.630772 0.434679 0.603465
O O16 0.456852 0.466158 0.289601
O O17 0.500000 0.000000 0.500000
#
# Coordination Sequence:
#
# PCOD8033532 Si02
#       8
#     2   2   2   2   2   2   2   2
#     4  11  26  44  71 104 140 181 239 295 339 416
#     4  12  25  44  71 100 143 183 232 288 349 420
#     4  11  25  44  68 100 141 180 235 283 353 407
#     4  11  23  47  70 101 136 188 234 284 357 421
#     4  11  26  44  71 104 138 185 235 290 354 418
#     4  11  24  45  73  97 142 185 231 284 351 429
#     4  12  27  44  68 107 138 183 235 292 348 412
#     4  11  24  47  70 105 137 188 231 283 357 415
#
# _framework density 22.743010000000002
#
# number of rings (size 3 to 8) (size 9 to 14) (size 15 to 20)
#    0.000    0.750    5.000    1.500    7.000    2.500 
#    0.000    1.875    0.000    0.000    0.000    0.000 
#    0.000    0.000    0.000    0.000    0.000    0.000 
#
# Total GULP energy -198451.653782 kJ/mol
# GULP energy per Si atom -12403.228361 kJ/mol
# Density = 2.269125 g / cm^3
# Si number density = 22.743010 Si / 1000 Ang^3
#
#
#
# Elastic Constant Matrix: (Units=GPa)
#
#
# Indices 1 2 3 4 5 6 
#
# 1 133.8186 52.3121 21.3147 -2.9553 6.8454 -10.8032
# 2 52.3121 136.5809 2.6143 -11.4585 12.9874 -27.0469
# 3 21.3147 2.6143 62.1060 -3.3390 4.0263 -4.7887
# 4 -2.9553 -11.4585 -3.3390 25.3164 -0.3329 7.5650
# 5 6.8454 12.9874 4.0263 -0.3329 34.1295 -7.5109
# 6 -10.8032 -27.0469 -4.7887 7.5650 -7.5109 32.4707
#
#
#
# Elastic Compliance Matrix: (Units=1/GPa)
#
#
# Indices 1 2 3 4 5 6 
#
# 1 0.009358 -0.003621 -0.003111 -0.000901 -0.000183 -0.000194
# 2 -0.003621 0.010387 0.001577 0.002471 -0.001923 0.006659
# 3 -0.003111 0.001577 0.017469 0.002031 -0.001573 0.002018
# 4 -0.000901 0.002471 0.002031 0.043320 -0.002471 -0.008606
# 5 -0.000183 -0.001923 -0.001573 -0.002471 0.031546 0.005978
# 6 -0.000194 0.006659 0.002018 -0.008606 0.005978 0.039965
#
#
# Mechanical properties :
#
#
# Convention : Reuss Voigt Hill
#
# Bulk Modulus (GPa) = 37.16929 53.88752 45.52840
# Shear Modulus (GPa) = 29.18451 35.46763 32.32607
#
# Velocity S-wave (km/s) = 3.58611 3.95333 3.77419
# Velocity P-wave (km/s) = 5.79012 6.67712 6.24938
#
# Compressibility (1/GPa) = 0.02690393
#
# Stress axis : x y z
#
# Youngs Moduli (GPa) = 106.86438 96.27064 57.24284
#
# Poissons Ratio (x) = 0.34861 0.17806
# Poissons Ratio (y) = 0.38697 -0.09025
# Poissons Ratio (z) = 0.33242 -0.15177
#
# Static dielectric constant tensor:
#      x y z
#    x 4.245210 -0.161810 -0.094380 
#    y -0.161810 4.081820 -0.270350 
#    z -0.094380 -0.270350 4.302090 
# 
# 
# High freq. dielectric constant tensor:
#      x y z
#    x 1.913180 -0.009360 -0.005710 
#    y -0.009360 1.890080 -0.014880 
#    z -0.005710 -0.014880 1.895000 
# 
# From -- ./inp_files/261672.got.cif
#   From: 2010.06.25/outbox.cif.g09.slc.cpg/sg2_131_cif.got.tgz:261672.got - 2010.06.27 13:26:56.
