data_PCOD8033675
_publ_section_title
;
Structure prediction by ZEFSAII (Michael W. Deem and Ramdas Pophale) SiO2 
 PCOD8033675
Probable space group: P -1
;
_chemical_formula_sum "Si O2"
_cell_formula_units_Z 16
_cell_length_a 12.040434
_cell_length_b 9.021991
_cell_length_c 8.749534
_cell_angle_alpha 131.459150
_cell_angle_beta 93.750230
_cell_angle_gamma 78.822958
_cell_volume 696.219267
_symmetry_space_group_name_H-M "P -1"
_symmetry_group_IT_number 2
_symmetry_cell_setting 'triclinic'
loop_
_space_group_symop_operation_xyz
x,y,z
-x,-y,-z
loop_
_atom_site_type_symbol
_atom_site_label
_atom_site_fract_x
_atom_site_fract_y
_atom_site_fract_z
Si Si1 0.370213 0.264956 0.148492
Si Si2 0.216861 0.302080 0.895251
Si Si3 0.201568 0.718227 0.008125
Si Si4 0.027724 0.314885 0.149384
Si Si5 0.371854 0.817079 0.862710
Si Si6 0.828563 0.030946 0.555132
Si Si7 0.012276 0.254009 0.432322
Si Si8 0.232241 0.681415 0.518666
O O1 0.498201 0.299117 0.198592
O O2 0.286689 0.444799 0.350987
O O3 0.338180 0.269238 0.969407
O O4 0.359942 0.048966 0.072366
O O5 0.194532 0.513317 0.953821
O O6 0.226219 0.131723 0.649961
O O7 0.122722 0.282938 0.003202
O O8 0.073030 0.797851 0.988805
O O9 0.297339 0.689329 0.866774
O O10 0.239533 0.880633 0.237892
O O11 0.082995 0.226213 0.258292
O O12 0.973637 0.550471 0.334936
O O13 0.322280 0.806753 0.679257
O O14 0.821337 0.229835 0.587325
O O15 0.952915 0.929497 0.568056
O O16 0.883840 0.285401 0.372227
#
# Coordination Sequence:
#
# PCOD8033675 Si02
#       8
#     2   2   2   2   2   2   2   2
#     4  11  25  49  75 100 136 186 237 297 342 406
#     4  12  25  45  69  98 148 184 227 290 346 411
#     4  12  26  45  69 105 140 189 230 287 346 416
#     4  11  24  42  69  99 146 193 224 283 351 411
#     4  11  27  47  77 101 134 186 244 286 349 408
#     4  12  27  39  69 106 140 187 232 278 351 420
#     4  11  24  40  67 108 143 186 230 279 343 430
#     4  12  23  46  71 104 140 187 232 286 352 416
#
# _framework density 22.981265
#
# number of rings (size 3 to 8) (size 9 to 14) (size 15 to 20)
#    0.000    0.500    6.250    1.125    5.250    2.000 
#    0.000    0.625    0.000    0.000    0.000    0.000 
#    0.000    0.000    0.000    0.000    0.000    0.000 
#
# Total GULP energy -198237.262888 kJ/mol
# GULP energy per Si atom -12389.828931 kJ/mol
# Density = 2.292896 g / cm^3
# Si number density = 22.981265 Si / 1000 Ang^3
#
#
#
# Elastic Constant Matrix: (Units=GPa)
#
#
# Indices 1 2 3 4 5 6 
#
# 1 124.2748 46.8366 19.4529 -8.7808 15.3008 -11.5759
# 2 46.8366 110.1194 34.9107 -8.5077 -10.1286 -7.6758
# 3 19.4529 34.9107 97.1154 -2.3851 21.1129 1.4363
# 4 -8.7808 -8.5077 -2.3851 27.2593 -5.2325 0.3120
# 5 15.3008 -10.1286 21.1129 -5.2325 28.9792 -0.0560
# 6 -11.5759 -7.6758 1.4363 0.3120 -0.0560 29.6365
#
#
#
# Elastic Compliance Matrix: (Units=1/GPa)
#
#
# Indices 1 2 3 4 5 6 
#
# 1 0.011545 -0.006244 0.002007 0.000047 -0.009726 0.002776
# 2 -0.006244 0.016250 -0.007906 0.005359 0.015708 0.002126
# 3 0.002007 -0.007906 0.016219 -0.003503 -0.016276 -0.002044
# 4 0.000047 0.005359 -0.003503 0.040294 0.011678 0.001174
# 5 -0.009726 0.015708 -0.016276 0.011678 0.059101 0.001047
# 6 0.002776 0.002126 -0.002044 0.001174 0.001047 0.035466
#
#
# Mechanical properties :
#
#
# Convention : Reuss Voigt Hill
#
# Bulk Modulus (GPa) = 50.68718 59.32334 55.00526
# Shear Modulus (GPa) = 23.83919 32.52895 28.18407
#
# Velocity S-wave (km/s) = 3.22426 3.76634 3.50579
# Velocity P-wave (km/s) = 5.99707 6.69205 6.35407
#
# Compressibility (1/GPa) = 0.01972886
#
# Stress axis : x y z
#
# Youngs Moduli (GPa) = 86.61536 61.53798 61.65432
#
# Poissons Ratio (x) = 0.38425 -0.12372
# Poissons Ratio (y) = 0.54084 0.48741
# Poissons Ratio (z) = -0.17380 0.48649
#
# Static dielectric constant tensor:
#      x y z
#    x 3.965060 -0.164660 0.227890 
#    y -0.164660 4.258380 -0.093630 
#    z 0.227890 -0.093630 4.271290 
# 
# 
# High freq. dielectric constant tensor:
#      x y z
#    x 1.875380 -0.010090 0.019940 
#    y -0.010090 1.917850 -0.000830 
#    z 0.019940 -0.000830 1.923040 
# 
# From -- ./inp_files/245939.got.cif
#   From: 2010.06.25/outbox.cif.g09.slc.cpg/sg2_123_cif.got.tgz:245939.got - 2010.06.27 13:26:56.
