data_PCOD8033279
_publ_section_title
;
Structure prediction by ZEFSAII (Michael W. Deem and Ramdas Pophale) SiO2 
 PCOD8033279
Probable space group: P -1
;
_chemical_formula_sum "Si O2"
_cell_formula_units_Z 16
_cell_length_a 16.478517
_cell_length_b 9.300621
_cell_length_c 11.427117
_cell_angle_alpha 87.455307
_cell_angle_beta 134.985910
_cell_angle_gamma 127.890579
_cell_volume 699.742798
_symmetry_space_group_name_H-M "P -1"
_symmetry_group_IT_number 2
_symmetry_cell_setting 'triclinic'
loop_
_space_group_symop_operation_xyz
x,y,z
-x,-y,-z
loop_
_atom_site_type_symbol
_atom_site_label
_atom_site_fract_x
_atom_site_fract_y
_atom_site_fract_z
Si Si1 0.690632 0.330275 0.855096
Si Si2 0.862855 0.509573 0.494546
Si Si3 0.107360 0.258536 0.134369
Si Si4 0.182328 0.844922 0.014610
Si Si5 0.436566 0.520247 0.046799
Si Si6 0.086687 0.342126 0.716276
Si Si7 0.588712 0.434661 0.355925
Si Si8 0.326375 0.990156 0.637661
O O1 0.778377 0.556858 0.867298
O O2 0.445645 0.094863 0.630908
O O3 0.756061 0.247477 0.865970
O O4 0.773642 0.412100 0.069593
O O5 0.948116 0.624245 0.447697
O O6 0.714894 0.487328 0.379918
O O7 0.737190 0.231871 0.373719
O O8 0.050712 0.694358 0.768156
O O9 0.276072 0.403935 0.398143
O O10 0.940233 0.198735 0.009287
O O11 0.000000 0.000000 0.000000
O O12 0.391426 0.138566 0.191391
O O13 0.514794 0.516083 0.239822
O O14 0.533298 0.780413 0.133127
O O15 0.500000 0.500000 0.000000
O O16 0.191762 0.292147 0.813126
O O17 0.871269 0.110916 0.572513
#
# Coordination Sequence:
#
# PCOD8033279 Si02
#       8
#     2   2   2   2   2   2   2   2
#     4  11  25  46  71 107 138 187 241 293 358 413
#     4  11  23  45  72 113 142 186 234 293 356 419
#     4  11  29  50  74 103 138 189 241 296 355 427
#     4  11  25  45  76 104 143 181 236 299 358 423
#     4  11  26  44  67 105 146 195 235 287 356 426
#     4  11  25  42  73 107 145 188 235 289 348 424
#     4  11  26  48  72 105 144 186 235 296 357 421
#     4  11  25  42  73 103 146 189 235 293 349 425
#
# _framework density 22.865542999999999
#
# number of rings (size 3 to 8) (size 9 to 14) (size 15 to 20)
#    0.000    1.000    3.750    0.750    7.000    5.500 
#    0.000    0.000    0.000    0.000    0.000    0.000 
#    0.000    0.000    0.000    0.000    0.000    0.000 
#
# Total GULP energy -198348.208104 kJ/mol
# GULP energy per Si atom -12396.763006 kJ/mol
# Density = 2.281350 g / cm^3
# Si number density = 22.865543 Si / 1000 Ang^3
#
#
#
# Elastic Constant Matrix: (Units=GPa)
#
#
# Indices 1 2 3 4 5 6 
#
# 1 163.7746 70.6761 69.3684 -4.2255 29.4210 -8.7885
# 2 70.6761 132.8165 63.2536 8.7048 6.6532 -4.9738
# 3 69.3684 63.2536 101.2452 4.0500 20.3283 -1.3820
# 4 -4.2255 8.7048 4.0500 30.0966 -5.6785 3.4542
# 5 29.4210 6.6532 20.3283 -5.6785 51.3242 4.8594
# 6 -8.7885 -4.9738 -1.3820 3.4542 4.8594 35.7158
#
#
#
# Elastic Compliance Matrix: (Units=1/GPa)
#
#
# Indices 1 2 3 4 5 6 
#
# 1 0.010125 -0.003241 -0.004218 0.001977 -0.003702 0.002189
# 2 -0.003241 0.012024 -0.005598 -0.002849 0.002140 0.000645
# 3 -0.004218 -0.005598 0.017099 -0.001939 -0.003801 -0.000451
# 4 0.001977 -0.002849 -0.001939 0.035876 0.004357 -0.004048
# 5 -0.003702 0.002140 -0.003801 0.004357 0.023733 -0.004410
# 6 0.002189 0.000645 -0.000451 -0.004048 -0.004410 0.029601
#
#
# Mechanical properties :
#
#
# Convention : Reuss Voigt Hill
#
# Bulk Modulus (GPa) = 76.14505 89.38139 82.76322
# Shear Modulus (GPa) = 31.45644 36.39652 33.92648
#
# Velocity S-wave (km/s) = 3.71309 3.99402 3.85611
# Velocity P-wave (km/s) = 7.19418 7.77460 7.49001
#
# Compressibility (1/GPa) = 0.01313283
#
# Stress axis : x y z
#
# Youngs Moduli (GPa) = 98.76910 83.16955 58.48256
#
# Poissons Ratio (x) = 0.26955 0.24668
# Poissons Ratio (y) = 0.32011 0.32740
# Poissons Ratio (z) = 0.41662 0.46560
#
# Static dielectric constant tensor:
#      x y z
#    x 4.575200 -0.184180 0.477870 
#    y -0.184180 4.019280 -0.023810 
#    z 0.477870 -0.023810 4.516740 
# 
# 
# High freq. dielectric constant tensor:
#      x y z
#    x 1.926140 -0.009290 0.020590 
#    y -0.009290 1.890010 0.006250 
#    z 0.020590 0.006250 1.906960 
# 
# From -- ./inp_files/462163.got.cif
#   From: 2010.06.25/outbox.cif.g09.slc.cpg/sg2_232_cif.got.tgz:462163.got - 2010.06.27 13:26:56.
