data_PCOD8033630
_publ_section_title
;
Structure prediction by ZEFSAII (Michael W. Deem and Ramdas Pophale) SiO2 
 PCOD8033630
Probable space group: P -1
;
_chemical_formula_sum "Si O2"
_cell_formula_units_Z 14
_cell_length_a 12.369298
_cell_length_b 8.906915
_cell_length_c 15.584647
_cell_angle_alpha 128.318400
_cell_angle_beta 152.056185
_cell_angle_gamma 63.027884
_cell_volume 610.201603
_symmetry_space_group_name_H-M "P -1"
_symmetry_group_IT_number 2
_symmetry_cell_setting 'triclinic'
loop_
_space_group_symop_operation_xyz
x,y,z
-x,-y,-z
loop_
_atom_site_type_symbol
_atom_site_label
_atom_site_fract_x
_atom_site_fract_y
_atom_site_fract_z
Si Si1 0.919514 0.660757 0.944324
Si Si2 0.190754 0.268797 0.563589
Si Si3 0.316833 0.716090 0.773720
Si Si4 0.739219 0.937447 0.627018
Si Si5 0.442186 0.808001 0.082850
Si Si6 0.456698 0.747599 0.700744
Si Si7 0.065483 0.377951 0.257091
O O1 0.636742 0.630028 0.745442
O O2 0.994213 0.642563 0.892357
O O3 0.035354 0.879308 0.136922
O O4 0.000000 0.500000 0.000000
O O5 0.230101 0.480328 0.621568
O O6 0.266248 0.123916 0.497464
O O7 0.356167 0.286206 0.769494
O O8 0.911449 0.191421 0.363501
O O9 0.494054 0.786272 0.842855
O O10 0.461440 0.790747 0.987942
O O11 0.762911 0.760676 0.644136
O O12 0.500000 0.000000 0.500000
O O13 0.500290 0.036433 0.235714
O O14 0.179468 0.686245 0.884317
O O15 0.191927 0.608256 0.447324
#
# Coordination Sequence:
#
# PCOD8033630 Si02
#       7
#     2   2   2   2   2   2   2
#     4  12  28  45  70 109 146 193 246 299 369 436
#     4  11  24  45  76 107 145 193 242 297 371 428
#     4  11  23  49  70 108 149 187 248 296 356 439
#     4  12  24  45  76 105 146 191 241 303 366 433
#     4  12  26  46  77 108 140 197 240 301 368 427
#     4  12  26  46  73 104 148 189 242 305 358 432
#     4  12  25  49  72 106 149 190 243 302 364 439
#
# _framework density 22.943238000000001
#
# number of rings (size 3 to 8) (size 9 to 14) (size 15 to 20)
#    0.000    0.286    4.286    4.286    6.000    0.571 
#    0.000    0.000    0.000    0.000    0.000    0.000 
#    0.000    0.000    0.000    0.000    0.000    0.000 
#
# Total GULP energy -173696.633420 kJ/mol
# GULP energy per Si atom -12406.902387 kJ/mol
# Density = 2.289102 g / cm^3
# Si number density = 22.943238 Si / 1000 Ang^3
#
#
#
# Elastic Constant Matrix: (Units=GPa)
#
#
# Indices 1 2 3 4 5 6 
#
# 1 84.5697 20.4464 23.9000 0.9773 -13.4437 -3.1372
# 2 20.4464 66.6228 34.4250 -0.7494 9.0629 -2.3122
# 3 23.9000 34.4250 117.0182 9.3677 -5.8160 5.1229
# 4 0.9773 -0.7494 9.3677 51.5141 5.1285 0.3621
# 5 -13.4437 9.0629 -5.8160 5.1285 37.3031 4.8383
# 6 -3.1372 -2.3122 5.1229 0.3621 4.8383 32.1259
#
#
#
# Elastic Compliance Matrix: (Units=1/GPa)
#
#
# Indices 1 2 3 4 5 6 
#
# 1 0.014270 -0.004577 -0.001221 -0.000727 0.006120 0.000345
# 2 -0.004577 0.020736 -0.005902 0.002269 -0.008337 0.003217
# 3 -0.001221 -0.005902 0.011013 -0.002384 0.003400 -0.002785
# 4 -0.000727 0.002269 -0.002384 0.020293 -0.004086 0.000859
# 5 0.006120 -0.008337 0.003400 -0.004086 0.032836 -0.005444
# 6 0.000345 0.003217 -0.002785 0.000859 -0.005444 0.032647
#
#
# Mechanical properties :
#
#
# Convention : Reuss Voigt Hill
#
# Bulk Modulus (GPa) = 44.21141 47.30594 45.75868
# Shear Modulus (GPa) = 30.72469 36.81791 33.77130
#
# Velocity S-wave (km/s) = 3.66342 4.01027 3.84076
# Velocity P-wave (km/s) = 6.09967 6.48895 6.29732
#
# Compressibility (1/GPa) = 0.02261860
#
# Stress axis : x y z
#
# Youngs Moduli (GPa) = 70.07575 48.22632 90.80098
#
# Poissons Ratio (x) = 0.22075 0.11084
# Poissons Ratio (y) = 0.32077 0.53591
# Poissons Ratio (z) = 0.08554 0.28463
#
# Static dielectric constant tensor:
#      x y z
#    x 4.123290 0.010170 -0.012370 
#    y 0.010170 4.158390 0.085830 
#    z -0.012370 0.085830 4.183650 
# 
# 
# High freq. dielectric constant tensor:
#      x y z
#    x 1.911610 -0.002330 -0.005100 
#    y -0.002330 1.908920 0.008810 
#    z -0.005100 0.008810 1.912840 
# 
# From -- ./inp_files/259530.got.cif
#   From: 2010.06.25/outbox.cif.g09.slc.cpg/sg2_130_cif.got.tgz:259530.got - 2010.06.27 13:26:56.
