data_PCOD8033254
_publ_section_title
;
Structure prediction by ZEFSAII (Michael W. Deem and Ramdas Pophale) SiO2 
 PCOD8033254
Probable space group: P -1
;
_chemical_formula_sum "Si O2"
_cell_formula_units_Z 14
_cell_length_a 7.417669
_cell_length_b 13.648676
_cell_length_c 12.315183
_cell_angle_alpha 132.865961
_cell_angle_beta 143.018104
_cell_angle_gamma 57.080291
_cell_volume 549.733726
_symmetry_space_group_name_H-M "P -1"
_symmetry_group_IT_number 2
_symmetry_cell_setting 'triclinic'
loop_
_space_group_symop_operation_xyz
x,y,z
-x,-y,-z
loop_
_atom_site_type_symbol
_atom_site_label
_atom_site_fract_x
_atom_site_fract_y
_atom_site_fract_z
Si Si1 0.471100 0.012881 0.732834
Si Si2 0.674887 0.582606 0.294898
Si Si3 0.015980 0.910095 0.284545
Si Si4 0.225949 0.176630 0.111858
Si Si5 0.846152 0.370729 0.780618
Si Si6 0.281895 0.621440 0.514093
Si Si7 0.352277 0.696254 0.025227
O O1 0.215307 0.000414 0.691791
O O2 0.577296 0.164357 0.893489
O O3 0.725229 0.910924 0.821486
O O4 0.347484 0.962960 0.518126
O O5 0.515859 0.623154 0.363018
O O6 0.529487 0.682607 0.212724
O O7 0.038615 0.597143 0.476105
O O8 0.575393 0.429531 0.110824
O O9 0.988275 0.753558 0.179340
O O10 0.932954 0.923546 0.127447
O O11 0.530682 0.245371 0.265558
O O12 0.003911 0.300773 0.121954
O O13 0.904445 0.354636 0.668456
O O14 0.000000 0.500000 0.000000
O O15 0.500000 0.500000 0.500000
#
# Coordination Sequence:
#
# PCOD8033254 Si02
#       7
#     2   2   2   2   2   2   2
#     4  11  25  45  74 101 147 193 245 301 370 439
#     4  11  24  45  76 109 144 197 244 297 382 429
#     4  11  24  46  68 107 141 191 245 296 373 435
#     4  12  24  47  70 107 147 189 244 305 366 433
#     4  12  23  45  76 104 148 197 243 303 367 435
#     4  12  25  45  71 108 154 188 244 312 355 441
#     4  11  23  45  71 106 143 186 247 306 357 446
#
# _framework density 25.466877
#
# number of rings (size 3 to 8) (size 9 to 14) (size 15 to 20)
#    0.000    0.571    4.286    5.143    2.000    1.143 
#    2.571    0.000    0.000    0.000    0.000    0.000 
#    0.000    0.000    0.000    0.000    0.000    0.000 
#
# Total GULP energy -173568.608441 kJ/mol
# GULP energy per Si atom -12397.757746 kJ/mol
# Density = 2.540891 g / cm^3
# Si number density = 25.466877 Si / 1000 Ang^3
#
#
#
# Elastic Constant Matrix: (Units=GPa)
#
#
# Indices 1 2 3 4 5 6 
#
# 1 69.1435 -7.7009 15.5357 -0.0982 8.0342 -13.8990
# 2 -7.7009 103.9697 24.6659 3.3988 9.2668 -2.4573
# 3 15.5357 24.6659 124.4256 -5.4570 -1.1802 12.7301
# 4 -0.0982 3.3988 -5.4570 34.0636 4.4145 5.9470
# 5 8.0342 9.2668 -1.1802 4.4145 40.4304 -0.9850
# 6 -13.8990 -2.4573 12.7301 5.9470 -0.9850 32.5233
#
#
#
# Elastic Compliance Matrix: (Units=1/GPa)
#
#
# Indices 1 2 3 4 5 6 
#
# 1 0.018097 0.002930 -0.003968 -0.002073 -0.003919 0.009768
# 2 0.002930 0.010946 -0.003000 -0.001799 -0.002897 0.003494
# 3 -0.003968 -0.003000 0.009904 0.002800 0.001307 -0.006271
# 4 -0.002073 -0.001799 0.002800 0.031733 -0.002754 -0.008004
# 5 -0.003919 -0.002897 0.001307 -0.002754 0.026489 -0.001099
# 6 0.009768 0.003494 -0.006271 -0.008004 -0.001099 0.039071
#
#
# Mechanical properties :
#
#
# Convention : Reuss Voigt Hill
#
# Bulk Modulus (GPa) = 32.39269 40.28223 36.33746
# Shear Modulus (GPa) = 32.34041 39.07269 35.70655
#
# Velocity S-wave (km/s) = 3.56743 3.92121 3.74850
# Velocity P-wave (km/s) = 5.45123 6.02934 5.74756
#
# Compressibility (1/GPa) = 0.03087116
#
# Stress axis : x y z
#
# Youngs Moduli (GPa) = 55.25915 91.35383 100.97134
#
# Poissons Ratio (x) = -0.26764 0.40064
# Poissons Ratio (y) = -0.16189 0.30288
# Poissons Ratio (z) = 0.21926 0.27403
#
# Static dielectric constant tensor:
#      x y z
#    x 4.878200 -0.167120 -0.025970 
#    y -0.167120 4.663400 -0.256890 
#    z -0.025970 -0.256890 4.573800 
# 
# 
# High freq. dielectric constant tensor:
#      x y z
#    x 1.999700 -0.010350 0.010370 
#    y -0.010350 2.031300 -0.004780 
#    z 0.010370 -0.004780 2.009180 
# 
# From -- ./inp_files/503338.got.cif
#   From: 2010.06.25/outbox.cif.g09.slc.cpg/sg2_252_cif.got.tgz:503338.got - 2010.06.27 13:26:56.
