data_PCOD8033654
_publ_section_title
;
Structure prediction by ZEFSAII (Michael W. Deem and Ramdas Pophale) SiO2 
 PCOD8033654
Probable space group: P -1
;
_chemical_formula_sum "Si O2"
_cell_formula_units_Z 14
_cell_length_a 17.171767
_cell_length_b 9.346374
_cell_length_c 9.500450
_cell_angle_alpha 31.660092
_cell_angle_beta 125.517687
_cell_angle_gamma 124.141269
_cell_volume 643.408205
_symmetry_space_group_name_H-M "P -1"
_symmetry_group_IT_number 2
_symmetry_cell_setting 'triclinic'
loop_
_space_group_symop_operation_xyz
x,y,z
-x,-y,-z
loop_
_atom_site_type_symbol
_atom_site_label
_atom_site_fract_x
_atom_site_fract_y
_atom_site_fract_z
Si Si1 0.281122 0.742038 0.769013
Si Si2 0.034185 0.285624 0.110708
Si Si3 0.249577 0.313179 0.346642
Si Si4 0.909836 0.558328 0.268758
Si Si5 0.566294 0.278149 0.293959
Si Si6 0.266808 0.542072 0.469999
Si Si7 0.852412 0.963066 0.079454
O O1 0.182635 0.687484 0.616981
O O2 0.371528 0.752634 0.753183
O O3 0.295864 0.035027 0.618072
O O4 0.275844 0.494093 0.083152
O O5 0.134814 0.206965 0.337159
O O6 0.949786 0.023054 0.226766
O O7 0.051471 0.421559 0.863830
O O8 0.000000 0.500000 0.000000
O O9 0.290621 0.495131 0.370989
O O10 0.000000 0.500000 0.500000
O O11 0.876245 0.839213 0.056684
O O12 0.632190 0.360443 0.429899
O O13 0.500000 0.000000 0.500000
O O14 0.500000 0.500000 0.000000
O O15 0.221953 0.252536 0.732599
O O16 0.192827 0.760280 0.227316
#
# Coordination Sequence:
#
# PCOD8033654 Si02
#       7
#     2   2   2   2   2   2   2
#     4  11  25  46  72 102 144 183 232 293 346 425
#     4  11  24  39  63 102 149 189 242 276 330 412
#     4  11  25  45  67 103 147 191 228 279 355 410
#     4  11  24  42  66 103 144 194 240 277 347 408
#     4  12  27  50  78 108 133 177 238 303 369 420
#     4  12  26  45  74 101 138 183 235 297 353 420
#     4  12  24  42  68 101 145 188 241 286 338 408
#
# _framework density 21.759125000000001
#
# number of rings (size 3 to 8) (size 9 to 14) (size 15 to 20)
#    0.000    0.571    2.857    4.714    6.000    1.714 
#    0.000    4.286    0.000    0.000    0.000    0.000 
#    0.000    0.000    0.000    0.000    0.000    0.000 
#
# Total GULP energy -173635.284833 kJ/mol
# GULP energy per Si atom -12402.520345 kJ/mol
# Density = 2.170960 g / cm^3
# Si number density = 21.759125 Si / 1000 Ang^3
#
#
#
# Elastic Constant Matrix: (Units=GPa)
#
#
# Indices 1 2 3 4 5 6 
#
# 1 144.8664 80.8818 41.8612 -4.7230 -1.6146 -4.5105
# 2 80.8818 154.7106 41.8420 0.2386 0.7126 -8.1505
# 3 41.8612 41.8420 85.8585 -12.2440 7.4621 4.1161
# 4 -4.7230 0.2386 -12.2440 36.8763 1.4967 1.7808
# 5 -1.6146 0.7126 7.4621 1.4967 37.1209 -10.3852
# 6 -4.5105 -8.1505 4.1161 1.7808 -10.3852 51.7637
#
#
#
# Elastic Compliance Matrix: (Units=1/GPa)
#
#
# Indices 1 2 3 4 5 6 
#
# 1 0.010356 -0.004599 -0.002908 0.000306 0.001295 0.000659
# 2 -0.004599 0.009728 -0.002878 -0.001711 0.000697 0.001558
# 3 -0.002908 -0.002878 0.015722 0.005185 -0.004278 -0.002993
# 4 0.000306 -0.001711 0.005185 0.029110 -0.002790 -0.002216
# 5 0.001295 0.000697 -0.004278 -0.002790 0.029812 0.006640
# 6 0.000659 0.001558 -0.002993 -0.002216 0.006640 0.021268
#
#
# Mechanical properties :
#
#
# Convention : Reuss Voigt Hill
#
# Bulk Modulus (GPa) = 66.50840 79.40061 72.95450
# Shear Modulus (GPa) = 35.26641 39.87556 37.57098
#
# Velocity S-wave (km/s) = 4.03024 4.28552 4.15984
# Velocity P-wave (km/s) = 7.23113 7.81393 7.52817
#
# Compressibility (1/GPa) = 0.01503569
#
# Stress axis : x y z
#
# Youngs Moduli (GPa) = 96.56130 102.79659 63.60462
#
# Poissons Ratio (x) = 0.47279 0.18498
# Poissons Ratio (y) = 0.44411 0.18303
# Poissons Ratio (z) = 0.28083 0.29581
#
# Static dielectric constant tensor:
#      x y z
#    x 4.657270 0.161590 -0.145920 
#    y 0.161590 5.143970 0.430890 
#    z -0.145920 0.430890 4.148780 
# 
# 
# High freq. dielectric constant tensor:
#      x y z
#    x 1.858880 -0.013750 -0.004890 
#    y -0.013750 1.870590 -0.005040 
#    z -0.004890 -0.005040 1.852910 
# 
# From -- ./inp_files/60502.got.cif
#   From: 2010.06.25/outbox.cif.g09.slc.cpg/sg2_31_cif.got.tgz:60502.got - 2010.06.27 13:26:56.
