data_PCOD8033480
_publ_section_title
;
Structure prediction by ZEFSAII (Michael W. Deem and Ramdas Pophale) SiO2 
 PCOD8033480
Probable space group: P -1
;
_chemical_formula_sum "Si O2"
_cell_formula_units_Z 14
_cell_length_a 9.580075
_cell_length_b 11.107772
_cell_length_c 9.100245
_cell_angle_alpha 60.891012
_cell_angle_beta 43.761688
_cell_angle_gamma 64.985588
_cell_volume 581.085959
_symmetry_space_group_name_H-M "P -1"
_symmetry_group_IT_number 2
_symmetry_cell_setting 'triclinic'
loop_
_space_group_symop_operation_xyz
x,y,z
-x,-y,-z
loop_
_atom_site_type_symbol
_atom_site_label
_atom_site_fract_x
_atom_site_fract_y
_atom_site_fract_z
Si Si1 0.399525 0.741140 0.122448
Si Si2 0.375556 0.470764 0.466493
Si Si3 0.950236 0.536416 0.682925
Si Si4 0.295957 0.102563 0.077322
Si Si5 0.023936 0.141952 0.519927
Si Si6 0.027807 0.926303 0.871072
Si Si7 0.666636 0.321455 0.117854
O O1 0.344180 0.595147 0.300664
O O2 0.219708 0.855131 0.260085
O O3 0.620335 0.755768 0.016173
O O4 0.403591 0.749185 0.936729
O O5 0.500000 0.500000 0.500000
O O6 0.484452 0.344111 0.362286
O O7 0.137218 0.462552 0.687742
O O8 0.909272 0.703539 0.621004
O O9 0.000000 0.500000 0.500000
O O10 0.751420 0.468324 0.929286
O O11 0.102037 0.075992 0.342845
O O12 0.196990 0.110979 0.986313
O O13 0.500000 0.000000 0.000000
O O14 0.129744 0.036759 0.624875
O O15 0.168191 0.782021 0.861738
O O16 0.000000 0.000000 0.000000
#
# Coordination Sequence:
#
# PCOD8033480 Si02
#       7
#     2   2   2   2   2   2   2
#     4  11  24  47  69 102 142 184 237 283 350 418
#     4  11  27  42  69 107 144 182 237 287 346 416
#     4  11  23  46  74 101 136 190 229 280 356 415
#     4  12  26  43  74  99 139 192 232 280 356 418
#     4  11  24  46  74  97 143 181 233 284 350 411
#     4  12  25  49  69 105 141 180 236 293 345 413
#     4  12  25  46  73 102 147 182 231 294 345 415
#
# _framework density 24.092822999999999
#
# number of rings (size 3 to 8) (size 9 to 14) (size 15 to 20)
#    0.000    0.571    5.714    1.714    8.000    0.571 
#    0.000    1.429    0.000    0.000    0.000    0.000 
#    0.000    0.000    0.000    0.000    0.000    0.000 
#
# Total GULP energy -173467.957252 kJ/mol
# GULP energy per Si atom -12390.568375 kJ/mol
# Density = 2.403799 g / cm^3
# Si number density = 24.092823 Si / 1000 Ang^3
#
#
#
# Elastic Constant Matrix: (Units=GPa)
#
#
# Indices 1 2 3 4 5 6 
#
# 1 161.2159 43.1941 21.8710 7.5057 5.1662 15.6903
# 2 43.1941 95.0755 31.1934 5.6455 11.0969 -5.8265
# 3 21.8710 31.1934 76.4989 11.4443 1.5568 14.8513
# 4 7.5057 5.6455 11.4443 48.1081 9.6277 10.2210
# 5 5.1662 11.0969 1.5568 9.6277 38.7668 -5.0693
# 6 15.6903 -5.8265 14.8513 10.2210 -5.0693 36.4253
#
#
#
# Elastic Compliance Matrix: (Units=1/GPa)
#
#
# Indices 1 2 3 4 5 6 
#
# 1 0.007571 -0.003664 0.000091 0.000186 -0.000535 -0.004011
# 2 -0.003664 0.014903 -0.006109 -0.000533 -0.002583 0.006243
# 3 0.000091 -0.006109 0.017258 -0.001934 0.000552 -0.007434
# 4 0.000186 -0.000533 -0.001934 0.024128 -0.006713 -0.007082
# 5 -0.000535 -0.002583 0.000552 -0.006713 0.028971 0.005508
# 6 -0.004011 0.006243 -0.007434 -0.007082 0.005508 0.035964
#
#
# Mechanical properties :
#
#
# Convention : Reuss Voigt Hill
#
# Bulk Modulus (GPa) = 49.09517 58.36747 53.73132
# Shear Modulus (GPa) = 32.26891 40.42883 36.34887
#
# Velocity S-wave (km/s) = 3.66369 4.10084 3.88841
# Velocity P-wave (km/s) = 6.19020 6.83383 6.51996
#
# Compressibility (1/GPa) = 0.02036860
#
# Stress axis : x y z
#
# Youngs Moduli (GPa) = 132.08250 67.10241 57.94366
#
# Poissons Ratio (x) = 0.24587 -0.00529
# Poissons Ratio (y) = 0.48396 0.35397
# Poissons Ratio (z) = -0.01205 0.40991
#
# Static dielectric constant tensor:
#      x y z
#    x 3.888150 0.425470 -0.609860 
#    y 0.425470 4.925480 -0.193050 
#    z -0.609860 -0.193050 5.190320 
# 
# 
# High freq. dielectric constant tensor:
#      x y z
#    x 1.961910 0.009730 -0.009580 
#    y 0.009730 1.981940 0.009870 
#    z -0.009580 0.009870 1.947730 
# 
# From -- ./inp_files/175737.got.cif
#   From: 2010.06.25/outbox.cif.g09.slc.cpg/sg2_88_cif.got.tgz:175737.got - 2010.06.27 13:26:56.
