data_PCOD8033518
_publ_section_title
;
Structure prediction by ZEFSAII (Michael W. Deem and Ramdas Pophale) SiO2 
 PCOD8033518
Probable space group: P -1
;
_chemical_formula_sum "Si O2"
_cell_formula_units_Z 10
_cell_length_a 7.437993
_cell_length_b 8.150832
_cell_length_c 8.779145
_cell_angle_alpha 51.962528
_cell_angle_beta 78.896098
_cell_angle_gamma 68.373274
_cell_volume 389.256077
_symmetry_space_group_name_H-M "P -1"
_symmetry_group_IT_number 2
_symmetry_cell_setting 'triclinic'
loop_
_space_group_symop_operation_xyz
x,y,z
-x,-y,-z
loop_
_atom_site_type_symbol
_atom_site_label
_atom_site_fract_x
_atom_site_fract_y
_atom_site_fract_z
Si Si1 0.626179 0.917518 0.873820
Si Si2 0.979683 0.690046 0.520316
Si Si3 0.045203 0.889635 0.895110
Si Si4 0.395111 0.670053 0.545202
Si Si5 0.329017 0.421805 0.170982
O O1 0.579083 0.712242 0.920916
O O2 0.854677 0.830972 0.917160
O O3 0.582835 0.102811 0.645323
O O4 0.500000 0.000000 0.000000
O O5 0.176999 0.663403 0.594361
O O6 0.175078 0.319371 0.324920
O O7 0.000000 0.500000 0.500000
O O8 0.905635 0.934762 0.323000
O O9 0.230341 0.674161 0.995918
O O10 0.000000 0.000000 0.000000
O O11 0.500000 0.500000 0.500000
O O12 0.495918 0.599582 0.730340
#
# Coordination Sequence:
#
# PCOD8033518 Si02
#       5
#     2   2   2   2   2
#     4  11  28  50  74 106 158 200 250 315 371 437
#     4  11  23  46  80 108 155 197 238 312 380 449
#     4  11  24  47  76 114 146 196 252 303 381 454
#     4  11  24  47  76 114 146 196 252 303 381 454
#     4  12  25  51  78 114 149 200 253 307 375 446
#
# _framework density 25.690028999999999
#
# number of rings (size 3 to 8) (size 9 to 14) (size 15 to 20)
#    0.000    0.800    4.000    2.400    5.600    3.200 
#    7.200    3.000    0.000    0.000    0.000    0.000 
#    0.000    0.000    0.000    0.000    0.000    0.000 
#
# Total GULP energy -124006.399394 kJ/mol
# GULP energy per Si atom -12400.639939 kJ/mol
# Density = 2.563156 g / cm^3
# Si number density = 25.690029 Si / 1000 Ang^3
#
#
#
# Elastic Constant Matrix: (Units=GPa)
#
#
# Indices 1 2 3 4 5 6 
#
# 1 164.0423 61.0999 111.0240 -12.1412 13.1267 2.4354
# 2 61.0999 202.2376 78.9598 7.5127 31.6831 9.5418
# 3 111.0240 78.9598 144.7167 -16.9962 4.3902 -10.5276
# 4 -12.1412 7.5127 -16.9962 49.8837 -10.1542 2.8664
# 5 13.1267 31.6831 4.3902 -10.1542 61.9969 9.8474
# 6 2.4354 9.5418 -10.5276 2.8664 9.8474 27.6993
#
#
#
# Elastic Compliance Matrix: (Units=1/GPa)
#
#
# Indices 1 2 3 4 5 6 
#
# 1 0.013583 0.000858 -0.011288 -0.000753 -0.001836 -0.005049
# 2 0.000858 0.007616 -0.005312 -0.003340 -0.003763 -0.003035
# 3 -0.011288 -0.005312 0.019573 0.004865 0.003143 0.008641
# 4 -0.000753 -0.003340 0.004865 0.023225 0.005533 -0.001305
# 5 -0.001836 -0.003763 0.003143 0.005533 0.019920 -0.005002
# 6 -0.005049 -0.003035 0.008641 -0.001305 -0.005002 0.042789
#
#
# Mechanical properties :
#
#
# Convention : Reuss Voigt Hill
#
# Bulk Modulus (GPa) = 107.68787 112.57378 110.13082
# Shear Modulus (GPa) = 31.00041 45.24351 38.12196
#
# Velocity S-wave (km/s) = 3.47754 4.20114 3.85635
# Velocity P-wave (km/s) = 7.62454 8.21267 7.92406
#
# Compressibility (1/GPa) = 0.00928610
#
# Stress axis : x y z
#
# Youngs Moduli (GPa) = 73.62298 131.29414 51.08954
#
# Poissons Ratio (x) = -0.11260 0.57672
# Poissons Ratio (y) = -0.06314 0.27141
# Poissons Ratio (z) = 0.83108 0.69750
#
# Static dielectric constant tensor:
#      x y z
#    x 4.787440 0.215010 -0.127320 
#    y 0.215010 4.832650 -0.073470 
#    z -0.127320 -0.073470 4.632060 
# 
# 
# High freq. dielectric constant tensor:
#      x y z
#    x 2.047250 0.004960 -0.002010 
#    y 0.004960 2.042400 -0.004680 
#    z -0.002010 -0.004680 2.042540 
# 
# From -- ./inp_files/152884.got.cif
#   From: 2010.06.25/outbox.cif.g09.slc.cpg/sg2_77_cif.got.tgz:152884.got - 2010.06.27 13:26:56.
