data_PCOD8033902
_publ_section_title
;
Structure prediction by ZEFSAII (Michael W. Deem and Ramdas Pophale) SiO2 
 PCOD8033902
Probable space group: P -1
;
_chemical_formula_sum "Si O2"
_cell_formula_units_Z 12
_cell_length_a 10.254584
_cell_length_b 9.019445
_cell_length_c 9.637396
_cell_angle_alpha 106.208704
_cell_angle_beta 138.932909
_cell_angle_gamma 84.360255
_cell_volume 553.339835
_symmetry_space_group_name_H-M "P -1"
_symmetry_group_IT_number 2
_symmetry_cell_setting 'triclinic'
loop_
_space_group_symop_operation_xyz
x,y,z
-x,-y,-z
loop_
_atom_site_type_symbol
_atom_site_label
_atom_site_fract_x
_atom_site_fract_y
_atom_site_fract_z
Si Si1 0.359157 0.907174 0.977441
Si Si2 0.467823 0.366030 0.824686
Si Si3 0.084544 0.315095 0.149208
Si Si4 0.015271 0.336069 0.400724
Si Si5 0.394883 0.102438 0.330343
Si Si6 0.699406 0.377800 0.728723
O O1 0.147054 0.815718 0.717822
O O2 0.474138 0.780420 0.095106
O O3 0.500000 0.000000 0.000000
O O4 0.332015 0.019632 0.113057
O O5 0.236687 0.302488 0.589249
O O6 0.589272 0.411482 0.792194
O O7 0.500000 0.500000 0.000000
O O8 0.976924 0.359559 0.213846
O O9 0.184071 0.159982 0.217802
O O10 0.253626 0.458256 0.271262
O O11 0.897390 0.295649 0.886586
O O12 0.000000 0.500000 0.500000
O O13 0.557470 0.260231 0.481943
O O14 0.500000 0.000000 0.500000
#
# Coordination Sequence:
#
# PCOD8033902 Si02
#       6
#     2   2   2   2   2   2
#     4  12  29  46  67 108 140 184 234 290 362 412
#     4  12  24  46  72  99 142 183 236 287 349 421
#     4  11  24  42  73 102 137 181 245 279 352 417
#     4  12  24  45  73  98 137 185 233 288 348 419
#     4  12  24  45  70  98 148 181 228 292 356 413
#     4  11  24  43  69 108 132 188 235 290 344 420
#
# _framework density 21.686489999999999
#
# number of rings (size 3 to 8) (size 9 to 14) (size 15 to 20)
#    0.000    0.333    6.667    0.500    4.667    4.667 
#    0.000    0.000    0.000    0.000    0.000    0.000 
#    0.000    0.000    0.000    0.000    0.000    0.000 
#
# Total GULP energy -148686.762538 kJ/mol
# GULP energy per Si atom -12390.563545 kJ/mol
# Density = 2.163713 g / cm^3
# Si number density = 21.686490 Si / 1000 Ang^3
#
#
#
# Elastic Constant Matrix: (Units=GPa)
#
#
# Indices 1 2 3 4 5 6 
#
# 1 112.1278 60.6179 24.1160 22.5419 5.2266 16.1124
# 2 60.6179 96.5525 31.6471 7.8375 -4.8787 -10.8372
# 3 24.1160 31.6471 94.9738 34.5961 15.0532 -2.4015
# 4 22.5419 7.8375 34.5961 46.8483 -4.7091 3.9841
# 5 5.2266 -4.8787 15.0532 -4.7091 44.8020 3.7083
# 6 16.1124 -10.8372 -2.4015 3.9841 3.7083 42.9051
#
#
#
# Elastic Compliance Matrix: (Units=1/GPa)
#
#
# Indices 1 2 3 4 5 6 
#
# 1 0.018860 -0.013572 0.003711 -0.009298 -0.005158 -0.008994
# 2 -0.013572 0.022112 -0.007916 0.008610 0.006823 0.008849
# 3 0.003711 -0.007916 0.019489 -0.015807 -0.009503 -0.000013
# 4 -0.009298 0.008610 -0.015807 0.037148 0.011208 0.000364
# 5 -0.005158 0.006823 -0.009503 0.011208 0.028064 -0.000338
# 6 -0.008994 0.008849 -0.000013 0.000364 -0.000338 0.028915
#
#
# Mechanical properties :
#
#
# Convention : Reuss Voigt Hill
#
# Bulk Modulus (GPa) = 40.15226 59.60178 49.87702
# Shear Modulus (GPa) = 25.19611 39.39594 32.29602
#
# Velocity S-wave (km/s) = 3.41227 4.26680 3.86323
# Velocity P-wave (km/s) = 5.83779 7.19841 6.55351
#
# Compressibility (1/GPa) = 0.02490520
#
# Stress axis : x y z
#
# Youngs Moduli (GPa) = 53.02348 45.22500 51.31145
#
# Poissons Ratio (x) = 0.61380 -0.19040
# Poissons Ratio (y) = 0.71964 0.40618
# Poissons Ratio (z) = -0.19675 0.35800
#
# Static dielectric constant tensor:
#      x y z
#    x 4.073220 -0.142140 0.136060 
#    y -0.142140 3.963820 -0.098380 
#    z 0.136060 -0.098380 4.295420 
# 
# 
# High freq. dielectric constant tensor:
#      x y z
#    x 1.852170 -0.010990 0.017370 
#    y -0.010990 1.855490 0.001170 
#    z 0.017370 0.001170 1.874190 
# 
# From -- ./inp_files/160042.got.cif
#   From: 2010.06.25/outbox.cif.g09.slc.cpg/sg2_81_cif.got.tgz:160042.got - 2010.06.27 13:26:56.
