data_PCOD8033243
_publ_section_title
;
Structure prediction by ZEFSAII (Michael W. Deem and Ramdas Pophale) SiO2 
 PCOD8033243
Probable space group: P -1
;
_chemical_formula_sum "Si O2"
_cell_formula_units_Z 16
_cell_length_a 9.061812
_cell_length_b 14.715105
_cell_length_c 15.536260
_cell_angle_alpha 151.378973
_cell_angle_beta 45.352841
_cell_angle_gamma 131.594340
_cell_volume 699.277100
_symmetry_space_group_name_H-M "P -1"
_symmetry_group_IT_number 2
_symmetry_cell_setting 'triclinic'
loop_
_space_group_symop_operation_xyz
x,y,z
-x,-y,-z
loop_
_atom_site_type_symbol
_atom_site_label
_atom_site_fract_x
_atom_site_fract_y
_atom_site_fract_z
Si Si1 0.668628 0.608040 0.149677
Si Si2 0.485179 0.305280 0.296496
Si Si3 0.141275 0.014525 0.831778
Si Si4 0.018864 0.053766 0.636470
Si Si5 0.346625 0.707664 0.965628
Si Si6 0.017323 0.249643 0.462659
Si Si7 0.303293 0.971145 0.903623
Si Si8 0.768380 0.548086 0.874038
O O1 0.760230 0.822923 0.322159
O O2 0.690361 0.483138 0.121725
O O3 0.432675 0.592274 0.196565
O O4 0.797511 0.535570 0.955500
O O5 0.500000 0.500000 0.500000
O O6 0.645067 0.331442 0.172745
O O7 0.241689 0.252478 0.325826
O O8 0.540293 0.148371 0.211026
O O9 0.236784 0.901417 0.776570
O O10 0.255042 0.231684 0.954633
O O11 0.157880 0.879649 0.630679
O O12 0.899248 0.030660 0.957452
O O13 0.000000 0.000000 0.500000
O O14 0.988467 0.848442 0.523658
O O15 0.837371 0.171096 0.838145
O O16 0.574727 0.817442 0.986044
O O17 0.963757 0.466525 0.679637
#
# Coordination Sequence:
#
# PCOD8033243 Si02
#       8
#     2   2   2   2   2   2   2   2
#     4  11  26  47  70 102 143 192 240 293 355 414
#     4  12  27  44  71 107 142 184 236 295 365 429
#     4  11  23  46  73 104 142 188 235 294 357 424
#     4  12  27  44  70 104 144 191 244 289 354 426
#     4  12  24  45  72  99 144 184 231 297 356 420
#     4  12  25  45  74 106 143 186 238 294 360 430
#     4  11  23  45  71 101 141 185 231 290 363 420
#     4  11  25  47  72 105 144 187 240 297 350 426
#
# _framework density 22.880772
#
# number of rings (size 3 to 8) (size 9 to 14) (size 15 to 20)
#    0.000    0.500    5.000    3.000    3.500    2.500 
#    0.000    2.500    0.000    0.000    0.000    0.000 
#    0.000    0.000    0.000    0.000    0.000    0.000 
#
# Total GULP energy -198326.576815 kJ/mol
# GULP energy per Si atom -12395.411051 kJ/mol
# Density = 2.282869 g / cm^3
# Si number density = 22.880772 Si / 1000 Ang^3
#
#
#
# Elastic Constant Matrix: (Units=GPa)
#
#
# Indices 1 2 3 4 5 6 
#
# 1 90.1694 24.1436 47.8436 -10.5193 24.4720 -11.9599
# 2 24.1436 92.6344 33.3770 -8.3124 11.2185 -8.0068
# 3 47.8436 33.3770 118.6983 -15.6635 23.7226 -16.9782
# 4 -10.5193 -8.3124 -15.6635 34.9103 1.7949 5.6948
# 5 24.4720 11.2185 23.7226 1.7949 37.1264 1.3180
# 6 -11.9599 -8.0068 -16.9782 5.6948 1.3180 47.2799
#
#
#
# Elastic Compliance Matrix: (Units=1/GPa)
#
#
# Indices 1 2 3 4 5 6 
#
# 1 0.016377 -0.001430 -0.003850 0.002894 -0.008128 0.002396
# 2 -0.001430 0.012369 -0.002324 0.001419 -0.001406 0.000767
# 3 -0.003850 -0.002324 0.012532 0.003708 -0.005048 0.002827
# 4 0.002894 0.001419 0.003708 0.032063 -0.006207 -0.001385
# 5 -0.008128 -0.001406 -0.005048 -0.006207 0.036398 -0.004374
# 6 0.002396 0.000767 0.002827 -0.001385 -0.004374 0.023191
#
#
# Mechanical properties :
#
#
# Convention : Reuss Voigt Hill
#
# Bulk Modulus (GPa) = 38.35687 56.91450 47.63569
# Shear Modulus (GPa) = 31.88189 36.93917 34.41053
#
# Velocity S-wave (km/s) = 3.73687 4.02234 3.88223
# Velocity P-wave (km/s) = 5.95139 6.81914 6.39999
#
# Compressibility (1/GPa) = 0.02607095
#
# Stress axis : x y z
#
# Youngs Moduli (GPa) = 61.05995 80.84741 79.79310
#
# Poissons Ratio (x) = 0.11562 0.30720
# Poissons Ratio (y) = 0.08733 0.18542
# Poissons Ratio (z) = 0.23508 0.18787
#
# Static dielectric constant tensor:
#      x y z
#    x 4.204090 0.122920 0.252220 
#    y 0.122920 4.061060 0.031970 
#    z 0.252220 0.031970 3.960900 
# 
# 
# High freq. dielectric constant tensor:
#      x y z
#    x 1.912680 0.002150 0.018490 
#    y 0.002150 1.913510 -0.001480 
#    z 0.018490 -0.001480 1.893320 
# 
# From -- ./inp_files/398501.got.cif
#   From: 2010.06.25/outbox.cif.g09.slc.cpg/sg2_200_cif.got.tgz:398501.got - 2010.06.27 13:26:56.
