data_PCOD8033035
_publ_section_title
;
Structure prediction by ZEFSAII (Michael W. Deem and Ramdas Pophale) SiO2 
 PCOD8033035
Probable space group: P -1
;
_chemical_formula_sum "Si O2"
_cell_formula_units_Z 14
_cell_length_a 14.548609
_cell_length_b 8.170425
_cell_length_c 15.770762
_cell_angle_alpha 140.256014
_cell_angle_beta 151.932532
_cell_angle_gamma 39.583223
_cell_volume 536.788070
_symmetry_space_group_name_H-M "P -1"
_symmetry_group_IT_number 2
_symmetry_cell_setting 'triclinic'
loop_
_space_group_symop_operation_xyz
x,y,z
-x,-y,-z
loop_
_atom_site_type_symbol
_atom_site_label
_atom_site_fract_x
_atom_site_fract_y
_atom_site_fract_z
Si Si1 0.821080 0.457262 0.413154
Si Si2 0.880929 0.348803 0.686668
Si Si3 0.222556 0.076649 0.120600
Si Si4 0.816464 0.774874 0.259210
Si Si5 0.996677 0.895201 0.725726
Si Si6 0.490069 0.259758 0.270494
Si Si7 0.379991 0.567253 0.146971
O O1 0.804355 0.775018 0.519963
O O2 0.627183 0.433413 0.296531
O O3 0.042477 0.326634 0.585032
O O4 0.824220 0.312962 0.267541
O O5 0.914038 0.642186 0.836955
O O6 0.641000 0.403789 0.493749
O O7 0.033435 0.163364 0.666475
O O8 0.928300 0.195227 0.752437
O O9 0.375605 0.138082 0.200006
O O10 0.328876 0.884454 0.209718
O O11 0.076942 0.926498 0.897286
O O12 0.622999 0.023221 0.224065
O O13 0.724351 0.550628 0.059179
O O14 0.327071 0.479264 0.163712
#
# Coordination Sequence:
#
# PCOD8033035 Si02
#       7
#     2   2   2   2   2   2   2
#     4  11  23  44  75 107 140 190 241 306 358 419
#     4  12  25  47  72 103 150 196 238 295 366 433
#     4  12  28  46  71 110 151 193 236 297 367 437
#     4  12  24  48  74 107 142 188 248 301 356 424
#     4  11  23  44  72 103 145 190 245 297 357 433
#     4  12  25  47  74 107 146 189 246 303 355 427
#     4  12  26  45  73 111 146 185 243 301 360 432
#
# _framework density 26.081057000000001
#
# number of rings (size 3 to 8) (size 9 to 14) (size 15 to 20)
#    0.000    0.286    4.286    5.143    2.000    2.286 
#    2.571    0.000    0.000    0.000    0.000    0.000 
#    0.000    0.000    0.000    0.000    0.000    0.000 
#
# Total GULP energy -173545.905752 kJ/mol
# GULP energy per Si atom -12396.136125 kJ/mol
# Density = 2.602170 g / cm^3
# Si number density = 26.081057 Si / 1000 Ang^3
#
#
#
# Elastic Constant Matrix: (Units=GPa)
#
#
# Indices 1 2 3 4 5 6 
#
# 1 85.7611 35.6530 -10.2680 -8.0676 -4.4247 12.7420
# 2 35.6530 121.6105 22.0058 -2.4167 -10.5672 31.9765
# 3 -10.2680 22.0058 73.6501 2.7080 1.4958 -3.3588
# 4 -8.0676 -2.4167 2.7080 34.1543 7.2438 -5.6398
# 5 -4.4247 -10.5672 1.4958 7.2438 29.4725 1.0251
# 6 12.7420 31.9765 -3.3588 -5.6398 1.0251 47.1446
#
#
#
# Elastic Compliance Matrix: (Units=1/GPa)
#
#
# Indices 1 2 3 4 5 6 
#
# 1 0.014289 -0.004757 0.003315 0.002859 -0.000430 -0.000048
# 2 -0.004757 0.013109 -0.004981 -0.002257 0.005083 -0.008341
# 3 0.003315 -0.004981 0.015732 0.000276 -0.002283 0.003686
# 4 0.002859 -0.002257 0.000276 0.032378 -0.008520 0.004836
# 5 -0.000430 0.005083 -0.002283 -0.008520 0.038084 -0.005342
# 6 -0.000048 -0.008341 0.003686 0.004836 -0.005342 0.027839
#
#
# Mechanical properties :
#
#
# Convention : Reuss Voigt Hill
#
# Bulk Modulus (GPa) = 33.02020 41.75593 37.38807
# Shear Modulus (GPa) = 30.41904 37.72968 34.07436
#
# Velocity S-wave (km/s) = 3.41886 3.80759 3.61845
# Velocity P-wave (km/s) = 5.31722 5.94770 5.64128
#
# Compressibility (1/GPa) = 0.03028449
#
# Stress axis : x y z
#
# Youngs Moduli (GPa) = 69.98605 76.28432 63.56356
#
# Poissons Ratio (x) = 0.36286 -0.21070
# Poissons Ratio (y) = 0.33290 0.31658
# Poissons Ratio (z) = -0.23198 0.37994
#
# Static dielectric constant tensor:
#      x y z
#    x 4.761640 0.243710 0.109740 
#    y 0.243710 4.633570 0.145010 
#    z 0.109740 0.145010 4.719590 
# 
# 
# High freq. dielectric constant tensor:
#      x y z
#    x 2.043720 0.020670 0.003590 
#    y 0.020670 2.045030 0.008280 
#    z 0.003590 0.008280 2.049650 
# 
# From -- ./inp_files/261324.got.cif
#   From: 2010.06.25/outbox.cif.g09.slc.cpg/sg2_131_cif.got.tgz:261324.got - 2010.06.27 13:26:56.
