data_PCOD8033093
_publ_section_title
;
Structure prediction by ZEFSAII (Michael W. Deem and Ramdas Pophale) SiO2 
 PCOD8033093
Probable space group: P -1
;
_chemical_formula_sum "Si O2"
_cell_formula_units_Z 16
_cell_length_a 11.520284
_cell_length_b 8.902145
_cell_length_c 29.218396
_cell_angle_alpha 32.314245
_cell_angle_beta 149.126680
_cell_angle_gamma 127.347306
_cell_volume 740.969039
_symmetry_space_group_name_H-M "P -1"
_symmetry_group_IT_number 2
_symmetry_cell_setting 'triclinic'
loop_
_space_group_symop_operation_xyz
x,y,z
-x,-y,-z
loop_
_atom_site_type_symbol
_atom_site_label
_atom_site_fract_x
_atom_site_fract_y
_atom_site_fract_z
Si Si1 0.115618 0.214002 0.002288
Si Si2 0.948153 0.485618 0.268197
Si Si3 0.893967 0.217232 0.493247
Si Si4 0.368383 0.311616 0.980622
Si Si5 0.638924 0.620148 0.219513
Si Si6 0.385257 0.681786 0.367992
Si Si7 0.778603 0.607721 0.862253
Si Si8 0.390705 0.290428 0.655834
O O1 0.361916 0.017188 0.166920
O O2 0.155147 0.367829 0.930530
O O3 0.900676 0.496234 0.883153
O O4 0.000000 0.000000 0.000000
O O5 0.752633 0.552795 0.143712
O O6 0.788181 0.626243 0.223273
O O7 0.125251 0.660828 0.274640
O O8 0.114237 0.115638 0.422933
O O9 0.822027 0.351176 0.383752
O O10 0.689091 0.437395 0.403554
O O11 0.173053 0.175814 0.608205
O O12 0.500000 0.500000 0.000000
O O13 0.556065 0.947661 0.133012
O O14 0.403790 0.550260 0.144937
O O15 0.500000 0.500000 0.500000
O O16 0.564125 0.564625 0.413815
O O17 0.362460 0.023526 0.281222
O O18 0.000000 0.500000 0.000000
#
# Coordination Sequence:
#
# PCOD8033093 Si02
#       8
#     2   2   2   2   2   2   2   2
#     4  12  23  46  70 100 135 181 237 279 333 417
#     4  12  27  44  68 106 145 174 227 294 350 402
#     4  11  24  45  75  97 132 190 231 280 340 417
#     4  12  27  42  69 103 140 176 225 290 348 396
#     4  12  25  48  70 103 138 184 234 277 345 428
#     4  12  26  44  69 108 143 179 226 291 355 403
#     4  12  25  43  76  97 135 188 229 278 338 413
#     4  11  23  44  73  98 136 180 240 278 336 419
#
# _framework density 21.593346
#
# number of rings (size 3 to 8) (size 9 to 14) (size 15 to 20)
#    0.000    0.250    3.750    5.250    5.250    1.500 
#    0.000    0.000    0.000    0.000    0.000    0.000 
#    0.000    0.000    0.000    0.000    0.000    0.000 
#
# Total GULP energy -198434.246510 kJ/mol
# GULP energy per Si atom -12402.140407 kJ/mol
# Density = 2.154420 g / cm^3
# Si number density = 21.593346 Si / 1000 Ang^3
#
#
#
# Elastic Constant Matrix: (Units=GPa)
#
#
# Indices 1 2 3 4 5 6 
#
# 1 154.9135 31.7070 4.3470 -6.3078 5.1016 -2.2948
# 2 31.7070 138.7560 20.6431 -6.5332 9.4799 6.7915
# 3 4.3470 20.6431 73.2695 1.9340 -10.2860 -0.5950
# 4 -6.3078 -6.5332 1.9340 40.2117 -4.7987 -4.4968
# 5 5.1016 9.4799 -10.2860 -4.7987 41.5534 5.9592
# 6 -2.2948 6.7915 -0.5950 -4.4968 5.9592 33.1735
#
#
#
# Elastic Compliance Matrix: (Units=1/GPa)
#
#
# Indices 1 2 3 4 5 6 
#
# 1 0.006837 -0.001522 -0.000069 0.000875 -0.000552 0.001001
# 2 -0.001522 0.008173 -0.002528 0.000819 -0.002015 -0.001351
# 3 -0.000069 -0.002528 0.014974 -0.000645 0.004227 -0.000065
# 4 0.000875 0.000819 -0.000645 0.025754 0.002091 0.002997
# 5 -0.000552 -0.002015 0.004227 0.002091 0.026457 -0.004019
# 6 0.001001 -0.001351 -0.000065 0.002997 -0.004019 0.031617
#
#
# Mechanical properties :
#
#
# Convention : Reuss Voigt Hill
#
# Bulk Modulus (GPa) = 45.98484 53.37036 49.67760
# Shear Modulus (GPa) = 38.66947 43.67053 41.17000
#
# Velocity S-wave (km/s) = 4.23638 4.50200 4.37121
# Velocity P-wave (km/s) = 6.72840 7.19679 6.96653
#
# Compressibility (1/GPa) = 0.02174630
#
# Stress axis : x y z
#
# Youngs Moduli (GPa) = 146.25582 122.35138 66.78049
#
# Poissons Ratio (x) = 0.18624 0.00462
# Poissons Ratio (y) = 0.22263 0.16881
# Poissons Ratio (z) = 0.01012 0.30929
#
# Static dielectric constant tensor:
#      x y z
#    x 4.096770 -0.150650 0.074470 
#    y -0.150650 4.130540 0.202710 
#    z 0.074470 0.202710 3.752180 
# 
# 
# High freq. dielectric constant tensor:
#      x y z
#    x 1.868590 -0.006480 -0.000130 
#    y -0.006480 1.866000 0.003770 
#    z -0.000130 0.003770 1.847540 
# 
# From -- ./inp_files/279973.got.cif
#   From: 2010.06.25/outbox.cif.g09.slc.cpg/sg2_140_cif.got.tgz:279973.got - 2010.06.27 13:26:56.
