data_PCOD8033690
_publ_section_title
;
Structure prediction by ZEFSAII (Michael W. Deem and Ramdas Pophale) SiO2 
 PCOD8033690
Probable space group: P -1
;
_chemical_formula_sum "Si O2"
_cell_formula_units_Z 14
_cell_length_a 8.768375
_cell_length_b 25.573891
_cell_length_c 18.948449
_cell_angle_alpha 18.785314
_cell_angle_beta 31.204368
_cell_angle_gamma 40.899139
_cell_volume 670.883694
_symmetry_space_group_name_H-M "P -1"
_symmetry_group_IT_number 2
_symmetry_cell_setting 'triclinic'
loop_
_space_group_symop_operation_xyz
x,y,z
-x,-y,-z
loop_
_atom_site_type_symbol
_atom_site_label
_atom_site_fract_x
_atom_site_fract_y
_atom_site_fract_z
Si Si1 0.640977 0.200874 0.178944
Si Si2 0.388923 0.231256 0.556815
Si Si3 0.668229 0.553272 0.939179
Si Si4 0.662865 0.358032 0.820482
Si Si5 0.349675 0.312729 0.766758
Si Si6 0.382060 0.634030 0.559426
Si Si7 0.674945 0.145632 0.954380
O O1 0.500000 0.000000 0.500000
O O2 0.437116 0.294876 0.181331
O O3 0.642795 0.240847 0.045136
O O4 0.988383 0.261430 0.994192
O O5 0.605199 0.393201 0.221592
O O6 0.485463 0.235056 0.595867
O O7 0.040195 0.234604 0.682928
O O8 0.416093 0.056827 0.736178
O O9 0.500000 0.500000 0.000000
O O10 0.035616 0.625903 0.687619
O O11 0.399417 0.449655 0.812820
O O12 0.574612 0.232530 0.949672
O O13 0.000000 0.500000 0.500000
O O14 0.500000 0.500000 0.500000
O O15 0.399018 0.305176 0.673082
O O16 0.493412 0.177878 0.916911
#
# Coordination Sequence:
#
# PCOD8033690 Si02
#       7
#     2   2   2   2   2   2   2
#     4  12  28  45  71 105 144 176 233 295 348 406
#     4  11  24  44  65 102 138 182 224 287 346 407
#     4  12  27  46  66  99 143 179 222 287 354 410
#     4  12  21  46  72  98 133 187 234 277 343 423
#     4  12  23  45  73 102 134 186 234 282 347 419
#     4  12  24  43  75  93 133 190 228 270 346 420
#     4  11  24  40  72 102 135 174 240 285 329 419
#
# _framework density 20.867999000000001
#
# number of rings (size 3 to 8) (size 9 to 14) (size 15 to 20)
#    0.000    0.286    5.714    3.000    4.000    0.571 
#    0.000    1.429    0.000    0.000    0.000    0.000 
#    0.000    0.000    0.000    0.000    0.000    0.000 
#
# Total GULP energy -173689.881135 kJ/mol
# GULP energy per Si atom -12406.420081 kJ/mol
# Density = 2.082050 g / cm^3
# Si number density = 20.867999 Si / 1000 Ang^3
#
#
#
# Elastic Constant Matrix: (Units=GPa)
#
#
# Indices 1 2 3 4 5 6 
#
# 1 124.2231 34.6509 31.8662 1.9809 0.5990 -5.8031
# 2 34.6509 89.9402 53.0227 3.0362 -16.2616 -6.6239
# 3 31.8662 53.0227 102.0778 -9.0733 2.0305 -4.0980
# 4 1.9809 3.0362 -9.0733 26.5956 -0.1321 -7.1064
# 5 0.5990 -16.2616 2.0305 -0.1321 36.2189 6.1451
# 6 -5.8031 -6.6239 -4.0980 -7.1064 6.1451 51.0001
#
#
#
# Elastic Compliance Matrix: (Units=1/GPa)
#
#
# Indices 1 2 3 4 5 6 
#
# 1 0.009277 -0.002990 -0.001343 -0.000641 -0.001534 0.000655
# 2 -0.002990 0.020285 -0.010326 -0.005704 0.009802 -0.000511
# 3 -0.001343 -0.010326 0.016400 0.007254 -0.005766 0.001529
# 4 -0.000641 -0.005704 0.007254 0.042395 -0.003844 0.006140
# 5 -0.001534 0.009802 -0.005766 -0.003844 0.033003 -0.003877
# 6 0.000655 -0.000511 0.001529 0.006140 -0.003877 0.021062
#
#
# Mechanical properties :
#
#
# Convention : Reuss Voigt Hill
#
# Bulk Modulus (GPa) = 60.07987 61.70230 60.89109
# Shear Modulus (GPa) = 28.20284 35.87634 32.03959
#
# Velocity S-wave (km/s) = 3.68025 4.15083 3.92260
# Velocity P-wave (km/s) = 6.84923 7.25290 7.05395
#
# Compressibility (1/GPa) = 0.01664451
#
# Stress axis : x y z
#
# Youngs Moduli (GPa) = 107.79666 49.29801 60.97483
#
# Poissons Ratio (x) = 0.14738 0.08190
# Poissons Ratio (y) = 0.32227 0.62961
# Poissons Ratio (z) = 0.14479 0.50904
#
# Static dielectric constant tensor:
#      x y z
#    x 3.971930 -0.136840 -0.004080 
#    y -0.136840 3.792590 -0.160450 
#    z -0.004080 -0.160450 3.563690 
# 
# 
# High freq. dielectric constant tensor:
#      x y z
#    x 1.837310 -0.003720 0.000990 
#    y -0.003720 1.833010 -0.004620 
#    z 0.000990 -0.004620 1.803800 
# 
# From -- ./inp_files/155888.got.cif
#   From: 2010.06.25/outbox.cif.g09.slc.cpg/sg2_78_cif.got.tgz:155888.got - 2010.06.27 13:26:56.
