data_PCOD8033961
_publ_section_title
;
Structure prediction by ZEFSAII (Michael W. Deem and Ramdas Pophale) SiO2 
 PCOD8033961
Probable space group: P -1
;
_chemical_formula_sum "Si O2"
_cell_formula_units_Z 14
_cell_length_a 13.002753
_cell_length_b 13.554808
_cell_length_c 9.331879
_cell_angle_alpha 122.774319
_cell_angle_beta 100.590646
_cell_angle_gamma 32.619378
_cell_volume 596.114387
_symmetry_space_group_name_H-M "P -1"
_symmetry_group_IT_number 2
_symmetry_cell_setting 'triclinic'
loop_
_space_group_symop_operation_xyz
x,y,z
-x,-y,-z
loop_
_atom_site_type_symbol
_atom_site_label
_atom_site_fract_x
_atom_site_fract_y
_atom_site_fract_z
Si Si1 0.256664 0.743054 0.443465
Si Si2 0.590260 0.213907 0.969539
Si Si3 0.568895 0.794876 0.866522
Si Si4 0.033488 0.993640 0.167301
Si Si5 0.012160 0.355652 0.843021
Si Si6 0.222989 0.556281 0.924097
Si Si7 0.486597 0.767778 0.520381
O O1 0.439745 0.470750 0.203439
O O2 0.379493 0.745422 0.480503
O O3 0.000000 0.000000 0.500000
O O4 0.210548 0.747071 0.600116
O O5 0.635660 0.068408 0.987477
O O6 0.828563 0.022494 0.806689
O O7 0.456569 0.287628 0.862509
O O8 0.820419 0.520467 0.798927
O O9 0.583136 0.721567 0.657800
O O10 0.500000 0.000000 0.000000
O O11 0.176884 0.741337 0.075945
O O12 0.000000 0.000000 0.000000
O O13 0.988165 0.303388 0.943354
O O14 0.280589 0.057465 0.625809
O O15 0.000000 0.500000 0.000000
O O16 0.276761 0.467112 0.703748
#
# Coordination Sequence:
#
# PCOD8033961 Si02
#       7
#     2   2   2   2   2   2   2
#     4  12  22  41  71  99 138 183 221 273 351 409
#     4  11  24  43  67  96 139 178 220 280 340 407
#     4  11  25  47  71 100 136 183 234 282 339 406
#     4  12  24  37  63 102 136 173 223 276 338 409
#     4  11  24  48  73  94 136 186 227 283 345 399
#     4  11  24  44  65 101 135 176 228 280 341 411
#     4  12  24  44  74  99 140 180 226 288 341 402
#
# _framework density 23.485424999999999
#
# number of rings (size 3 to 8) (size 9 to 14) (size 15 to 20)
#    0.000    0.571    5.714    3.000    2.000    1.714 
#    0.000    0.714    0.000    0.000    0.000    0.000 
#    0.000    0.000    0.000    0.000    0.000    0.000 
#
# Total GULP energy -173532.096210 kJ/mol
# GULP energy per Si atom -12395.149729 kJ/mol
# Density = 2.343197 g / cm^3
# Si number density = 23.485425 Si / 1000 Ang^3
#
#
#
# Elastic Constant Matrix: (Units=GPa)
#
#
# Indices 1 2 3 4 5 6 
#
# 1 114.8862 22.2236 32.6586 -1.5780 16.0866 23.2594
# 2 22.2236 84.4102 20.2623 -15.9236 4.4586 4.6640
# 3 32.6586 20.2623 100.2910 -15.7443 -4.0885 4.1197
# 4 -1.5780 -15.9236 -15.7443 44.6394 -0.4610 5.4259
# 5 16.0866 4.4586 -4.0885 -0.4610 33.5304 -5.4669
# 6 23.2594 4.6640 4.1197 5.4259 -5.4669 32.8957
#
#
#
# Elastic Compliance Matrix: (Units=1/GPa)
#
#
# Indices 1 2 3 4 5 6 
#
# 1 0.013346 -0.001633 -0.004005 -0.000391 -0.008313 -0.010020
# 2 -0.001633 0.013641 -0.001519 0.004447 -0.001408 -0.001556
# 3 -0.004005 -0.001519 0.012222 0.003474 0.003921 0.001595
# 4 -0.000391 0.004447 0.003474 0.025817 -0.000460 -0.005124
# 5 -0.008313 -0.001408 0.003921 -0.000460 0.036380 0.011708
# 6 -0.010020 -0.001556 0.001595 -0.005124 0.011708 0.040296
#
#
# Mechanical properties :
#
#
# Convention : Reuss Voigt Hill
#
# Bulk Modulus (GPa) = 40.17107 49.98628 45.07867
# Shear Modulus (GPa) = 30.42940 37.17597 33.80268
#
# Velocity S-wave (km/s) = 3.60345 3.98293 3.79793
# Velocity P-wave (km/s) = 5.86983 6.51781 6.20229
#
# Compressibility (1/GPa) = 0.02489353
#
# Stress axis : x y z
#
# Youngs Moduli (GPa) = 74.92896 73.30871 81.82181
#
# Poissons Ratio (x) = 0.11975 0.32767
# Poissons Ratio (y) = 0.12240 0.12432
# Poissons Ratio (z) = 0.30006 0.11138
#
# Static dielectric constant tensor:
#      x y z
#    x 3.633900 0.140190 0.205970 
#    y 0.140190 4.552260 -0.167190 
#    z 0.205970 -0.167190 4.254890 
# 
# 
# High freq. dielectric constant tensor:
#      x y z
#    x 1.929540 0.003470 -0.005310 
#    y 0.003470 1.936030 -0.014140 
#    z -0.005310 -0.014140 1.929100 
# 
# From -- ./inp_files/180895.got.cif
#   From: 2010.06.25/outbox.cif.g09.slc.cpg/sg2_91_cif.got.tgz:180895.got - 2010.06.27 13:26:56.
