data_PCOD8033094
_publ_section_title
;
Structure prediction by ZEFSAII (Michael W. Deem and Ramdas Pophale) SiO2 
 PCOD8033094
Probable space group: P -1
;
_chemical_formula_sum "Si O2"
_cell_formula_units_Z 14
_cell_length_a 8.810076
_cell_length_b 11.116139
_cell_length_c 9.156844
_cell_angle_alpha 110.939663
_cell_angle_beta 129.978528
_cell_angle_gamma 75.414614
_cell_volume 641.486982
_symmetry_space_group_name_H-M "P -1"
_symmetry_group_IT_number 2
_symmetry_cell_setting 'triclinic'
loop_
_space_group_symop_operation_xyz
x,y,z
-x,-y,-z
loop_
_atom_site_type_symbol
_atom_site_label
_atom_site_fract_x
_atom_site_fract_y
_atom_site_fract_z
Si Si1 0.145829 0.897273 0.464970
Si Si2 0.057528 0.619437 0.380548
Si Si3 0.249126 0.736829 0.816667
Si Si4 0.297121 0.525006 0.961825
Si Si5 0.064035 0.000486 0.874053
Si Si6 0.680147 0.550849 0.723017
Si Si7 0.556147 0.830585 0.837808
O O1 0.063159 0.755032 0.361513
O O2 0.374517 0.894892 0.658158
O O3 0.123879 0.933771 0.296811
O O4 0.000000 0.000000 0.500000
O O5 0.179674 0.628873 0.610505
O O6 0.128291 0.500223 0.268353
O O7 0.832576 0.581795 0.245993
O O8 0.242196 0.673289 0.945262
O O9 0.465764 0.785255 0.918755
O O10 0.091925 0.855426 0.768572
O O11 0.500000 0.500000 0.000000
O O12 0.308600 0.509824 0.135382
O O13 0.273310 0.066663 0.997178
O O14 0.000000 0.000000 0.000000
O O15 0.500000 0.500000 0.500000
O O16 0.660791 0.705505 0.773740
#
# Coordination Sequence:
#
# PCOD8033094 Si02
#       7
#     2   2   2   2   2   2   2
#     4  11  23  44  73  99 132 189 233 274 352 412
#     4  11  24  44  71  99 141 183 229 287 349 416
#     4  11  24  46  67 100 139 184 230 287 348 412
#     4  12  25  41  68 108 136 181 232 284 351 412
#     4  12  28  45  70 105 141 178 239 292 345 418
#     4  12  23  45  70 102 140 179 231 282 350 417
#     4  11  24  47  74  96 140 189 228 284 353 413
#
# _framework density 21.824290999999999
#
# number of rings (size 3 to 8) (size 9 to 14) (size 15 to 20)
#    0.000    0.571    7.143    2.143    4.000    0.571 
#    0.000    0.000    0.000    0.000    0.000    0.000 
#    0.000    0.000    0.000    0.000    0.000    0.000 
#
# Total GULP energy -173490.599057 kJ/mol
# GULP energy per Si atom -12392.185647 kJ/mol
# Density = 2.177462 g / cm^3
# Si number density = 21.824291 Si / 1000 Ang^3
#
#
#
# Elastic Constant Matrix: (Units=GPa)
#
#
# Indices 1 2 3 4 5 6 
#
# 1 73.7607 15.4708 51.2548 -2.7628 -0.1327 -3.9935
# 2 15.4708 136.6896 55.0646 -15.1946 -5.6752 -14.9856
# 3 51.2548 55.0646 99.5896 -18.1395 -5.8440 17.8716
# 4 -2.7628 -15.1946 -18.1395 41.1031 1.8829 -11.6335
# 5 -0.1327 -5.6752 -5.8440 1.8829 36.9780 5.4340
# 6 -3.9935 -14.9856 17.8716 -11.6335 5.4340 37.8434
#
#
#
# Elastic Compliance Matrix: (Units=1/GPa)
#
#
# Indices 1 2 3 4 5 6 
#
# 1 0.027990 0.007179 -0.021656 -0.000091 -0.004665 0.016666
# 2 0.007179 0.013655 -0.013179 0.003735 -0.002187 0.013851
# 3 -0.021656 -0.013179 0.033380 0.001366 0.006602 -0.023795
# 4 -0.000091 0.003735 0.001366 0.029277 -0.002192 0.010139
# 5 -0.004665 -0.002187 0.006602 -0.002192 0.029219 -0.009346
# 6 0.016666 0.013851 -0.023795 0.010139 -0.009346 0.049364
#
#
# Mechanical properties :
#
#
# Convention : Reuss Voigt Hill
#
# Bulk Modulus (GPa) = 50.72392 61.51337 56.11864
# Shear Modulus (GPa) = 20.42755 35.73487 28.08121
#
# Velocity S-wave (km/s) = 3.06273 4.05086 3.59094
# Velocity P-wave (km/s) = 5.98327 7.07998 6.55461
#
# Compressibility (1/GPa) = 0.01971457
#
# Stress axis : x y z
#
# Youngs Moduli (GPa) = 35.72651 73.23313 29.95826
#
# Poissons Ratio (x) = -0.52576 0.64878
# Poissons Ratio (y) = -0.25649 0.39481
# Poissons Ratio (z) = 0.77370 0.96510
#
# Static dielectric constant tensor:
#      x y z
#    x 1.630730 3.873650 0.396240 
#    y 3.873650 -2.594680 -0.683300 
#    z 0.396240 -0.683300 3.991880 
# 
# 
# High freq. dielectric constant tensor:
#      x y z
#    x 1.848420 -0.003420 0.002100 
#    y -0.003420 1.878830 -0.007180 
#    z 0.002100 -0.007180 1.858980 
# 
# From -- ./inp_files/190477.got.cif
#   From: 2010.06.25/outbox.cif.g09.slc.cpg/sg2_96_cif.got.tgz:190477.got - 2010.06.27 13:26:56.
