data_PCOD8033371
_publ_section_title
;
Structure prediction by ZEFSAII (Michael W. Deem and Ramdas Pophale) SiO2 
 PCOD8033371
Probable space group: P -1
;
_chemical_formula_sum "Si O2"
_cell_formula_units_Z 16
_cell_length_a 11.361467
_cell_length_b 5.346148
_cell_length_c 12.553542
_cell_angle_alpha 71.998746
_cell_angle_beta 66.194851
_cell_angle_gamma 78.177724
_cell_volume 660.662743
_symmetry_space_group_name_H-M "P -1"
_symmetry_group_IT_number 2
_symmetry_cell_setting 'triclinic'
loop_
_space_group_symop_operation_xyz
x,y,z
-x,-y,-z
loop_
_atom_site_type_symbol
_atom_site_label
_atom_site_fract_x
_atom_site_fract_y
_atom_site_fract_z
Si Si1 0.064692 0.896403 0.882909
Si Si2 0.302641 0.204856 0.706134
Si Si3 0.277410 0.470445 0.903007
Si Si4 0.080393 0.232927 0.401766
Si Si5 0.814814 0.900775 0.841940
Si Si6 0.184727 0.498349 0.518804
Si Si7 0.496045 0.795273 0.758352
Si Si8 0.654125 0.245518 0.724723
O O1 0.168923 0.078832 0.779271
O O2 0.132086 0.602464 0.917816
O O3 0.958635 0.912402 0.828518
O O4 0.000000 0.000000 0.000000
O O5 0.332519 0.346422 0.788068
O O6 0.285737 0.402937 0.587056
O O7 0.423163 0.983814 0.668476
O O8 0.374991 0.680901 0.880917
O O9 0.270351 0.257787 0.026576
O O10 0.169572 0.216773 0.267027
O O11 0.180975 0.293061 0.449593
O O12 0.962852 0.459661 0.391507
O O13 0.000000 0.000000 0.500000
O O14 0.735677 0.189016 0.812771
O O15 0.245096 0.757019 0.411857
O O16 0.579317 0.537547 0.716104
O O17 0.569908 0.992934 0.778844
#
# Coordination Sequence:
#
# PCOD8033371 Si02
#       8
#     2   2   2   2   2   2   2   2
#     4  11  24  40  72 114 151 189 246 301 382 457
#     4  11  24  49  74 107 150 200 249 316 373 438
#     4  11  25  49  75 110 150 197 249 311 381 441
#     4  11  23  46  66 113 160 187 245 297 386 462
#     4  12  25  45  78 111 152 197 237 315 382 460
#     4  11  26  43  77 107 150 200 245 312 376 450
#     4  11  27  54  73 108 148 201 268 310 365 437
#     4  12  27  50  74 111 148 203 260 306 374 442
#
# _framework density 24.218104
#
# number of rings (size 3 to 8) (size 9 to 14) (size 15 to 20)
#    0.000    0.750    3.750    2.625    3.500    4.000 
#    0.000    0.000    0.000    0.000    0.000    0.000 
#    0.000    0.000    0.000    0.000    0.000    0.000 
#
# Total GULP energy -198249.377679 kJ/mol
# GULP energy per Si atom -12390.586105 kJ/mol
# Density = 2.416298 g / cm^3
# Si number density = 24.218104 Si / 1000 Ang^3
#
#
#
# Elastic Constant Matrix: (Units=GPa)
#
#
# Indices 1 2 3 4 5 6 
#
# 1 113.4278 50.9190 48.5216 -10.4064 -2.2278 -15.2806
# 2 50.9190 113.7229 48.9979 -4.8882 10.6432 -8.0476
# 3 48.5216 48.9979 133.5269 -18.1528 26.8728 -7.0921
# 4 -10.4064 -4.8882 -18.1528 42.0962 -1.7173 5.6963
# 5 -2.2278 10.6432 26.8728 -1.7173 28.6617 -3.7775
# 6 -15.2806 -8.0476 -7.0921 5.6963 -3.7775 42.1940
#
#
#
# Elastic Compliance Matrix: (Units=1/GPa)
#
#
# Indices 1 2 3 4 5 6 
#
# 1 0.013465 -0.004512 -0.004437 0.000674 0.007429 0.003844
# 2 -0.004512 0.012051 -0.002360 -0.000861 -0.002646 0.000147
# 3 -0.004437 -0.002360 0.012692 0.003837 -0.011330 -0.001456
# 4 0.000674 -0.000861 0.003837 0.025790 -0.002068 -0.002942
# 5 0.007429 -0.002646 -0.011330 -0.002068 0.047584 0.004820
# 6 0.003844 0.000147 -0.001456 -0.002942 0.004820 0.025704
#
#
# Mechanical properties :
#
#
# Convention : Reuss Voigt Hill
#
# Bulk Modulus (GPa) = 64.13446 73.06162 68.59804
# Shear Modulus (GPa) = 30.28484 36.73966 33.51225
#
# Velocity S-wave (km/s) = 3.54008 3.89914 3.72394
# Velocity P-wave (km/s) = 6.57641 7.10667 6.84667
#
# Compressibility (1/GPa) = 0.01559224
#
# Stress axis : x y z
#
# Youngs Moduli (GPa) = 74.26652 82.98095 78.79155
#
# Poissons Ratio (x) = 0.37438 0.34957
# Poissons Ratio (y) = 0.33506 0.18591
# Poissons Ratio (z) = 0.32949 0.19579
#
# Static dielectric constant tensor:
#      x y z
#    x 4.738100 -0.364140 -0.358700 
#    y -0.364140 4.662940 -0.031700 
#    z -0.358700 -0.031700 4.083910 
# 
# 
# High freq. dielectric constant tensor:
#      x y z
#    x 1.984010 -0.015880 -0.010550 
#    y -0.015880 1.966690 -0.015540 
#    z -0.010550 -0.015540 1.943700 
# 
# From -- ./inp_files/410020.got.cif
#   From: 2010.06.25/outbox.cif.g09.slc.cpg/sg2_206_cif.got.tgz:410020.got - 2010.06.27 13:26:56.
