data_PCOD8033834
_publ_section_title
;
Structure prediction by ZEFSAII (Michael W. Deem and Ramdas Pophale) SiO2 
 PCOD8033834
Probable space group: P -1
;
_chemical_formula_sum "Si O2"
_cell_formula_units_Z 16
_cell_length_a 14.971496
_cell_length_b 16.040228
_cell_length_c 9.146495
_cell_angle_alpha 90.624994
_cell_angle_beta 71.284393
_cell_angle_gamma 27.849250
_cell_volume 725.042122
_symmetry_space_group_name_H-M "P -1"
_symmetry_group_IT_number 2
_symmetry_cell_setting 'triclinic'
loop_
_space_group_symop_operation_xyz
x,y,z
-x,-y,-z
loop_
_atom_site_type_symbol
_atom_site_label
_atom_site_fract_x
_atom_site_fract_y
_atom_site_fract_z
Si Si1 0.140374 0.795110 0.423199
Si Si2 0.012985 0.760023 0.282688
Si Si3 0.477629 0.249496 0.111940
Si Si4 0.592525 0.999119 0.849112
Si Si5 0.746690 0.301790 0.026756
Si Si6 0.126203 0.468498 0.530916
Si Si7 0.994803 0.931304 0.813846
Si Si8 0.467125 0.116917 0.587825
O O1 0.972880 0.859373 0.437745
O O2 0.423464 0.564619 0.182738
O O3 0.152618 0.762972 0.588589
O O4 0.000000 0.000000 0.500000
O O5 0.218911 0.515940 0.204105
O O6 0.131622 0.709174 0.077491
O O7 0.721699 0.962941 0.408326
O O8 0.404206 0.267251 0.304750
O O9 0.540374 0.129821 0.954091
O O10 0.734944 0.093545 0.999872
O O11 0.432951 0.134668 0.780826
O O12 0.913466 0.721089 0.650001
O O13 0.500000 0.000000 0.000000
O O14 0.791703 0.246232 0.171791
O O15 0.892457 0.111342 0.845071
O O16 0.200317 0.378195 0.655752
O O17 0.000000 0.500000 0.500000
O O18 0.500000 0.000000 0.500000
#
# Coordination Sequence:
#
# PCOD8033834 Si02
#       8
#     2   2   2   2   2   2   2   2
#     4  12  23  44  69  96 138 184 231 292 354 418
#     4  12  24  46  71 102 141 189 243 290 361 426
#     4  12  24  46  71 100 144 190 236 302 357 424
#     4  12  26  47  73 105 140 189 245 295 364 425
#     4  11  24  44  66 102 139 184 232 297 352 429
#     4  12  24  50  71  99 147 185 234 306 356 422
#     4  11  24  42  69 100 141 179 236 290 358 425
#     4  12  25  47  77 106 144 189 240 298 362 431
#
# _framework density 22.067685000000001
#
# number of rings (size 3 to 8) (size 9 to 14) (size 15 to 20)
#    0.000    0.250    6.250    3.000    0.000    0.500 
#    6.750    0.000    0.000    0.000    0.000    0.000 
#    0.000    0.000    0.000    0.000    0.000    0.000 
#
# Total GULP energy -198431.791673 kJ/mol
# GULP energy per Si atom -12401.986980 kJ/mol
# Density = 2.201746 g / cm^3
# Si number density = 22.067685 Si / 1000 Ang^3
#
#
#
# Elastic Constant Matrix: (Units=GPa)
#
#
# Indices 1 2 3 4 5 6 
#
# 1 126.2962 34.9487 30.7607 4.7357 3.9100 5.9311
# 2 34.9487 118.7886 23.5402 -7.6503 20.0084 -0.7114
# 3 30.7607 23.5402 112.6520 -9.9261 5.9253 1.1890
# 4 4.7357 -7.6503 -9.9261 32.2077 7.3041 3.6080
# 5 3.9100 20.0084 5.9253 7.3041 51.6242 2.2489
# 6 5.9311 -0.7114 1.1890 3.6080 2.2489 32.9389
#
#
#
# Elastic Compliance Matrix: (Units=1/GPa)
#
#
# Indices 1 2 3 4 5 6 
#
# 1 0.009349 -0.002662 -0.002282 -0.002787 0.001042 -0.001424
# 2 -0.002662 0.010316 -0.000911 0.003443 -0.004207 0.000645
# 3 -0.002282 -0.000911 0.010061 0.003503 -0.001112 -0.000280
# 4 -0.002787 0.003443 0.003503 0.035132 -0.006367 -0.002964
# 5 0.001042 -0.004207 -0.001112 -0.006367 0.021997 -0.001043
# 6 -0.001424 0.000645 -0.000280 -0.002964 -0.001043 0.031036
#
#
# Mechanical properties :
#
#
# Convention : Reuss Voigt Hill
#
# Bulk Modulus (GPa) = 55.50535 59.58178 57.54356
# Shear Modulus (GPa) = 36.87164 41.25331 39.06248
#
# Velocity S-wave (km/s) = 4.09203 4.32835 4.21185
# Velocity P-wave (km/s) = 6.89443 7.21371 7.05588
#
# Compressibility (1/GPa) = 0.01801628
#
# Stress axis : x y z
#
# Youngs Moduli (GPa) = 106.95788 96.93377 99.39830
#
# Poissons Ratio (x) = 0.25804 0.22683
# Poissons Ratio (y) = 0.28472 0.09055
# Poissons Ratio (z) = 0.24408 0.08831
#
# Static dielectric constant tensor:
#      x y z
#    x 4.105890 -0.000400 0.001170 
#    y -0.000400 4.182530 -0.144170 
#    z 0.001170 -0.144170 4.350910 
# 
# 
# High freq. dielectric constant tensor:
#      x y z
#    x 1.873190 0.005550 0.000300 
#    y 0.005550 1.878790 -0.013230 
#    z 0.000300 -0.013230 1.877270 
# 
# From -- ./inp_files/315231.got.cif
#   From: 2010.06.25/outbox.cif.g09.slc.cpg/sg2_158_cif.got.tgz:315231.got - 2010.06.27 13:26:56.
