data_PCOD8033328
_publ_section_title
;
Structure prediction by ZEFSAII (Michael W. Deem and Ramdas Pophale) SiO2 
 PCOD8033328
Probable space group: P -1
;
_chemical_formula_sum "Si O2"
_cell_formula_units_Z 14
_cell_length_a 8.567908
_cell_length_b 19.062744
_cell_length_c 9.912674
_cell_angle_alpha 153.069762
_cell_angle_beta 113.836061
_cell_angle_gamma 58.565785
_cell_volume 617.843459
_symmetry_space_group_name_H-M "P -1"
_symmetry_group_IT_number 2
_symmetry_cell_setting 'triclinic'
loop_
_space_group_symop_operation_xyz
x,y,z
-x,-y,-z
loop_
_atom_site_type_symbol
_atom_site_label
_atom_site_fract_x
_atom_site_fract_y
_atom_site_fract_z
Si Si1 0.569526 0.108163 0.303222
Si Si2 0.342372 0.989396 0.526263
Si Si3 0.740614 0.459262 0.630119
Si Si4 0.330609 0.656202 0.855392
Si Si5 0.942694 0.697380 0.151921
Si Si6 0.344194 0.475035 0.817670
Si Si7 0.105318 0.853599 0.679206
O O1 0.389692 0.280533 0.519837
O O2 0.769523 0.099473 0.306415
O O3 0.583279 0.050952 0.365194
O O4 0.500000 0.000000 0.000000
O O5 0.171945 0.170749 0.777227
O O6 0.500000 0.000000 0.500000
O O7 0.264308 0.849078 0.211016
O O8 0.539210 0.603972 0.784882
O O9 0.803428 0.366793 0.347583
O O10 0.748479 0.312292 0.482341
O O11 0.863881 0.552803 0.896286
O O12 0.343151 0.522900 0.744896
O O13 0.943034 0.807292 0.473227
O O14 0.152671 0.600181 0.021950
O O15 0.500000 0.500000 0.000000
O O16 0.000000 0.000000 0.000000
#
# Coordination Sequence:
#
# PCOD8033328 Si02
#       7
#     2   2   2   2   2   2   2
#     4  12  30  48  76 110 154 197 249 310 381 442
#     4  12  27  47  76 111 151 196 248 314 377 443
#     4  11  25  42  73 109 141 199 244 306 367 456
#     4  11  23  45  74  99 153 189 249 302 382 431
#     4  12  27  45  77 108 148 195 259 297 382 442
#     4  12  24  51  74 102 148 197 246 316 366 443
#     4  12  27  47  73 108 152 193 250 309 374 444
#
# _framework density 22.659461
#
# number of rings (size 3 to 8) (size 9 to 14) (size 15 to 20)
#    0.000    0.286    5.714    1.286    8.000    4.000 
#    0.000    0.000    0.000    0.000    0.000    0.000 
#    0.000    0.000    0.000    0.000    0.000    0.000 
#
# Total GULP energy -173526.041217 kJ/mol
# GULP energy per Si atom -12394.717230 kJ/mol
# Density = 2.260789 g / cm^3
# Si number density = 22.659461 Si / 1000 Ang^3
#
#
#
# Elastic Constant Matrix: (Units=GPa)
#
#
# Indices 1 2 3 4 5 6 
#
# 1 94.8628 45.0279 49.6799 -4.0103 -2.3028 -1.8375
# 2 45.0279 117.6910 58.7649 4.3054 -0.0847 22.7600
# 3 49.6799 58.7649 168.5153 -7.5125 14.7050 -1.9643
# 4 -4.0103 4.3054 -7.5125 58.0051 -11.9091 -7.5270
# 5 -2.3028 -0.0847 14.7050 -11.9091 37.5727 -0.6564
# 6 -1.8375 22.7600 -1.9643 -7.5270 -0.6564 36.9826
#
#
#
# Elastic Compliance Matrix: (Units=1/GPa)
#
#
# Indices 1 2 3 4 5 6 
#
# 1 0.014599 -0.005205 -0.002574 0.002162 0.002650 0.004279
# 2 -0.005205 0.014407 -0.003748 -0.003212 -0.000012 -0.009978
# 3 -0.002574 -0.003748 0.008342 0.000902 -0.003097 0.002750
# 4 0.002162 -0.003212 0.000902 0.019825 0.006166 0.006276
# 5 0.002650 -0.000012 -0.003097 0.006166 0.029975 0.001762
# 6 0.004279 -0.009978 0.002750 0.006276 0.001762 0.034848
#
#
# Mechanical properties :
#
#
# Convention : Reuss Voigt Hill
#
# Bulk Modulus (GPa) = 69.95641 76.44606 73.20124
# Shear Modulus (GPa) = 33.37500 41.68519 37.53010
#
# Velocity S-wave (km/s) = 3.84199 4.29375 4.07414
# Velocity P-wave (km/s) = 7.11486 7.64146 7.38286
#
# Compressibility (1/GPa) = 0.01429462
#
# Stress axis : x y z
#
# Youngs Moduli (GPa) = 68.49979 69.41251 119.86865
#
# Poissons Ratio (x) = 0.36128 0.30852
# Poissons Ratio (y) = 0.35653 0.44926
# Poissons Ratio (z) = 0.17630 0.26015
#
# Static dielectric constant tensor:
#      x y z
#    x 2.544750 0.033180 -0.140070 
#    y 0.033180 4.244880 -0.054330 
#    z -0.140070 -0.054330 4.400370 
# 
# 
# High freq. dielectric constant tensor:
#      x y z
#    x 1.875030 -0.002400 0.002990 
#    y -0.002400 1.909550 0.003160 
#    z 0.002990 0.003160 1.917150 
# 
# From -- ./inp_files/216366.got.cif
#   From: 2010.06.25/outbox.cif.g09.slc.cpg/sg2_109_cif.got.tgz:216366.got - 2010.06.27 13:26:56.
