data_PCOD8033020
_publ_section_title
;
Structure prediction by ZEFSAII (Michael W. Deem and Ramdas Pophale) SiO2 
 PCOD8033020
Probable space group: P -1
;
_chemical_formula_sum "Si O2"
_cell_formula_units_Z 16
_cell_length_a 11.159851
_cell_length_b 9.422582
_cell_length_c 19.591804
_cell_angle_alpha 71.538123
_cell_angle_beta 136.757260
_cell_angle_gamma 140.355558
_cell_volume 746.791614
_symmetry_space_group_name_H-M "P -1"
_symmetry_group_IT_number 2
_symmetry_cell_setting 'triclinic'
loop_
_space_group_symop_operation_xyz
x,y,z
-x,-y,-z
loop_
_atom_site_type_symbol
_atom_site_label
_atom_site_fract_x
_atom_site_fract_y
_atom_site_fract_z
Si Si1 0.286553 0.269697 0.119583
Si Si2 0.251785 0.632063 0.764567
Si Si3 0.520606 0.640370 0.661713
Si Si4 0.684724 0.123791 0.127892
Si Si5 0.697860 0.391868 0.892229
Si Si6 0.380583 0.606700 0.296568
Si Si7 0.638011 0.035562 0.620178
Si Si8 0.806597 0.185294 0.414224
O O1 0.588552 0.402075 0.193821
O O2 0.292316 0.244648 0.206801
O O3 0.268848 0.435755 0.073557
O O4 0.000000 0.000000 0.000000
O O5 0.439108 0.840063 0.874270
O O6 0.194071 0.721276 0.670861
O O7 0.938349 0.348138 0.713007
O O8 0.538207 0.509443 0.638559
O O9 0.152205 0.413148 0.553615
O O10 0.700035 0.902224 0.657033
O O11 0.053074 0.411083 0.226811
O O12 0.609577 0.909085 0.161020
O O13 0.500000 0.000000 0.000000
O O14 0.638000 0.398684 0.790675
O O15 0.000000 0.500000 0.000000
O O16 0.652806 0.911396 0.386958
O O17 0.500000 0.000000 0.500000
O O18 0.394580 0.865980 0.607228
#
# Coordination Sequence:
#
# PCOD8033020 Si02
#       8
#     2   2   2   2   2   2   2   2
#     4  11  26  44  71 105 140 186 232 285 349 415
#     4  12  25  44  71 106 136 185 234 286 355 417
#     4  11  25  45  70 104 143 179 236 291 348 416
#     4  12  25  43  70 102 137 186 238 283 349 416
#     4  11  23  44  71  95 143 187 227 285 345 411
#     4  11  25  43  69 103 137 182 236 291 341 413
#     4  12  24  43  72 104 140 182 228 286 355 418
#     4  12  23  48  71  99 140 184 235 287 353 417
#
# _framework density 21.424985
#
# number of rings (size 3 to 8) (size 9 to 14) (size 15 to 20)
#    0.000    0.500    6.250    2.250    3.500    1.000 
#    0.000    2.500    0.000    0.000    0.000    0.000 
#    0.000    0.000    0.000    0.000    0.000    0.000 
#
# Total GULP energy -198315.574135 kJ/mol
# GULP energy per Si atom -12394.723383 kJ/mol
# Density = 2.137622 g / cm^3
# Si number density = 21.424985 Si / 1000 Ang^3
#
#
#
# Elastic Constant Matrix: (Units=GPa)
#
#
# Indices 1 2 3 4 5 6 
#
# 1 90.5577 56.0156 23.4212 -5.0349 -9.2534 -20.5413
# 2 56.0156 170.6934 41.7789 9.1325 -7.8504 -22.1460
# 3 23.4212 41.7789 92.6473 7.3001 -8.3107 -10.8886
# 4 -5.0349 9.1325 7.3001 33.1744 -4.9850 1.7086
# 5 -9.2534 -7.8504 -8.3107 -4.9850 28.4253 5.7321
# 6 -20.5413 -22.1460 -10.8886 1.7086 5.7321 45.8761
#
#
#
# Elastic Compliance Matrix: (Units=1/GPa)
#
#
# Indices 1 2 3 4 5 6 
#
# 1 0.015571 -0.004282 -0.001569 0.004189 0.003365 0.003956
# 2 -0.004282 0.008137 -0.002243 -0.002569 -0.000585 0.001647
# 3 -0.001569 -0.002243 0.012674 -0.002166 0.001983 0.001056
# 4 0.004189 -0.002569 -0.002166 0.032990 0.006185 -0.001880
# 5 0.003365 -0.000585 0.001983 0.006185 0.038452 -0.003340
# 6 0.003956 0.001647 0.001056 -0.001880 -0.003340 0.025102
#
#
# Mechanical properties :
#
#
# Convention : Reuss Voigt Hill
#
# Bulk Modulus (GPa) = 49.51867 66.25885 57.88876
# Shear Modulus (GPa) = 32.08296 37.00733 34.54515
#
# Velocity S-wave (km/s) = 3.87390 4.16059 4.01980
# Velocity P-wave (km/s) = 6.57055 7.35349 6.97302
#
# Compressibility (1/GPa) = 0.02019440
#
# Stress axis : x y z
#
# Youngs Moduli (GPa) = 64.22097 122.89568 78.89909
#
# Poissons Ratio (x) = 0.52625 0.12377
# Poissons Ratio (y) = 0.27500 0.17700
# Poissons Ratio (z) = 0.10074 0.27570
#
# Static dielectric constant tensor:
#      x y z
#    x 4.323810 -0.058210 0.243220 
#    y -0.058210 5.084420 0.221210 
#    z 0.243220 0.221210 3.853010 
# 
# 
# High freq. dielectric constant tensor:
#      x y z
#    x 1.846020 -0.015080 -0.008300 
#    y -0.015080 1.862930 0.010600 
#    z -0.008300 0.010600 1.831950 
# 
# From -- ./inp_files/258348.got.cif
#   From: 2010.06.25/outbox.cif.g09.slc.cpg/sg2_130_cif.got.tgz:258348.got - 2010.06.27 13:26:56.
