data_PCOD8033357
_publ_section_title
;
Structure prediction by ZEFSAII (Michael W. Deem and Ramdas Pophale) SiO2 
 PCOD8033357
Probable space group: P -1
;
_chemical_formula_sum "Si O2"
_cell_formula_units_Z 14
_cell_length_a 8.966673
_cell_length_b 8.422035
_cell_length_c 11.695942
_cell_angle_alpha 70.465280
_cell_angle_beta 78.674814
_cell_angle_gamma 49.491648
_cell_volume 632.622833
_symmetry_space_group_name_H-M "P -1"
_symmetry_group_IT_number 2
_symmetry_cell_setting 'triclinic'
loop_
_space_group_symop_operation_xyz
x,y,z
-x,-y,-z
loop_
_atom_site_type_symbol
_atom_site_label
_atom_site_fract_x
_atom_site_fract_y
_atom_site_fract_z
Si Si1 0.598562 0.931421 0.377936
Si Si2 0.032580 0.058867 0.102801
Si Si3 0.677425 0.496522 0.450493
Si Si4 0.864589 0.389799 0.221006
Si Si5 0.227619 0.324927 0.221309
Si Si6 0.283169 0.212182 0.994925
Si Si7 0.954043 0.275097 0.678327
O O1 0.606871 0.734675 0.383653
O O2 0.814341 0.864723 0.351035
O O3 0.500000 0.000000 0.500000
O O4 0.450368 0.136665 0.270376
O O5 0.180564 0.105172 0.047618
O O6 0.846014 0.275683 0.143018
O O7 0.102839 0.866216 0.227264
O O8 0.000000 0.000000 0.000000
O O9 0.500000 0.500000 0.500000
O O10 0.755033 0.379205 0.344863
O O11 0.842169 0.376998 0.551701
O O12 0.090145 0.254536 0.263472
O O13 0.784819 0.632531 0.141868
O O14 0.241701 0.361739 0.075246
O O15 0.122801 0.538492 0.262077
O O16 0.500000 0.000000 0.000000
#
# Coordination Sequence:
#
# PCOD8033357 Si02
#       7
#     2   2   2   2   2   2   2
#     4  12  25  46  74 105 142 195 243 282 362 427
#     4  11  26  45  72 104 142 183 240 297 361 419
#     4  12  28  45  72 108 148 186 242 294 356 429
#     4  11  24  47  73 100 148 190 234 299 359 421
#     4  11  23  45  77 102 139 192 236 293 361 429
#     4  11  25  46  76 104 139 193 241 291 361 432
#     4  12  26  48  72 109 148 185 237 302 356 427
#
# _framework density 22.130088000000001
#
# number of rings (size 3 to 8) (size 9 to 14) (size 15 to 20)
#    0.000    0.571    2.857    5.571   10.000    0.571 
#    0.000    1.429    0.000    0.000    0.000    0.000 
#    0.000    0.000    0.000    0.000    0.000    0.000 
#
# Total GULP energy -173472.231758 kJ/mol
# GULP energy per Si atom -12390.873697 kJ/mol
# Density = 2.207972 g / cm^3
# Si number density = 22.130088 Si / 1000 Ang^3
#
#
#
# Elastic Constant Matrix: (Units=GPa)
#
#
# Indices 1 2 3 4 5 6 
#
# 1 114.7921 61.1142 66.9223 11.7944 3.1302 -10.4342
# 2 61.1142 125.2879 62.9892 21.2953 3.8601 -2.8247
# 3 66.9223 62.9892 141.9627 27.0380 -6.5597 1.3022
# 4 11.7944 21.2953 27.0380 49.0485 -0.2028 0.3546
# 5 3.1302 3.8601 -6.5597 -0.2028 29.9114 -1.6158
# 6 -10.4342 -2.8247 1.3022 0.3546 -1.6158 42.4096
#
#
#
# Elastic Compliance Matrix: (Units=1/GPa)
#
#
# Indices 1 2 3 4 5 6 
#
# 1 0.014300 -0.004496 -0.005109 0.001298 -0.001850 0.003294
# 2 -0.004496 0.012087 -0.002823 -0.002615 -0.001740 -0.000259
# 3 -0.005109 -0.002823 0.011622 -0.003927 0.003332 -0.001642
# 4 0.001298 -0.002615 -0.003927 0.023374 -0.000498 0.000051
# 5 -0.001850 -0.001740 0.003332 -0.000498 0.034613 0.000649
# 6 0.003294 -0.000259 -0.001642 0.000051 0.000649 0.024448
#
#
# Mechanical properties :
#
#
# Convention : Reuss Voigt Hill
#
# Bulk Modulus (GPa) = 76.03578 84.89934 80.46756
# Shear Modulus (GPa) = 33.40367 37.00836 35.20601
#
# Velocity S-wave (km/s) = 3.88934 4.09382 3.99289
# Velocity P-wave (km/s) = 7.38935 7.79698 7.59590
#
# Compressibility (1/GPa) = 0.01315170
#
# Stress axis : x y z
#
# Youngs Moduli (GPa) = 69.92866 82.73673 86.04208
#
# Poissons Ratio (x) = 0.37201 0.43961
# Poissons Ratio (y) = 0.31442 0.24291
# Poissons Ratio (z) = 0.35728 0.23358
#
# Static dielectric constant tensor:
#      x y z
#    x 4.204340 0.105410 0.362260 
#    y 0.105410 4.291990 0.176040 
#    z 0.362260 0.176040 4.437850 
# 
# 
# High freq. dielectric constant tensor:
#      x y z
#    x 1.861180 0.000530 -0.002770 
#    y 0.000530 1.884730 0.017170 
#    z -0.002770 0.017170 1.892690 
# 
# From -- ./inp_files/378268.got.cif
#   From: 2010.06.25/outbox.cif.g09.slc.cpg/sg2_190_cif.got.tgz:378268.got - 2010.06.27 13:26:56.
