data_PCOD8033565
_publ_section_title
;
Structure prediction by ZEFSAII (Michael W. Deem and Ramdas Pophale) SiO2 
 PCOD8033565
Probable space group: P -1
;
_chemical_formula_sum "Si O2"
_cell_formula_units_Z 16
_cell_length_a 14.569014
_cell_length_b 9.547129
_cell_length_c 9.257175
_cell_angle_alpha 116.925098
_cell_angle_beta 129.249825
_cell_angle_gamma 93.803087
_cell_volume 764.178735
_symmetry_space_group_name_H-M "P -1"
_symmetry_group_IT_number 2
_symmetry_cell_setting 'triclinic'
loop_
_space_group_symop_operation_xyz
x,y,z
-x,-y,-z
loop_
_atom_site_type_symbol
_atom_site_label
_atom_site_fract_x
_atom_site_fract_y
_atom_site_fract_z
Si Si1 0.593374 0.396252 0.161717
Si Si2 0.790618 0.376514 0.132366
Si Si3 0.039719 0.262489 0.091645
Si Si4 0.731971 0.148526 0.703706
Si Si5 0.664478 0.780722 0.360069
Si Si6 0.932208 0.274576 0.471213
Si Si7 0.030186 0.086850 0.293610
Si Si8 0.252414 0.676996 0.483652
O O1 0.690166 0.431353 0.135406
O O2 0.620306 0.597410 0.323967
O O3 0.625036 0.298070 0.277456
O O4 0.434885 0.263649 0.897456
O O5 0.854533 0.302093 0.275150
O O6 0.916937 0.552244 0.263548
O O7 0.698579 0.218740 0.850445
O O8 0.047127 0.235314 0.258526
O O9 0.157576 0.462577 0.257988
O O10 0.895856 0.242274 0.898163
O O11 0.063280 0.116458 0.959018
O O12 0.679933 0.214967 0.545750
O O13 0.657237 0.928082 0.526847
O O14 0.818987 0.872711 0.494100
O O15 0.836526 0.237696 0.498497
O O16 0.954087 0.107144 0.368556
#
# Coordination Sequence:
#
# PCOD8033565 Si02
#       8
#     2   2   2   2   2   2   2   2
#     4  10  21  38  60  77 101 144 190 223 251 313
#     4  10  18  32  55  80 108 138 176 223 263 311
#     4  10  18  30  52  82 111 134 173 215 272 321
#     4  11  22  34  55  83 113 140 170 222 276 319
#     4  10  21  37  56  80 104 143 189 218 256 314
#     4  10  17  31  52  83 111 135 176 215 266 318
#     4  10  17  32  56  82 105 140 177 226 257 309
#     4  11  21  35  55  83 111 142 172 217 277 318
#
# _framework density 20.937508999999999
#
# number of rings (size 3 to 8) (size 9 to 14) (size 15 to 20)
#    0.000    1.750    5.000    1.125    0.000    1.000 
#    0.000    3.750    0.000    3.000    3.250    0.000 
#    0.000    0.000    0.000    0.000    0.000    0.000 
#
# Total GULP energy -198371.208781 kJ/mol
# GULP energy per Si atom -12398.200549 kJ/mol
# Density = 2.088985 g / cm^3
# Si number density = 20.937509 Si / 1000 Ang^3
#
#
#
# Elastic Constant Matrix: (Units=GPa)
#
#
# Indices 1 2 3 4 5 6 
#
# 1 50.2044 32.1547 38.9804 1.3853 -15.7109 -10.4878
# 2 32.1547 66.3431 34.8029 -4.6365 -13.3378 -13.9836
# 3 38.9804 34.8029 104.3827 -0.5159 -13.3530 -12.3279
# 4 1.3853 -4.6365 -0.5159 29.1215 -14.3810 -3.7787
# 5 -15.7109 -13.3378 -13.3530 -14.3810 34.5769 1.2004
# 6 -10.4878 -13.9836 -12.3279 -3.7787 1.2004 16.9769
#
#
#
# Elastic Compliance Matrix: (Units=1/GPa)
#
#
# Indices 1 2 3 4 5 6 
#
# 1 0.037994 -0.009436 -0.008433 0.003440 0.011467 0.009530
# 2 -0.009436 0.027088 -0.002251 0.011606 0.009537 0.016757
# 3 -0.008433 -0.002251 0.014024 0.001282 0.001134 0.003325
# 4 0.003440 0.011606 0.001282 0.052594 0.027633 0.022368
# 5 0.011467 0.009537 0.001134 0.027633 0.049101 0.018442
# 6 0.009530 0.016757 0.003325 0.022368 0.018442 0.084683
#
#
# Mechanical properties :
#
#
# Convention : Reuss Voigt Hill
#
# Bulk Modulus (GPa) = 25.72987 48.08958 36.90972
# Shear Modulus (GPa) = 15.68970 23.80121 19.74546
#
# Velocity S-wave (km/s) = 2.74041 3.37526 3.07427
# Velocity P-wave (km/s) = 4.72533 6.18125 5.50166
#
# Compressibility (1/GPa) = 0.03886533
#
# Stress axis : x y z
#
# Youngs Moduli (GPa) = 26.31974 36.91641 71.30679
#
# Poissons Ratio (x) = 0.34836 0.60131
# Poissons Ratio (y) = 0.24837 0.16053
# Poissons Ratio (z) = 0.22195 0.08311
#
# Static dielectric constant tensor:
#      x y z
#    x 3.704250 -0.436240 -0.172300 
#    y -0.436240 3.555400 -0.013500 
#    z -0.172300 -0.013500 3.983840 
# 
# 
# High freq. dielectric constant tensor:
#      x y z
#    x 1.788430 -0.038580 -0.013060 
#    y -0.038580 1.798080 -0.000160 
#    z -0.013060 -0.000160 1.829970 
# 
# From -- ./inp_files/217470.got.cif
#   From: 2010.06.25/outbox.cif.g09.slc.cpg/sg2_109_cif.got.tgz:217470.got - 2010.06.27 13:26:56.
