data_PCOD8033597
_publ_section_title
;
Structure prediction by ZEFSAII (Michael W. Deem and Ramdas Pophale) SiO2 
 PCOD8033597
Probable space group: P -1
;
_chemical_formula_sum "Si O2"
_cell_formula_units_Z 16
_cell_length_a 11.852294
_cell_length_b 6.634964
_cell_length_c 11.359881
_cell_angle_alpha 58.359647
_cell_angle_beta 83.497472
_cell_angle_gamma 75.816844
_cell_volume 737.238385
_symmetry_space_group_name_H-M "P -1"
_symmetry_group_IT_number 2
_symmetry_cell_setting 'triclinic'
loop_
_space_group_symop_operation_xyz
x,y,z
-x,-y,-z
loop_
_atom_site_type_symbol
_atom_site_label
_atom_site_fract_x
_atom_site_fract_y
_atom_site_fract_z
Si Si1 0.250622 0.994166 0.522255
Si Si2 0.564834 0.233083 0.607931
Si Si3 0.667400 0.904490 0.273397
Si Si4 0.256964 0.788888 0.198904
Si Si5 0.181150 0.346389 0.041446
Si Si6 0.842223 0.476684 0.262977
Si Si7 0.096724 0.436501 0.276690
Si Si8 0.632426 0.390653 0.997834
O O1 0.374858 0.904124 0.472100
O O2 0.190648 0.775920 0.628386
O O3 0.278183 0.136520 0.590622
O O4 0.162598 0.173022 0.393588
O O5 0.500000 0.500000 0.500000
O O6 0.469881 0.095145 0.713168
O O7 0.668297 0.243658 0.682050
O O8 0.736617 0.693118 0.247078
O O9 0.681733 0.163885 0.145943
O O10 0.155606 0.639631 0.265223
O O11 0.190958 0.064409 0.100786
O O12 0.346109 0.691564 0.113798
O O13 0.098675 0.442355 0.132378
O O14 0.133248 0.502851 0.884859
O O15 0.307971 0.388598 0.045947
O O16 0.961179 0.489082 0.314299
O O17 0.500000 0.500000 0.000000
#
# Coordination Sequence:
#
# PCOD8033597 Si02
#       8
#     2   2   2   2   2   2   2   2
#     4  12  26  48  69 103 141 179 236 283 343 409
#     4  12  25  44  70  99 140 185 226 280 347 412
#     4  12  26  43  70 104 139 179 228 284 345 410
#     4  11  25  45  70 101 140 179 232 285 344 407
#     4  11  23  48  69 103 138 176 234 284 345 404
#     4  12  26  47  72 103 140 182 231 286 345 405
#     4  11  27  46  73 102 136 187 233 282 340 411
#     4  11  25  40  68 103 137 181 226 282 343 411
#
# _framework density 21.702612999999999
#
# number of rings (size 3 to 8) (size 9 to 14) (size 15 to 20)
#    0.000    0.500    5.000    2.625    5.250    3.000 
#    0.000    0.000    0.000    0.000    0.000    0.000 
#    0.000    0.000    0.000    0.000    0.000    0.000 
#
# Total GULP energy -198498.563880 kJ/mol
# GULP energy per Si atom -12406.160242 kJ/mol
# Density = 2.165322 g / cm^3
# Si number density = 21.702613 Si / 1000 Ang^3
#
#
#
# Elastic Constant Matrix: (Units=GPa)
#
#
# Indices 1 2 3 4 5 6 
#
# 1 128.4701 34.7161 22.4081 -6.7336 -11.8197 9.9682
# 2 34.7161 84.1600 28.6551 -12.3578 -10.1145 18.7460
# 3 22.4081 28.6551 99.5521 -5.6557 -8.5377 4.1240
# 4 -6.7336 -12.3578 -5.6557 40.8014 10.8341 4.6542
# 5 -11.8197 -10.1145 -8.5377 10.8341 14.8539 -5.7969
# 6 9.9682 18.7460 4.1240 4.6542 -5.7969 22.9541
#
#
#
# Elastic Compliance Matrix: (Units=1/GPa)
#
#
# Indices 1 2 3 4 5 6 
#
# 1 0.009191 -0.003070 -0.000772 -0.001060 0.005670 0.000301
# 2 -0.003070 0.018574 -0.003890 0.007225 -0.003327 -0.015442
# 3 -0.000772 -0.003890 0.011615 -0.001619 0.005855 0.003233
# 4 -0.001060 0.007225 -0.001619 0.037193 -0.032099 -0.020797
# 5 0.005670 -0.003327 0.005855 -0.032099 0.109353 0.033328
# 6 0.000301 -0.015442 0.003233 -0.020797 0.033328 0.068098
#
#
# Mechanical properties :
#
#
# Convention : Reuss Voigt Hill
#
# Bulk Modulus (GPa) = 41.81397 53.74896 47.78147
# Shear Modulus (GPa) = 18.02067 30.81539 24.41803
#
# Velocity S-wave (km/s) = 2.88470 3.77223 3.35792
# Velocity P-wave (km/s) = 5.51398 6.61762 6.09085
#
# Compressibility (1/GPa) = 0.02391545
#
# Stress axis : x y z
#
# Youngs Moduli (GPa) = 108.80473 53.84012 86.09733
#
# Poissons Ratio (x) = 0.16528 0.06643
# Poissons Ratio (y) = 0.33401 0.33496
# Poissons Ratio (z) = 0.08395 0.20946
#
# Static dielectric constant tensor:
#      x y z
#    x 4.069340 0.093560 -0.115680 
#    y 0.093560 3.979160 -0.099300 
#    z -0.115680 -0.099300 4.278300 
# 
# 
# High freq. dielectric constant tensor:
#      x y z
#    x 1.859320 0.004990 -0.005150 
#    y 0.004990 1.857470 -0.001860 
#    z -0.005150 -0.001860 1.865890 
# 
# From -- ./inp_files/68468.got.cif
#   From: 2010.06.25/outbox.cif.g09.slc.cpg/sg2_35_cif.got.tgz:68468.got - 2010.06.27 13:26:56.
