data_PCOD8033176
_publ_section_title
;
Structure prediction by ZEFSAII (Michael W. Deem and Ramdas Pophale) SiO2 
 PCOD8033176
Probable space group: P -1
;
_chemical_formula_sum "Si O2"
_cell_formula_units_Z 14
_cell_length_a 9.556710
_cell_length_b 19.470122
_cell_length_c 12.215060
_cell_angle_alpha 25.585312
_cell_angle_beta 59.495285
_cell_angle_gamma 44.411476
_cell_volume 612.630609
_symmetry_space_group_name_H-M "P -1"
_symmetry_group_IT_number 2
_symmetry_cell_setting 'triclinic'
loop_
_space_group_symop_operation_xyz
x,y,z
-x,-y,-z
loop_
_atom_site_type_symbol
_atom_site_label
_atom_site_fract_x
_atom_site_fract_y
_atom_site_fract_z
Si Si1 0.562538 0.087251 0.255464
Si Si2 0.690833 0.461489 0.410754
Si Si3 0.406398 0.199800 0.508075
Si Si4 0.259500 0.610073 0.898796
Si Si5 0.998541 0.472407 0.413709
Si Si6 0.103175 0.112882 0.184414
Si Si7 0.053597 0.883671 0.376696
O O1 0.500000 0.000000 0.500000
O O2 0.576681 0.984253 0.285277
O O3 0.396597 0.347928 0.917642
O O4 0.801210 0.994840 0.325638
O O5 0.500000 0.500000 0.500000
O O6 0.832822 0.229762 0.622476
O O7 0.855386 0.424114 0.490808
O O8 0.262860 0.275352 0.566716
O O9 0.648598 0.116331 0.553187
O O10 0.259065 0.417727 0.177553
O O11 0.206060 0.690575 0.681318
O O12 0.079534 0.815418 0.755664
O O13 0.500000 0.500000 0.000000
O O14 0.000000 0.500000 0.500000
O O15 0.885298 0.706519 0.074788
O O16 0.048011 0.074377 0.141375
#
# Coordination Sequence:
#
# PCOD8033176 Si02
#       7
#     2   2   2   2   2   2   2
#     4  12  27  46  77 107 151 191 239 304 377 432
#     4  12  30  50  73 110 151 192 250 307 363 434
#     4  11  23  45  68 103 144 188 242 301 363 439
#     4  11  24  40  71 107 147 184 242 300 362 437
#     4  11  27  48  73 100 142 196 250 301 361 440
#     4  11  25  44  70 106 143 188 242 296 372 439
#     4  12  27  44  73 110 147 192 243 304 366 433
#
# _framework density 22.852270999999998
#
# number of rings (size 3 to 8) (size 9 to 14) (size 15 to 20)
#    0.000    0.571    4.286    2.143   10.000    3.429 
#    0.000    0.000    0.000    0.000    0.000    0.000 
#    0.000    0.000    0.000    0.000    0.000    0.000 
#
# Total GULP energy -173464.181012 kJ/mol
# GULP energy per Si atom -12390.298644 kJ/mol
# Density = 2.280026 g / cm^3
# Si number density = 22.852271 Si / 1000 Ang^3
#
#
#
# Elastic Constant Matrix: (Units=GPa)
#
#
# Indices 1 2 3 4 5 6 
#
# 1 154.6953 60.1250 20.4124 -20.4194 11.6213 2.0020
# 2 60.1250 143.0802 25.3804 -16.5820 2.9791 1.2864
# 3 20.4124 25.3804 62.1927 -13.6974 4.1853 -5.0979
# 4 -20.4194 -16.5820 -13.6974 35.5275 5.3323 -0.9050
# 5 11.6213 2.9791 4.1853 5.3323 44.6876 -10.6513
# 6 2.0020 1.2864 -5.0979 -0.9050 -10.6513 46.3343
#
#
#
# Elastic Compliance Matrix: (Units=1/GPa)
#
#
# Indices 1 2 3 4 5 6 
#
# 1 0.008359 -0.002922 -0.000671 0.003542 -0.002546 -0.000870
# 2 -0.002922 0.008806 -0.002339 0.001500 0.000138 -0.000315
# 3 -0.000671 -0.002339 0.018869 0.006103 -0.001713 0.001895
# 4 0.003542 0.001500 0.006103 0.034087 -0.005700 -0.000168
# 5 -0.002546 0.000138 -0.001713 -0.005700 0.025206 0.005601
# 6 -0.000870 -0.000315 0.001895 -0.000168 0.005601 0.023121
#
#
# Mechanical properties :
#
#
# Convention : Reuss Voigt Hill
#
# Bulk Modulus (GPa) = 41.37624 63.53375 52.45499
# Shear Modulus (GPa) = 36.13560 42.24659 39.19110
#
# Velocity S-wave (km/s) = 3.98083 4.30430 4.14572
# Velocity P-wave (km/s) = 6.26695 7.25017 6.77641
#
# Compressibility (1/GPa) = 0.02416846
#
# Stress axis : x y z
#
# Youngs Moduli (GPa) = 119.63740 113.56202 52.99815
#
# Poissons Ratio (x) = 0.33185 0.03555
# Poissons Ratio (y) = 0.34960 0.12397
# Poissons Ratio (z) = 0.08026 0.26565
#
# Static dielectric constant tensor:
#      x y z
#    x 4.403460 0.066390 -0.097190 
#    y 0.066390 4.646750 0.686040 
#    z -0.097190 0.686040 6.461460 
# 
# 
# High freq. dielectric constant tensor:
#      x y z
#    x 1.916160 0.000280 -0.008440 
#    y 0.000280 1.903280 -0.020490 
#    z -0.008440 -0.020490 1.909350 
# 
# From -- ./inp_files/69949.got.cif
#   From: 2010.06.25/outbox.cif.g09.slc.cpg/sg2_35_cif.got.tgz:69949.got - 2010.06.27 13:26:56.
