data_PCOD8033835
_publ_section_title
;
Structure prediction by ZEFSAII (Michael W. Deem and Ramdas Pophale) SiO2 
 PCOD8033835
Probable space group: P -1
;
_chemical_formula_sum "Si O2"
_cell_formula_units_Z 16
_cell_length_a 9.494828
_cell_length_b 8.948333
_cell_length_c 12.547750
_cell_angle_alpha 128.736266
_cell_angle_beta 98.688366
_cell_angle_gamma 62.504306
_cell_volume 722.874210
_symmetry_space_group_name_H-M "P -1"
_symmetry_group_IT_number 2
_symmetry_cell_setting 'triclinic'
loop_
_space_group_symop_operation_xyz
x,y,z
-x,-y,-z
loop_
_atom_site_type_symbol
_atom_site_label
_atom_site_fract_x
_atom_site_fract_y
_atom_site_fract_z
Si Si1 0.040785 0.006337 0.627328
Si Si2 0.603490 0.284133 0.481706
Si Si3 0.110765 0.517119 0.685131
Si Si4 0.486901 0.088446 0.746340
Si Si5 0.041988 0.518238 0.134526
Si Si6 0.563625 0.530494 0.246710
Si Si7 0.583652 0.769256 0.966515
Si Si8 0.846576 0.826740 0.629902
O O1 0.041539 0.226143 0.749078
O O2 0.215031 0.798285 0.574514
O O3 0.000000 0.000000 0.500000
O O4 0.910320 0.995183 0.684274
O O5 0.500000 0.500000 0.500000
O O6 0.580966 0.349983 0.632191
O O7 0.559164 0.090938 0.379984
O O8 0.257787 0.578254 0.726213
O O9 0.173155 0.279688 0.530950
O O10 0.049183 0.547260 0.814115
O O11 0.961915 0.665031 0.659379
O O12 0.433513 0.291149 0.752174
O O13 0.677993 0.966119 0.731646
O O14 0.396343 0.186300 0.889287
O O15 0.234123 0.388138 0.124322
O O16 0.000000 0.500000 0.000000
O O17 0.530424 0.346338 0.106455
O O18 0.500000 0.000000 0.000000
#
# Coordination Sequence:
#
# PCOD8033835 Si02
#       8
#     2   2   2   2   2   2   2   2
#     4  12  24  42  69 101 138 182 232 283 342 412
#     4  12  25  42  68 104 140 180 230 284 342 409
#     4  11  24  43  68 101 139 178 226 287 346 409
#     4  12  25  45  70 102 139 184 231 285 344 414
#     4  12  26  47  71 102 142 186 232 285 350 418
#     4  12  25  44  70 103 137 182 232 284 349 411
#     4  12  27  48  71 101 142 186 231 286 349 421
#     4  11  24  42  69 101 137 178 229 287 346 404
#
# _framework density 22.133863999999999
#
# number of rings (size 3 to 8) (size 9 to 14) (size 15 to 20)
#    0.000    0.250    2.500    7.500    1.750    2.000 
#    0.000    1.875    0.000    0.000    0.000    0.000 
#    0.000    0.000    0.000    0.000    0.000    0.000 
#
# Total GULP energy -198367.133004 kJ/mol
# GULP energy per Si atom -12397.945813 kJ/mol
# Density = 2.208349 g / cm^3
# Si number density = 22.133864 Si / 1000 Ang^3
#
#
#
# Elastic Constant Matrix: (Units=GPa)
#
#
# Indices 1 2 3 4 5 6 
#
# 1 79.6903 16.0974 5.9785 8.6554 7.6672 -14.4467
# 2 16.0974 102.0101 34.8198 5.9563 11.9746 2.6406
# 3 5.9785 34.8198 109.1534 -8.7222 -0.8470 6.3220
# 4 8.6554 5.9563 -8.7222 32.8634 0.7385 -4.9351
# 5 7.6672 11.9746 -0.8470 0.7385 37.4002 6.7189
# 6 -14.4467 2.6406 6.3220 -4.9351 6.7189 49.6782
#
#
#
# Elastic Compliance Matrix: (Units=1/GPa)
#
#
# Indices 1 2 3 4 5 6 
#
# 1 0.014373 -0.001556 -0.000814 -0.002971 -0.003218 0.004506
# 2 -0.001556 0.011984 -0.003965 -0.002795 -0.003482 -0.000391
# 3 -0.000814 -0.003965 0.010846 0.003575 0.001845 -0.001301
# 4 -0.002971 -0.002795 0.003575 0.032958 0.000570 0.002027
# 5 -0.003218 -0.003482 0.001845 0.000570 0.029425 -0.004908
# 6 0.004506 -0.000391 -0.001301 0.002027 -0.004908 0.022492
#
#
# Mechanical properties :
#
#
# Convention : Reuss Voigt Hill
#
# Bulk Modulus (GPa) = 40.76183 44.96056 42.86120
# Shear Modulus (GPa) = 34.98299 39.58556 37.28427
#
# Velocity S-wave (km/s) = 3.97989 4.23361 4.10871
# Velocity P-wave (km/s) = 6.29089 6.65245 6.47419
#
# Compressibility (1/GPa) = 0.02453276
#
# Stress axis : x y z
#
# Youngs Moduli (GPa) = 69.57461 83.44375 92.19712
#
# Poissons Ratio (x) = 0.12980 0.07508
# Poissons Ratio (y) = 0.10823 0.36560
# Poissons Ratio (z) = 0.05666 0.33089
#
# Static dielectric constant tensor:
#      x y z
#    x 4.181750 -0.228950 0.002850 
#    y -0.228950 4.124690 -0.090790 
#    z 0.002850 -0.090790 4.176630 
# 
# 
# High freq. dielectric constant tensor:
#      x y z
#    x 1.888240 -0.006240 -0.006930 
#    y -0.006240 1.880890 -0.002610 
#    z -0.006930 -0.002610 1.874330 
# 
# From -- ./inp_files/383295.got.cif
#   From: 2010.06.25/outbox.cif.g09.slc.cpg/sg2_192_cif.got.tgz:383295.got - 2010.06.27 13:26:56.
