data_PCOD8033714
_publ_section_title
;
Structure prediction by ZEFSAII (Michael W. Deem and Ramdas Pophale) SiO2 
 PCOD8033714
Probable space group: P -1
;
_chemical_formula_sum "Si O2"
_cell_formula_units_Z 14
_cell_length_a 15.460331
_cell_length_b 11.792369
_cell_length_c 7.077116
_cell_angle_alpha 120.522222
_cell_angle_beta 121.870832
_cell_angle_gamma 27.501373
_cell_volume 503.401629
_symmetry_space_group_name_H-M "P -1"
_symmetry_group_IT_number 2
_symmetry_cell_setting 'triclinic'
loop_
_space_group_symop_operation_xyz
x,y,z
-x,-y,-z
loop_
_atom_site_type_symbol
_atom_site_label
_atom_site_fract_x
_atom_site_fract_y
_atom_site_fract_z
Si Si1 0.174619 0.714387 0.756046
Si Si2 0.531573 0.282249 0.572131
Si Si3 0.672610 0.925729 0.168184
Si Si4 0.804205 0.504330 0.897634
Si Si5 0.227385 0.748000 0.251752
Si Si6 0.781021 0.882428 0.836001
Si Si7 0.912978 0.464025 0.571920
O O1 0.326493 0.562219 0.634286
O O2 0.147654 0.589299 0.682266
O O3 0.233597 0.734257 0.020455
O O4 0.978271 0.987524 0.678640
O O5 0.628989 0.290170 0.565830
O O6 0.508708 0.177524 0.319641
O O7 0.644538 0.124611 0.761860
O O8 0.861748 0.756887 0.363032
O O9 0.655733 0.782749 0.035684
O O10 0.691315 0.961396 0.007703
O O11 0.708853 0.463270 0.771730
O O12 0.857922 0.474904 0.722933
O O13 0.005670 0.289691 0.060732
O O14 0.797623 0.723197 0.613384
#
# Coordination Sequence:
#
# PCOD8033714 Si02
#       7
#     2   2   2   2   2   2   2
#     4  11  24  41  65  97 130 173 222 262 327 392
#     4  12  24  43  70  96 133 173 217 270 327 390
#     4   9  20  42  69 100 129 168 220 270 330 384
#     4   9  20  40  70  96 128 175 216 269 328 388
#     4  11  24  44  64  94 134 175 218 266 324 389
#     4   9  20  39  68 100 133 168 215 274 325 388
#     4   9  19  41  66  98 131 167 221 270 325 390
#
# _framework density 27.810794000000001
#
# number of rings (size 3 to 8) (size 9 to 14) (size 15 to 20)
#    0.000    2.000    1.429    3.857    2.000    2.286 
#    5.143    2.143    0.000    0.000    0.000    0.000 
#    0.000    0.000    0.000    0.000    0.000    0.000 
#
# Total GULP energy -173635.443010 kJ/mol
# GULP energy per Si atom -12402.531644 kJ/mol
# Density = 2.774750 g / cm^3
# Si number density = 27.810794 Si / 1000 Ang^3
#
#
#
# Elastic Constant Matrix: (Units=GPa)
#
#
# Indices 1 2 3 4 5 6 
#
# 1 144.8111 55.4485 44.9686 23.3934 22.1861 3.8900
# 2 55.4485 149.4012 43.5804 39.5210 -7.4613 -1.7856
# 3 44.9686 43.5804 125.5413 27.4502 20.3613 -18.3514
# 4 23.3934 39.5210 27.4502 44.7275 -9.9882 -10.2320
# 5 22.1861 -7.4613 20.3613 -9.9882 59.2555 9.4211
# 6 3.8900 -1.7856 -18.3514 -10.2320 9.4211 28.1350
#
#
#
# Elastic Compliance Matrix: (Units=1/GPa)
#
#
# Indices 1 2 3 4 5 6 
#
# 1 0.009434 -0.002376 -0.001700 -0.003133 -0.003365 -0.002577
# 2 -0.002376 0.010005 -0.002070 -0.006629 0.002311 -0.003571
# 3 -0.001700 -0.002070 0.012480 -0.004296 -0.006019 0.008697
# 4 -0.003133 -0.006629 -0.004296 0.035793 0.006571 0.008027
# 5 -0.003365 0.002311 -0.006019 0.006571 0.022973 -0.008617
# 6 -0.002577 -0.003571 0.008697 0.008027 -0.008617 0.047150
#
#
# Mechanical properties :
#
#
# Convention : Reuss Voigt Hill
#
# Bulk Modulus (GPa) = 50.94859 78.63873 64.79366
# Shear Modulus (GPa) = 31.91447 44.80733 38.36090
#
# Velocity S-wave (km/s) = 3.39124 4.01827 3.71799
# Velocity P-wave (km/s) = 5.80461 7.06161 6.46374
#
# Compressibility (1/GPa) = 0.01962763
#
# Stress axis : x y z
#
# Youngs Moduli (GPa) = 105.99874 99.95092 80.12900
#
# Poissons Ratio (x) = 0.23744 0.13626
# Poissons Ratio (y) = 0.25180 0.16584
# Poissons Ratio (z) = 0.18025 0.20686
#
# Static dielectric constant tensor:
#      x y z
#    x 5.235940 -0.253920 0.759570 
#    y -0.253920 5.189770 -0.005910 
#    z 0.759570 -0.005910 5.752340 
# 
# 
# High freq. dielectric constant tensor:
#      x y z
#    x 2.121070 -0.008580 0.009780 
#    y -0.008580 2.141320 0.000060 
#    z 0.009780 0.000060 2.141650 
# 
# From -- ./inp_files/308578.got.cif
#   From: 2010.06.25/outbox.cif.g09.slc.cpg/sg2_155_cif.got.tgz:308578.got - 2010.06.27 13:26:56.
