data_PCOD8033864
_publ_section_title
;
Structure prediction by ZEFSAII (Michael W. Deem and Ramdas Pophale) SiO2 
 PCOD8033864
Probable space group: P -1
;
_chemical_formula_sum "Si O2"
_cell_formula_units_Z 14
_cell_length_a 15.525214
_cell_length_b 21.080345
_cell_length_c 5.323857
_cell_angle_alpha 91.722855
_cell_angle_beta 91.331546
_cell_angle_gamma 21.242757
_cell_volume 630.957328
_symmetry_space_group_name_H-M "P -1"
_symmetry_group_IT_number 2
_symmetry_cell_setting 'triclinic'
loop_
_space_group_symop_operation_xyz
x,y,z
-x,-y,-z
loop_
_atom_site_type_symbol
_atom_site_label
_atom_site_fract_x
_atom_site_fract_y
_atom_site_fract_z
Si Si1 0.724142 0.802987 0.965204
Si Si2 0.029344 0.544197 0.352643
Si Si3 0.783624 0.962668 0.708378
Si Si4 0.924367 0.363821 0.305015
Si Si5 0.520830 0.826352 0.776957
Si Si6 0.244184 0.722539 0.756298
Si Si7 0.460309 0.608790 0.256362
O O1 0.789560 0.712439 0.190991
O O2 0.657606 0.800209 0.734058
O O3 0.953916 0.690221 0.939621
O O4 0.500000 0.000000 0.000000
O O5 0.055820 0.593775 0.490509
O O6 0.276614 0.366229 0.191432
O O7 0.000000 0.500000 0.500000
O O8 0.923016 0.802535 0.623926
O O9 0.968983 0.892443 0.754096
O O10 0.626840 0.088888 0.472273
O O11 0.638141 0.056618 0.969002
O O12 0.652470 0.533276 0.251693
O O13 0.303419 0.723162 0.512063
O O14 0.409946 0.547410 0.752993
O O15 0.295085 0.728529 0.012260
#
# Coordination Sequence:
#
# PCOD8033864 Si02
#       7
#     2   2   2   2   2   2   2
#     4  12  25  43  68  98 137 177 233 285 330 401
#     4  12  27  44  65  96 142 188 226 274 339 406
#     4  11  24  42  70 102 132 180 225 285 332 405
#     4  11  25  39  69  99 134 177 230 276 342 392
#     4  12  25  42  66  96 140 180 224 268 344 402
#     4   9  18  37  62  95 131 162 221 279 342 382
#     4   9  19  35  62  96 129 168 213 286 333 396
#
# _framework density 22.188504999999999
#
# number of rings (size 3 to 8) (size 9 to 14) (size 15 to 20)
#    0.000    1.143    2.857    3.000    4.000    3.429 
#    0.000    0.000    0.000    5.143    0.000    0.000 
#    0.000    0.000    0.000    0.000    0.000    0.000 
#
# Total GULP energy -173487.503062 kJ/mol
# GULP energy per Si atom -12391.964504 kJ/mol
# Density = 2.213800 g / cm^3
# Si number density = 22.188505 Si / 1000 Ang^3
#
#
#
# Elastic Constant Matrix: (Units=GPa)
#
#
# Indices 1 2 3 4 5 6 
#
# 1 92.3922 63.8971 48.8746 5.6381 -0.0854 -41.4925
# 2 63.8971 127.1769 59.3335 -13.2860 4.9372 -4.1332
# 3 48.8746 59.3335 145.2186 -11.9078 4.6274 -19.3297
# 4 5.6381 -13.2860 -11.9078 37.5542 -4.8694 5.7633
# 5 -0.0854 4.9372 4.6274 -4.8694 31.1099 1.0908
# 6 -41.4925 -4.1332 -19.3297 5.7633 1.0908 42.1852
#
#
#
# Elastic Compliance Matrix: (Units=1/GPa)
#
#
# Indices 1 2 3 4 5 6 
#
# 1 0.068021 -0.034182 -0.002724 -0.033650 -0.001598 0.066945
# 2 -0.034182 0.027145 -0.002648 0.019268 0.000229 -0.034813
# 3 -0.002724 -0.002648 0.009217 0.002155 -0.000656 0.001007
# 4 -0.033650 0.019268 0.002155 0.045428 0.004922 -0.036556
# 5 -0.001598 0.000229 -0.000656 0.004922 0.033090 -0.003378
# 6 0.066945 -0.034813 0.001007 -0.036556 -0.003378 0.091683
#
#
# Mechanical properties :
#
#
# Convention : Reuss Voigt Hill
#
# Bulk Modulus (GPa) = 39.56658 78.77755 59.17207
# Shear Modulus (GPa) = 13.80773 35.01534 24.41154
#
# Velocity S-wave (km/s) = 2.49728 3.97682 3.32051
# Velocity P-wave (km/s) = 5.11722 7.52779 6.43637
#
# Compressibility (1/GPa) = 0.02527385
#
# Stress axis : x y z
#
# Youngs Moduli (GPa) = 14.70142 36.83920 108.50083
#
# Poissons Ratio (x) = 1.25924 0.29558
# Poissons Ratio (y) = 0.50252 0.28729
# Poissons Ratio (z) = 0.04005 0.09754
#
# Static dielectric constant tensor:
#      x y z
#    x 2.823560 -0.309580 -0.100800 
#    y -0.309580 4.340870 0.221300 
#    z -0.100800 0.221300 4.132640 
# 
# 
# High freq. dielectric constant tensor:
#      x y z
#    x 1.867630 -0.018670 0.009110 
#    y -0.018670 1.874670 0.005220 
#    z 0.009110 0.005220 1.874250 
# 
# From -- ./inp_files/89006.got.cif
#   From: 2010.06.25/outbox.cif.g09.slc.cpg/sg2_45_cif.got.tgz:89006.got - 2010.06.27 13:26:56.
