data_PCOD8033498
_publ_section_title
;
Structure prediction by ZEFSAII (Michael W. Deem and Ramdas Pophale) SiO2 
 PCOD8033498
Probable space group: P -1
;
_chemical_formula_sum "Si O2"
_cell_formula_units_Z 16
_cell_length_a 11.690366
_cell_length_b 9.558781
_cell_length_c 8.657662
_cell_angle_alpha 103.018609
_cell_angle_beta 75.790162
_cell_angle_gamma 130.450637
_cell_volume 710.812382
_symmetry_space_group_name_H-M "P -1"
_symmetry_group_IT_number 2
_symmetry_cell_setting 'triclinic'
loop_
_space_group_symop_operation_xyz
x,y,z
-x,-y,-z
loop_
_atom_site_type_symbol
_atom_site_label
_atom_site_fract_x
_atom_site_fract_y
_atom_site_fract_z
Si Si1 0.836821 0.721486 0.725767
Si Si2 0.038715 0.634552 0.159570
Si Si3 0.416327 0.762077 0.809955
Si Si4 0.711970 0.367779 0.842800
Si Si5 0.433224 0.037611 0.672270
Si Si6 0.232240 0.406229 0.622363
Si Si7 0.759203 0.968100 0.767614
Si Si8 0.179335 0.040354 0.609740
O O1 0.785628 0.580384 0.846462
O O2 0.766941 0.603258 0.563445
O O3 0.758065 0.813162 0.811175
O O4 0.017459 0.875970 0.693600
O O5 0.155458 0.646028 0.242911
O O6 0.888264 0.564981 0.280744
O O7 0.125791 0.844685 0.126510
O O8 0.000000 0.500000 0.000000
O O9 0.390862 0.600316 0.671788
O O10 0.595193 0.914882 0.815942
O O11 0.362514 0.869386 0.774617
O O12 0.326486 0.674436 0.975420
O O13 0.566113 0.233193 0.752216
O O14 0.305418 0.050256 0.663742
O O15 0.500000 0.000000 0.500000
O O16 0.207272 0.232489 0.666855
O O17 0.822231 0.001600 0.580369
#
# Coordination Sequence:
#
# PCOD8033498 Si02
#       8
#     2   2   2   2   2   2   2   2
#     4  11  25  45  73 104 140 181 238 290 341 417
#     4  12  23  45  71 100 140 185 236 283 351 415
#     4  12  26  46  69 100 148 186 225 288 355 419
#     4  12  28  44  65 106 142 188 230 281 355 416
#     4  12  25  46  70 105 139 183 237 287 347 415
#     4  11  24  45  75 104 137 187 235 288 351 404
#     4  11  23  47  74 100 140 185 232 293 350 405
#     4  11  23  46  75 106 138 176 241 295 341 408
#
# _framework density 22.509456
#
# number of rings (size 3 to 8) (size 9 to 14) (size 15 to 20)
#    0.000    0.500    6.250    1.875    3.500    2.000 
#    0.000    1.250    0.000    0.000    0.000    0.000 
#    0.000    0.000    0.000    0.000    0.000    0.000 
#
# Total GULP energy -198449.931500 kJ/mol
# GULP energy per Si atom -12403.120719 kJ/mol
# Density = 2.245822 g / cm^3
# Si number density = 22.509456 Si / 1000 Ang^3
#
#
#
# Elastic Constant Matrix: (Units=GPa)
#
#
# Indices 1 2 3 4 5 6 
#
# 1 114.2074 31.2312 31.8985 1.1017 8.1726 -14.7885
# 2 31.2312 145.0395 42.2143 0.0494 7.9072 -14.0899
# 3 31.8985 42.2143 65.2512 -3.3041 1.7895 -11.6244
# 4 1.1017 0.0494 -3.3041 43.8459 -3.8204 4.4871
# 5 8.1726 7.9072 1.7895 -3.8204 24.1129 2.8874
# 6 -14.7885 -14.0899 -11.6244 4.4871 2.8874 39.8110
#
#
#
# Elastic Compliance Matrix: (Units=1/GPa)
#
#
# Indices 1 2 3 4 5 6 
#
# 1 0.010780 -0.000572 -0.004337 -0.001219 -0.003690 0.002941
# 2 -0.000572 0.008807 -0.005082 -0.000783 -0.002645 0.001701
# 3 -0.004337 -0.005082 0.021217 0.001590 0.001515 0.002496
# 4 -0.001219 -0.000783 0.001590 0.023704 0.004700 -0.003278
# 5 -0.003690 -0.002645 0.001515 0.004700 0.044898 -0.005650
# 6 0.002941 0.001701 0.002496 -0.003278 -0.005650 0.028321
#
#
# Mechanical properties :
#
#
# Convention : Reuss Voigt Hill
#
# Bulk Modulus (GPa) = 48.02459 59.46511 53.74485
# Shear Modulus (GPa) = 30.36765 36.16424 33.26594
#
# Velocity S-wave (km/s) = 3.67700 4.01262 3.84847
# Velocity P-wave (km/s) = 6.27764 6.92411 6.60879
#
# Compressibility (1/GPa) = 0.02082267
#
# Stress axis : x y z
#
# Youngs Moduli (GPa) = 92.76237 113.55115 47.13210
#
# Poissons Ratio (x) = 0.06493 0.20440
# Poissons Ratio (y) = 0.05304 0.23953
# Poissons Ratio (z) = 0.40228 0.57707
#
# Static dielectric constant tensor:
#      x y z
#    x 4.402450 0.002480 0.056430 
#    y 0.002480 4.370990 0.157740 
#    z 0.056430 0.157740 3.880440 
# 
# 
# High freq. dielectric constant tensor:
#      x y z
#    x 1.898080 0.001130 -0.002170 
#    y 0.001130 1.910430 0.011840 
#    z -0.002170 0.011840 1.867550 
# 
# From -- ./inp_files/184217.got.cif
#   From: 2010.06.25/outbox.cif.g09.slc.cpg/sg2_93_cif.got.tgz:184217.got - 2010.06.27 13:26:56.
