data_PCOD8033612
_publ_section_title
;
Structure prediction by ZEFSAII (Michael W. Deem and Ramdas Pophale) SiO2 
 PCOD8033612
Probable space group: P -1
;
_chemical_formula_sum "Si O2"
_cell_formula_units_Z 16
_cell_length_a 12.357211
_cell_length_b 9.270894
_cell_length_c 22.851302
_cell_angle_alpha 142.980512
_cell_angle_beta 153.742269
_cell_angle_gamma 43.560847
_cell_volume 696.963754
_symmetry_space_group_name_H-M "P -1"
_symmetry_group_IT_number 2
_symmetry_cell_setting 'triclinic'
loop_
_space_group_symop_operation_xyz
x,y,z
-x,-y,-z
loop_
_atom_site_type_symbol
_atom_site_label
_atom_site_fract_x
_atom_site_fract_y
_atom_site_fract_z
Si Si1 0.778139 0.361252 0.877395
Si Si2 0.981968 0.069887 0.081304
Si Si3 0.002501 0.457406 0.379254
Si Si4 0.223965 0.516749 0.390412
Si Si5 0.365267 0.163967 0.535490
Si Si6 0.054392 0.025232 0.439162
Si Si7 0.490709 0.516958 0.900018
Si Si8 0.559552 0.843052 0.143326
O O1 0.560747 0.333451 0.716049
O O2 0.681597 0.498355 0.932984
O O3 0.856671 0.095127 0.850450
O O4 0.000000 0.500000 0.000000
O O5 0.062015 0.345402 0.215793
O O6 0.704921 0.034669 0.955570
O O7 0.000000 0.000000 0.000000
O O8 0.214473 0.435447 0.426549
O O9 0.130683 0.327706 0.454013
O O10 0.884350 0.721338 0.420945
O O11 0.756378 0.338898 0.195823
O O12 0.500000 0.500000 0.500000
O O13 0.112471 0.786884 0.427456
O O14 0.231146 0.984996 0.456132
O O15 0.500000 0.000000 0.500000
O O16 0.760682 0.042863 0.294618
O O17 0.423266 0.264810 0.817030
O O18 0.620011 0.652112 0.059531
#
# Coordination Sequence:
#
# PCOD8033612 Si02
#       8
#     2   2   2   2   2   2   2   2
#     4  12  29  47  74 105 148 197 243 294 371 439
#     4  12  26  46  73 106 148 191 239 307 367 431
#     4  12  25  47  74 100 148 193 240 301 359 428
#     4  12  26  44  72 108 143 188 244 301 365 430
#     4  12  29  50  68 106 156 191 240 301 360 442
#     4  12  26  44  76 108 139 193 246 301 364 432
#     4  11  23  48  72 105 147 186 246 311 353 431
#     4  11  24  44  75 108 143 184 246 310 366 421
#
# _framework density 22.956719
#
# number of rings (size 3 to 8) (size 9 to 14) (size 15 to 20)
#    0.000    0.250    5.000    3.750    5.250    0.000 
#    0.000    1.250    0.000    0.000    0.000    0.000 
#    0.000    0.000    0.000    0.000    0.000    0.000 
#
# Total GULP energy -198328.209628 kJ/mol
# GULP energy per Si atom -12395.513102 kJ/mol
# Density = 2.290447 g / cm^3
# Si number density = 22.956719 Si / 1000 Ang^3
#
#
#
# Elastic Constant Matrix: (Units=GPa)
#
#
# Indices 1 2 3 4 5 6 
#
# 1 167.0598 5.2508 36.6566 -2.7044 11.7997 -11.3212
# 2 5.2508 86.8042 20.5434 -15.9726 -6.6768 -3.2448
# 3 36.6566 20.5434 83.0502 -17.7436 11.6516 9.1683
# 4 -2.7044 -15.9726 -17.7436 39.2175 -5.6567 1.2564
# 5 11.7997 -6.6768 11.6516 -5.6567 47.7658 -4.3737
# 6 -11.3212 -3.2448 9.1683 1.2564 -4.3737 34.6681
#
#
#
# Elastic Compliance Matrix: (Units=1/GPa)
#
#
# Indices 1 2 3 4 5 6 
#
# 1 0.007041 0.000294 -0.003725 -0.001278 -0.000641 0.003277
# 2 0.000294 0.013436 -0.003251 0.004426 0.003349 0.002475
# 3 -0.003725 -0.003251 0.016968 0.005791 -0.003598 -0.006672
# 4 -0.001278 0.004426 0.005791 0.030325 0.002905 -0.002267
# 5 -0.000641 0.003349 -0.003598 0.002905 0.023138 0.003870
# 6 0.003277 0.002475 -0.006672 -0.002267 0.003870 0.032482
#
#
# Mechanical properties :
#
#
# Convention : Reuss Voigt Hill
#
# Bulk Modulus (GPa) = 41.52785 51.31286 46.42035
# Shear Modulus (GPa) = 34.53496 42.62784 38.58140
#
# Velocity S-wave (km/s) = 3.88280 4.31383 4.10398
# Velocity P-wave (km/s) = 6.18308 6.87115 6.53617
#
# Compressibility (1/GPa) = 0.02408023
#
# Stress axis : x y z
#
# Youngs Moduli (GPa) = 142.03130 74.42535 58.93494
#
# Poissons Ratio (x) = -0.02187 0.21954
# Poissons Ratio (y) = -0.04174 0.19160
# Poissons Ratio (z) = 0.52909 0.24196
#
# Static dielectric constant tensor:
#      x y z
#    x 4.316150 -0.035440 -0.032890 
#    y -0.035440 4.136410 -0.344080 
#    z -0.032890 -0.344080 4.497110 
# 
# 
# High freq. dielectric constant tensor:
#      x y z
#    x 1.926610 -0.013810 0.000360 
#    y -0.013810 1.894170 -0.017410 
#    z 0.000360 -0.017410 1.910190 
# 
# From -- ./inp_files/329038.got.cif
#   From: 2010.06.25/outbox.cif.g09.slc.cpg/sg2_165_cif.got.tgz:329038.got - 2010.06.27 13:26:56.
