data_PCOD8033956
_publ_section_title
;
Structure prediction by ZEFSAII (Michael W. Deem and Ramdas Pophale) SiO2 
 PCOD8033956
Probable space group: P -1
;
_chemical_formula_sum "Si O2"
_cell_formula_units_Z 12
_cell_length_a 9.398565
_cell_length_b 9.344483
_cell_length_c 7.490089
_cell_angle_alpha 108.881942
_cell_angle_beta 82.763186
_cell_angle_gamma 64.287161
_cell_volume 532.705361
_symmetry_space_group_name_H-M "P -1"
_symmetry_group_IT_number 2
_symmetry_cell_setting 'triclinic'
loop_
_space_group_symop_operation_xyz
x,y,z
-x,-y,-z
loop_
_atom_site_type_symbol
_atom_site_label
_atom_site_fract_x
_atom_site_fract_y
_atom_site_fract_z
Si Si1 0.102943 0.280073 0.586288
Si Si2 0.505264 0.331031 0.014220
Si Si3 0.387068 0.114278 0.726910
Si Si4 0.944044 0.189028 0.303436
Si Si5 0.220444 0.448576 0.382384
Si Si6 0.766662 0.036906 0.078278
O O1 0.194327 0.222226 0.736737
O O2 0.231407 0.285607 0.423242
O O3 0.046104 0.146041 0.459561
O O4 0.936598 0.473720 0.700937
O O5 0.388136 0.389450 0.228004
O O6 0.688111 0.189723 0.001217
O O7 0.500000 0.500000 0.000000
O O8 0.449778 0.242526 0.835334
O O9 0.500000 0.000000 0.500000
O O10 0.377495 0.000706 0.846418
O O11 0.814416 0.399014 0.405839
O O12 0.835979 0.094979 0.260401
O O13 0.076748 0.133988 0.099626
#
# Coordination Sequence:
#
# PCOD8033956 Si02
#       6
#     2   2   2   2   2   2
#     4   9  20  40  68  92 127 162 217 257 329 368
#     4  12  28  42  66  96 131 173 218 263 322 384
#     4  12  26  41  67  97 134 173 210 267 324 384
#     4   9  21  42  69  91 125 174 209 269 316 378
#     4   9  21  42  66  93 131 165 210 272 316 374
#     4  11  24  43  67  93 133 168 219 261 324 384
#
# _framework density 22.526520999999999
#
# number of rings (size 3 to 8) (size 9 to 14) (size 15 to 20)
#    1.000    0.667    0.000    3.500    4.667    4.667 
#    0.000    0.000    0.000    0.000    0.000    0.000 
#    0.000    0.000    0.000    0.000    0.000    0.000 
#
# Total GULP energy -148679.239803 kJ/mol
# GULP energy per Si atom -12389.936650 kJ/mol
# Density = 2.247525 g / cm^3
# Si number density = 22.526521 Si / 1000 Ang^3
#
#
#
# Elastic Constant Matrix: (Units=GPa)
#
#
# Indices 1 2 3 4 5 6 
#
# 1 96.9757 32.7099 42.3589 7.7266 21.6982 12.9321
# 2 32.7099 92.9097 33.5230 1.8652 10.8654 12.6802
# 3 42.3589 33.5230 100.7432 26.5063 9.7418 6.4713
# 4 7.7266 1.8652 26.5063 31.0233 4.3761 5.1796
# 5 21.6982 10.8654 9.7418 4.3761 53.8298 -1.1373
# 6 12.9321 12.6802 6.4713 5.1796 -1.1373 36.3152
#
#
#
# Elastic Compliance Matrix: (Units=1/GPa)
#
#
# Indices 1 2 3 4 5 6 
#
# 1 0.014854 -0.002202 -0.005422 0.002425 -0.004845 -0.004052
# 2 -0.002202 0.013747 -0.004393 0.004342 -0.001528 -0.003900
# 3 -0.005422 -0.004393 0.016932 -0.013414 0.001149 0.002397
# 4 0.002425 0.004342 -0.013414 0.044348 -0.003167 -0.006414
# 5 -0.004845 -0.001528 0.001149 -0.003167 0.020954 0.003162
# 6 -0.004052 -0.003900 0.002397 -0.006414 0.003162 0.030928
#
#
# Mechanical properties :
#
#
# Convention : Reuss Voigt Hill
#
# Bulk Modulus (GPa) = 46.51313 56.42358 51.46835
# Shear Modulus (GPa) = 28.90772 36.36946 32.63859
#
# Velocity S-wave (km/s) = 3.58617 4.02246 3.81057
# Velocity P-wave (km/s) = 6.15146 6.83196 6.50062
#
# Compressibility (1/GPa) = 0.02149931
#
# Stress axis : x y z
#
# Youngs Moduli (GPa) = 67.32107 72.74246 59.05938
#
# Poissons Ratio (x) = 0.16020 0.32023
# Poissons Ratio (y) = 0.14826 0.25942
# Poissons Ratio (z) = 0.36503 0.31952
#
# Static dielectric constant tensor:
#      x y z
#    x 4.087010 -0.050200 0.124540 
#    y -0.050200 3.938080 0.113110 
#    z 0.124540 0.113110 3.854410 
# 
# 
# High freq. dielectric constant tensor:
#      x y z
#    x 1.894900 0.000160 0.002290 
#    y 0.000160 1.868600 0.013700 
#    z 0.002290 0.013700 1.878360 
# 
# From -- ./inp_files/151917.got.cif
#   From: 2010.06.25/outbox.cif.g09.slc.cpg/sg2_76_cif.got.tgz:151917.got - 2010.06.27 13:26:56.
