data_PCOD8033026
_publ_section_title
;
Structure prediction by ZEFSAII (Michael W. Deem and Ramdas Pophale) SiO2 
 PCOD8033026
Probable space group: P -1
;
_chemical_formula_sum "Si O2"
_cell_formula_units_Z 16
_cell_length_a 15.115402
_cell_length_b 9.298808
_cell_length_c 12.668684
_cell_angle_alpha 47.737894
_cell_angle_beta 110.439511
_cell_angle_gamma 71.052824
_cell_volume 729.451092
_symmetry_space_group_name_H-M "P -1"
_symmetry_group_IT_number 2
_symmetry_cell_setting 'triclinic'
loop_
_space_group_symop_operation_xyz
x,y,z
-x,-y,-z
loop_
_atom_site_type_symbol
_atom_site_label
_atom_site_fract_x
_atom_site_fract_y
_atom_site_fract_z
Si Si1 0.636462 0.627040 0.203555
Si Si2 0.037809 0.319465 0.000713
Si Si3 0.453405 0.646388 0.239828
Si Si4 0.766228 0.113242 0.146793
Si Si5 0.184058 0.315051 0.467657
Si Si6 0.559808 0.739767 0.878589
Si Si7 0.059784 0.837156 0.312212
Si Si8 0.370353 0.954450 0.265542
O O1 0.601416 0.475585 0.315915
O O2 0.805763 0.421273 0.416010
O O3 0.643847 0.582676 0.104178
O O4 0.500000 0.000000 0.000000
O O5 0.051360 0.069982 0.153167
O O6 0.201519 0.129772 0.116234
O O7 0.000000 0.500000 0.000000
O O8 0.897228 0.592611 0.723785
O O9 0.421312 0.859933 0.211040
O O10 0.497967 0.366809 0.447579
O O11 0.295982 0.889108 0.983162
O O12 0.839619 0.831452 0.394602
O O13 0.616188 0.467273 0.965134
O O14 0.896888 0.052748 0.196812
O O15 0.095518 0.644816 0.320744
O O16 0.369365 0.056045 0.653996
O O17 0.624759 0.828602 0.806502
#
# Coordination Sequence:
#
# PCOD8033026 Si02
#       8
#     2   2   2   2   2   2   2   2
#     4  12  22  45  74 104 137 183 238 283 350 415
#     4  12  29  47  69 105 145 184 231 295 353 410
#     4  11  23  44  71  99 138 182 237 284 342 416
#     4  12  28  45  71 108 143 181 232 301 350 405
#     4  12  27  47  73 103 141 187 239 284 351 421
#     4  12  27  44  74 107 141 184 232 295 350 416
#     4  12  26  48  74 101 142 192 231 287 347 425
#     4  11  25  44  70 100 138 186 233 282 344 425
#
# _framework density 21.934301999999999
#
# number of rings (size 3 to 8) (size 9 to 14) (size 15 to 20)
#    0.000    0.250    5.000    2.625    8.750    1.000 
#    0.000    0.000    0.000    0.000    0.000    0.000 
#    0.000    0.000    0.000    0.000    0.000    0.000 
#
# Total GULP energy -198511.230618 kJ/mol
# GULP energy per Si atom -12406.951914 kJ/mol
# Density = 2.188438 g / cm^3
# Si number density = 21.934302 Si / 1000 Ang^3
#
#
#
# Elastic Constant Matrix: (Units=GPa)
#
#
# Indices 1 2 3 4 5 6 
#
# 1 132.8617 22.3526 27.5268 -2.4996 -2.8807 -2.5521
# 2 22.3526 101.1606 49.1638 4.7628 -14.0726 3.5797
# 3 27.5268 49.1638 107.1118 23.7003 -2.1770 0.2588
# 4 -2.4996 4.7628 23.7003 44.2552 6.4828 0.9531
# 5 -2.8807 -14.0726 -2.1770 6.4828 41.1093 -7.4211
# 6 -2.5521 3.5797 0.2588 0.9531 -7.4211 30.1099
#
#
#
# Elastic Compliance Matrix: (Units=1/GPa)
#
#
# Indices 1 2 3 4 5 6 
#
# 1 0.008148 -0.000909 -0.002038 0.001628 0.000035 0.000773
# 2 -0.000909 0.013620 -0.006212 0.001247 0.003945 -0.000710
# 3 -0.002038 -0.006212 0.014265 -0.007056 -0.000294 0.000594
# 4 0.001628 0.001247 -0.007056 0.027023 -0.004437 -0.001899
# 5 0.000035 0.003945 -0.000294 -0.004437 0.027529 0.006462
# 6 0.000773 -0.000710 0.000594 -0.001899 0.006462 0.035009
#
#
# Mechanical properties :
#
#
# Convention : Reuss Voigt Hill
#
# Bulk Modulus (GPa) = 56.44963 59.91337 58.18150
# Shear Modulus (GPa) = 33.37376 39.23428 36.30402
#
# Velocity S-wave (km/s) = 3.90492 4.23391 4.07274
# Velocity P-wave (km/s) = 6.79138 7.16070 6.97848
#
# Compressibility (1/GPa) = 0.01771491
#
# Stress axis : x y z
#
# Youngs Moduli (GPa) = 122.72880 73.41908 70.10221
#
# Poissons Ratio (x) = 0.06674 0.14287
# Poissons Ratio (y) = 0.11157 0.43548
# Poissons Ratio (z) = 0.25013 0.45609
#
# Static dielectric constant tensor:
#      x y z
#    x 4.045740 0.017900 -0.135320 
#    y 0.017900 3.958010 0.132970 
#    z -0.135320 0.132970 3.949850 
# 
# 
# High freq. dielectric constant tensor:
#      x y z
#    x 1.879690 0.001650 -0.006150 
#    y 0.001650 1.864650 0.007390 
#    z -0.006150 0.007390 1.870280 
# 
# From -- ./inp_files/206812.got.cif
#   From: 2010.06.25/outbox.cif.g09.slc.cpg/sg2_104_cif.got.tgz:206812.got - 2010.06.27 13:26:56.
