data_PCOD8033067
_publ_section_title
;
Structure prediction by ZEFSAII (Michael W. Deem and Ramdas Pophale) SiO2 
 PCOD8033067
Probable space group: P -1
;
_chemical_formula_sum "Si O2"
_cell_formula_units_Z 16
_cell_length_a 19.699653
_cell_length_b 15.665781
_cell_length_c 12.746274
_cell_angle_alpha 134.764829
_cell_angle_beta 26.202349
_cell_angle_gamma 152.057868
_cell_volume 735.753685
_symmetry_space_group_name_H-M "P -1"
_symmetry_group_IT_number 2
_symmetry_cell_setting 'triclinic'
loop_
_space_group_symop_operation_xyz
x,y,z
-x,-y,-z
loop_
_atom_site_type_symbol
_atom_site_label
_atom_site_fract_x
_atom_site_fract_y
_atom_site_fract_z
Si Si1 0.482268 0.300033 0.767750
Si Si2 0.627299 0.494826 0.951216
Si Si3 0.607875 0.009742 0.964159
Si Si4 0.765512 0.104013 0.255567
Si Si5 0.253580 0.164746 0.356494
Si Si6 0.239130 0.368239 0.685501
Si Si7 0.100208 0.444756 0.757380
Si Si8 0.876531 0.291177 0.483343
O O1 0.410772 0.388356 0.908104
O O2 0.726843 0.410460 0.456665
O O3 0.269411 0.063152 0.835613
O O4 0.534230 0.345720 0.859386
O O5 0.491387 0.368033 0.136912
O O6 0.934427 0.677358 0.688372
O O7 0.403086 0.888276 0.235197
O O8 0.664987 0.908787 0.768377
O O9 0.500000 0.000000 0.000000
O O10 0.863317 0.225918 0.845437
O O11 0.853733 0.223798 0.341576
O O12 0.500000 0.000000 0.500000
O O13 0.007002 0.281012 0.997761
O O14 0.161004 0.187876 0.600345
O O15 0.000000 0.000000 0.500000
O O16 0.500000 0.500000 0.500000
O O17 0.267558 0.471874 0.632742
O O18 0.000000 0.500000 0.000000
O O19 0.000000 0.500000 0.500000
#
# Coordination Sequence:
#
# PCOD8033067 Si02
#       8
#     2   2   2   2   2   2   2   2
#     4  11  24  45  74 101 142 184 239 292 360 424
#     4  11  23  44  73 102 136 188 233 298 355 423
#     4  12  27  45  74 108 139 188 240 296 361 429
#     4  12  27  46  72 105 143 191 238 294 361 429
#     4  12  23  46  74 100 142 183 244 295 354 430
#     4  12  27  46  74 105 142 194 241 292 363 426
#     4  12  26  48  68 104 148 186 236 301 362 430
#     4  12  25  44  71  99 143 182 236 288 353 426
#
# _framework density 21.746410000000001
#
# number of rings (size 3 to 8) (size 9 to 14) (size 15 to 20)
#    0.000    0.250    3.750    5.250    1.750    3.500 
#    0.000    0.000    0.000    0.000    0.000    0.000 
#    0.000    0.000    0.000    0.000    0.000    0.000 
#
# Total GULP energy -198309.123962 kJ/mol
# GULP energy per Si atom -12394.320248 kJ/mol
# Density = 2.169691 g / cm^3
# Si number density = 21.746410 Si / 1000 Ang^3
#
#
#
# Elastic Constant Matrix: (Units=GPa)
#
#
# Indices 1 2 3 4 5 6 
#
# 1 114.4377 44.9691 25.4792 12.0838 -14.0581 10.2862
# 2 44.9691 117.3092 17.9287 22.5679 3.6153 15.9021
# 3 25.4792 17.9287 104.3843 14.9072 -0.3083 3.8948
# 4 12.0838 22.5679 14.9072 50.2495 4.0645 3.0107
# 5 -14.0581 3.6153 -0.3083 4.0645 44.9801 -2.3230
# 6 10.2862 15.9021 3.8948 3.0107 -2.3230 34.2973
#
#
#
# Elastic Compliance Matrix: (Units=1/GPa)
#
#
# Indices 1 2 3 4 5 6 
#
# 1 0.011342 -0.003901 -0.001956 -0.000643 0.003849 -0.001054
# 2 -0.003901 0.011365 -0.000337 -0.003672 -0.002003 -0.003874
# 3 -0.001956 -0.000337 0.010473 -0.002446 -0.000305 -0.000253
# 4 -0.000643 -0.003672 -0.002446 0.022585 -0.001961 0.000058
# 5 0.003849 -0.002003 -0.000305 -0.001961 0.023854 0.001597
# 6 -0.001054 -0.003874 -0.000253 0.000058 0.001597 0.031401
#
#
# Mechanical properties :
#
#
# Convention : Reuss Voigt Hill
#
# Bulk Modulus (GPa) = 48.09382 56.98721 52.54052
# Shear Modulus (GPa) = 38.36185 42.42232 40.39209
#
# Velocity S-wave (km/s) = 4.20462 4.42155 4.31445
# Velocity P-wave (km/s) = 6.76281 7.23388 7.00231
#
# Compressibility (1/GPa) = 0.02079269
#
# Stress axis : x y z
#
# Youngs Moduli (GPa) = 88.16604 87.99195 95.48334
#
# Poissons Ratio (x) = 0.34325 0.18676
# Poissons Ratio (y) = 0.34393 0.03215
# Poissons Ratio (z) = 0.17245 0.02963
#
# Static dielectric constant tensor:
#      x y z
#    x 3.917110 -0.120210 0.143190 
#    y -0.120210 4.036500 0.209240 
#    z 0.143190 0.209240 4.142950 
# 
# 
# High freq. dielectric constant tensor:
#      x y z
#    x 1.857970 0.004510 -0.000260 
#    y 0.004510 1.864840 0.013750 
#    z -0.000260 0.013750 1.879840 
# 
# From -- ./inp_files/381264.got.cif
#   From: 2010.06.25/outbox.cif.g09.slc.cpg/sg2_191_cif.got.tgz:381264.got - 2010.06.27 13:26:56.
