data_PCOD8033682
_publ_section_title
;
Structure prediction by ZEFSAII (Michael W. Deem and Ramdas Pophale) SiO2 
 PCOD8033682
Probable space group: P -1
;
_chemical_formula_sum "Si O2"
_cell_formula_units_Z 14
_cell_length_a 9.438053
_cell_length_b 6.432616
_cell_length_c 18.114262
_cell_angle_alpha 121.952489
_cell_angle_beta 44.573323
_cell_angle_gamma 124.778541
_cell_volume 619.374158
_symmetry_space_group_name_H-M "P -1"
_symmetry_group_IT_number 2
_symmetry_cell_setting 'triclinic'
loop_
_space_group_symop_operation_xyz
x,y,z
-x,-y,-z
loop_
_atom_site_type_symbol
_atom_site_label
_atom_site_fract_x
_atom_site_fract_y
_atom_site_fract_z
Si Si1 0.811248 0.133384 0.729724
Si Si2 0.509993 0.279408 0.525745
Si Si3 0.078808 0.004005 0.888031
Si Si4 0.708886 0.934275 0.891477
Si Si5 0.789731 0.440127 0.316922
Si Si6 0.465046 0.632521 0.209154
Si Si7 0.797592 0.584886 0.592227
O O1 0.595635 0.146072 0.773024
O O2 0.989576 0.408337 0.694617
O O3 0.800241 0.100672 0.815949
O O4 0.868290 0.892507 0.630791
O O5 0.583275 0.292006 0.415508
O O6 0.286444 0.322629 0.640872
O O7 0.693368 0.511371 0.538180
O O8 0.500000 0.000000 0.500000
O O9 0.279078 0.268189 0.855601
O O10 0.163305 0.759455 0.795734
O O11 0.890854 0.006770 0.901342
O O12 0.000000 0.000000 0.000000
O O13 0.623904 0.627642 0.854024
O O14 0.500000 0.000000 0.000000
O O15 0.364368 0.578780 0.317064
O O16 0.000000 0.500000 0.500000
#
# Coordination Sequence:
#
# PCOD8033682 Si02
#       7
#     2   2   2   2   2   2   2
#     4  11  24  44  71  97 147 182 233 298 354 425
#     4  11  24  42  69 103 148 185 239 295 356 434
#     4  12  27  47  76 105 144 192 248 300 364 435
#     4  11  27  47  71 102 140 190 239 299 363 421
#     4  11  25  43  69 105 143 191 235 299 363 421
#     4  11  25  47  70 103 144 184 238 296 358 430
#     4  11  24  40  69 105 141 189 236 285 363 431
#
# _framework density 22.603460999999999
#
# number of rings (size 3 to 8) (size 9 to 14) (size 15 to 20)
#    0.000    0.857    1.429    4.286    8.000    7.429 
#    0.000    0.000    0.000    0.000    0.000    0.000 
#    0.000    0.000    0.000    0.000    0.000    0.000 
#
# Total GULP energy -173490.033964 kJ/mol
# GULP energy per Si atom -12392.145283 kJ/mol
# Density = 2.255201 g / cm^3
# Si number density = 22.603461 Si / 1000 Ang^3
#
#
#
# Elastic Constant Matrix: (Units=GPa)
#
#
# Indices 1 2 3 4 5 6 
#
# 1 130.5273 32.4774 42.6195 8.9843 -14.8774 8.9976
# 2 32.4774 98.8283 39.9097 -2.2748 -3.6822 6.0302
# 3 42.6195 39.9097 148.1118 10.9688 -13.6660 -1.9416
# 4 8.9843 -2.2748 10.9688 26.2233 1.1833 -12.0158
# 5 -14.8774 -3.6822 -13.6660 1.1833 40.6930 1.2620
# 6 8.9976 6.0302 -1.9416 -12.0158 1.2620 43.4969
#
#
#
# Elastic Compliance Matrix: (Units=1/GPa)
#
#
# Indices 1 2 3 4 5 6 
#
# 1 0.009604 -0.002323 -0.001579 -0.004352 0.002991 -0.003024
# 2 -0.002323 0.012116 -0.002887 0.002853 -0.000789 -0.000517
# 3 -0.001579 -0.002887 0.008419 -0.003260 0.002079 0.000142
# 4 -0.004352 0.002853 -0.003260 0.047684 -0.004238 0.013655
# 5 0.002991 -0.000789 0.002079 -0.004238 0.026491 -0.002356
# 6 -0.003024 -0.000517 0.000142 0.013655 -0.002356 0.027534
#
#
# Mechanical properties :
#
#
# Convention : Reuss Voigt Hill
#
# Bulk Modulus (GPa) = 60.38371 67.49784 63.94078
# Shear Modulus (GPa) = 33.12468 39.58001 36.35235
#
# Velocity S-wave (km/s) = 3.83230 4.18911 4.01467
# Velocity P-wave (km/s) = 6.80840 7.30238 7.05971
#
# Compressibility (1/GPa) = 0.01656076
#
# Stress axis : x y z
#
# Youngs Moduli (GPa) = 104.12759 82.53856 118.77717
#
# Poissons Ratio (x) = 0.19170 0.18755
# Poissons Ratio (y) = 0.24184 0.34293
# Poissons Ratio (z) = 0.16442 0.23831
#
# Static dielectric constant tensor:
#      x y z
#    x 4.339590 0.249030 0.231400 
#    y 0.249030 3.700870 0.251790 
#    z 0.231400 0.251790 3.882180 
# 
# 
# High freq. dielectric constant tensor:
#      x y z
#    x 1.903880 0.005730 -0.009230 
#    y 0.005730 1.896440 0.007910 
#    z -0.009230 0.007910 1.901300 
# 
# From -- ./inp_files/60649.got.cif
#   From: 2010.06.25/outbox.cif.g09.slc.cpg/sg2_31_cif.got.tgz:60649.got - 2010.06.27 13:26:56.
