data_PCOD8033493
_publ_section_title
;
Structure prediction by ZEFSAII (Michael W. Deem and Ramdas Pophale) SiO2 
 PCOD8033493
Probable space group: P -1
;
_chemical_formula_sum "Si O2"
_cell_formula_units_Z 14
_cell_length_a 15.388110
_cell_length_b 11.586151
_cell_length_c 9.420055
_cell_angle_alpha 121.278857
_cell_angle_beta 31.842495
_cell_angle_gamma 135.235842
_cell_volume 607.827154
_symmetry_space_group_name_H-M "P -1"
_symmetry_group_IT_number 2
_symmetry_cell_setting 'triclinic'
loop_
_space_group_symop_operation_xyz
x,y,z
-x,-y,-z
loop_
_atom_site_type_symbol
_atom_site_label
_atom_site_fract_x
_atom_site_fract_y
_atom_site_fract_z
Si Si1 0.090063 0.323040 0.538486
Si Si2 0.673227 0.009735 0.852414
Si Si3 0.895382 0.869347 0.351928
Si Si4 0.454758 0.877607 0.354736
Si Si5 0.699221 0.754281 0.002350
Si Si6 0.288645 0.371970 0.791978
Si Si7 0.035436 0.573360 0.656983
O O1 0.083800 0.254946 0.659838
O O2 0.286541 0.360021 0.204574
O O3 0.091042 0.485254 0.639063
O O4 0.887961 0.188203 0.641061
O O5 0.706703 0.869146 0.672074
O O6 0.618174 0.996520 0.084653
O O7 0.500000 0.000000 0.000000
O O8 0.849165 0.799923 0.213677
O O9 0.106210 0.053643 0.172510
O O10 0.225599 0.772594 0.536962
O O11 0.500000 0.000000 0.500000
O O12 0.494477 0.742071 0.259224
O O13 0.677133 0.679889 0.138839
O O14 0.500000 0.500000 0.500000
O O15 0.173758 0.457784 0.025244
O O16 0.000000 0.500000 0.500000
#
# Coordination Sequence:
#
# PCOD8033493 Si02
#       7
#     2   2   2   2   2   2   2
#     4  11  23  46  75 102 148 191 246 299 372 441
#     4  11  24  42  72 107 146 193 248 301 360 445
#     4  11  24  47  73 106 145 194 246 301 371 438
#     4  12  27  45  76 110 146 196 255 298 366 441
#     4  11  23  49  71 106 145 195 241 305 366 441
#     4  12  30  46  72 106 148 194 248 305 373 438
#     4  12  28  49  75 109 154 196 244 306 377 440
#
# _framework density 23.032864
#
# number of rings (size 3 to 8) (size 9 to 14) (size 15 to 20)
#    0.000    0.571    4.286    3.000   10.000    1.143 
#    0.000    0.000    0.000    0.000    0.000    0.000 
#    0.000    0.000    0.000    0.000    0.000    0.000 
#
# Total GULP energy -173585.281855 kJ/mol
# GULP energy per Si atom -12398.948704 kJ/mol
# Density = 2.298044 g / cm^3
# Si number density = 23.032864 Si / 1000 Ang^3
#
#
#
# Elastic Constant Matrix: (Units=GPa)
#
#
# Indices 1 2 3 4 5 6 
#
# 1 81.1184 27.7382 44.2663 -4.0654 -5.2074 -23.4790
# 2 27.7382 50.6652 37.6354 7.5368 -2.1201 -2.6942
# 3 44.2663 37.6354 151.9328 12.9566 -4.5971 -7.2377
# 4 -4.0654 7.5368 12.9566 36.1369 -2.2498 -0.1412
# 5 -5.2074 -2.1201 -4.5971 -2.2498 48.8040 -1.0130
# 6 -23.4790 -2.6942 -7.2377 -0.1412 -1.0130 47.4924
#
#
#
# Elastic Compliance Matrix: (Units=1/GPa)
#
#
# Indices 1 2 3 4 5 6 
#
# 1 0.020361 -0.008604 -0.003790 0.005597 0.001888 0.009057
# 2 -0.008604 0.028160 -0.004180 -0.005381 -0.000405 -0.003318
# 3 -0.003790 -0.004180 0.008923 -0.002750 0.000112 -0.000757
# 4 0.005597 -0.005381 -0.002750 0.030516 0.001556 0.002167
# 5 0.001888 -0.000405 0.000112 0.001556 0.020785 0.001375
# 6 0.009057 -0.003318 -0.000757 0.002167 0.001375 0.025266
#
#
# Mechanical properties :
#
#
# Convention : Reuss Voigt Hill
#
# Bulk Modulus (GPa) = 41.15810 55.88846 48.52328
# Shear Modulus (GPa) = 28.52941 38.09176 33.31059
#
# Velocity S-wave (km/s) = 3.52325 4.07111 3.80705
# Velocity P-wave (km/s) = 5.87019 6.81292 6.35905
#
# Compressibility (1/GPa) = 0.02429655
#
# Stress axis : x y z
#
# Youngs Moduli (GPa) = 49.11336 35.51118 112.06587
#
# Poissons Ratio (x) = 0.30554 0.42469
# Poissons Ratio (y) = 0.42258 0.46846
# Poissons Ratio (z) = 0.18612 0.14844
#
# Static dielectric constant tensor:
#      x y z
#    x 4.476610 -0.095330 -0.087400 
#    y -0.095330 4.143910 0.079920 
#    z -0.087400 0.079920 4.494550 
# 
# 
# High freq. dielectric constant tensor:
#      x y z
#    x 1.920520 -0.004620 -0.009430 
#    y -0.004620 1.903380 -0.000280 
#    z -0.009430 -0.000280 1.922600 
# 
# From -- ./inp_files/156189.got.cif
#   From: 2010.06.25/outbox.cif.g09.slc.cpg/sg2_79_cif.got.tgz:156189.got - 2010.06.27 13:26:56.
