data_PCOD8033894
_publ_section_title
;
Structure prediction by ZEFSAII (Michael W. Deem and Ramdas Pophale) SiO2 
 PCOD8033894
Probable space group: P -1
;
_chemical_formula_sum "Si O2"
_cell_formula_units_Z 16
_cell_length_a 12.497702
_cell_length_b 8.954116
_cell_length_c 8.690247
_cell_angle_alpha 92.395476
_cell_angle_beta 78.026494
_cell_angle_gamma 130.090598
_cell_volume 722.297665
_symmetry_space_group_name_H-M "P -1"
_symmetry_group_IT_number 2
_symmetry_cell_setting 'triclinic'
loop_
_space_group_symop_operation_xyz
x,y,z
-x,-y,-z
loop_
_atom_site_type_symbol
_atom_site_label
_atom_site_fract_x
_atom_site_fract_y
_atom_site_fract_z
Si Si1 0.039611 0.167037 0.379427
Si Si2 0.697991 0.045675 0.038007
Si Si3 0.397567 0.493362 0.915986
Si Si4 0.247008 0.599402 0.467369
Si Si5 0.144597 0.102917 0.051105
Si Si6 0.758010 0.085460 0.377731
Si Si7 0.494451 0.662585 0.571535
Si Si8 0.637037 0.269047 0.889976
O O1 0.116058 0.372084 0.455211
O O2 0.141901 0.187073 0.218605
O O3 0.896134 0.101922 0.339637
O O4 0.000000 0.000000 0.500000
O O5 0.710420 0.076178 0.218117
O O6 0.533429 0.868108 0.030731
O O7 0.730630 0.226379 0.945224
O O8 0.815506 0.034417 0.934867
O O9 0.488348 0.643087 0.756336
O O10 0.500000 0.500000 0.000000
O O11 0.271227 0.265015 0.899854
O O12 0.302922 0.529453 0.039830
O O13 0.197756 0.716535 0.551239
O O14 0.346758 0.607321 0.562076
O O15 0.342780 0.719491 0.296204
O O16 0.000000 0.000000 0.000000
O O17 0.629024 0.885996 0.496704
O O18 0.500000 0.500000 0.500000
#
# Coordination Sequence:
#
# PCOD8033894 Si02
#       8
#     2   2   2   2   2   2   2   2
#     4  12  29  48  73 101 144 192 238 297 360 433
#     4  11  24  44  71 106 141 189 232 296 355 427
#     4  12  25  44  72 104 141 186 243 297 349 422
#     4  12  26  47  69 107 142 188 240 292 364 429
#     4  12  26  48  72 103 141 188 242 294 358 428
#     4  12  26  48  70 106 148 189 238 293 362 429
#     4  12  26  43  74 107 144 188 239 299 356 420
#     4  11  24  42  72 106 141 182 240 294 359 418
#
# _framework density 22.151530999999999
#
# number of rings (size 3 to 8) (size 9 to 14) (size 15 to 20)
#    0.000    0.250    5.000    3.750    8.750    0.000 
#    0.000    1.250    0.000    0.000    0.000    0.000 
#    0.000    0.000    0.000    0.000    0.000    0.000 
#
# Total GULP energy -198335.037318 kJ/mol
# GULP energy per Si atom -12395.939832 kJ/mol
# Density = 2.210111 g / cm^3
# Si number density = 22.151531 Si / 1000 Ang^3
#
#
#
# Elastic Constant Matrix: (Units=GPa)
#
#
# Indices 1 2 3 4 5 6 
#
# 1 161.2607 46.4465 40.9133 1.6467 10.6434 -12.5452
# 2 46.4465 121.0894 34.9680 1.6762 3.2909 -8.1973
# 3 40.9133 34.9680 129.0909 3.4511 11.2575 -13.0320
# 4 1.6467 1.6762 3.4511 32.2524 -8.6836 -6.8926
# 5 10.6434 3.2909 11.2575 -8.6836 40.6198 4.4646
# 6 -12.5452 -8.1973 -13.0320 -6.8926 4.4646 45.5315
#
#
#
# Elastic Compliance Matrix: (Units=1/GPa)
#
#
# Indices 1 2 3 4 5 6 
#
# 1 0.007442 -0.002297 -0.001459 -0.000238 -0.001557 0.001336
# 2 -0.002297 0.009710 -0.001870 0.000005 0.000274 0.000554
# 3 -0.001459 -0.001870 0.009155 -0.001046 -0.002443 0.001963
# 4 -0.000238 0.000005 -0.001046 0.033926 0.007157 0.004070
# 5 -0.001557 0.000274 -0.002443 0.007157 0.027507 -0.002693
# 6 0.001336 0.000554 0.001963 0.004070 -0.002693 0.023872
#
#
# Mechanical properties :
#
#
# Convention : Reuss Voigt Hill
#
# Bulk Modulus (GPa) = 66.43189 72.89962 69.66576
# Shear Modulus (GPa) = 39.09815 42.95496 41.02656
#
# Velocity S-wave (km/s) = 4.20579 4.40835 4.30826
# Velocity P-wave (km/s) = 7.32391 7.67413 7.50107
#
# Compressibility (1/GPa) = 0.01505301
#
# Stress axis : x y z
#
# Youngs Moduli (GPa) = 134.36973 102.99179 109.23345
#
# Poissons Ratio (x) = 0.23658 0.15942
# Poissons Ratio (y) = 0.30866 0.20429
# Poissons Ratio (z) = 0.19610 0.19261
#
# Static dielectric constant tensor:
#      x y z
#    x 4.124680 -0.293180 -0.001320 
#    y -0.293180 4.151940 0.033850 
#    z -0.001320 0.033850 4.046120 
# 
# 
# High freq. dielectric constant tensor:
#      x y z
#    x 1.888790 -0.014890 0.004540 
#    y -0.014890 1.879030 0.005500 
#    z 0.004540 0.005500 1.875310 
# 
# From -- ./inp_files/243987.got.cif
#   From: 2010.06.25/outbox.cif.g09.slc.cpg/sg2_122_cif.got.tgz:243987.got - 2010.06.27 13:26:56.
