data_PCOD8033926
_publ_section_title
;
Structure prediction by ZEFSAII (Michael W. Deem and Ramdas Pophale) SiO2 
 PCOD8033926
Probable space group: P -1
;
_chemical_formula_sum "Si O2"
_cell_formula_units_Z 16
_cell_length_a 17.558506
_cell_length_b 12.472906
_cell_length_c 8.641121
_cell_angle_alpha 139.746678
_cell_angle_beta 141.460594
_cell_angle_gamma 41.901001
_cell_volume 709.036460
_symmetry_space_group_name_H-M "P -1"
_symmetry_group_IT_number 2
_symmetry_cell_setting 'triclinic'
loop_
_space_group_symop_operation_xyz
x,y,z
-x,-y,-z
loop_
_atom_site_type_symbol
_atom_site_label
_atom_site_fract_x
_atom_site_fract_y
_atom_site_fract_z
Si Si1 0.995698 0.936256 0.094406
Si Si2 0.751685 0.183439 0.116241
Si Si3 0.033351 0.545471 0.770753
Si Si4 0.782303 0.537094 0.521868
Si Si5 0.513141 0.297030 0.265852
Si Si6 0.269874 0.302791 0.066501
Si Si7 0.222938 0.955628 0.658842
Si Si8 0.520467 0.802939 0.253810
O O1 0.080836 0.020846 0.425534
O O2 0.843510 0.003688 0.978230
O O3 0.061173 0.726082 0.996860
O O4 0.000000 0.000000 0.000000
O O5 0.797579 0.335966 0.287082
O O6 0.778649 0.149721 0.303554
O O7 0.597756 0.236825 0.892735
O O8 0.915654 0.566939 0.726074
O O9 0.000000 0.500000 0.500000
O O10 0.165482 0.387480 0.858502
O O11 0.754641 0.553898 0.679055
O O12 0.662200 0.672771 0.386556
O O13 0.500000 0.500000 0.500000
O O14 0.415602 0.249467 0.172490
O O15 0.662952 0.176292 0.416268
O O16 0.489355 0.234174 0.985715
O O17 0.255486 0.131389 0.935260
O O18 0.500000 0.000000 0.500000
#
# Coordination Sequence:
#
# PCOD8033926 Si02
#       8
#     2   2   2   2   2   2   2   2
#     4  12  25  42  65  94 126 166 212 268 327 387
#     4  11  24  43  64  93 130 171 214 265 325 390
#     4  12  25  44  65  94 130 170 220 274 328 395
#     4  12  24  42  68  98 130 173 220 273 330 391
#     4  11  24  44  68  99 134 174 220 275 332 394
#     4  12  24  42  68  98 130 173 220 273 330 391
#     4  11  24  43  64  93 130 171 214 265 325 390
#     4  11  24  44  68  99 134 174 220 275 332 394
#
# _framework density 22.565835
#
# number of rings (size 3 to 8) (size 9 to 14) (size 15 to 20)
#    0.000    0.500    0.000   10.500    0.000    3.000 
#    0.000    0.000    0.000    0.000    0.000    0.000 
#    0.000    0.000    0.000    0.000    0.000    0.000 
#
# Total GULP energy -198399.947409 kJ/mol
# GULP energy per Si atom -12399.996713 kJ/mol
# Density = 2.251447 g / cm^3
# Si number density = 22.565835 Si / 1000 Ang^3
#
#
#
# Elastic Constant Matrix: (Units=GPa)
#
#
# Indices 1 2 3 4 5 6 
#
# 1 127.5520 18.5452 20.0446 -3.9966 8.8875 -10.8760
# 2 18.5452 97.3615 7.4162 9.1474 7.6425 0.7673
# 3 20.0446 7.4162 81.7878 13.0931 -2.2779 6.4449
# 4 -3.9966 9.1474 13.0931 43.1407 -0.7744 6.8012
# 5 8.8875 7.6425 -2.2779 -0.7744 42.6485 3.5033
# 6 -10.8760 0.7673 6.4449 6.8012 3.5033 40.8584
#
#
#
# Elastic Compliance Matrix: (Units=1/GPa)
#
#
# Indices 1 2 3 4 5 6 
#
# 1 0.008867 -0.001503 -0.002535 0.001448 -0.001910 0.002711
# 2 -0.001503 0.010939 -0.000286 -0.002400 -0.001705 -0.000015
# 3 -0.002535 -0.000286 0.013728 -0.003952 0.001430 -0.002300
# 4 0.001448 -0.002400 -0.003952 0.025547 0.000648 -0.003254
# 5 -0.001910 -0.001705 0.001430 0.000648 0.024478 -0.002909
# 6 0.002711 -0.000015 -0.002300 -0.003254 -0.002909 0.026351
#
#
# Mechanical properties :
#
#
# Convention : Reuss Voigt Hill
#
# Bulk Modulus (GPa) = 40.18537 44.30148 42.24343
# Shear Modulus (GPa) = 39.41610 42.70920 41.06265
#
# Velocity S-wave (km/s) = 4.18391 4.35518 4.27040
# Velocity P-wave (km/s) = 6.41770 6.70558 6.56322
#
# Compressibility (1/GPa) = 0.02488468
#
# Stress axis : x y z
#
# Youngs Moduli (GPa) = 112.78344 91.42016 72.84501
#
# Poissons Ratio (x) = 0.13742 0.18469
# Poissons Ratio (y) = 0.16954 0.02080
# Poissons Ratio (z) = 0.28594 0.02610
#
# Static dielectric constant tensor:
#      x y z
#    x 4.284100 -0.324950 0.190740 
#    y -0.324950 4.169690 -0.069760 
#    z 0.190740 -0.069760 4.156030 
# 
# 
# High freq. dielectric constant tensor:
#      x y z
#    x 1.900030 -0.010410 0.009360 
#    y -0.010410 1.903170 0.003590 
#    z 0.009360 0.003590 1.893570 
# 
# From -- ./inp_files/333960.got.cif
#   From: 2010.06.25/outbox.cif.g09.slc.cpg/sg2_167_cif.got.tgz:333960.got - 2010.06.27 13:26:56.
