data_PCOD8033560
_publ_section_title
;
Structure prediction by ZEFSAII (Michael W. Deem and Ramdas Pophale) SiO2 
 PCOD8033560
Probable space group: P -1
;
_chemical_formula_sum "Si O2"
_cell_formula_units_Z 14
_cell_length_a 18.032867
_cell_length_b 23.973317
_cell_length_c 6.153072
_cell_angle_alpha 57.644276
_cell_angle_beta 131.043333
_cell_angle_gamma 161.296822
_cell_volume 600.485315
_symmetry_space_group_name_H-M "P -1"
_symmetry_group_IT_number 2
_symmetry_cell_setting 'triclinic'
loop_
_space_group_symop_operation_xyz
x,y,z
-x,-y,-z
loop_
_atom_site_type_symbol
_atom_site_label
_atom_site_fract_x
_atom_site_fract_y
_atom_site_fract_z
Si Si1 0.284614 0.423320 0.726918
Si Si2 0.333151 0.579843 0.748699
Si Si3 0.985902 0.293611 0.037071
Si Si4 0.744186 0.266656 0.778412
Si Si5 0.691542 0.339474 0.845599
Si Si6 0.198747 0.927718 0.181359
Si Si7 0.774366 0.913340 0.205903
O O1 0.421623 0.567386 0.829829
O O2 0.232268 0.413636 0.398578
O O3 0.983030 0.214305 0.675396
O O4 0.500000 0.500000 0.000000
O O5 0.208256 0.551200 0.390587
O O6 0.606638 0.785842 0.938032
O O7 0.113021 0.425260 0.835724
O O8 0.791309 0.216387 0.982161
O O9 0.808135 0.125822 0.925354
O O10 0.630585 0.227113 0.870103
O O11 0.520522 0.140588 0.421627
O O12 0.040312 0.489553 0.834702
O O13 0.421628 0.201037 0.723323
O O14 0.077763 0.923460 0.892564
O O15 0.000000 0.000000 0.500000
#
# Coordination Sequence:
#
# PCOD8033560 Si02
#       7
#     2   2   2   2   2   2   2
#     4  11  27  47  72  99 144 188 241 286 347 419
#     4  11  23  47  72 103 136 187 236 280 361 410
#     4  11  25  47  71 103 142 189 229 288 363 411
#     4  11  23  47  72 103 147 181 237 292 348 425
#     4  11  25  45  72 109 139 186 232 295 352 413
#     4  11  28  43  69 112 136 186 234 294 350 413
#     4  12  28  46  73 105 144 182 239 290 354 416
#
# _framework density 23.314473
#
# number of rings (size 3 to 8) (size 9 to 14) (size 15 to 20)
#    0.000    0.857    4.286    0.429    8.000    5.714 
#    0.000    0.000    0.000    0.000    0.000    0.000 
#    0.000    0.000    0.000    0.000    0.000    0.000 
#
# Total GULP energy -173555.604800 kJ/mol
# GULP energy per Si atom -12396.828914 kJ/mol
# Density = 2.326141 g / cm^3
# Si number density = 23.314473 Si / 1000 Ang^3
#
#
#
# Elastic Constant Matrix: (Units=GPa)
#
#
# Indices 1 2 3 4 5 6 
#
# 1 186.3635 45.3297 59.0777 23.5291 3.7920 -28.6405
# 2 45.3297 80.8431 26.0130 -0.7961 -9.6514 -13.8839
# 3 59.0777 26.0130 95.8560 4.3187 3.5848 -4.5623
# 4 23.5291 -0.7961 4.3187 39.2795 -1.0136 -3.5498
# 5 3.7920 -9.6514 3.5848 -1.0136 40.1461 5.1024
# 6 -28.6405 -13.8839 -4.5623 -3.5498 5.1024 47.9750
#
#
#
# Elastic Compliance Matrix: (Units=1/GPa)
#
#
# Indices 1 2 3 4 5 6 
#
# 1 0.008557 -0.003144 -0.003978 -0.004466 -0.001789 0.003680
# 2 -0.003144 0.015853 -0.002538 0.002792 0.004121 0.002238
# 3 -0.003978 -0.002538 0.013510 0.000666 -0.001215 -0.001646
# 4 -0.004466 0.002792 0.000666 0.028171 0.001732 0.000106
# 5 -0.001789 0.004121 -0.001215 0.001732 0.026563 -0.002688
# 6 0.003680 0.002238 -0.001646 0.000106 -0.002688 0.023826
#
#
# Mechanical properties :
#
#
# Convention : Reuss Voigt Hill
#
# Bulk Modulus (GPa) = 53.76001 69.32258 61.54130
# Shear Modulus (GPa) = 35.21157 40.98959 38.10058
#
# Velocity S-wave (km/s) = 3.89046 4.19754 4.04691
# Velocity P-wave (km/s) = 6.57948 7.30005 6.94911
#
# Compressibility (1/GPa) = 0.01860119
#
# Stress axis : x y z
#
# Youngs Moduli (GPa) = 116.85928 63.08011 74.02164
#
# Poissons Ratio (x) = 0.19832 0.29442
# Poissons Ratio (y) = 0.36739 0.18786
# Poissons Ratio (z) = 0.46481 0.16009
#
# Static dielectric constant tensor:
#      x y z
#    x 4.564000 -0.346650 -0.101220 
#    y -0.346650 4.023650 0.041820 
#    z -0.101220 0.041820 4.191540 
# 
# 
# High freq. dielectric constant tensor:
#      x y z
#    x 1.947750 -0.025930 -0.000680 
#    y -0.025930 1.903510 0.003050 
#    z -0.000680 0.003050 1.918480 
# 
# From -- ./inp_files/38799.got.cif
#   From: 2010.06.25/outbox.cif.g09.slc.cpg/sg2_20_cif.got.tgz:38799.got - 2010.06.27 13:26:56.
