data_PCOD8033071
_publ_section_title
;
Structure prediction by ZEFSAII (Michael W. Deem and Ramdas Pophale) SiO2 
 PCOD8033071
Probable space group: P -1
;
_chemical_formula_sum "Si O2"
_cell_formula_units_Z 16
_cell_length_a 14.925063
_cell_length_b 8.801389
_cell_length_c 12.391839
_cell_angle_alpha 51.290739
_cell_angle_beta 47.324220
_cell_angle_gamma 39.958411
_cell_volume 749.060997
_symmetry_space_group_name_H-M "P -1"
_symmetry_group_IT_number 2
_symmetry_cell_setting 'triclinic'
loop_
_space_group_symop_operation_xyz
x,y,z
-x,-y,-z
loop_
_atom_site_type_symbol
_atom_site_label
_atom_site_fract_x
_atom_site_fract_y
_atom_site_fract_z
Si Si1 0.676467 0.994209 0.393942
Si Si2 0.353160 0.309012 0.606939
Si Si3 0.052706 0.232923 0.080815
Si Si4 0.366325 0.081189 0.914554
Si Si5 0.311591 0.307963 0.094463
Si Si6 0.854353 0.201181 0.090382
Si Si7 0.145405 0.252697 0.443101
Si Si8 0.906321 0.132603 0.414116
O O1 0.500751 0.216729 0.455507
O O2 0.764257 0.109676 0.254914
O O3 0.715452 0.818818 0.337527
O O4 0.725735 0.836424 0.532812
O O5 0.384853 0.233456 0.741460
O O6 0.248324 0.600164 0.555255
O O7 0.924450 0.261141 0.099972
O O8 0.027985 0.156270 0.248396
O O9 0.235953 0.054484 0.989112
O O10 0.000000 0.500000 0.000000
O O11 0.528321 0.823802 0.915112
O O12 0.319010 0.207941 0.013818
O O13 0.194868 0.296415 0.268737
O O14 0.251467 0.582896 0.003781
O O15 0.000000 0.000000 0.000000
O O16 0.000000 0.500000 0.500000
O O17 0.124065 0.040664 0.545360
O O18 0.000000 0.000000 0.500000
#
# Coordination Sequence:
#
# PCOD8033071 Si02
#       8
#     2   2   2   2   2   2   2   2
#     4  11  25  45  72 105 139 192 235 296 370 423
#     4  11  24  48  73 100 147 187 240 300 362 432
#     4  12  23  43  68 100 139 181 233 286 352 423
#     4  11  23  44  73 102 143 185 237 297 357 429
#     4  11  25  44  72 106 143 187 236 300 363 422
#     4  12  25  44  70 104 139 189 235 286 356 432
#     4  12  25  46  70 106 147 181 239 301 362 425
#     4  12  26  42  71 105 135 189 237 292 355 432
#
# _framework density 21.360075999999999
#
# number of rings (size 3 to 8) (size 9 to 14) (size 15 to 20)
#    0.000    0.500    5.000    3.000    0.000    3.500 
#    0.000    2.500    0.000    0.000    0.000    0.000 
#    0.000    0.000    0.000    0.000    0.000    0.000 
#
# Total GULP energy -198257.852218 kJ/mol
# GULP energy per Si atom -12391.115764 kJ/mol
# Density = 2.131146 g / cm^3
# Si number density = 21.360076 Si / 1000 Ang^3
#
#
#
# Elastic Constant Matrix: (Units=GPa)
#
#
# Indices 1 2 3 4 5 6 
#
# 1 117.3999 56.4527 48.4351 -10.6539 -3.9916 -6.9084
# 2 56.4527 166.8444 55.5414 -7.5756 1.0203 -9.4074
# 3 48.4351 55.5414 143.0646 -3.8631 7.3221 3.0995
# 4 -10.6539 -7.5756 -3.8631 33.2055 -7.1817 3.7681
# 5 -3.9916 1.0203 7.3221 -7.1817 44.6477 -4.2478
# 6 -6.9084 -9.4074 3.0995 3.7681 -4.2478 40.2490
#
#
#
# Elastic Compliance Matrix: (Units=1/GPa)
#
#
# Indices 1 2 3 4 5 6 
#
# 1 0.011447 -0.002703 -0.002889 0.003023 0.002188 0.001503
# 2 -0.002703 0.007714 -0.002105 0.000514 0.000150 0.001469
# 3 -0.002889 -0.002105 0.008908 -0.000583 -0.001938 -0.001824
# 4 0.003023 0.000514 -0.000583 0.032508 0.005413 -0.001788
# 5 0.002188 0.000150 -0.001938 0.005413 0.024025 0.002589
# 6 0.001503 0.001469 -0.001824 -0.001788 0.002589 0.026028
#
#
# Mechanical properties :
#
#
# Convention : Reuss Voigt Hill
#
# Bulk Modulus (GPa) = 78.89658 83.12972 81.01315
# Shear Modulus (GPa) = 38.38804 41.41242 39.90023
#
# Velocity S-wave (km/s) = 4.24392 4.40793 4.32670
# Velocity P-wave (km/s) = 7.81224 8.05663 7.93538
#
# Compressibility (1/GPa) = 0.01267482
#
# Stress axis : x y z
#
# Youngs Moduli (GPa) = 87.36268 129.63110 112.25476
#
# Poissons Ratio (x) = 0.35035 0.32430
# Poissons Ratio (y) = 0.23611 0.23635
# Poissons Ratio (z) = 0.25239 0.27294
#
# Static dielectric constant tensor:
#      x y z
#    x 0.779050 -0.869100 0.803360 
#    y -0.869100 3.948240 0.315480 
#    z 0.803360 0.315480 3.993220 
# 
# 
# High freq. dielectric constant tensor:
#      x y z
#    x 1.846160 -0.014080 0.009890 
#    y -0.014080 1.840630 0.003730 
#    z 0.009890 0.003730 1.855460 
# 
# From -- ./inp_files/298635.got.cif
#   From: 2010.06.25/outbox.cif.g09.slc.cpg/sg2_150_cif.got.tgz:298635.got - 2010.06.27 13:26:56.
