data_PCOD8033909
_publ_section_title
;
Structure prediction by ZEFSAII (Michael W. Deem and Ramdas Pophale) SiO2 
 PCOD8033909
Probable space group: P -1
;
_chemical_formula_sum "Si O2"
_cell_formula_units_Z 16
_cell_length_a 9.702136
_cell_length_b 18.029751
_cell_length_c 20.457308
_cell_angle_alpha 19.851224
_cell_angle_beta 40.578257
_cell_angle_gamma 38.367824
_cell_volume 750.136806
_symmetry_space_group_name_H-M "P -1"
_symmetry_group_IT_number 2
_symmetry_cell_setting 'triclinic'
loop_
_space_group_symop_operation_xyz
x,y,z
-x,-y,-z
loop_
_atom_site_type_symbol
_atom_site_label
_atom_site_fract_x
_atom_site_fract_y
_atom_site_fract_z
Si Si1 0.922082 0.841459 0.576711
Si Si2 0.223198 0.690913 0.472370
Si Si3 0.128834 0.142883 0.641304
Si Si4 0.580079 0.828394 0.173167
Si Si5 0.126569 0.646634 0.793969
Si Si6 0.516654 0.252192 0.225178
Si Si7 0.025388 0.902163 0.999705
Si Si8 0.406667 0.429008 0.261327
O O1 0.668547 0.838625 0.668023
O O2 0.026568 0.770814 0.527896
O O3 0.059885 0.655179 0.734763
O O4 0.940714 0.091766 0.374988
O O5 0.380179 0.857523 0.274128
O O6 0.368218 0.433011 0.653665
O O7 0.102178 0.704131 0.434947
O O8 0.294380 0.294318 0.462806
O O9 0.241516 0.917468 0.742505
O O10 0.070773 0.086157 0.781995
O O11 0.793975 0.861102 0.102164
O O12 0.500000 0.000000 0.000000
O O13 0.389704 0.524245 0.812311
O O14 0.000000 0.500000 0.000000
O O15 0.489724 0.267804 0.300634
O O16 0.500000 0.500000 0.000000
O O17 0.230120 0.671730 0.105407
O O18 0.000000 0.000000 0.000000
#
# Coordination Sequence:
#
# PCOD8033909 Si02
#       8
#     2   2   2   2   2   2   2   2
#     4  11  24  44  66 103 139 174 225 280 342 422
#     4  11  24  42  73  98 129 177 229 289 345 389
#     4  12  23  43  72 102 136 178 224 292 342 405
#     4  11  24  46  68  97 133 172 234 287 333 397
#     4  11  26  43  64  98 145 183 217 269 349 420
#     4  12  22  40  75 105 137 176 228 287 349 407
#     4  12  28  45  67 101 138 185 235 276 342 415
#     4  12  24  46  69 101 139 178 230 284 346 411
#
# _framework density 21.329442
#
# number of rings (size 3 to 8) (size 9 to 14) (size 15 to 20)
#    0.000    0.500    6.250    1.875    0.000    4.500 
#    0.000    0.000    0.000    0.000    0.000    0.000 
#    0.000    0.000    0.000    0.000    0.000    0.000 
#
# Total GULP energy -198422.710091 kJ/mol
# GULP energy per Si atom -12401.419381 kJ/mol
# Density = 2.128089 g / cm^3
# Si number density = 21.329442 Si / 1000 Ang^3
#
#
#
# Elastic Constant Matrix: (Units=GPa)
#
#
# Indices 1 2 3 4 5 6 
#
# 1 133.9296 39.0604 52.1051 15.6668 11.8579 -17.6051
# 2 39.0604 76.3241 30.5700 13.8775 10.4615 -6.6684
# 3 52.1051 30.5700 157.8679 29.5581 13.2248 -10.1324
# 4 15.6668 13.8775 29.5581 41.7307 -6.6022 -0.4496
# 5 11.8579 10.4615 13.2248 -6.6022 37.4668 7.2089
# 6 -17.6051 -6.6684 -10.1324 -0.4496 7.2089 43.0251
#
#
#
# Elastic Compliance Matrix: (Units=1/GPa)
#
#
# Indices 1 2 3 4 5 6 
#
# 1 0.010102 -0.003443 -0.001918 -0.001652 -0.002534 0.003556
# 2 -0.003443 0.016733 -0.000808 -0.004376 -0.004392 0.001684
# 3 -0.001918 -0.000808 0.008574 -0.005621 -0.003499 0.001637
# 4 -0.001652 -0.004376 -0.005621 0.031569 0.010068 -0.004035
# 5 -0.002534 -0.004392 -0.003499 0.010068 0.033269 -0.008011
# 6 0.003556 0.001684 0.001637 -0.004035 -0.008011 0.026644
#
#
# Mechanical properties :
#
#
# Convention : Reuss Voigt Hill
#
# Bulk Modulus (GPa) = 43.34578 67.95472 55.65025
# Shear Modulus (GPa) = 34.03213 40.87025 37.45119
#
# Velocity S-wave (km/s) = 3.99876 4.38213 4.19483
# Velocity P-wave (km/s) = 6.45649 7.58504 7.04340
#
# Compressibility (1/GPa) = 0.02307030
#
# Stress axis : x y z
#
# Youngs Moduli (GPa) = 98.99129 59.76258 116.62598
#
# Poissons Ratio (x) = 0.20579 0.22365
# Poissons Ratio (y) = 0.34088 0.09427
# Poissons Ratio (z) = 0.18983 0.04831
#
# Static dielectric constant tensor:
#      x y z
#    x 3.926900 -0.208020 0.243060 
#    y -0.208020 3.932380 0.111730 
#    z 0.243060 0.111730 3.988120 
# 
# 
# High freq. dielectric constant tensor:
#      x y z
#    x 1.835300 -0.024100 0.012190 
#    y -0.024100 1.830950 0.012410 
#    z 0.012190 0.012410 1.859390 
# 
# From -- ./inp_files/338114.got.cif
#   From: 2010.06.25/outbox.cif.g09.slc.cpg/sg2_170_cif.got.tgz:338114.got - 2010.06.27 13:26:56.
