data_PCOD8033183
_publ_section_title
;
Structure prediction by ZEFSAII (Michael W. Deem and Ramdas Pophale) SiO2 
 PCOD8033183
Probable space group: P -1
;
_chemical_formula_sum "Si O2"
_cell_formula_units_Z 14
_cell_length_a 11.727342
_cell_length_b 9.886081
_cell_length_c 16.685330
_cell_angle_alpha 71.604931
_cell_angle_beta 158.381964
_cell_angle_gamma 105.397627
_cell_volume 674.120362
_symmetry_space_group_name_H-M "P -1"
_symmetry_group_IT_number 2
_symmetry_cell_setting 'triclinic'
loop_
_space_group_symop_operation_xyz
x,y,z
-x,-y,-z
loop_
_atom_site_type_symbol
_atom_site_label
_atom_site_fract_x
_atom_site_fract_y
_atom_site_fract_z
Si Si1 0.430261 0.841450 0.959525
Si Si2 0.459988 0.598631 0.292913
Si Si3 0.152273 0.342528 0.616168
Si Si4 0.348475 0.027055 0.239988
Si Si5 0.271677 0.883420 0.675247
Si Si6 0.774701 0.694683 0.797468
Si Si7 0.228607 0.240957 0.398694
O O1 0.470685 0.828801 0.892712
O O2 0.079521 0.818626 0.757168
O O3 0.664265 0.719325 0.174352
O O4 0.500000 0.000000 0.000000
O O5 0.609731 0.666982 0.300481
O O6 0.456185 0.428008 0.311087
O O7 0.660493 0.634691 0.494690
O O8 0.108168 0.665013 0.063461
O O9 0.000000 0.500000 0.500000
O O10 0.865250 0.250327 0.430481
O O11 0.500166 0.047113 0.249258
O O12 0.385596 0.159114 0.299240
O O13 0.510241 0.888825 0.414646
O O14 0.000000 0.000000 0.000000
O O15 0.000000 0.000000 0.500000
O O16 0.833726 0.694190 0.741429
#
# Coordination Sequence:
#
# PCOD8033183 Si02
#       7
#     2   2   2   2   2   2   2
#     4  12  25  42  76 102 133 189 235 279 353 417
#     4  11  23  45  68  96 138 184 223 282 344 412
#     4  12  25  46  70 103 141 180 237 291 346 411
#     4  12  25  44  69 105 140 177 228 294 339 404
#     4  12  24  47  72 101 142 182 235 286 346 421
#     4  11  25  43  67  99 140 180 226 280 350 403
#     4  12  23  45  72  99 134 186 232 278 344 420
#
# _framework density 20.767804999999999
#
# number of rings (size 3 to 8) (size 9 to 14) (size 15 to 20)
#    0.000    0.286    7.143    1.714    2.000    0.571 
#    5.143    0.000    0.000    0.000    0.000    0.000 
#    0.000    0.000    0.000    0.000    0.000    0.000 
#
# Total GULP energy -173693.567974 kJ/mol
# GULP energy per Si atom -12406.683427 kJ/mol
# Density = 2.072054 g / cm^3
# Si number density = 20.767805 Si / 1000 Ang^3
#
#
#
# Elastic Constant Matrix: (Units=GPa)
#
#
# Indices 1 2 3 4 5 6 
#
# 1 105.2692 12.4723 30.2950 8.5460 -10.3523 6.1711
# 2 12.4723 113.3365 52.7664 1.5787 -0.3696 -9.4703
# 3 30.2950 52.7664 111.3677 13.7608 -10.5942 -4.2232
# 4 8.5460 1.5787 13.7608 39.5103 4.5016 3.7457
# 5 -10.3523 -0.3696 -10.5942 4.5016 39.9308 2.7180
# 6 6.1711 -9.4703 -4.2232 3.7457 2.7180 36.7826
#
#
#
# Elastic Compliance Matrix: (Units=1/GPa)
#
#
# Indices 1 2 3 4 5 6 
#
# 1 0.010728 -0.000167 -0.002502 -0.001515 0.002433 -0.002156
# 2 -0.000167 0.011698 -0.005772 0.001562 -0.001803 0.002351
# 3 -0.002502 -0.005772 0.013258 -0.004278 0.003253 0.000651
# 4 -0.001515 0.001562 -0.004278 0.027798 -0.004488 -0.002334
# 5 0.002433 -0.001803 0.003253 -0.004488 0.027166 -0.002049
# 6 -0.002156 0.002351 0.000651 -0.002334 -0.002049 0.028618
#
#
# Mechanical properties :
#
#
# Convention : Reuss Voigt Hill
#
# Bulk Modulus (GPa) = 53.18936 57.89341 55.54138
# Shear Modulus (GPa) = 35.10862 38.87404 36.99133
#
# Velocity S-wave (km/s) = 4.11607 4.33117 4.22499
# Velocity P-wave (km/s) = 6.94668 7.27661 7.11356
#
# Compressibility (1/GPa) = 0.01880075
#
# Stress axis : x y z
#
# Youngs Moduli (GPa) = 93.21379 85.48502 75.42750
#
# Poissons Ratio (x) = 0.01424 0.18875
# Poissons Ratio (y) = 0.01553 0.43540
# Poissons Ratio (z) = 0.23326 0.49346
#
# Static dielectric constant tensor:
#      x y z
#    x 5.885620 0.239600 -0.922620 
#    y 0.239600 3.896070 0.028340 
#    z -0.922620 0.028340 4.145840 
# 
# 
# High freq. dielectric constant tensor:
#      x y z
#    x 1.818200 0.007750 -0.005870 
#    y 0.007750 1.826320 0.012230 
#    z -0.005870 0.012230 1.818690 
# 
# From -- ./inp_files/124284.got.cif
#   From: 2010.06.25/outbox.cif.g09.slc.cpg/sg2_63_cif.got.tgz:124284.got - 2010.06.27 13:26:56.
