data_PCOD8033058
_publ_section_title
;
Structure prediction by ZEFSAII (Michael W. Deem and Ramdas Pophale) SiO2 
 PCOD8033058
Probable space group: P -1
;
_chemical_formula_sum "Si O2"
_cell_formula_units_Z 14
_cell_length_a 9.130538
_cell_length_b 9.290719
_cell_length_c 8.742978
_cell_angle_alpha 73.589295
_cell_angle_beta 67.824103
_cell_angle_gamma 66.785296
_cell_volume 623.349987
_symmetry_space_group_name_H-M "P -1"
_symmetry_group_IT_number 2
_symmetry_cell_setting 'triclinic'
loop_
_space_group_symop_operation_xyz
x,y,z
-x,-y,-z
loop_
_atom_site_type_symbol
_atom_site_label
_atom_site_fract_x
_atom_site_fract_y
_atom_site_fract_z
Si Si1 0.261698 0.681369 0.654435
Si Si2 0.462115 0.546241 0.177137
Si Si3 0.190374 0.967082 0.394763
Si Si4 0.814702 0.514879 0.516221
Si Si5 0.837193 0.066738 0.143411
Si Si6 0.612373 0.111010 0.941802
Si Si7 0.684583 0.876419 0.470172
O O1 0.426956 0.570079 0.704446
O O2 0.303791 0.804513 0.483725
O O3 0.172608 0.577261 0.623224
O O4 0.146092 0.787828 0.802909
O O5 0.271493 0.559706 0.294241
O O6 0.491308 0.715273 0.132067
O O7 0.500000 0.500000 0.000000
O O8 0.218999 0.957071 0.205447
O O9 0.249059 0.112628 0.387202
O O10 0.000000 0.000000 0.500000
O O11 0.698532 0.696935 0.482088
O O12 0.000000 0.500000 0.500000
O O13 0.812950 0.926165 0.295963
O O14 0.670484 0.126712 0.086326
O O15 0.000000 0.000000 0.000000
O O16 0.500000 0.000000 0.000000
O O17 0.500000 0.000000 0.500000
#
# Coordination Sequence:
#
# PCOD8033058 Si02
#       7
#     2   2   2   2   2   2   2
#     4  11  24  47  74 102 143 195 235 291 366 426
#     4  12  27  48  71 101 151 187 238 301 361 424
#     4  11  23  44  72  98 138 184 235 290 353 427
#     4  12  27  46  77 108 143 189 246 303 359 428
#     4  11  25  46  72 101 145 188 233 296 366 422
#     4  12  26  43  70 105 138 182 242 294 354 425
#     4  11  25  43  70 103 138 185 245 285 352 440
#
# _framework density 22.459292000000001
#
# number of rings (size 3 to 8) (size 9 to 14) (size 15 to 20)
#    0.000    0.571    2.857    5.571    8.000    0.000 
#    0.000    1.429    0.000    0.000    0.000    0.000 
#    0.000    0.000    0.000    0.000    0.000    0.000 
#
# Total GULP energy -173527.100201 kJ/mol
# GULP energy per Si atom -12394.792871 kJ/mol
# Density = 2.240817 g / cm^3
# Si number density = 22.459292 Si / 1000 Ang^3
#
#
#
# Elastic Constant Matrix: (Units=GPa)
#
#
# Indices 1 2 3 4 5 6 
#
# 1 120.1153 52.0027 50.6163 12.5506 1.9181 16.8527
# 2 52.0027 163.9394 55.6965 6.3179 -4.5097 24.6595
# 3 50.6163 55.6965 118.2706 18.6372 3.2794 13.7992
# 4 12.5506 6.3179 18.6372 43.0398 4.1733 9.8354
# 5 1.9181 -4.5097 3.2794 4.1733 45.5540 4.6003
# 6 16.8527 24.6595 13.7992 9.8354 4.6003 38.7251
#
#
#
# Elastic Compliance Matrix: (Units=1/GPa)
#
#
# Indices 1 2 3 4 5 6 
#
# 1 0.011004 -0.002003 -0.003370 -0.000975 -0.000123 -0.002050
# 2 -0.002003 0.008269 -0.002834 0.001353 0.001376 -0.003891
# 3 -0.003370 -0.002834 0.011821 -0.003672 -0.000660 0.000070
# 4 -0.000975 0.001353 -0.003672 0.026338 -0.001403 -0.005651
# 5 -0.000123 0.001376 -0.000660 -0.001403 0.022563 -0.002912
# 6 -0.002050 -0.003891 0.000070 -0.005651 -0.002912 0.030949
#
#
# Mechanical properties :
#
#
# Convention : Reuss Voigt Hill
#
# Bulk Modulus (GPa) = 68.12152 79.88406 74.00279
# Shear Modulus (GPa) = 37.80659 41.73110 39.76884
#
# Velocity S-wave (km/s) = 4.10730 4.31522 4.21254
# Velocity P-wave (km/s) = 7.27256 7.77649 7.52874
#
# Compressibility (1/GPa) = 0.01467965
#
# Stress axis : x y z
#
# Youngs Moduli (GPa) = 90.87513 120.93187 84.59619
#
# Poissons Ratio (x) = 0.24224 0.28507
# Poissons Ratio (y) = 0.18203 0.23977
# Poissons Ratio (z) = 0.30623 0.34275
#
# Static dielectric constant tensor:
#      x y z
#    x 3.920550 0.107470 0.329560 
#    y 0.107470 4.418970 0.118470 
#    z 0.329560 0.118470 4.343830 
# 
# 
# High freq. dielectric constant tensor:
#      x y z
#    x 1.879260 0.005410 0.012780 
#    y 0.005410 1.898010 0.012300 
#    z 0.012780 0.012300 1.891080 
# 
# From -- ./inp_files/157955.got.cif
#   From: 2010.06.25/outbox.cif.g09.slc.cpg/sg2_79_cif.got.tgz:157955.got - 2010.06.27 13:26:56.
