data_PCOD8033141
_publ_section_title
;
Structure prediction by ZEFSAII (Michael W. Deem and Ramdas Pophale) SiO2 
 PCOD8033141
Probable space group: P -1
;
_chemical_formula_sum "Si O2"
_cell_formula_units_Z 16
_cell_length_a 9.258937
_cell_length_b 15.420291
_cell_length_c 8.521067
_cell_angle_alpha 78.048097
_cell_angle_beta 68.810351
_cell_angle_gamma 37.296562
_cell_volume 680.340829
_symmetry_space_group_name_H-M "P -1"
_symmetry_group_IT_number 2
_symmetry_cell_setting 'triclinic'
loop_
_space_group_symop_operation_xyz
x,y,z
-x,-y,-z
loop_
_atom_site_type_symbol
_atom_site_label
_atom_site_fract_x
_atom_site_fract_y
_atom_site_fract_z
Si Si1 0.519710 0.591246 0.655084
Si Si2 0.323465 0.821472 0.102690
Si Si3 0.708770 0.151808 0.540355
Si Si4 0.982948 0.374442 0.356013
Si Si5 0.483986 0.109025 0.427344
Si Si6 0.915978 0.326736 0.081449
Si Si7 0.891997 0.922666 0.073792
Si Si8 0.802585 0.548686 0.842281
O O1 0.324188 0.749073 0.597481
O O2 0.364418 0.586378 0.811247
O O3 0.702653 0.558256 0.714404
O O4 0.709670 0.466717 0.494857
O O5 0.393932 0.777859 0.273250
O O6 0.156528 0.815752 0.102053
O O7 0.586717 0.704401 0.952222
O O8 0.153021 0.986777 0.082712
O O9 0.566397 0.130426 0.535581
O O10 0.000000 0.000000 0.500000
O O11 0.196936 0.263391 0.443434
O O12 0.971341 0.484016 0.270891
O O13 0.044042 0.285988 0.214588
O O14 0.500000 0.000000 0.500000
O O15 0.662986 0.044786 0.234116
O O16 0.899277 0.426222 0.958952
O O17 0.098001 0.179542 0.966665
#
# Coordination Sequence:
#
# PCOD8033141 Si02
#       8
#     2   2   2   2   2   2   2   2
#     4  12  26  49  76 109 148 196 249 310 365 442
#     4  11  23  44  77 101 143 190 249 302 364 436
#     4  12  25  46  77 107 142 196 249 300 374 441
#     4  12  28  50  72 109 160 192 245 307 378 445
#     4  12  29  46  72 111 153 194 241 310 377 437
#     4  12  28  45  80 109 145 199 256 302 366 446
#     4  11  24  47  71 107 144 188 248 308 355 437
#     4  12  25  50  74 109 148 200 245 306 378 436
#
# _framework density 23.517623
#
# number of rings (size 3 to 8) (size 9 to 14) (size 15 to 20)
#    0.000    0.250    5.000    3.000    5.250    1.500 
#    0.000    0.000    0.000    0.000    0.000    0.000 
#    0.000    0.000    0.000    0.000    0.000    0.000 
#
# Total GULP energy -198485.288040 kJ/mol
# GULP energy per Si atom -12405.330502 kJ/mol
# Density = 2.346410 g / cm^3
# Si number density = 23.517623 Si / 1000 Ang^3
#
#
#
# Elastic Constant Matrix: (Units=GPa)
#
#
# Indices 1 2 3 4 5 6 
#
# 1 83.7569 16.3494 4.3219 -16.4111 14.4217 7.2855
# 2 16.3494 95.2450 12.0104 -8.8651 3.8992 3.4987
# 3 4.3219 12.0104 70.1867 -9.0413 8.7201 4.2498
# 4 -16.4111 -8.8651 -9.0413 32.7021 0.4541 -2.6166
# 5 14.4217 3.8992 8.7201 0.4541 53.4153 -0.3768
# 6 7.2855 3.4987 4.2498 -2.6166 -0.3768 38.9781
#
#
#
# Elastic Compliance Matrix: (Units=1/GPa)
#
#
# Indices 1 2 3 4 5 6 
#
# 1 0.014467 -0.001709 0.000927 0.006930 -0.004007 -0.002225
# 2 -0.001709 0.011166 -0.001546 0.001711 -0.000119 -0.000401
# 3 0.000927 -0.001546 0.015424 0.004231 -0.002702 -0.001458
# 4 0.006930 0.001711 0.004231 0.035769 -0.002988 0.000462
# 5 -0.004007 -0.000119 -0.002702 -0.002988 0.020286 0.001050
# 6 -0.002225 -0.000401 -0.001458 0.000462 0.001050 0.026307
#
#
# Mechanical properties :
#
#
# Convention : Reuss Voigt Hill
#
# Bulk Modulus (GPa) = 27.47220 34.95022 31.21121
# Shear Modulus (GPa) = 35.66081 39.45288 37.55685
#
# Velocity S-wave (km/s) = 3.89825 4.10028 4.00054
# Velocity P-wave (km/s) = 5.65409 6.10819 5.88552
#
# Compressibility (1/GPa) = 0.03640043
#
# Stress axis : x y z
#
# Youngs Moduli (GPa) = 69.12493 89.55370 64.83303
#
# Poissons Ratio (x) = 0.15308 -0.06010
# Poissons Ratio (y) = 0.11816 0.10024
# Poissons Ratio (z) = -0.06408 0.13846
#
# Static dielectric constant tensor:
#      x y z
#    x 4.353390 0.032180 0.170640 
#    y 0.032180 4.073880 -0.132850 
#    z 0.170640 -0.132850 4.024800 
# 
# 
# High freq. dielectric constant tensor:
#      x y z
#    x 1.936150 0.000160 0.008360 
#    y 0.000160 1.929810 0.000810 
#    z 0.008360 0.000810 1.944220 
# 
# From -- ./inp_files/206802.got.cif
#   From: 2010.06.25/outbox.cif.g09.slc.cpg/sg2_104_cif.got.tgz:206802.got - 2010.06.27 13:26:56.
