data_PCOD8033245
_publ_section_title
;
Structure prediction by ZEFSAII (Michael W. Deem and Ramdas Pophale) SiO2 
 PCOD8033245
Probable space group: P -1
;
_chemical_formula_sum "Si O2"
_cell_formula_units_Z 16
_cell_length_a 14.974150
_cell_length_b 9.533023
_cell_length_c 28.861464
_cell_angle_alpha 35.195904
_cell_angle_beta 19.462397
_cell_angle_gamma 44.593844
_cell_volume 753.738159
_symmetry_space_group_name_H-M "P -1"
_symmetry_group_IT_number 2
_symmetry_cell_setting 'triclinic'
loop_
_space_group_symop_operation_xyz
x,y,z
-x,-y,-z
loop_
_atom_site_type_symbol
_atom_site_label
_atom_site_fract_x
_atom_site_fract_y
_atom_site_fract_z
Si Si1 0.487270 0.211874 0.593815
Si Si2 0.413941 0.348075 0.431922
Si Si3 0.225597 0.944477 0.708970
Si Si4 0.417680 0.233133 0.956262
Si Si5 0.535135 0.386694 0.087947
Si Si6 0.119017 0.734224 0.345664
Si Si7 0.332521 0.092617 0.807644
Si Si8 0.105049 0.245692 0.257145
O O1 0.500000 0.500000 0.500000
O O2 0.241725 0.022079 0.734157
O O3 0.424308 0.129775 0.699487
O O4 0.775989 0.167384 0.448460
O O5 0.398669 0.198710 0.527929
O O6 0.533064 0.648221 0.300347
O O7 0.099866 0.266136 0.587740
O O8 0.626065 0.273886 0.312888
O O9 0.906984 0.836214 0.878340
O O10 0.502682 0.465430 0.887641
O O11 0.598494 0.309823 0.800607
O O12 0.500000 0.000000 0.000000
O O13 0.264199 0.359357 0.195811
O O14 0.547430 0.112163 0.171198
O O15 0.813228 0.542796 0.880976
O O16 0.000000 0.500000 0.500000
O O17 0.195819 0.001015 0.263349
O O18 0.000000 0.000000 0.000000
#
# Coordination Sequence:
#
# PCOD8033245 Si02
#       8
#     2   2   2   2   2   2   2   2
#     4  12  26  43  72 101 139 183 234 285 351 416
#     4  11  23  45  71 102 140 185 230 289 350 413
#     4  11  24  44  76 102 139 185 237 284 346 427
#     4  12  25  45  73 104 138 188 234 285 351 420
#     4  11  26  45  72 102 142 182 234 290 349 417
#     4  12  26  45  71 106 142 180 234 290 350 411
#     4  12  27  46  69 104 143 184 234 293 350 414
#     4  11  25  48  70 102 141 187 230 287 351 420
#
# _framework density 21.227530999999999
#
# number of rings (size 3 to 8) (size 9 to 14) (size 15 to 20)
#    0.000    0.500    5.000    2.250    7.000    2.500 
#    0.000    1.875    0.000    0.000    0.000    0.000 
#    0.000    0.000    0.000    0.000    0.000    0.000 
#
# Total GULP energy -198499.633913 kJ/mol
# GULP energy per Si atom -12406.227120 kJ/mol
# Density = 2.117922 g / cm^3
# Si number density = 21.227531 Si / 1000 Ang^3
#
#
#
# Elastic Constant Matrix: (Units=GPa)
#
#
# Indices 1 2 3 4 5 6 
#
# 1 89.3311 49.3949 34.8622 -6.5112 5.7671 14.7178
# 2 49.3949 149.0441 50.5928 -13.2747 4.9046 15.9264
# 3 34.8622 50.5928 102.0873 0.5279 9.1322 9.5117
# 4 -6.5112 -13.2747 0.5279 41.6729 -3.8245 0.1264
# 5 5.7671 4.9046 9.1322 -3.8245 48.4792 -9.3703
# 6 14.7178 15.9264 9.5117 0.1264 -9.3703 39.4163
#
#
#
# Elastic Compliance Matrix: (Units=1/GPa)
#
#
# Indices 1 2 3 4 5 6 
#
# 1 0.015066 -0.003417 -0.002955 0.001172 -0.001552 -0.003904
# 2 -0.003417 0.009381 -0.003329 0.002497 -0.000053 -0.001732
# 3 -0.002955 -0.003329 0.012754 -0.001871 -0.002078 -0.001117
# 4 0.001172 0.002497 -0.001871 0.025168 0.001822 -0.000643
# 5 -0.001552 -0.000053 -0.002078 0.001822 0.022603 0.006470
# 6 -0.003904 -0.001732 -0.001117 -0.000643 0.006470 0.029338
#
#
# Mechanical properties :
#
#
# Convention : Reuss Voigt Hill
#
# Bulk Modulus (GPa) = 56.18303 67.79581 61.98942
# Shear Modulus (GPa) = 35.80517 39.62120 37.71318
#
# Velocity S-wave (km/s) = 4.11144 4.32499 4.21957
# Velocity P-wave (km/s) = 7.00451 7.54637 7.28048
#
# Compressibility (1/GPa) = 0.01779897
#
# Stress axis : x y z
#
# Youngs Moduli (GPa) = 66.37488 106.59645 78.40686
#
# Poissons Ratio (x) = 0.36427 0.23168
# Poissons Ratio (y) = 0.22682 0.26101
# Poissons Ratio (z) = 0.19612 0.35485
#
# Static dielectric constant tensor:
#      x y z
#    x -0.896740 14.185420 11.929750 
#    y 14.185420 -37.463390 -34.890410 
#    z 11.929750 -34.890410 -25.381410 
# 
# 
# High freq. dielectric constant tensor:
#      x y z
#    x 1.843110 0.007100 -0.002970 
#    y 0.007100 1.846090 -0.001240 
#    z -0.002970 -0.001240 1.836780 
# 
# From -- ./inp_files/619240.got.cif
#   From: 2010.06.25/outbox.cif.g09.slc.cpg/sg2_310_cif.got.tgz:619240.got - 2010.06.27 13:26:56.
