data_PCOD8033537
_publ_section_title
;
Structure prediction by ZEFSAII (Michael W. Deem and Ramdas Pophale) SiO2 
 PCOD8033537
Probable space group: P -1
;
_chemical_formula_sum "Si O2"
_cell_formula_units_Z 14
_cell_length_a 9.485309
_cell_length_b 12.545538
_cell_length_c 11.776005
_cell_angle_alpha 132.741323
_cell_angle_beta 140.237024
_cell_angle_gamma 54.119105
_cell_volume 652.054938
_symmetry_space_group_name_H-M "P -1"
_symmetry_group_IT_number 2
_symmetry_cell_setting 'triclinic'
loop_
_space_group_symop_operation_xyz
x,y,z
-x,-y,-z
loop_
_atom_site_type_symbol
_atom_site_label
_atom_site_fract_x
_atom_site_fract_y
_atom_site_fract_z
Si Si1 0.546258 0.829696 0.875027
Si Si2 0.786529 0.820673 0.781422
Si Si3 0.127317 0.745924 0.641586
Si Si4 0.341460 0.443335 0.629582
Si Si5 0.224888 0.428923 0.029270
Si Si6 0.751775 0.146745 0.969666
Si Si7 0.294436 0.334208 0.762022
O O1 0.669418 0.796469 0.809102
O O2 0.305829 0.773027 0.675233
O O3 0.695987 0.736814 0.996650
O O4 0.500000 0.000000 0.000000
O O5 0.719673 0.707788 0.565840
O O6 0.710697 0.981474 0.798434
O O7 0.054361 0.802527 0.952778
O O8 0.155129 0.575599 0.573042
O O9 0.876066 0.779046 0.462905
O O10 0.166853 0.849251 0.846497
O O11 0.344160 0.439187 0.765399
O O12 0.582345 0.471216 0.752810
O O13 0.182640 0.426389 0.866014
O O14 0.000000 0.500000 0.000000
O O15 0.524783 0.249368 0.885813
#
# Coordination Sequence:
#
# PCOD8033537 Si02
#       7
#     2   2   2   2   2   2   2
#     4  11  23  47  70  92 145 190 215 284 360 403
#     4  11  25  44  72 101 137 176 236 280 343 407
#     4  11  24  44  69 101 136 181 230 271 352 410
#     4  11  25  42  70 101 134 184 226 284 346 399
#     4  11  27  42  65 108 140 177 236 286 335 415
#     4  11  24  48  67 104 136 181 228 286 331 418
#     4  12  24  45  72  97 141 180 227 282 346 401
#
# _framework density 21.470582
#
# number of rings (size 3 to 8) (size 9 to 14) (size 15 to 20)
#    0.000    0.857    5.714    0.857    6.000    1.714 
#    2.571    1.429    0.000    0.000    0.000    0.000 
#    0.000    0.000    0.000    0.000    0.000    0.000 
#
# Total GULP energy -173619.645808 kJ/mol
# GULP energy per Si atom -12401.403272 kJ/mol
# Density = 2.142171 g / cm^3
# Si number density = 21.470582 Si / 1000 Ang^3
#
#
#
# Elastic Constant Matrix: (Units=GPa)
#
#
# Indices 1 2 3 4 5 6 
#
# 1 154.5884 44.5190 27.4274 -3.0396 3.9981 4.9943
# 2 44.5190 78.5949 45.4789 16.7525 0.6022 -2.6578
# 3 27.4274 45.4789 86.9147 7.2986 -1.6276 1.9922
# 4 -3.0396 16.7525 7.2986 37.7981 -7.5490 2.5252
# 5 3.9981 0.6022 -1.6276 -7.5490 37.6304 0.9511
# 6 4.9943 -2.6578 1.9922 2.5252 0.9511 32.9680
#
#
#
# Elastic Compliance Matrix: (Units=1/GPa)
#
#
# Indices 1 2 3 4 5 6 
#
# 1 0.008131 -0.005339 0.000007 0.003125 -0.000103 -0.001899
# 2 -0.005339 0.023840 -0.010107 -0.009785 -0.002319 0.004158
# 3 0.000007 -0.010107 0.016724 0.001636 0.001263 -0.001988
# 4 0.003125 -0.009785 0.001636 0.032290 0.006475 -0.004021
# 5 -0.000103 -0.002319 0.001263 0.006475 0.028015 -0.001552
# 6 -0.001899 0.004158 -0.001988 -0.004021 -0.001552 0.031428
#
#
# Mechanical properties :
#
#
# Convention : Reuss Voigt Hill
#
# Bulk Modulus (GPa) = 56.12675 61.66095 58.89385
# Shear Modulus (GPa) = 28.20969 35.19083 31.70026
#
# Velocity S-wave (km/s) = 3.62868 4.05288 3.84663
# Velocity P-wave (km/s) = 6.61471 7.11915 6.87156
#
# Compressibility (1/GPa) = 0.01781682
#
# Stress axis : x y z
#
# Youngs Moduli (GPa) = 122.99264 41.94620 59.79582
#
# Poissons Ratio (x) = 0.22396 -0.00043
# Poissons Ratio (y) = 0.65667 0.60434
# Poissons Ratio (z) = -0.00088 0.42394
#
# Static dielectric constant tensor:
#      x y z
#    x 4.303500 0.040330 0.165900 
#    y 0.040330 3.752190 0.031630 
#    z 0.165900 0.031630 3.921600 
# 
# 
# High freq. dielectric constant tensor:
#      x y z
#    x 1.866720 -0.002080 0.016790 
#    y -0.002080 1.830060 0.009150 
#    z 0.016790 0.009150 1.841280 
# 
# From -- ./inp_files/270162.got.cif
#   From: 2010.06.25/outbox.cif.g09.slc.cpg/sg2_136_cif.got.tgz:270162.got - 2010.06.27 13:26:56.
