data_PCOD8033368
_publ_section_title
;
Structure prediction by ZEFSAII (Michael W. Deem and Ramdas Pophale) SiO2 
 PCOD8033368
Probable space group: P -1
;
_chemical_formula_sum "Si O2"
_cell_formula_units_Z 16
_cell_length_a 14.981359
_cell_length_b 12.823265
_cell_length_c 9.594657
_cell_angle_alpha 144.190334
_cell_angle_beta 46.671062
_cell_angle_gamma 114.424041
_cell_volume 738.905977
_symmetry_space_group_name_H-M "P -1"
_symmetry_group_IT_number 2
_symmetry_cell_setting 'triclinic'
loop_
_space_group_symop_operation_xyz
x,y,z
-x,-y,-z
loop_
_atom_site_type_symbol
_atom_site_label
_atom_site_fract_x
_atom_site_fract_y
_atom_site_fract_z
Si Si1 0.113604 0.044530 0.852306
Si Si2 0.372749 0.989304 0.198729
Si Si3 0.897729 0.890244 0.523075
Si Si4 0.701301 0.638165 0.136591
Si Si5 0.635874 0.287237 0.872477
Si Si6 0.962491 0.634313 0.930583
Si Si7 0.424519 0.213281 0.853120
Si Si8 0.829216 0.750462 0.727685
O O1 0.223831 0.852776 0.478991
O O2 0.050809 0.170784 0.922699
O O3 0.170215 0.161025 0.024554
O O4 0.000000 0.000000 0.000000
O O5 0.252201 0.995905 0.234904
O O6 0.333593 0.156680 0.534505
O O7 0.409614 0.790050 0.022740
O O8 0.500000 0.000000 0.000000
O O9 0.892922 0.846189 0.645198
O O10 0.943764 0.690671 0.175239
O O11 0.000000 0.000000 0.500000
O O12 0.656130 0.660750 0.050356
O O13 0.640555 0.496103 0.124414
O O14 0.857227 0.545064 0.885814
O O15 0.528474 0.308965 0.892491
O O16 0.100956 0.475175 0.587726
O O17 0.500000 0.000000 0.500000
O O18 0.324551 0.217160 0.092383
#
# Coordination Sequence:
#
# PCOD8033368 Si02
#       8
#     2   2   2   2   2   2   2   2
#     4  12  23  40  70 100 130 177 226 278 340 412
#     4  11  24  47  71  94 139 188 232 281 344 413
#     4  11  25  45  65 101 136 179 230 287 342 404
#     4  11  24  43  71  99 137 178 229 287 338 408
#     4  12  24  44  70  98 138 178 228 284 342 409
#     4  11  23  46  65 101 139 177 227 284 346 405
#     4  12  22  45  66 101 142 174 223 283 346 401
#     4  12  24  40  71  95 138 181 220 282 346 405
#
# _framework density 21.653634
#
# number of rings (size 3 to 8) (size 9 to 14) (size 15 to 20)
#    0.000    0.500    6.250    3.375    3.500    0.500 
#    2.250    0.000    0.000    0.000    0.000    0.000 
#    0.000    0.000    0.000    0.000    0.000    0.000 
#
# Total GULP energy -198375.176596 kJ/mol
# GULP energy per Si atom -12398.448537 kJ/mol
# Density = 2.160435 g / cm^3
# Si number density = 21.653634 Si / 1000 Ang^3
#
#
#
# Elastic Constant Matrix: (Units=GPa)
#
#
# Indices 1 2 3 4 5 6 
#
# 1 89.9560 33.5218 20.6893 1.0149 -19.3847 10.7968
# 2 33.5218 138.0267 24.0099 -4.0182 -14.4596 16.8599
# 3 20.6893 24.0099 52.3878 -5.3803 -20.7727 -2.0875
# 4 1.0149 -4.0182 -5.3803 37.0142 9.4505 1.5476
# 5 -19.3847 -14.4596 -20.7727 9.4505 30.4671 -11.5140
# 6 10.7968 16.8599 -2.0875 1.5476 -11.5140 39.1739
#
#
#
# Elastic Compliance Matrix: (Units=1/GPa)
#
#
# Indices 1 2 3 4 5 6 
#
# 1 0.014083 -0.002309 -0.002041 -0.002683 0.006989 -0.000836
# 2 -0.002309 0.008803 -0.003853 0.001062 -0.001724 -0.003906
# 3 -0.002041 -0.003853 0.030788 -0.002072 0.022496 0.010555
# 4 -0.002683 0.001062 -0.002072 0.030723 -0.014106 -0.005188
# 5 0.006989 -0.001724 0.022496 -0.014106 0.063426 0.019214
# 6 -0.000836 -0.003906 0.010555 -0.005188 0.019214 0.033854
#
#
# Mechanical properties :
#
#
# Convention : Reuss Voigt Hill
#
# Bulk Modulus (GPa) = 26.83207 48.53473 37.68340
# Shear Modulus (GPa) = 23.75223 34.80767 29.27995
#
# Velocity S-wave (km/s) = 3.31557 4.01368 3.68121
# Velocity P-wave (km/s) = 5.20343 6.62890 5.95894
#
# Compressibility (1/GPa) = 0.03726884
#
# Stress axis : x y z
#
# Youngs Moduli (GPa) = 71.00678 113.59120 32.47988
#
# Poissons Ratio (x) = 0.26229 0.06629
# Poissons Ratio (y) = 0.16396 0.12514
# Poissons Ratio (z) = 0.14493 0.43766
#
# Static dielectric constant tensor:
#      x y z
#    x 4.455090 0.116940 -0.121940 
#    y 0.116940 3.966940 -0.098660 
#    z -0.121940 -0.098660 4.172280 
# 
# 
# High freq. dielectric constant tensor:
#      x y z
#    x 1.860400 0.005270 -0.010320 
#    y 0.005270 1.859150 -0.007050 
#    z -0.010320 -0.007050 1.839340 
# 
# From -- ./inp_files/308671.got.cif
#   From: 2010.06.25/outbox.cif.g09.slc.cpg/sg2_155_cif.got.tgz:308671.got - 2010.06.27 13:26:56.
