data_PCOD8033107
_publ_section_title
;
Structure prediction by ZEFSAII (Michael W. Deem and Ramdas Pophale) SiO2 
 PCOD8033107
Probable space group: P -1
;
_chemical_formula_sum "Si O2"
_cell_formula_units_Z 16
_cell_length_a 16.187202
_cell_length_b 15.132866
_cell_length_c 14.990545
_cell_angle_alpha 19.668646
_cell_angle_beta 142.699047
_cell_angle_gamma 143.906122
_cell_volume 716.964130
_symmetry_space_group_name_H-M "P -1"
_symmetry_group_IT_number 2
_symmetry_cell_setting 'triclinic'
loop_
_space_group_symop_operation_xyz
x,y,z
-x,-y,-z
loop_
_atom_site_type_symbol
_atom_site_label
_atom_site_fract_x
_atom_site_fract_y
_atom_site_fract_z
Si Si1 0.730672 0.737046 0.164047
Si Si2 0.448847 0.840376 0.373777
Si Si3 0.130975 0.420508 0.734844
Si Si4 0.974351 0.932455 0.851306
Si Si5 0.855780 0.959776 0.464434
Si Si6 0.854345 0.507234 0.029051
Si Si7 0.722195 0.169640 0.385196
Si Si8 0.553274 0.804791 0.294895
O O1 0.629672 0.472811 0.374927
O O2 0.766371 0.682207 0.145111
O O3 0.881724 0.821536 0.264452
O O4 0.662053 0.985003 0.877148
O O5 0.510852 0.845260 0.322521
O O6 0.569331 0.947539 0.452208
O O7 0.242288 0.682677 0.628764
O O8 0.000000 0.500000 0.500000
O O9 0.058305 0.175755 0.972967
O O10 0.845304 0.025958 0.609422
O O11 0.989609 0.691705 0.026649
O O12 0.723745 0.917426 0.324806
O O13 0.891493 0.244336 0.275670
O O14 0.809856 0.684901 0.745723
O O15 0.000000 0.000000 0.500000
O O16 0.726362 0.399463 0.093863
O O17 0.500000 0.500000 0.500000
O O18 0.500000 0.000000 0.000000
#
# Coordination Sequence:
#
# PCOD8033107 Si02
#       8
#     2   2   2   2   2   2   2   2
#     4  12  28  45  71 111 154 186 247 303 351 440
#     4  12  29  48  71 107 152 191 239 299 376 432
#     4  11  24  45  76 110 148 194 250 301 363 418
#     4  11  24  45  77 101 141 201 246 296 358 421
#     4  12  26  46  75 107 141 179 245 309 361 439
#     4  11  23  44  74 103 142 182 248 289 364 430
#     4  11  25  46  79  99 145 206 239 293 362 437
#     4  12  27  50  75 103 147 195 235 298 375 441
#
# _framework density 22.316319
#
# number of rings (size 3 to 8) (size 9 to 14) (size 15 to 20)
#    0.000    0.500    3.750    3.000    8.750    4.000 
#    0.000    0.000    0.000    0.000    0.000    0.000 
#    0.000    0.000    0.000    0.000    0.000    0.000 
#
# Total GULP energy -198313.817385 kJ/mol
# GULP energy per Si atom -12394.613587 kJ/mol
# Density = 2.226553 g / cm^3
# Si number density = 22.316319 Si / 1000 Ang^3
#
#
#
# Elastic Constant Matrix: (Units=GPa)
#
#
# Indices 1 2 3 4 5 6 
#
# 1 69.8226 94.7551 31.7705 4.9223 25.2638 -11.0442
# 2 94.7551 87.1438 28.4639 -5.9233 -29.8962 15.3126
# 3 31.7705 28.4639 110.6169 2.4316 -10.4697 0.1449
# 4 4.9223 -5.9233 2.4316 43.4464 -3.3606 6.1067
# 5 25.2638 -29.8962 -10.4697 -3.3606 31.2292 -4.3280
# 6 -11.0442 15.3126 0.1449 6.1067 -4.3280 37.4824
#
#
#
# Elastic Compliance Matrix: (Units=1/GPa)
#
#
# Indices 1 2 3 4 5 6 
#
# 1 -0.004072 0.009690 -0.000231 0.003346 0.012259 -0.004287
# 2 0.009690 -0.002607 -0.003123 -0.002577 -0.011236 0.003055
# 3 -0.000231 -0.003123 0.009992 -0.001110 0.000625 0.001422
# 4 0.003346 -0.002577 -0.001110 0.022365 -0.003416 -0.001995
# 5 0.012259 -0.011236 0.000625 -0.003416 0.012605 0.010212
# 6 -0.004287 0.003055 0.001422 -0.001995 0.010212 0.025667
#
#
# Mechanical properties :
#
#
# Convention : Reuss Voigt Hill
#
# Bulk Modulus (GPa) = 62.56541 64.17360 63.36950
# Shear Modulus (GPa) = 88.33009 29.93783 59.13396
#
# Velocity S-wave (km/s) = 6.29816 3.66665 5.15321
# Velocity P-wave (km/s) = 8.99921 6.83700 7.99157
#
# Compressibility (1/GPa) = 0.01598327
#
# Stress axis : x y z
#
# Youngs Moduli (GPa) = -245.57188 -383.52184 100.08026
#
# Poissons Ratio (x) = 3.71625 0.02317
# Poissons Ratio (y) = 2.37954 0.31254
# Poissons Ratio (z) = -0.05684 -1.19770
#
# Static dielectric constant tensor:
#      x y z
#    x 4.373320 -0.398860 -0.081750 
#    y -0.398860 4.410040 -0.163860 
#    z -0.081750 -0.163860 4.236650 
# 
# 
# High freq. dielectric constant tensor:
#      x y z
#    x 1.869820 -0.014780 0.001710 
#    y -0.014780 1.897920 -0.014570 
#    z 0.001710 -0.014570 1.895060 
# 
# From -- ./inp_files/534033.got.cif
#   From: 2010.06.25/outbox.cif.g09.slc.cpg/sg2_268_cif.got.tgz:534033.got - 2010.06.27 13:26:56.
