data_PCOD8033985
_publ_section_title
;
Structure prediction by ZEFSAII (Michael W. Deem and Ramdas Pophale) SiO2 
 PCOD8033985
Probable space group: P -1
;
_chemical_formula_sum "Si O2"
_cell_formula_units_Z 12
_cell_length_a 15.314655
_cell_length_b 4.986579
_cell_length_c 15.862158
_cell_angle_alpha 85.377127
_cell_angle_beta 153.112147
_cell_angle_gamma 105.715231
_cell_volume 489.974805
_symmetry_space_group_name_H-M "P -1"
_symmetry_group_IT_number 2
_symmetry_cell_setting 'triclinic'
loop_
_space_group_symop_operation_xyz
x,y,z
-x,-y,-z
loop_
_atom_site_type_symbol
_atom_site_label
_atom_site_fract_x
_atom_site_fract_y
_atom_site_fract_z
Si Si1 0.053190 0.372707 0.179960
Si Si2 0.724192 0.130536 0.048136
Si Si3 0.247508 0.916149 0.219965
Si Si4 0.515370 0.515179 0.209499
Si Si5 0.492343 0.423647 0.604858
Si Si6 0.983127 0.724161 0.545593
O O1 0.142815 0.717801 0.217602
O O2 0.238959 0.289707 0.374639
O O3 0.895219 0.338856 0.121436
O O4 0.937028 0.147954 0.007457
O O5 0.822779 0.184650 0.224277
O O6 0.643498 0.784263 0.967023
O O7 0.524360 0.215122 0.871824
O O8 0.429612 0.828716 0.341452
O O9 0.369791 0.272336 0.339967
O O10 0.454661 0.473280 0.256135
O O11 0.760727 0.578165 0.408676
O O12 0.000000 0.500000 0.500000
O O13 0.000000 0.000000 0.500000
#
# Coordination Sequence:
#
# PCOD8033985 Si02
#       6
#     2   2   2   2   2   2
#     4  11  24  43  68  99 139 187 225 281 328 393
#     4  12  26  46  71 102 140 179 219 279 342 395
#     4  11  26  41  65 102 139 180 240 272 325 388
#     4  12  25  45  71 102 137 176 225 277 335 411
#     4  12  23  44  65  99 137 185 230 277 330 388
#     4  12  28  50  75 104 132 173 224 280 345 414
#
# _framework density 24.491056
#
# number of rings (size 3 to 8) (size 9 to 14) (size 15 to 20)
#    0.000    0.333    5.000    3.000    0.000   10.667 
#    0.000    0.000    0.000    0.000    0.000    0.000 
#    0.000    0.000    0.000    0.000    0.000    0.000 
#
# Total GULP energy -148922.826334 kJ/mol
# GULP energy per Si atom -12410.235528 kJ/mol
# Density = 2.443531 g / cm^3
# Si number density = 24.491056 Si / 1000 Ang^3
#
#
#
# Elastic Constant Matrix: (Units=GPa)
#
#
# Indices 1 2 3 4 5 6 
#
# 1 59.5007 9.5108 -13.0328 -8.4881 -5.9096 -4.0916
# 2 9.5108 97.2344 9.6047 -1.8889 1.1192 -13.8700
# 3 -13.0328 9.6047 126.3326 -18.0638 -3.5417 -9.5109
# 4 -8.4881 -1.8889 -18.0638 25.1094 8.0501 -2.3983
# 5 -5.9096 1.1192 -3.5417 8.0501 41.1567 0.1041
# 6 -4.0916 -13.8700 -9.5109 -2.3983 0.1041 37.3889
#
#
#
# Elastic Compliance Matrix: (Units=1/GPa)
#
#
# Indices 1 2 3 4 5 6 
#
# 1 0.019509 -0.001684 0.003688 0.008960 0.001404 0.003019
# 2 -0.001684 0.011070 -0.000703 0.000335 -0.000678 0.003767
# 3 0.003688 -0.000703 0.009820 0.008663 -0.000309 0.003198
# 4 0.008960 0.000335 0.008663 0.052394 -0.008242 0.006692
# 5 0.001404 -0.000678 -0.000309 -0.008242 0.026105 -0.000778
# 6 0.003019 0.003767 0.003198 0.006692 -0.000778 0.029719
#
#
# Mechanical properties :
#
#
# Convention : Reuss Voigt Hill
#
# Bulk Modulus (GPa) = 23.25446 32.80368 28.02907
# Shear Modulus (GPa) = 31.18227 39.19667 35.18947
#
# Velocity S-wave (km/s) = 3.57208 4.00490 3.79467
# Velocity P-wave (km/s) = 5.15060 5.89990 5.53794
#
# Compressibility (1/GPa) = 0.04300251
#
# Stress axis : x y z
#
# Youngs Moduli (GPa) = 51.25882 90.33241 101.82959
#
# Poissons Ratio (x) = 0.15212 -0.37559
# Poissons Ratio (y) = 0.08632 0.07157
# Poissons Ratio (z) = -0.18906 0.06349
#
# Static dielectric constant tensor:
#      x y z
#    x 4.476920 0.006540 0.060640 
#    y 0.006540 4.260800 -0.130460 
#    z 0.060640 -0.130460 4.863770 
# 
# 
# High freq. dielectric constant tensor:
#      x y z
#    x 1.979220 -0.008950 -0.000730 
#    y -0.008950 1.972030 -0.006240 
#    z -0.000730 -0.006240 2.000580 
# 
# From -- ./inp_files/525725.got.cif
#   From: 2010.06.25/outbox.cif.g09.slc.cpg/sg2_263_cif.got.tgz:525725.got - 2010.06.27 13:26:56.
