data_PCOD8033546
_publ_section_title
;
Structure prediction by ZEFSAII (Michael W. Deem and Ramdas Pophale) SiO2 
 PCOD8033546
Probable space group: P -1
;
_chemical_formula_sum "Si O2"
_cell_formula_units_Z 14
_cell_length_a 7.741608
_cell_length_b 8.007751
_cell_length_c 12.452031
_cell_angle_alpha 79.229635
_cell_angle_beta 63.810545
_cell_angle_gamma 59.068560
_cell_volume 593.375400
_symmetry_space_group_name_H-M "P -1"
_symmetry_group_IT_number 2
_symmetry_cell_setting 'triclinic'
loop_
_space_group_symop_operation_xyz
x,y,z
-x,-y,-z
loop_
_atom_site_type_symbol
_atom_site_label
_atom_site_fract_x
_atom_site_fract_y
_atom_site_fract_z
Si Si1 0.322694 0.302699 0.697329
Si Si2 0.769918 0.681646 0.513236
Si Si3 0.387657 0.633358 0.709257
Si Si4 0.197843 0.011854 0.386755
Si Si5 0.565843 0.369541 0.893567
Si Si6 0.930196 0.959841 0.820640
Si Si7 0.193144 0.281839 0.958677
O O1 0.227252 0.263655 0.618800
O O2 0.259504 0.529804 0.701209
O O3 0.219437 0.233902 0.829772
O O4 0.587958 0.198737 0.644847
O O5 0.565344 0.640819 0.581213
O O6 0.732021 0.852730 0.582841
O O7 0.000000 0.500000 0.500000
O O8 0.521661 0.516399 0.790854
O O9 0.197262 0.853454 0.764359
O O10 0.139144 0.082787 0.272016
O O11 0.000000 0.000000 0.500000
O O12 0.420374 0.262499 0.941322
O O13 0.820565 0.193318 0.843211
O O14 0.500000 0.500000 0.000000
O O15 0.851616 0.871157 0.948301
O O16 0.000000 0.500000 0.000000
#
# Coordination Sequence:
#
# PCOD8033546 Si02
#       7
#     2   2   2   2   2   2   2
#     4  11  23  47  71 106 151 182 242 305 352 435
#     4  12  27  44  75 106 142 196 242 300 368 434
#     4  11  24  48  69 109 147 190 242 299 364 431
#     4  12  26  47  74 106 143 189 244 304 365 433
#     4  11  26  44  71 106 149 187 245 300 352 439
#     4  12  24  48  76 102 149 199 233 299 376 426
#     4  11  23  47  74 104 145 193 236 294 362 430
#
# _framework density 23.593833
#
# number of rings (size 3 to 8) (size 9 to 14) (size 15 to 20)
#    0.000    0.571    5.714    3.857    2.000    0.571 
#    2.571    0.000    0.000    0.000    0.000    0.000 
#    0.000    0.000    0.000    0.000    0.000    0.000 
#
# Total GULP energy -173626.814576 kJ/mol
# GULP energy per Si atom -12401.915327 kJ/mol
# Density = 2.354013 g / cm^3
# Si number density = 23.593833 Si / 1000 Ang^3
#
#
#
# Elastic Constant Matrix: (Units=GPa)
#
#
# Indices 1 2 3 4 5 6 
#
# 1 59.2791 33.1154 56.1895 -6.0918 3.6542 -14.5950
# 2 33.1154 134.2732 54.7980 16.2877 9.2222 -36.7867
# 3 56.1895 54.7980 182.5297 -5.1149 22.4813 -12.0004
# 4 -6.0918 16.2877 -5.1149 41.0353 -8.2289 -4.0218
# 5 3.6542 9.2222 22.4813 -8.2289 45.5594 14.1680
# 6 -14.5950 -36.7867 -12.0004 -4.0218 14.1680 42.3314
#
#
#
# Elastic Compliance Matrix: (Units=1/GPa)
#
#
# Indices 1 2 3 4 5 6 
#
# 1 0.026908 -0.003287 -0.007055 0.005162 0.001555 0.004391
# 2 -0.003287 0.013202 -0.001600 -0.006065 -0.006261 0.011405
# 3 -0.007055 -0.001600 0.008502 -0.000028 -0.003204 -0.000343
# 4 0.005162 -0.006065 -0.000028 0.028632 0.006966 -0.003110
# 5 0.001555 -0.006261 -0.003204 0.006966 0.030732 -0.015437
# 6 0.004391 0.011405 -0.000343 -0.003110 -0.015437 0.039821
#
#
# Mechanical properties :
#
#
# Convention : Reuss Voigt Hill
#
# Bulk Modulus (GPa) = 40.44148 73.80974 57.12561
# Shear Modulus (GPa) = 27.78945 41.25051 34.51998
#
# Velocity S-wave (km/s) = 3.43567 4.18588 3.82919
# Velocity P-wave (km/s) = 5.73728 7.39686 6.61928
#
# Compressibility (1/GPa) = 0.02472709
#
# Stress axis : x y z
#
# Youngs Moduli (GPa) = 37.16299 75.74811 117.61965
#
# Poissons Ratio (x) = 0.24901 0.82978
# Poissons Ratio (y) = 0.12217 0.18823
# Poissons Ratio (z) = 0.26218 0.12122
#
# Static dielectric constant tensor:
#      x y z
#    x 4.298050 0.083610 0.409850 
#    y 0.083610 4.895200 0.744230 
#    z 0.409850 0.744230 5.481910 
# 
# 
# High freq. dielectric constant tensor:
#      x y z
#    x 1.918270 -0.020990 0.001510 
#    y -0.020990 1.942070 0.008570 
#    z 0.001510 0.008570 1.956320 
# 
# From -- ./inp_files/236836.got.cif
#   From: 2010.06.25/outbox.cif.g09.slc.cpg/sg2_119_cif.got.tgz:236836.got - 2010.06.27 13:26:56.
