data_PCOD8033029
_publ_section_title
;
Structure prediction by ZEFSAII (Michael W. Deem and Ramdas Pophale) SiO2 
 PCOD8033029
Probable space group: P -1
;
_chemical_formula_sum "Si O2"
_cell_formula_units_Z 16
_cell_length_a 15.774290
_cell_length_b 8.687836
_cell_length_c 15.171508
_cell_angle_alpha 103.603533
_cell_angle_beta 151.194226
_cell_angle_gamma 95.935551
_cell_volume 730.771973
_symmetry_space_group_name_H-M "P -1"
_symmetry_group_IT_number 2
_symmetry_cell_setting 'triclinic'
loop_
_space_group_symop_operation_xyz
x,y,z
-x,-y,-z
loop_
_atom_site_type_symbol
_atom_site_label
_atom_site_fract_x
_atom_site_fract_y
_atom_site_fract_z
Si Si1 0.092420 0.725410 0.587897
Si Si2 0.368233 0.450612 0.783398
Si Si3 0.236981 0.791745 0.530583
Si Si4 0.068322 0.475689 0.192318
Si Si5 0.622378 0.239443 0.644380
Si Si6 0.646174 0.897947 0.007552
Si Si7 0.826047 0.827856 0.745500
Si Si8 0.863088 0.930512 0.593103
O O1 0.121826 0.756810 0.515167
O O2 0.000000 0.500000 0.500000
O O3 0.893271 0.719429 0.442249
O O4 0.318341 0.931021 0.871624
O O5 0.352034 0.305197 0.673374
O O6 0.500000 0.500000 0.000000
O O7 0.460814 0.669224 0.855533
O O8 0.089400 0.564387 0.319919
O O9 0.219948 0.939920 0.478216
O O10 0.506630 0.891794 0.797156
O O11 0.239279 0.668882 0.308270
O O12 0.153614 0.347293 0.255743
O O13 0.800429 0.343868 0.902586
O O14 0.439806 0.275334 0.491595
O O15 0.500000 0.000000 0.500000
O O16 0.879512 0.945496 0.197691
O O17 0.899422 0.928625 0.729410
O O18 0.000000 0.000000 0.000000
#
# Coordination Sequence:
#
# PCOD8033029 Si02
#       8
#     2   2   2   2   2   2   2   2
#     4  11  24  42  68 103 138 184 237 278 346 423
#     4  11  23  44  71  99 143 184 230 290 351 413
#     4  12  25  45  73 101 141 185 234 289 352 419
#     4  11  27  45  74 108 137 185 236 286 359 425
#     4  11  24  49  73 104 141 178 233 294 353 424
#     4  11  25  46  70  99 146 185 233 288 351 414
#     4  12  26  47  75 100 144 189 233 295 361 414
#     4  11  28  45  66 110 137 180 245 288 347 427
#
# _framework density 21.894653000000002
#
# number of rings (size 3 to 8) (size 9 to 14) (size 15 to 20)
#    0.000    0.750    2.500    3.750    7.000    6.000 
#    0.000    0.000    0.000    0.000    0.000    0.000 
#    0.000    0.000    0.000    0.000    0.000    0.000 
#
# Total GULP energy -198307.396765 kJ/mol
# GULP energy per Si atom -12394.212298 kJ/mol
# Density = 2.184482 g / cm^3
# Si number density = 21.894653 Si / 1000 Ang^3
#
#
#
# Elastic Constant Matrix: (Units=GPa)
#
#
# Indices 1 2 3 4 5 6 
#
# 1 88.7556 28.5588 60.5980 4.8631 -27.9528 -4.2762
# 2 28.5588 146.4083 73.1001 1.5312 -21.5686 -12.4628
# 3 60.5980 73.1001 160.7290 -5.1306 -20.8314 -11.2892
# 4 4.8631 1.5312 -5.1306 44.2377 -6.7796 -1.9207
# 5 -27.9528 -21.5686 -20.8314 -6.7796 49.1700 -0.0761
# 6 -4.2762 -12.4628 -11.2892 -1.9207 -0.0761 37.5611
#
#
#
# Elastic Compliance Matrix: (Units=1/GPa)
#
#
# Indices 1 2 3 4 5 6 
#
# 1 0.017629 0.000731 -0.006016 -0.001481 0.007590 0.000381
# 2 0.000731 0.009260 -0.004009 -0.000363 0.002732 0.001938
# 3 -0.006016 -0.004009 0.010396 0.001982 -0.000499 0.001210
# 4 -0.001481 -0.000363 0.001982 0.023549 0.003088 0.001517
# 5 0.007590 0.002732 -0.000499 0.003088 0.026069 0.001832
# 6 0.000381 0.001938 0.001210 0.001517 0.001832 0.027755
#
#
# Mechanical properties :
#
#
# Convention : Reuss Voigt Hill
#
# Bulk Modulus (GPa) = 53.47839 80.04520 66.76180
# Shear Modulus (GPa) = 35.84795 41.76950 38.80873
#
# Velocity S-wave (km/s) = 4.05074 4.37252 4.21470
# Velocity P-wave (km/s) = 6.80855 7.88229 7.36501
#
# Compressibility (1/GPa) = 0.01869914
#
# Stress axis : x y z
#
# Youngs Moduli (GPa) = 56.72504 107.98727 96.18690
#
# Poissons Ratio (x) = -0.07893 0.57863
# Poissons Ratio (y) = -0.04146 0.38557
# Poissons Ratio (z) = 0.34124 0.43287
#
# Static dielectric constant tensor:
#      x y z
#    x 3.811150 0.354610 -0.514000 
#    y 0.354610 4.082760 -0.024150 
#    z -0.514000 -0.024150 3.747200 
# 
# 
# High freq. dielectric constant tensor:
#      x y z
#    x 1.867490 -0.006080 -0.007050 
#    y -0.006080 1.870920 -0.000160 
#    z -0.007050 -0.000160 1.879670 
# 
# From -- ./inp_files/206614.got.cif
#   From: 2010.06.25/outbox.cif.g09.slc.cpg/sg2_104_cif.got.tgz:206614.got - 2010.06.27 13:26:56.
