data_PCOD8033238
_publ_section_title
;
Structure prediction by ZEFSAII (Michael W. Deem and Ramdas Pophale) SiO2 
 PCOD8033238
Probable space group: P -1
;
_chemical_formula_sum "Si O2"
_cell_formula_units_Z 16
_cell_length_a 14.504237
_cell_length_b 18.669477
_cell_length_c 9.083601
_cell_angle_alpha 29.087197
_cell_angle_beta 40.288668
_cell_angle_gamma 40.444851
_cell_volume 737.512841
_symmetry_space_group_name_H-M "P -1"
_symmetry_group_IT_number 2
_symmetry_cell_setting 'triclinic'
loop_
_space_group_symop_operation_xyz
x,y,z
-x,-y,-z
loop_
_atom_site_type_symbol
_atom_site_label
_atom_site_fract_x
_atom_site_fract_y
_atom_site_fract_z
Si Si1 0.217073 0.945333 0.075359
Si Si2 0.837262 0.302579 0.208352
Si Si3 0.964030 0.541870 0.136950
Si Si4 0.347905 0.209672 0.869228
Si Si5 0.057425 0.760612 0.127517
Si Si6 0.462439 0.064186 0.697363
Si Si7 0.486653 0.551825 0.755148
Si Si8 0.325409 0.761330 0.989807
O O1 0.173789 0.859012 0.422983
O O2 0.241772 0.827161 0.122548
O O3 0.368776 0.989980 0.835570
O O4 0.085989 0.096702 0.917355
O O5 0.678431 0.423316 0.147390
O O6 0.936720 0.263082 0.011819
O O7 0.907723 0.393275 0.074403
O O8 0.810514 0.678099 0.093912
O O9 0.957548 0.392110 0.502279
O O10 0.000000 0.500000 0.000000
O O11 0.346543 0.155287 0.799747
O O12 0.478646 0.287603 0.590339
O O13 0.392642 0.062113 0.185651
O O14 0.206257 0.798378 0.934398
O O15 0.532289 0.179106 0.319490
O O16 0.500000 0.500000 0.000000
O O17 0.605625 0.423387 0.744009
#
# Coordination Sequence:
#
# PCOD8033238 Si02
#       8
#     2   2   2   2   2   2   2   2
#     4  12  28  45  66 110 142 180 235 286 353 413
#     4  12  26  46  74 101 139 190 236 285 346 420
#     4  12  28  46  72 106 142 185 232 293 350 411
#     4  11  23  45  71 100 137 177 239 279 343 418
#     4  12  26  47  71  99 143 187 234 282 348 421
#     4  11  25  43  72 101 137 184 225 288 343 414
#     4  12  22  46  74 101 134 180 240 288 342 411
#     4  12  26  44  73 100 142 184 227 293 350 404
#
# _framework density 21.694538000000001
#
# number of rings (size 3 to 8) (size 9 to 14) (size 15 to 20)
#    0.000    0.250    5.000    3.000    7.000    1.500 
#    0.000    0.000    0.000    0.000    0.000    0.000 
#    0.000    0.000    0.000    0.000    0.000    0.000 
#
# Total GULP energy -198513.932238 kJ/mol
# GULP energy per Si atom -12407.120765 kJ/mol
# Density = 2.164516 g / cm^3
# Si number density = 21.694538 Si / 1000 Ang^3
#
#
#
# Elastic Constant Matrix: (Units=GPa)
#
#
# Indices 1 2 3 4 5 6 
#
# 1 106.3666 41.8023 34.9837 2.3725 -20.8679 1.5246
# 2 41.8023 151.6378 12.4381 -14.1729 13.8337 -6.1131
# 3 34.9837 12.4381 88.8364 -8.3433 -3.6399 -0.7622
# 4 2.3725 -14.1729 -8.3433 26.6433 0.5399 -1.3834
# 5 -20.8679 13.8337 -3.6399 0.5399 35.6500 -0.5979
# 6 1.5246 -6.1131 -0.7622 -1.3834 -0.5979 41.1939
#
#
#
# Elastic Compliance Matrix: (Units=1/GPa)
#
#
# Indices 1 2 3 4 5 6 
#
# 1 0.015691 -0.005515 -0.005576 -0.006377 0.010826 -0.001559
# 2 -0.005515 0.009267 0.001177 0.006014 -0.006766 0.001705
# 3 -0.005576 0.001177 0.013714 0.005506 -0.002390 0.000785
# 4 -0.006377 0.006014 0.005506 0.043283 -0.006117 0.002595
# 5 0.010826 -0.006766 -0.002390 -0.006117 0.036843 -0.001120
# 6 -0.001559 0.001705 0.000785 0.002595 -0.001120 0.024672
#
#
# Mechanical properties :
#
#
# Convention : Reuss Voigt Hill
#
# Bulk Modulus (GPa) = 53.06937 58.36543 55.71740
# Shear Modulus (GPa) = 29.48494 37.87186 33.67840
#
# Velocity S-wave (km/s) = 3.69059 4.18267 3.94431
# Velocity P-wave (km/s) = 6.53267 7.09141 6.81776
#
# Compressibility (1/GPa) = 0.01884326
#
# Stress axis : x y z
#
# Youngs Moduli (GPa) = 63.73014 107.91460 72.92058
#
# Poissons Ratio (x) = 0.59513 0.40659
# Poissons Ratio (y) = 0.35146 -0.08580
# Poissons Ratio (z) = 0.35534 -0.12697
#
# Static dielectric constant tensor:
#      x y z
#    x 4.014480 0.061460 -0.149240 
#    y 0.061460 4.027120 -0.176990 
#    z -0.149240 -0.176990 4.031220 
# 
# 
# High freq. dielectric constant tensor:
#      x y z
#    x 1.859480 -0.000490 -0.007900 
#    y -0.000490 1.865170 -0.008460 
#    z -0.007900 -0.008460 1.858250 
# 
# From -- ./inp_files/207094.got.cif
#   From: 2010.06.25/outbox.cif.g09.slc.cpg/sg2_104_cif.got.tgz:207094.got - 2010.06.27 13:26:56.
