data_PCOD8033027
_publ_section_title
;
Structure prediction by ZEFSAII (Michael W. Deem and Ramdas Pophale) SiO2 
 PCOD8033027
Probable space group: P -1
;
_chemical_formula_sum "Si O2"
_cell_formula_units_Z 16
_cell_length_a 23.654478
_cell_length_b 8.511346
_cell_length_c 10.090989
_cell_angle_alpha 81.325848
_cell_angle_beta 42.561269
_cell_angle_gamma 46.864446
_cell_volume 701.315219
_symmetry_space_group_name_H-M "P -1"
_symmetry_group_IT_number 2
_symmetry_cell_setting 'triclinic'
loop_
_space_group_symop_operation_xyz
x,y,z
-x,-y,-z
loop_
_atom_site_type_symbol
_atom_site_label
_atom_site_fract_x
_atom_site_fract_y
_atom_site_fract_z
Si Si1 0.686768 0.710560 0.685389
Si Si2 0.679008 0.088260 0.648385
Si Si3 0.319471 0.343560 0.811810
Si Si4 0.361236 0.720010 0.021993
Si Si5 0.146034 0.295686 0.170879
Si Si6 0.980670 0.435981 0.910836
Si Si7 0.188166 0.691054 0.250761
Si Si8 0.831077 0.359791 0.225900
O O1 0.788488 0.492329 0.665391
O O2 0.723656 0.529243 0.522812
O O3 0.729452 0.823520 0.567783
O O4 0.500000 0.000000 0.000000
O O5 0.545120 0.356115 0.735533
O O6 0.840751 0.931181 0.374703
O O7 0.624878 0.199695 0.878364
O O8 0.255162 0.555625 0.771716
O O9 0.500000 0.000000 0.500000
O O10 0.203838 0.384539 0.050367
O O11 0.307456 0.477278 0.944269
O O12 0.237977 0.772096 0.230286
O O13 0.303204 0.932701 0.979118
O O14 0.000000 0.500000 0.500000
O O15 0.075347 0.361769 0.141014
O O16 0.000000 0.500000 0.000000
O O17 0.849643 0.515478 0.146398
O O18 0.000000 0.000000 0.500000
O O19 0.000000 0.000000 0.000000
#
# Coordination Sequence:
#
# PCOD8033027 Si02
#       8
#     2   2   2   2   2   2   2   2
#     4  12  24  45  72 101 140 187 233 283 352 422
#     4  11  24  43  68  99 139 177 231 288 349 406
#     4  11  26  46  68  99 146 186 222 290 366 418
#     4  11  25  42  69 106 135 176 240 295 338 407
#     4  11  23  44  71  99 138 185 239 286 352 422
#     4  11  24  42  69  96 139 183 228 279 356 418
#     4  12  26  42  72 106 139 179 245 291 340 423
#     4  11  26  43  68 101 140 180 230 286 349 415
#
# _framework density 22.814277000000001
#
# number of rings (size 3 to 8) (size 9 to 14) (size 15 to 20)
#    0.000    0.750    3.750    3.000    5.250    2.000 
#    0.000    1.250    0.000    0.000    0.000    0.000 
#    0.000    0.000    0.000    0.000    0.000    0.000 
#
# Total GULP energy -198282.481834 kJ/mol
# GULP energy per Si atom -12392.655115 kJ/mol
# Density = 2.276235 g / cm^3
# Si number density = 22.814277 Si / 1000 Ang^3
#
#
#
# Elastic Constant Matrix: (Units=GPa)
#
#
# Indices 1 2 3 4 5 6 
#
# 1 82.1674 39.0857 23.1344 -0.8940 12.3996 -23.4487
# 2 39.0857 143.7124 43.2719 23.0131 11.1399 -47.7969
# 3 23.1344 43.2719 120.3456 5.8655 8.6282 -22.4529
# 4 -0.8940 23.0131 5.8655 34.8267 -8.7334 -3.7707
# 5 12.3996 11.1399 8.6282 -8.7334 45.9454 1.1428
# 6 -23.4487 -47.7969 -22.4529 -3.7707 1.1428 47.3546
#
#
#
# Elastic Compliance Matrix: (Units=1/GPa)
#
#
# Indices 1 2 3 4 5 6 
#
# 1 0.015505 -0.002215 -0.001079 0.001790 -0.003233 0.005151
# 2 -0.002215 0.013445 -0.001610 -0.008532 -0.004258 0.011134
# 3 -0.001079 -0.001610 0.009671 -0.000663 -0.001321 0.002406
# 4 0.001790 -0.008532 -0.000663 0.036111 0.008708 -0.005375
# 5 -0.003233 -0.004258 -0.001321 0.008708 0.025734 -0.006453
# 6 0.005151 0.011134 0.002406 -0.005375 -0.006453 0.035774
#
#
# Mechanical properties :
#
#
# Convention : Reuss Voigt Hill
#
# Bulk Modulus (GPa) = 34.70577 61.91215 48.30896
# Shear Modulus (GPa) = 32.12296 41.67424 36.89860
#
# Velocity S-wave (km/s) = 3.75643 4.27860 4.02599
# Velocity P-wave (km/s) = 5.83607 7.18365 6.54464
#
# Compressibility (1/GPa) = 0.02881365
#
# Stress axis : x y z
#
# Youngs Moduli (GPa) = 64.49565 74.37772 103.39672
#
# Poissons Ratio (x) = 0.16476 0.11152
# Poissons Ratio (y) = 0.14287 0.16648
# Poissons Ratio (z) = 0.06956 0.11976
#
# Static dielectric constant tensor:
#      x y z
#    x 4.668440 -0.582920 0.113420 
#    y -0.582920 4.134890 -0.024820 
#    z 0.113420 -0.024820 3.926620 
# 
# 
# High freq. dielectric constant tensor:
#      x y z
#    x 1.904390 -0.019370 -0.001170 
#    y -0.019370 1.904930 0.007940 
#    z -0.001170 0.007940 1.899930 
# 
# From -- ./inp_files/352177.got.cif
#   From: 2010.06.25/outbox.cif.g09.slc.cpg/sg2_177_cif.got.tgz:352177.got - 2010.06.27 13:26:56.
