data_PCOD8033315
_publ_section_title
;
Structure prediction by ZEFSAII (Michael W. Deem and Ramdas Pophale) SiO2 
 PCOD8033315
Probable space group: P -1
;
_chemical_formula_sum "Si O2"
_cell_formula_units_Z 16
_cell_length_a 9.206673
_cell_length_b 14.691494
_cell_length_c 12.514548
_cell_angle_alpha 69.700612
_cell_angle_beta 131.854324
_cell_angle_gamma 70.592395
_cell_volume 698.301340
_symmetry_space_group_name_H-M "P -1"
_symmetry_group_IT_number 2
_symmetry_cell_setting 'triclinic'
loop_
_space_group_symop_operation_xyz
x,y,z
-x,-y,-z
loop_
_atom_site_type_symbol
_atom_site_label
_atom_site_fract_x
_atom_site_fract_y
_atom_site_fract_z
Si Si1 0.413889 0.244579 0.958526
Si Si2 0.662928 0.760099 0.702260
Si Si3 0.594925 0.351550 0.126685
Si Si4 0.388511 0.433437 0.227611
Si Si5 0.331042 0.985994 0.643133
Si Si6 0.378352 0.937855 0.281392
Si Si7 0.315194 0.532789 0.498952
Si Si8 0.625268 0.205676 0.844518
O O1 0.516951 0.198955 0.904489
O O2 0.062301 0.335655 0.767576
O O3 0.406926 0.359578 0.945060
O O4 0.671425 0.081507 0.225647
O O5 0.614401 0.669212 0.672975
O O6 0.402639 0.892313 0.612327
O O7 0.615276 0.844286 0.539401
O O8 0.031508 0.628496 0.982412
O O9 0.467376 0.373240 0.170479
O O10 0.500000 0.500000 0.000000
O O11 0.984071 0.178706 0.379947
O O12 0.662360 0.393809 0.428683
O O13 0.607923 0.959161 0.802128
O O14 0.505590 0.810720 0.307492
O O15 0.017407 0.054878 0.096867
O O16 0.500000 0.500000 0.500000
O O17 0.472830 0.372402 0.688217
#
# Coordination Sequence:
#
# PCOD8033315 Si02
#       8
#     2   2   2   2   2   2   2   2
#     4  12  27  48  76 104 155 194 242 313 367 449
#     4  11  23  45  74 105 144 192 252 311 364 438
#     4  12  27  46  75 110 148 192 249 307 371 438
#     4  11  25  42  73 108 142 189 251 300 372 435
#     4  12  26  46  76 111 148 192 250 307 380 434
#     4  11  25  43  72 101 145 195 249 302 365 446
#     4  12  26  47  74 105 153 197 247 300 378 443
#     4  11  26  45  68 106 149 196 249 297 375 440
#
# _framework density 22.912742999999999
#
# number of rings (size 3 to 8) (size 9 to 14) (size 15 to 20)
#    0.000    0.500    1.250    6.375    8.750    1.500 
#    0.000    0.000    0.000    0.000    0.000    0.000 
#    0.000    0.000    0.000    0.000    0.000    0.000 
#
# Total GULP energy -198499.628436 kJ/mol
# GULP energy per Si atom -12406.226777 kJ/mol
# Density = 2.286059 g / cm^3
# Si number density = 22.912743 Si / 1000 Ang^3
#
#
#
# Elastic Constant Matrix: (Units=GPa)
#
#
# Indices 1 2 3 4 5 6 
#
# 1 128.8186 44.4443 39.8742 0.3748 -6.7719 -7.7112
# 2 44.4443 112.5969 51.4940 0.5673 2.9235 2.1137
# 3 39.8742 51.4940 100.5613 -7.5019 -0.3641 1.3617
# 4 0.3748 0.5673 -7.5019 35.3472 -0.3432 5.6671
# 5 -6.7719 2.9235 -0.3641 -0.3432 40.4097 4.9390
# 6 -7.7112 2.1137 1.3617 5.6671 4.9390 48.5619
#
#
#
# Elastic Compliance Matrix: (Units=1/GPa)
#
#
# Indices 1 2 3 4 5 6 
#
# 1 0.009670 -0.002736 -0.002513 -0.000843 0.001585 0.001662
# 2 -0.002736 0.012481 -0.005396 -0.001243 -0.001354 -0.000544
# 3 -0.002513 -0.005396 0.013959 0.003232 0.000239 -0.000957
# 4 -0.000843 -0.001243 0.003232 0.029604 0.000681 -0.003694
# 5 0.001585 -0.001354 0.000239 0.000681 0.025407 -0.002359
# 6 0.001662 -0.000544 -0.000957 -0.003694 -0.002359 0.021578
#
#
# Mechanical properties :
#
#
# Convention : Reuss Voigt Hill
#
# Bulk Modulus (GPa) = 67.48070 68.17796 67.82933
# Shear Modulus (GPa) = 35.98980 38.60804 37.29892
#
# Velocity S-wave (km/s) = 3.96755 4.10933 4.03906
# Velocity P-wave (km/s) = 7.10659 7.23433 7.17075
#
# Compressibility (1/GPa) = 0.01481905
#
# Stress axis : x y z
#
# Youngs Moduli (GPa) = 103.41362 80.12403 71.63907
#
# Poissons Ratio (x) = 0.21920 0.18003
# Poissons Ratio (y) = 0.28291 0.38659
# Poissons Ratio (z) = 0.25988 0.43238
#
# Static dielectric constant tensor:
#      x y z
#    x 4.240590 0.081790 -0.040660 
#    y 0.081790 4.229390 -0.020180 
#    z -0.040660 -0.020180 4.161680 
# 
# 
# High freq. dielectric constant tensor:
#      x y z
#    x 1.920730 0.005630 -0.001600 
#    y 0.005630 1.915380 -0.000420 
#    z -0.001600 -0.000420 1.902390 
# 
# From -- ./inp_files/398985.got.cif
#   From: 2010.06.25/outbox.cif.g09.slc.cpg/sg2_200_cif.got.tgz:398985.got - 2010.06.27 13:26:56.
