data_PCOD8033763
_publ_section_title
;
Structure prediction by ZEFSAII (Michael W. Deem and Ramdas Pophale) SiO2 
 PCOD8033763
Probable space group: P -1
;
_chemical_formula_sum "Si O2"
_cell_formula_units_Z 14
_cell_length_a 5.432199
_cell_length_b 23.303257
_cell_length_c 12.156660
_cell_angle_alpha 26.550511
_cell_angle_beta 76.434852
_cell_angle_gamma 90.834618
_cell_volume 572.619352
_symmetry_space_group_name_H-M "P -1"
_symmetry_group_IT_number 2
_symmetry_cell_setting 'triclinic'
loop_
_space_group_symop_operation_xyz
x,y,z
-x,-y,-z
loop_
_atom_site_type_symbol
_atom_site_label
_atom_site_fract_x
_atom_site_fract_y
_atom_site_fract_z
Si Si1 0.579789 0.930078 0.210255
Si Si2 0.536468 0.467125 0.847668
Si Si3 0.347743 0.581121 0.318419
Si Si4 0.259794 0.135985 0.098320
Si Si5 0.797838 0.119212 0.321488
Si Si6 0.157273 0.184223 0.788734
Si Si7 0.147122 0.679862 0.841034
O O1 0.725101 0.840742 0.296085
O O2 0.295493 0.815526 0.506354
O O3 0.500000 0.000000 0.000000
O O4 0.803840 0.067213 0.030876
O O5 0.532398 0.387634 0.871551
O O6 0.756477 0.644817 0.508596
O O7 0.680089 0.412246 0.020805
O O8 0.197754 0.423184 0.982511
O O9 0.500000 0.500000 0.500000
O O10 0.000000 0.500000 0.500000
O O11 0.429730 0.738865 0.096536
O O12 0.037845 0.186355 0.083937
O O13 0.136308 0.967062 0.440756
O O14 0.287730 0.144786 0.948647
O O15 0.808989 0.257782 0.145438
O O16 0.500000 0.000000 0.500000
#
# Coordination Sequence:
#
# PCOD8033763 Si02
#       7
#     2   2   2   2   2   2   2
#     4  11  28  51  80 104 144 197 265 312 375 450
#     4  12  28  48  75 117 154 194 246 307 389 441
#     4  12  25  43  71 108 154 198 238 296 364 454
#     4  11  24  43  71 108 147 194 250 304 366 448
#     4  11  24  41  71 107 147 200 247 302 370 442
#     4  11  27  48  76 110 144 199 253 315 375 451
#     4  12  28  49  77 109 155 196 247 316 375 448
#
# _framework density 24.449048999999999
#
# number of rings (size 3 to 8) (size 9 to 14) (size 15 to 20)
#    0.000    0.571    2.857    3.429   12.000    2.286 
#    0.000    0.000    0.000    0.000    0.000    0.000 
#    0.000    0.000    0.000    0.000    0.000    0.000 
#
# Total GULP energy -173582.971031 kJ/mol
# GULP energy per Si atom -12398.783645 kJ/mol
# Density = 2.439340 g / cm^3
# Si number density = 24.449049 Si / 1000 Ang^3
#
#
#
# Elastic Constant Matrix: (Units=GPa)
#
#
# Indices 1 2 3 4 5 6 
#
# 1 137.8377 8.6335 50.2505 -0.0080 -8.9437 14.3874
# 2 8.6335 87.7046 30.5739 -6.6384 -7.7632 12.5637
# 3 50.2505 30.5739 129.3581 -0.6324 -14.8671 11.8262
# 4 -0.0080 -6.6384 -0.6324 41.1867 -0.3981 -5.4471
# 5 -8.9437 -7.7632 -14.8671 -0.3981 46.5705 -4.1679
# 6 14.3874 12.5637 11.8262 -5.4471 -4.1679 22.6916
#
#
#
# Elastic Compliance Matrix: (Units=1/GPa)
#
#
# Indices 1 2 3 4 5 6 
#
# 1 0.008859 0.000884 -0.003194 -0.000494 0.000424 -0.004482
# 2 0.000884 0.013345 -0.002833 0.001326 0.000966 -0.005976
# 3 -0.003194 -0.002833 0.009990 -0.000465 0.001978 -0.001361
# 4 -0.000494 0.001326 -0.000465 0.025290 0.000734 0.006026
# 5 0.000424 0.000966 0.001978 0.000734 0.022576 0.002488
# 6 -0.004482 -0.005976 -0.001361 0.006026 0.002488 0.052833
#
#
# Mechanical properties :
#
#
# Convention : Reuss Voigt Hill
#
# Bulk Modulus (GPa) = 45.64863 59.31293 52.48078
# Shear Modulus (GPa) = 33.22611 39.78591 36.50601
#
# Velocity S-wave (km/s) = 3.69045 4.03836 3.86832
# Velocity P-wave (km/s) = 6.07213 6.78652 6.43924
#
# Compressibility (1/GPa) = 0.02190646
#
# Stress axis : x y z
#
# Youngs Moduli (GPa) = 112.87414 74.93620 100.09527
#
# Poissons Ratio (x) = -0.06622 0.31974
# Poissons Ratio (y) = -0.09974 0.28361
# Poissons Ratio (z) = 0.36056 0.21232
#
# Static dielectric constant tensor:
#      x y z
#    x 4.588980 -0.110790 0.032390 
#    y -0.110790 4.593810 -0.126220 
#    z 0.032390 -0.126220 4.651360 
# 
# 
# High freq. dielectric constant tensor:
#      x y z
#    x 1.975400 0.002820 -0.001360 
#    y 0.002820 1.967770 -0.004890 
#    z -0.001360 -0.004890 1.984710 
# 
# From -- ./inp_files/49377.got.cif
#   From: 2010.06.25/outbox.cif.g09.slc.cpg/sg2_25_cif.got.tgz:49377.got - 2010.06.27 13:26:56.
