data_PCOD8033620
_publ_section_title
;
Structure prediction by ZEFSAII (Michael W. Deem and Ramdas Pophale) SiO2 
 PCOD8033620
Probable space group: P -1
;
_chemical_formula_sum "Si O2"
_cell_formula_units_Z 16
_cell_length_a 8.618762
_cell_length_b 8.773241
_cell_length_c 21.150098
_cell_angle_alpha 123.864655
_cell_angle_beta 140.657325
_cell_angle_gamma 46.013246
_cell_volume 728.760232
_symmetry_space_group_name_H-M "P -1"
_symmetry_group_IT_number 2
_symmetry_cell_setting 'triclinic'
loop_
_space_group_symop_operation_xyz
x,y,z
-x,-y,-z
loop_
_atom_site_type_symbol
_atom_site_label
_atom_site_fract_x
_atom_site_fract_y
_atom_site_fract_z
Si Si1 0.325586 0.761205 0.726145
Si Si2 0.280774 0.930592 0.890960
Si Si3 0.604589 0.487647 0.099493
Si Si4 0.817490 0.588890 0.364662
Si Si5 0.778644 0.710123 0.770794
Si Si6 0.082987 0.064709 0.474505
Si Si7 0.705833 0.144793 0.822020
Si Si8 0.399069 0.332321 0.425473
O O1 0.280597 0.891105 0.806580
O O2 0.296106 0.552599 0.671661
O O3 0.648098 0.674264 0.785165
O O4 0.111885 0.922442 0.642902
O O5 0.360861 0.713401 0.899488
O O6 0.967371 0.115426 0.854709
O O7 0.500000 0.000000 0.000000
O O8 0.360650 0.689475 0.104965
O O9 0.904367 0.482887 0.187598
O O10 0.500000 0.500000 0.000000
O O11 0.921548 0.710327 0.472762
O O12 0.572721 0.774260 0.289368
O O13 0.077579 0.423930 0.365846
O O14 0.571993 0.734513 0.653879
O O15 0.788836 0.925020 0.831069
O O16 0.400641 0.872855 0.515861
O O17 0.000000 0.000000 0.500000
O O18 0.500000 0.500000 0.500000
#
# Coordination Sequence:
#
# PCOD8033620 Si02
#       8
#     2   2   2   2   2   2   2   2
#     4  12  26  46  68 108 145 186 234 297 360 413
#     4  11  28  49  69 104 148 183 231 297 359 415
#     4  11  26  47  76 102 130 186 243 292 352 422
#     4  12  23  45  69 103 144 182 232 294 353 417
#     4  11  24  44  71 103 138 183 238 284 353 423
#     4  12  24  45  70 103 141 189 235 286 349 422
#     4  11  23  48  75  96 142 186 233 290 350 428
#     4  12  23  42  70 100 140 187 236 281 337 432
#
# _framework density 21.955096000000001
#
# number of rings (size 3 to 8) (size 9 to 14) (size 15 to 20)
#    0.000    0.500    6.250    1.125    3.500    3.000 
#    4.500    0.000    0.000    0.000    0.000    0.000 
#    0.000    0.000    0.000    0.000    0.000    0.000 
#
# Total GULP energy -198398.590137 kJ/mol
# GULP energy per Si atom -12399.911884 kJ/mol
# Density = 2.190512 g / cm^3
# Si number density = 21.955096 Si / 1000 Ang^3
#
#
#
# Elastic Constant Matrix: (Units=GPa)
#
#
# Indices 1 2 3 4 5 6 
#
# 1 164.3244 60.6575 60.3478 8.6240 8.2971 -12.7542
# 2 60.6575 97.5212 38.5995 10.8997 -0.5380 -17.7499
# 3 60.3478 38.5995 131.8252 11.1470 -16.2678 -4.2761
# 4 8.6240 10.8997 11.1470 35.4272 1.0960 0.7627
# 5 8.2971 -0.5380 -16.2678 1.0960 44.1970 1.8289
# 6 -12.7542 -17.7499 -4.2761 0.7627 1.8289 37.3344
#
#
#
# Elastic Compliance Matrix: (Units=1/GPa)
#
#
# Indices 1 2 3 4 5 6 
#
# 1 0.009049 -0.004219 -0.003265 0.000197 -0.002992 0.000854
# 2 -0.004219 0.015030 -0.002019 -0.003083 0.000079 0.005532
# 3 -0.003265 -0.002019 0.010357 -0.001959 0.004494 -0.001069
# 4 0.000197 -0.003083 -0.001959 0.029835 -0.001446 -0.002162
# 5 -0.002992 0.000079 0.004494 -0.001446 0.024947 -0.001662
# 6 0.000854 0.005532 -0.001069 -0.002162 -0.001662 0.029710
#
#
# Mechanical properties :
#
#
# Convention : Reuss Voigt Hill
#
# Bulk Modulus (GPa) = 64.81561 79.20895 72.01228
# Shear Modulus (GPa) = 34.94564 38.99610 36.97087
#
# Velocity S-wave (km/s) = 3.99392 4.21904 4.10802
# Velocity P-wave (km/s) = 7.13124 7.73885 7.44125
#
# Compressibility (1/GPa) = 0.01542838
#
# Stress axis : x y z
#
# Youngs Moduli (GPa) = 110.50694 66.53504 96.54911
#
# Poissons Ratio (x) = 0.28072 0.31527
# Poissons Ratio (y) = 0.46624 0.19497
# Poissons Ratio (z) = 0.36085 0.13436
#
# Static dielectric constant tensor:
#      x y z
#    x 4.516200 -0.687260 -0.121920 
#    y -0.687260 4.626460 0.262990 
#    z -0.121920 0.262990 4.306390 
# 
# 
# High freq. dielectric constant tensor:
#      x y z
#    x 1.868250 -0.011350 0.008100 
#    y -0.011350 1.865560 -0.001600 
#    z 0.008100 -0.001600 1.869310 
# 
# From -- ./inp_files/222976.got.cif
#   From: 2010.06.25/outbox.cif.g09.slc.cpg/sg2_112_cif.got.tgz:222976.got - 2010.06.27 13:26:56.
