data_PCOD8033657
_publ_section_title
;
Structure prediction by ZEFSAII (Michael W. Deem and Ramdas Pophale) SiO2 
 PCOD8033657
Probable space group: P -1
;
_chemical_formula_sum "Si O2"
_cell_formula_units_Z 16
_cell_length_a 9.100914
_cell_length_b 11.356917
_cell_length_c 14.663191
_cell_angle_alpha 130.854595
_cell_angle_beta 51.813075
_cell_angle_gamma 138.877251
_cell_volume 729.538819
_symmetry_space_group_name_H-M "P -1"
_symmetry_group_IT_number 2
_symmetry_cell_setting 'triclinic'
loop_
_space_group_symop_operation_xyz
x,y,z
-x,-y,-z
loop_
_atom_site_type_symbol
_atom_site_label
_atom_site_fract_x
_atom_site_fract_y
_atom_site_fract_z
Si Si1 0.391675 0.874390 0.254861
Si Si2 0.602541 0.661146 0.119006
Si Si3 0.601433 0.618901 0.301245
Si Si4 0.979011 0.556690 0.138254
Si Si5 0.377959 0.838789 0.834010
Si Si6 0.915964 0.023500 0.947405
Si Si7 0.866153 0.016618 0.478182
Si Si8 0.755300 0.793109 0.723817
O O1 0.556326 0.820585 0.201576
O O2 0.233684 0.715996 0.157849
O O3 0.548118 0.093458 0.265636
O O4 0.231929 0.865053 0.391800
O O5 0.508171 0.571677 0.209384
O O6 0.878128 0.771326 0.069292
O O7 0.500000 0.500000 0.000000
O O8 0.847368 0.655051 0.232257
O O9 0.645524 0.810696 0.422852
O O10 0.407909 0.436524 0.342154
O O11 0.842445 0.379353 0.173295
O O12 0.000000 0.500000 0.000000
O O13 0.606486 0.879034 0.812998
O O14 0.312936 0.981196 0.964377
O O15 0.862273 0.853343 0.814673
O O16 0.000000 0.000000 0.000000
O O17 0.000000 0.000000 0.500000
O O18 0.042387 0.129716 0.386263
#
# Coordination Sequence:
#
# PCOD8033657 Si02
#       8
#     2   2   2   2   2   2   2   2
#     4  12  26  44  69 100 136 186 231 278 344 405
#     4  12  25  46  68 101 144 178 224 285 350 410
#     4  11  24  44  67  98 136 181 225 284 344 398
#     4  11  24  39  66 101 136 173 229 286 344 409
#     4  11  24  39  67 101 133 178 225 279 350 403
#     4  12  23  41  66 101 141 174 224 283 346 416
#     4  12  24  46  71  98 140 183 238 282 330 410
#     4  11  25  43  70 101 136 180 232 283 343 403
#
# _framework density 21.931660999999998
#
# number of rings (size 3 to 8) (size 9 to 14) (size 15 to 20)
#    0.000    0.500    5.000    3.375    5.250    2.000 
#    0.000    0.625    0.000    0.000    0.000    0.000 
#    0.000    0.000    0.000    0.000    0.000    0.000 
#
# Total GULP energy -198366.246705 kJ/mol
# GULP energy per Si atom -12397.890419 kJ/mol
# Density = 2.188174 g / cm^3
# Si number density = 21.931661 Si / 1000 Ang^3
#
#
#
# Elastic Constant Matrix: (Units=GPa)
#
#
# Indices 1 2 3 4 5 6 
#
# 1 80.1584 29.4471 39.1330 -8.6014 2.9085 -10.7683
# 2 29.4471 120.7074 46.3368 -13.5326 3.5780 -2.1371
# 3 39.1330 46.3368 129.6811 -7.7456 3.4835 5.2034
# 4 -8.6014 -13.5326 -7.7456 30.0701 3.0760 4.9871
# 5 2.9085 3.5780 3.4835 3.0760 33.1418 -1.9678
# 6 -10.7683 -2.1371 5.2034 4.9871 -1.9678 33.6643
#
#
#
# Elastic Compliance Matrix: (Units=1/GPa)
#
#
# Indices 1 2 3 4 5 6 
#
# 1 0.016246 -0.002004 -0.004280 0.001804 -0.000605 0.005428
# 2 -0.002004 0.010271 -0.002830 0.003438 -0.000962 -0.000117
# 3 -0.004280 -0.002830 0.010207 0.000742 -0.000655 -0.003275
# 4 0.001804 0.003438 0.000742 0.036785 -0.004320 -0.005021
# 5 -0.000605 -0.000962 -0.000655 -0.004320 0.030936 0.002295
# 6 0.005428 -0.000117 -0.003275 -0.005021 0.002295 0.032818
#
#
# Mechanical properties :
#
#
# Convention : Reuss Voigt Hill
#
# Bulk Modulus (GPa) = 54.06222 62.26453 58.16338
# Shear Modulus (GPa) = 30.92979 33.75057 32.34018
#
# Velocity S-wave (km/s) = 3.75944 3.92713 3.84420
# Velocity P-wave (km/s) = 6.59912 7.00108 6.80307
#
# Compressibility (1/GPa) = 0.01849721
#
# Stress axis : x y z
#
# Youngs Moduli (GPa) = 61.55440 97.35731 97.97066
#
# Poissons Ratio (x) = 0.19509 0.41933
# Poissons Ratio (y) = 0.12335 0.27721
# Poissons Ratio (z) = 0.26346 0.27548
#
# Static dielectric constant tensor:
#      x y z
#    x 3.873080 0.068200 0.097230 
#    y 0.068200 3.798090 -0.557040 
#    z 0.097230 -0.557040 3.772970 
# 
# 
# High freq. dielectric constant tensor:
#      x y z
#    x 1.858710 -0.002080 -0.001800 
#    y -0.002080 1.870790 -0.012510 
#    z -0.001800 -0.012510 1.856610 
# 
# From -- ./inp_files/271704.got.cif
#   From: 2010.06.25/outbox.cif.g09.slc.cpg/sg2_136_cif.got.tgz:271704.got - 2010.06.27 13:26:56.
