data_PCOD8033891
_publ_section_title
;
Structure prediction by ZEFSAII (Michael W. Deem and Ramdas Pophale) SiO2 
 PCOD8033891
Probable space group: P -1
;
_chemical_formula_sum "Si O2"
_cell_formula_units_Z 16
_cell_length_a 9.200436
_cell_length_b 5.356326
_cell_length_c 17.698424
_cell_angle_alpha 94.487842
_cell_angle_beta 129.733294
_cell_angle_gamma 102.143146
_cell_volume 628.937506
_symmetry_space_group_name_H-M "P -1"
_symmetry_group_IT_number 2
_symmetry_cell_setting 'triclinic'
loop_
_space_group_symop_operation_xyz
x,y,z
-x,-y,-z
loop_
_atom_site_type_symbol
_atom_site_label
_atom_site_fract_x
_atom_site_fract_y
_atom_site_fract_z
Si Si1 0.183058 0.806161 0.838479
Si Si2 0.439665 0.690694 0.039511
Si Si3 0.366450 0.816536 0.322674
Si Si4 0.695172 0.680144 0.609098
Si Si5 0.827019 0.623246 0.942213
Si Si6 0.086297 0.010743 0.148679
Si Si7 0.178549 0.887622 0.546462
Si Si8 0.980534 0.413084 0.369455
O O1 0.135293 0.588371 0.749274
O O2 0.382889 0.035757 0.883231
O O3 0.233929 0.702501 0.933059
O O4 0.993116 0.910057 0.794745
O O5 0.384675 0.578671 0.103037
O O6 0.500000 0.500000 0.000000
O O7 0.343685 0.054993 0.371635
O O8 0.602310 0.886936 0.382317
O O9 0.273721 0.519653 0.319173
O O10 0.226335 0.827325 0.203868
O O11 0.500000 0.500000 0.500000
O O12 0.875309 0.757315 0.608795
O O13 0.784979 0.723145 0.848359
O O14 0.000000 0.500000 0.000000
O O15 0.891076 0.866751 0.029799
O O16 0.174698 0.716258 0.617519
O O17 0.126943 0.704575 0.449933
O O18 0.000000 0.000000 0.500000
#
# Coordination Sequence:
#
# PCOD8033891 Si02
#       8
#     2   2   2   2   2   2   2   2
#     4  11  24  45  69 108 140 192 257 309 377 454
#     4  11  24  42  72 103 146 192 244 308 378 456
#     4  12  28  46  80 114 149 197 262 315 379 462
#     4  12  25  47  77 113 144 196 254 314 379 454
#     4  11  24  44  71 101 148 199 239 315 382 446
#     4  11  25  44  72 108 145 193 257 313 377 453
#     4  11  27  50  72 107 155 197 243 318 395 460
#     4  11  26  45  75 102 147 195 249 313 383 449
#
# _framework density 25.439730999999998
#
# number of rings (size 3 to 8) (size 9 to 14) (size 15 to 20)
#    0.000    0.750    5.000    1.125    7.000    3.000 
#    0.000    0.000    0.000    0.000    0.000    0.000 
#    0.000    0.000    0.000    0.000    0.000    0.000 
#
# Total GULP energy -198296.045110 kJ/mol
# GULP energy per Si atom -12393.502819 kJ/mol
# Density = 2.538183 g / cm^3
# Si number density = 25.439731 Si / 1000 Ang^3
#
#
#
# Elastic Constant Matrix: (Units=GPa)
#
#
# Indices 1 2 3 4 5 6 
#
# 1 124.6179 20.4142 30.1713 -3.1574 0.5538 3.5584
# 2 20.4142 52.4321 12.9745 -15.7413 -8.6213 3.8828
# 3 30.1713 12.9745 115.2347 1.0007 -10.3066 7.7553
# 4 -3.1574 -15.7413 1.0007 41.0988 -6.9403 -0.0337
# 5 0.5538 -8.6213 -10.3066 -6.9403 44.4230 -1.0778
# 6 3.5584 3.8828 7.7553 -0.0337 -1.0778 40.0135
#
#
#
# Elastic Compliance Matrix: (Units=1/GPa)
#
#
# Indices 1 2 3 4 5 6 
#
# 1 0.009093 -0.003493 -0.002100 -0.000826 -0.001410 -0.000101
# 2 -0.003493 0.025019 -0.001327 0.010388 0.006173 -0.001685
# 3 -0.002100 -0.001327 0.009652 -0.000588 0.001879 -0.001505
# 4 -0.000826 0.010388 -0.000588 0.029351 0.006460 -0.000622
# 5 -0.001410 0.006173 0.001879 0.006460 0.025168 -0.000155
# 6 -0.000101 -0.001685 -0.001505 -0.000622 -0.000155 0.025451
#
#
# Mechanical properties :
#
#
# Convention : Reuss Voigt Hill
#
# Bulk Modulus (GPa) = 33.41784 46.60053 40.00918
# Shear Modulus (GPa) = 33.88694 40.35538 37.12116
#
# Velocity S-wave (km/s) = 3.65368 3.98718 3.82407
# Velocity P-wave (km/s) = 5.56451 6.28924 5.93794
#
# Compressibility (1/GPa) = 0.02992413
#
# Stress axis : x y z
#
# Youngs Moduli (GPa) = 109.97041 39.96934 103.60987
#
# Poissons Ratio (x) = 0.13963 0.21754
# Poissons Ratio (y) = 0.38416 0.13749
# Poissons Ratio (z) = 0.23090 0.05304
#
# Static dielectric constant tensor:
#      x y z
#    x 4.936030 0.170660 0.022850 
#    y 0.170660 5.032880 -0.084910 
#    z 0.022850 -0.084910 5.299760 
# 
# 
# High freq. dielectric constant tensor:
#      x y z
#    x 2.022310 0.003660 -0.005400 
#    y 0.003660 2.011690 0.011830 
#    z -0.005400 0.011830 2.024850 
# 
# From -- ./inp_files/553568.got.cif
#   From: 2010.06.25/outbox.cif.g09.slc.cpg/sg2_277_cif.got.tgz:553568.got - 2010.06.27 13:26:56.
