data_PCOD8033373
_publ_section_title
;
Structure prediction by ZEFSAII (Michael W. Deem and Ramdas Pophale) SiO2 
 PCOD8033373
Probable space group: P -1
;
_chemical_formula_sum "Si O2"
_cell_formula_units_Z 14
_cell_length_a 14.568212
_cell_length_b 6.475366
_cell_length_c 15.435322
_cell_angle_alpha 108.362869
_cell_angle_beta 152.594795
_cell_angle_gamma 70.006531
_cell_volume 629.592084
_symmetry_space_group_name_H-M "P -1"
_symmetry_group_IT_number 2
_symmetry_cell_setting 'triclinic'
loop_
_space_group_symop_operation_xyz
x,y,z
-x,-y,-z
loop_
_atom_site_type_symbol
_atom_site_label
_atom_site_fract_x
_atom_site_fract_y
_atom_site_fract_z
Si Si1 0.798096 0.900987 0.828454
Si Si2 0.422227 0.876445 0.074709
Si Si3 0.160709 0.408125 0.334747
Si Si4 0.446572 0.679261 0.252922
Si Si5 0.077195 0.634667 0.706507
Si Si6 0.824632 0.687523 0.003791
Si Si7 0.859157 0.822061 0.382876
O O1 0.756094 0.773912 0.689876
O O2 0.828673 0.731504 0.911318
O O3 0.613405 0.093199 0.715346
O O4 0.000000 0.000000 0.000000
O O5 0.490134 0.735520 0.198139
O O6 0.622187 0.920509 0.196774
O O7 0.293995 0.110744 0.017281
O O8 0.284773 0.737160 0.882891
O O9 0.354794 0.461861 0.557720
O O10 0.010065 0.310586 0.262993
O O11 0.050968 0.630129 0.225465
O O12 0.268028 0.534951 0.088109
O O13 0.114000 0.371941 0.690898
O O14 0.915541 0.736249 0.514569
O O15 0.000000 0.000000 0.500000
#
# Coordination Sequence:
#
# PCOD8033373 Si02
#       7
#     2   2   2   2   2   2   2
#     4  11  23  46  66  99 143 181 226 281 335 397
#     4  11  24  46  72  99 142 178 227 281 345 409
#     4  12  23  44  71  96 140 178 231 278 336 401
#     4  11  24  43  69 100 137 183 227 279 337 401
#     4  11  25  46  71 100 134 185 223 286 343 401
#     4  11  25  42  69 104 135 182 227 278 335 407
#     4  11  27  46  71 104 135 174 233 284 345 413
#
# _framework density 22.236621
#
# number of rings (size 3 to 8) (size 9 to 14) (size 15 to 20)
#    0.000    0.857    4.286    2.143    4.000    1.143 
#    5.143    0.000    0.000    0.000    0.000    0.000 
#    0.000    0.000    0.000    0.000    0.000    0.000 
#
# Total GULP energy -173652.428948 kJ/mol
# GULP energy per Si atom -12403.744925 kJ/mol
# Density = 2.218601 g / cm^3
# Si number density = 22.236621 Si / 1000 Ang^3
#
#
#
# Elastic Constant Matrix: (Units=GPa)
#
#
# Indices 1 2 3 4 5 6 
#
# 1 86.0372 31.9294 21.1709 1.0800 6.4694 -0.8465
# 2 31.9294 108.5423 37.0400 -2.8341 -4.8440 -2.7824
# 3 21.1709 37.0400 114.3115 -14.5889 5.8377 -11.3938
# 4 1.0800 -2.8341 -14.5889 38.5844 2.0838 0.3978
# 5 6.4694 -4.8440 5.8377 2.0838 34.0788 3.7522
# 6 -0.8465 -2.7824 -11.3938 0.3978 3.7522 25.9325
#
#
#
# Elastic Compliance Matrix: (Units=1/GPa)
#
#
# Indices 1 2 3 4 5 6 
#
# 1 0.013535 -0.003690 -0.001306 -0.000991 -0.002798 -0.000108
# 2 -0.003690 0.011545 -0.003351 -0.000471 0.003031 -0.000785
# 3 -0.001306 -0.003351 0.011244 0.004151 -0.002948 0.004901
# 4 -0.000991 -0.000471 0.004151 0.027595 -0.002461 0.001674
# 5 -0.002798 0.003031 -0.002948 -0.002461 0.031577 -0.005593
# 6 -0.000108 -0.000785 0.004901 0.001674 -0.005593 0.041411
#
#
# Mechanical properties :
#
#
# Convention : Reuss Voigt Hill
#
# Bulk Modulus (GPa) = 50.93601 54.35240 52.64420
# Shear Modulus (GPa) = 31.22218 34.30253 32.76236
#
# Velocity S-wave (km/s) = 3.75118 3.93187 3.84259
# Velocity P-wave (km/s) = 6.45894 6.71630 6.58888
#
# Compressibility (1/GPa) = 0.01963248
#
# Stress axis : x y z
#
# Youngs Moduli (GPa) = 73.88180 86.62112 88.93415
#
# Poissons Ratio (x) = 0.31959 0.11611
# Poissons Ratio (y) = 0.27259 0.29798
# Poissons Ratio (z) = 0.09646 0.29023
#
# Static dielectric constant tensor:
#      x y z
#    x 3.748720 -0.227930 0.052440 
#    y -0.227930 4.321910 0.093210 
#    z 0.052440 0.093210 4.063880 
# 
# 
# High freq. dielectric constant tensor:
#      x y z
#    x 1.879860 -0.004720 -0.003130 
#    y -0.004720 1.871090 -0.009530 
#    z -0.003130 -0.009530 1.886240 
# 
# From -- ./inp_files/47255.got.cif
#   From: 2010.06.25/outbox.cif.g09.slc.cpg/sg2_24_cif.got.tgz:47255.got - 2010.06.27 13:26:56.
