data_PCOD8033567
_publ_section_title
;
Structure prediction by ZEFSAII (Michael W. Deem and Ramdas Pophale) SiO2 
 PCOD8033567
Probable space group: P -1
;
_chemical_formula_sum "Si O2"
_cell_formula_units_Z 16
_cell_length_a 17.686017
_cell_length_b 8.987206
_cell_length_c 11.287319
_cell_angle_alpha 51.810178
_cell_angle_beta 31.384480
_cell_angle_gamma 61.827536
_cell_volume 727.522096
_symmetry_space_group_name_H-M "P -1"
_symmetry_group_IT_number 2
_symmetry_cell_setting 'triclinic'
loop_
_space_group_symop_operation_xyz
x,y,z
-x,-y,-z
loop_
_atom_site_type_symbol
_atom_site_label
_atom_site_fract_x
_atom_site_fract_y
_atom_site_fract_z
Si Si1 0.132330 0.881437 0.897754
Si Si2 0.310379 0.342597 0.127233
Si Si3 0.694145 0.163905 0.877651
Si Si4 0.374024 0.215373 0.361911
Si Si5 0.131119 0.518595 0.908553
Si Si6 0.363907 0.569351 0.375603
Si Si7 0.142981 0.154585 0.236557
Si Si8 0.138370 0.656811 0.229313
O O1 0.124764 0.706590 0.902620
O O2 0.287530 0.013818 0.615313
O O3 0.114568 0.814691 0.088643
O O4 0.000000 0.000000 0.000000
O O5 0.302532 0.278314 0.305735
O O6 0.180571 0.215995 0.291472
O O7 0.281336 0.561056 0.049657
O O8 0.470854 0.337083 0.860640
O O9 0.710159 0.274164 0.676698
O O10 0.834438 0.249685 0.724870
O O11 0.713995 0.941941 0.946482
O O12 0.542067 0.187451 0.132726
O O13 0.361378 0.376091 0.398057
O O14 0.282231 0.531872 0.627484
O O15 0.121341 0.334807 0.096099
O O16 0.000000 0.500000 0.000000
O O17 0.000000 0.000000 0.500000
O O18 0.000000 0.500000 0.500000
#
# Coordination Sequence:
#
# PCOD8033567 Si02
#       8
#     2   2   2   2   2   2   2   2
#     4  12  29  46  71 104 136 184 231 284 349 412
#     4  11  23  47  73 100 141 186 231 281 344 404
#     4  11  25  44  73 104 137 185 233 281 343 406
#     4  11  24  46  74 105 139 181 233 283 342 413
#     4  12  29  47  68 101 145 182 224 291 351 404
#     4  11  24  47  74 103 144 179 226 289 345 408
#     4  12  28  46  69 102 142 184 234 285 343 412
#     4  12  24  45  72  98 137 182 235 285 334 411
#
# _framework density 21.992459
#
# number of rings (size 3 to 8) (size 9 to 14) (size 15 to 20)
#    0.000    0.500    3.750    3.750   10.500    3.000 
#    0.000    0.000    0.000    0.000    0.000    0.000 
#    0.000    0.000    0.000    0.000    0.000    0.000 
#
# Total GULP energy -198425.922708 kJ/mol
# GULP energy per Si atom -12401.620169 kJ/mol
# Density = 2.194240 g / cm^3
# Si number density = 21.992459 Si / 1000 Ang^3
#
#
#
# Elastic Constant Matrix: (Units=GPa)
#
#
# Indices 1 2 3 4 5 6 
#
# 1 133.9982 47.0341 49.1590 -14.1041 -2.0245 -7.5870
# 2 47.0341 149.6229 31.9043 -9.7350 10.3341 -9.6129
# 3 49.1590 31.9043 119.8373 -20.2551 13.3607 -5.4704
# 4 -14.1041 -9.7350 -20.2551 36.3015 7.4008 0.6259
# 5 -2.0245 10.3341 13.3607 7.4008 26.2484 -6.6091
# 6 -7.5870 -9.6129 -5.4704 0.6259 -6.6091 38.4533
#
#
#
# Elastic Compliance Matrix: (Units=1/GPa)
#
#
# Indices 1 2 3 4 5 6 
#
# 1 0.009861 -0.002466 -0.003711 0.000276 0.003913 0.001469
# 2 -0.002466 0.007937 -0.000419 0.001603 -0.003343 0.000837
# 3 -0.003711 -0.000419 0.012043 0.006882 -0.008361 -0.000673
# 4 0.000276 0.001603 0.006882 0.034877 -0.014349 -0.001600
# 5 0.003913 -0.003343 -0.008361 -0.014349 0.049921 0.007560
# 6 0.001469 0.000837 -0.000673 -0.001600 0.007560 0.027735
#
#
# Mechanical properties :
#
#
# Convention : Reuss Voigt Hill
#
# Bulk Modulus (GPa) = 60.06784 73.29480 66.68132
# Shear Modulus (GPa) = 31.03330 38.55804 34.79567
#
# Velocity S-wave (km/s) = 3.76052 4.19171 3.98196
# Velocity P-wave (km/s) = 6.79909 7.53836 7.17825
#
# Compressibility (1/GPa) = 0.01664784
#
# Stress axis : x y z
#
# Youngs Moduli (GPa) = 101.40572 125.98832 83.03430
#
# Poissons Ratio (x) = 0.31075 0.30815
# Poissons Ratio (y) = 0.25012 0.03483
# Poissons Ratio (z) = 0.37633 0.05284
#
# Static dielectric constant tensor:
#      x y z
#    x 8.615900 4.859920 2.636330 
#    y 4.859920 9.949260 3.022270 
#    z 2.636330 3.022270 5.640370 
# 
# 
# High freq. dielectric constant tensor:
#      x y z
#    x 1.878320 -0.002680 -0.010830 
#    y -0.002680 1.883880 0.005360 
#    z -0.010830 0.005360 1.864870 
# 
# From -- ./inp_files/279250.got.cif
#   From: 2010.06.25/outbox.cif.g09.slc.cpg/sg2_140_cif.got.tgz:279250.got - 2010.06.27 13:26:56.
