data_PCOD8033134
_publ_section_title
;
Structure prediction by ZEFSAII (Michael W. Deem and Ramdas Pophale) SiO2 
 PCOD8033134
Probable space group: P -1
;
_chemical_formula_sum "Si O2"
_cell_formula_units_Z 14
_cell_length_a 10.168453
_cell_length_b 13.279055
_cell_length_c 19.993271
_cell_angle_alpha 23.633716
_cell_angle_beta 35.447427
_cell_angle_gamma 35.418535
_cell_volume 599.699610
_symmetry_space_group_name_H-M "P -1"
_symmetry_group_IT_number 2
_symmetry_cell_setting 'triclinic'
loop_
_space_group_symop_operation_xyz
x,y,z
-x,-y,-z
loop_
_atom_site_type_symbol
_atom_site_label
_atom_site_fract_x
_atom_site_fract_y
_atom_site_fract_z
Si Si1 0.180424 0.701802 0.956538
Si Si2 0.267487 0.921278 0.031824
Si Si3 0.736586 0.500168 0.100305
Si Si4 0.410439 0.263851 0.652216
Si Si5 0.003466 0.488460 0.586260
Si Si6 0.368934 0.171060 0.260755
Si Si7 0.717899 0.988822 0.462520
O O1 0.176556 0.439098 0.155722
O O2 0.291369 0.622570 0.885747
O O3 0.357835 0.822996 0.850716
O O4 0.912277 0.904467 0.943740
O O5 0.543453 0.784481 0.021786
O O6 0.171709 0.667297 0.213725
O O7 0.269211 0.123704 0.847367
O O8 0.716755 0.287488 0.292179
O O9 0.000000 0.500000 0.000000
O O10 0.500000 0.500000 0.500000
O O11 0.262001 0.357057 0.589126
O O12 0.638554 0.037884 0.667252
O O13 0.000000 0.500000 0.500000
O O14 0.938330 0.789373 0.454672
O O15 0.277064 0.114344 0.403286
O O16 0.500000 0.000000 0.500000
#
# Coordination Sequence:
#
# PCOD8033134 Si02
#       7
#     2   2   2   2   2   2   2
#     4  11  23  45  75 108 139 191 252 298 364 452
#     4  12  25  48  75 104 145 204 247 299 378 448
#     4  12  28  47  69 106 155 189 244 314 376 438
#     4  12  28  47  72 112 154 193 249 316 374 439
#     4  12  25  46  77 111 148 196 258 303 363 466
#     4  11  23  44  76 107 146 187 251 306 361 449
#     4  12  23  43  73 106 142 197 246 304 369 441
#
# _framework density 23.345022
#
# number of rings (size 3 to 8) (size 9 to 14) (size 15 to 20)
#    0.000    0.286    5.714    3.000    4.000    1.714 
#    0.000    2.143    0.000    0.000    0.000    0.000 
#    0.000    0.000    0.000    0.000    0.000    0.000 
#
# Total GULP energy -173439.042085 kJ/mol
# GULP energy per Si atom -12388.503006 kJ/mol
# Density = 2.329189 g / cm^3
# Si number density = 23.345022 Si / 1000 Ang^3
#
#
#
# Elastic Constant Matrix: (Units=GPa)
#
#
# Indices 1 2 3 4 5 6 
#
# 1 68.9705 30.5542 41.2792 -11.4953 -1.6344 -2.4777
# 2 30.5542 176.9514 41.3089 -19.3564 8.1703 -5.6306
# 3 41.2792 41.3089 127.4331 -19.6626 14.4870 2.0311
# 4 -11.4953 -19.3564 -19.6626 33.0616 1.9092 3.9949
# 5 -1.6344 8.1703 14.4870 1.9092 35.3758 3.8056
# 6 -2.4777 -5.6306 2.0311 3.9949 3.8056 44.1109
#
#
#
# Elastic Compliance Matrix: (Units=1/GPa)
#
#
# Indices 1 2 3 4 5 6 
#
# 1 0.019184 -0.001916 -0.005712 0.001874 0.003500 0.000624
# 2 -0.001916 0.006579 -0.000956 0.002620 -0.001429 0.000662
# 3 -0.005712 -0.000956 0.011271 0.004550 -0.004801 -0.000960
# 4 0.001874 0.002620 0.004550 0.035691 -0.004023 -0.002655
# 5 0.003500 -0.001429 -0.004801 -0.004023 0.031168 -0.002089
# 6 0.000624 0.000662 -0.000960 -0.002655 -0.002089 0.023255
#
#
# Mechanical properties :
#
#
# Convention : Reuss Voigt Hill
#
# Bulk Modulus (GPa) = 50.33671 66.62661 58.48166
# Shear Modulus (GPa) = 33.12665 39.85720 36.49192
#
# Velocity S-wave (km/s) = 3.77105 4.13644 3.95797
# Velocity P-wave (km/s) = 6.36946 7.17046 6.78179
#
# Compressibility (1/GPa) = 0.01986622
#
# Stress axis : x y z
#
# Youngs Moduli (GPa) = 52.12697 152.00267 88.72671
#
# Poissons Ratio (x) = 0.29121 0.50679
# Poissons Ratio (y) = 0.09986 0.08482
# Poissons Ratio (z) = 0.29774 0.14530
#
# Static dielectric constant tensor:
#      x y z
#    x 3.995500 0.069290 0.132910 
#    y 0.069290 4.141500 0.014390 
#    z 0.132910 0.014390 4.082320 
# 
# 
# High freq. dielectric constant tensor:
#      x y z
#    x 1.895460 -0.000980 0.017770 
#    y -0.000980 1.939240 -0.019510 
#    z 0.017770 -0.019510 1.937840 
# 
# From -- ./inp_files/575976.got.cif
#   From: 2010.06.25/outbox.cif.g09.slc.cpg/sg2_288_cif.got.tgz:575976.got - 2010.06.27 13:26:56.
