data_PCOD8033438
_publ_section_title
;
Structure prediction by ZEFSAII (Michael W. Deem and Ramdas Pophale) SiO2 
 PCOD8033438
Probable space group: P -1
;
_chemical_formula_sum "Si O2"
_cell_formula_units_Z 16
_cell_length_a 5.743431
_cell_length_b 23.417718
_cell_length_c 18.061672
_cell_angle_alpha 19.489728
_cell_angle_beta 85.207725
_cell_angle_gamma 75.051131
_cell_volume 680.299056
_symmetry_space_group_name_H-M "P -1"
_symmetry_group_IT_number 2
_symmetry_cell_setting 'triclinic'
loop_
_space_group_symop_operation_xyz
x,y,z
-x,-y,-z
loop_
_atom_site_type_symbol
_atom_site_label
_atom_site_fract_x
_atom_site_fract_y
_atom_site_fract_z
Si Si1 0.340157 0.380781 0.134240
Si Si2 0.996792 0.693292 0.455588
Si Si3 0.645371 0.075560 0.076707
Si Si4 0.078532 0.634813 0.088012
Si Si5 0.236376 0.299727 0.698541
Si Si6 0.586419 0.446330 0.686362
Si Si7 0.466935 0.990586 0.673702
Si Si8 0.269427 0.842662 0.731696
O O1 0.446776 0.204077 0.408605
O O2 0.450156 0.266253 0.191979
O O3 0.500000 0.500000 0.000000
O O4 0.000000 0.500000 0.000000
O O5 0.882377 0.763011 0.289773
O O6 0.860372 0.592881 0.630112
O O7 0.319255 0.519958 0.654848
O O8 0.933201 0.891132 0.261000
O O9 0.610737 0.027105 0.219727
O O10 0.395955 0.115061 0.979081
O O11 0.632614 0.286693 0.816630
O O12 0.150194 0.678239 0.114580
O O13 0.254637 0.654444 0.994241
O O14 0.765915 0.805056 0.871188
O O15 0.449482 0.354270 0.592604
O O16 0.000000 0.500000 0.500000
O O17 0.268908 0.977806 0.634323
O O18 0.000000 0.000000 0.500000
#
# Coordination Sequence:
#
# PCOD8033438 Si02
#       8
#     2   2   2   2   2   2   2   2
#     4  12  30  49  76 118 155 192 259 330 389 466
#     4  11  25  44  71 108 145 193 244 307 367 444
#     4  12  24  45  72 105 148 188 247 306 369 451
#     4  11  23  46  73 103 146 192 254 301 378 449
#     4  11  23  46  72 100 146 195 240 299 373 445
#     4  11  23  47  68 103 146 194 241 306 370 446
#     4  12  26  49  76 104 149 201 250 306 391 452
#     4  12  25  48  80 103 143 203 253 309 390 471
#
# _framework density 23.519067
#
# number of rings (size 3 to 8) (size 9 to 14) (size 15 to 20)
#    0.000    0.500    5.000    2.625    3.500    1.500 
#    9.000    0.000    0.000    0.000    0.000    0.000 
#    0.000    0.000    0.000    0.000    0.000    0.000 
#
# Total GULP energy -198301.280727 kJ/mol
# GULP energy per Si atom -12393.830045 kJ/mol
# Density = 2.346554 g / cm^3
# Si number density = 23.519067 Si / 1000 Ang^3
#
#
#
# Elastic Constant Matrix: (Units=GPa)
#
#
# Indices 1 2 3 4 5 6 
#
# 1 98.5589 41.1103 37.0456 2.3395 4.3775 1.7840
# 2 41.1103 119.9352 58.6007 1.0133 0.2952 -8.1360
# 3 37.0456 58.6007 98.2629 0.9924 10.9096 13.0094
# 4 2.3395 1.0133 0.9924 53.1683 0.6008 8.2207
# 5 4.3775 0.2952 10.9096 0.6008 31.3245 3.9077
# 6 1.7840 -8.1360 13.0094 8.2207 3.9077 24.4369
#
#
#
# Elastic Compliance Matrix: (Units=1/GPa)
#
#
# Indices 1 2 3 4 5 6 
#
# 1 0.012472 -0.002849 -0.002915 -0.000424 -0.000686 -0.000055
# 2 -0.002849 0.014450 -0.009101 -0.001557 0.002210 0.010034
# 3 -0.002915 -0.009101 0.018882 0.001981 -0.004523 -0.012813
# 4 -0.000424 -0.001557 0.001981 0.020104 0.000035 -0.008311
# 5 -0.000686 0.002210 -0.004523 0.000035 0.033852 -0.002232
# 6 -0.000055 0.010034 -0.012813 -0.008311 -0.002232 0.054240
#
#
# Mechanical properties :
#
#
# Convention : Reuss Voigt Hill
#
# Bulk Modulus (GPa) = 62.21836 65.58558 63.90197
# Shear Modulus (GPa) = 26.44260 33.78598 30.11429
#
# Velocity S-wave (km/s) = 3.35670 3.79428 3.58218
# Velocity P-wave (km/s) = 6.44478 6.86601 6.65872
#
# Compressibility (1/GPa) = 0.01607243
#
# Stress axis : x y z
#
# Youngs Moduli (GPa) = 80.18055 69.20507 52.96037
#
# Poissons Ratio (x) = 0.19717 0.15439
# Poissons Ratio (y) = 0.22844 0.48201
# Poissons Ratio (z) = 0.23374 0.62986
#
# Static dielectric constant tensor:
#      x y z
#    x 4.414690 -0.017610 -0.192810 
#    y -0.017610 4.396370 0.224640 
#    z -0.192810 0.224640 4.477700 
# 
# 
# High freq. dielectric constant tensor:
#      x y z
#    x 1.925250 0.000670 0.000040 
#    y 0.000670 1.934840 0.017120 
#    z 0.000040 0.017120 1.936960 
# 
# From -- ./inp_files/138901.got.cif
#   From: 2010.06.25/outbox.cif.g09.slc.cpg/sg2_70_cif.got.tgz:138901.got - 2010.06.27 13:26:56.
