data_PCOD8033063
_publ_section_title
;
Structure prediction by ZEFSAII (Michael W. Deem and Ramdas Pophale) SiO2 
 PCOD8033063
Probable space group: P -1
;
_chemical_formula_sum "Si O2"
_cell_formula_units_Z 16
_cell_length_a 13.173832
_cell_length_b 9.092845
_cell_length_c 11.732017
_cell_angle_alpha 126.166308
_cell_angle_beta 134.470361
_cell_angle_gamma 46.703828
_cell_volume 713.438501
_symmetry_space_group_name_H-M "P -1"
_symmetry_group_IT_number 2
_symmetry_cell_setting 'triclinic'
loop_
_space_group_symop_operation_xyz
x,y,z
-x,-y,-z
loop_
_atom_site_type_symbol
_atom_site_label
_atom_site_fract_x
_atom_site_fract_y
_atom_site_fract_z
Si Si1 0.051259 0.592722 0.683857
Si Si2 0.626988 0.460816 0.179638
Si Si3 0.527814 0.190787 0.592891
Si Si4 0.859591 0.439301 0.845842
Si Si5 0.890041 0.053301 0.827674
Si Si6 0.762086 0.133227 0.307794
Si Si7 0.019120 0.695774 0.351460
Si Si8 0.510222 0.693648 0.639770
O O1 0.235896 0.532599 0.786808
O O2 0.000000 0.500000 0.500000
O O3 0.942836 0.839838 0.705425
O O4 0.024832 0.482392 0.723942
O O5 0.587544 0.614549 0.328919
O O6 0.668830 0.237224 0.164746
O O7 0.500000 0.500000 0.000000
O O8 0.500598 0.197245 0.438391
O O9 0.500000 0.000000 0.500000
O O10 0.702735 0.149229 0.753161
O O11 0.848191 0.401386 0.686478
O O12 0.677375 0.622855 0.812003
O O13 0.912230 0.225400 0.854596
O O14 0.000000 0.500000 0.000000
O O15 0.000000 0.000000 0.000000
O O16 0.893430 0.220573 0.453768
O O17 0.641008 0.176847 0.337984
O O18 0.856099 0.885605 0.259873
O O19 0.500000 0.500000 0.500000
#
# Coordination Sequence:
#
# PCOD8033063 Si02
#       8
#     2   2   2   2   2   2   2   2
#     4  12  26  43  70 103 138 182 237 282 346 423
#     4  12  25  46  68 101 146 182 227 291 359 416
#     4  12  27  44  74 105 138 186 238 290 353 421
#     4  12  26  46  72 104 143 185 233 292 359 418
#     4  12  26  46  71 104 144 185 231 291 353 419
#     4  11  23  44  73 101 136 185 234 289 352 411
#     4  11  24  43  71 102 136 181 236 289 341 419
#     4  12  23  46  74 100 135 181 242 293 342 422
#
# _framework density 22.426601000000002
#
# number of rings (size 3 to 8) (size 9 to 14) (size 15 to 20)
#    0.000    0.250    5.000    3.000    8.750    1.000 
#    0.000    1.250    0.000    0.000    0.000    0.000 
#    0.000    0.000    0.000    0.000    0.000    0.000 
#
# Total GULP energy -198222.564635 kJ/mol
# GULP energy per Si atom -12388.910290 kJ/mol
# Density = 2.237556 g / cm^3
# Si number density = 22.426601 Si / 1000 Ang^3
#
#
#
# Elastic Constant Matrix: (Units=GPa)
#
#
# Indices 1 2 3 4 5 6 
#
# 1 131.5652 57.4008 7.8780 -9.0170 6.1861 22.7333
# 2 57.4008 133.7652 30.2490 -11.6424 10.6223 21.1411
# 3 7.8780 30.2490 60.2216 -16.2600 2.5169 18.3819
# 4 -9.0170 -11.6424 -16.2600 39.5249 4.0421 -1.9610
# 5 6.1861 10.6223 2.5169 4.0421 40.8381 -3.6873
# 6 22.7333 21.1411 18.3819 -1.9610 -3.6873 52.1459
#
#
#
# Elastic Compliance Matrix: (Units=1/GPa)
#
#
# Indices 1 2 3 4 5 6 
#
# 1 0.010019 -0.004005 0.002394 0.002030 -0.001149 -0.003593
# 2 -0.004005 0.010538 -0.004151 0.000633 -0.002048 -0.001184
# 3 0.002394 -0.004151 0.023043 0.008667 -0.002221 -0.007315
# 4 0.002030 0.000633 0.008667 0.029784 -0.004259 -0.003378
# 5 -0.001149 -0.002048 -0.002221 -0.004259 0.026095 0.003799
# 6 -0.003593 -0.001184 -0.007315 -0.003378 0.003799 0.023943
#
#
# Mechanical properties :
#
#
# Convention : Reuss Voigt Hill
#
# Bulk Modulus (GPa) = 31.17687 57.40086 44.28886
# Shear Modulus (GPa) = 34.33169 41.83673 38.08421
#
# Velocity S-wave (km/s) = 3.91685 4.32382 4.12536
# Velocity P-wave (km/s) = 5.86409 7.11181 6.51787
#
# Compressibility (1/GPa) = 0.03207506
#
# Stress axis : x y z
#
# Youngs Moduli (GPa) = 99.81405 94.89536 43.39709
#
# Poissons Ratio (x) = 0.38003 -0.10388
# Poissons Ratio (y) = 0.39973 0.18015
# Poissons Ratio (z) = -0.23892 0.39393
#
# Static dielectric constant tensor:
#      x y z
#    x 3.825820 -0.437970 -0.048480 
#    y -0.437970 3.325260 -0.141170 
#    z -0.048480 -0.141170 3.824760 
# 
# 
# High freq. dielectric constant tensor:
#      x y z
#    x 1.905650 0.004510 0.005970 
#    y 0.004510 1.896340 -0.014000 
#    z 0.005970 -0.014000 1.873950 
# 
# From -- ./inp_files/419811.got.cif
#   From: 2010.06.25/outbox.cif.g09.slc.cpg/sg2_210_cif.got.tgz:419811.got - 2010.06.27 13:26:56.
