data_PCOD8033769
_publ_section_title
;
Structure prediction by ZEFSAII (Michael W. Deem and Ramdas Pophale) SiO2 
 PCOD8033769
Probable space group: P -1
;
_chemical_formula_sum "Si O2"
_cell_formula_units_Z 16
_cell_length_a 16.971855
_cell_length_b 9.186844
_cell_length_c 12.065929
_cell_angle_alpha 51.004679
_cell_angle_beta 31.041411
_cell_angle_gamma 51.058835
_cell_volume 734.972442
_symmetry_space_group_name_H-M "P -1"
_symmetry_group_IT_number 2
_symmetry_cell_setting 'triclinic'
loop_
_space_group_symop_operation_xyz
x,y,z
-x,-y,-z
loop_
_atom_site_type_symbol
_atom_site_label
_atom_site_fract_x
_atom_site_fract_y
_atom_site_fract_z
Si Si1 0.421844 0.720939 0.461044
Si Si2 0.238487 0.585161 0.087838
Si Si3 0.185894 0.924596 0.824505
Si Si4 0.040071 0.398474 0.270931
Si Si5 0.263763 0.179945 0.932517
Si Si6 0.223774 0.309356 0.675698
Si Si7 0.786947 0.220495 0.750654
Si Si8 0.421344 0.611951 0.273721
O O1 0.500000 0.500000 0.500000
O O2 0.264250 0.804055 0.680927
O O3 0.548040 0.849173 0.274146
O O4 0.369323 0.734132 0.389658
O O5 0.092468 0.494668 0.272065
O O6 0.244415 0.611490 0.199996
O O7 0.223422 0.790519 0.950245
O O8 0.392932 0.433549 0.936975
O O9 0.265369 0.104970 0.661136
O O10 0.000000 0.000000 0.000000
O O11 0.932382 0.561012 0.248812
O O12 0.952341 0.229786 0.489932
O O13 0.193235 0.313106 0.056074
O O14 0.195024 0.281834 0.853194
O O15 0.208229 0.981458 0.101535
O O16 0.368578 0.409612 0.435205
O O17 0.651050 0.258389 0.804701
#
# Coordination Sequence:
#
# PCOD8033769 Si02
#       8
#     2   2   2   2   2   2   2   2
#     4  12  24  45  73 101 138 181 228 288 346 402
#     4  12  22  46  71  94 143 181 228 278 349 408
#     4  12  25  42  71 112 137 173 230 291 345 402
#     4  11  24  45  67 100 139 185 226 281 348 405
#     4  12  23  44  71 100 138 180 231 287 338 406
#     4  11  24  41  72 104 135 175 230 287 342 408
#     4  11  27  43  65 103 138 183 230 281 338 411
#     4  11  25  47  70 100 136 182 232 279 345 412
#
# _framework density 21.769525000000002
#
# number of rings (size 3 to 8) (size 9 to 14) (size 15 to 20)
#    0.000    0.500    6.250    1.500    1.750    3.500 
#    2.250    0.000    0.000    0.000    0.000    0.000 
#    0.000    0.000    0.000    0.000    0.000    0.000 
#
# Total GULP energy -198476.889028 kJ/mol
# GULP energy per Si atom -12404.805564 kJ/mol
# Density = 2.171998 g / cm^3
# Si number density = 21.769525 Si / 1000 Ang^3
#
#
#
# Elastic Constant Matrix: (Units=GPa)
#
#
# Indices 1 2 3 4 5 6 
#
# 1 146.0077 23.4242 39.4286 9.9631 4.4027 6.1894
# 2 23.4242 63.4216 30.9637 8.4558 -4.4270 11.1912
# 3 39.4286 30.9637 87.0426 8.7729 -5.1792 -7.2708
# 4 9.9631 8.4558 8.7729 45.5867 7.2686 2.5391
# 5 4.4027 -4.4270 -5.1792 7.2686 39.3545 1.2347
# 6 6.1894 11.1912 -7.2708 2.5391 1.2347 34.4377
#
#
#
# Elastic Compliance Matrix: (Units=1/GPa)
#
#
# Indices 1 2 3 4 5 6 
#
# 1 0.008105 -0.000988 -0.003485 -0.000610 -0.001308 -0.001780
# 2 -0.000988 0.021817 -0.007660 -0.002243 0.002236 -0.008444
# 3 -0.003485 -0.007660 0.016628 -0.001680 0.001817 0.006685
# 4 -0.000610 -0.002243 -0.001680 0.023624 -0.004734 -0.001088
# 5 -0.001308 0.002236 0.001817 -0.004734 0.026944 -0.000725
# 6 -0.001780 -0.008444 0.006685 -0.001088 -0.000725 0.033620
#
#
# Mechanical properties :
#
#
# Convention : Reuss Voigt Hill
#
# Bulk Modulus (GPa) = 44.87410 53.78942 49.33176
# Shear Modulus (GPa) = 30.78212 37.38612 34.08412
#
# Velocity S-wave (km/s) = 3.76440 4.14860 3.96116
# Velocity P-wave (km/s) = 6.28906 6.90725 6.60539
#
# Compressibility (1/GPa) = 0.02228457
#
# Stress axis : x y z
#
# Youngs Moduli (GPa) = 123.37981 45.83521 60.14007
#
# Poissons Ratio (x) = 0.04529 0.20959
# Poissons Ratio (y) = 0.12191 0.46066
# Poissons Ratio (z) = 0.42997 0.35109
#
# Static dielectric constant tensor:
#      x y z
#    x 4.078820 0.092700 0.017200 
#    y 0.092700 3.812250 -0.121210 
#    z 0.017200 -0.121210 4.014410 
# 
# 
# High freq. dielectric constant tensor:
#      x y z
#    x 1.871200 0.010850 -0.000510 
#    y 0.010850 1.845100 -0.004600 
#    z -0.000510 -0.004600 1.859490 
# 
# From -- ./inp_files/185809.got.cif
#   From: 2010.06.25/outbox.cif.g09.slc.cpg/sg2_93_cif.got.tgz:185809.got - 2010.06.27 13:26:56.
