data_PCOD8033017
_publ_section_title
;
Structure prediction by ZEFSAII (Michael W. Deem and Ramdas Pophale) SiO2 
 PCOD8033017
Probable space group: P -1
;
_chemical_formula_sum "Si O2"
_cell_formula_units_Z 14
_cell_length_a 5.772382
_cell_length_b 24.920569
_cell_length_c 11.908090
_cell_angle_alpha 25.927892
_cell_angle_beta 81.240930
_cell_angle_gamma 65.689636
_cell_volume 571.405864
_symmetry_space_group_name_H-M "P -1"
_symmetry_group_IT_number 2
_symmetry_cell_setting 'triclinic'
loop_
_space_group_symop_operation_xyz
x,y,z
-x,-y,-z
loop_
_atom_site_type_symbol
_atom_site_label
_atom_site_fract_x
_atom_site_fract_y
_atom_site_fract_z
Si Si1 0.162894 0.201484 0.727187
Si Si2 0.143818 0.589114 0.847580
Si Si3 0.587621 0.084054 0.258781
Si Si4 0.573070 0.322965 0.933508
Si Si5 0.700405 0.106289 0.752426
Si Si6 0.972414 0.351081 0.691116
Si Si7 0.878804 0.220479 0.334397
O O1 0.422482 0.218261 0.650139
O O2 0.935293 0.288272 0.476026
O O3 0.973231 0.282201 0.702133
O O4 0.332877 0.014559 0.078564
O O5 0.003724 0.690117 0.785902
O O6 0.500000 0.500000 0.000000
O O7 0.000000 0.500000 0.000000
O O8 0.500000 0.000000 0.500000
O O9 0.699558 0.147714 0.219666
O O10 0.839862 0.957502 0.389987
O O11 0.318189 0.242179 0.912860
O O12 0.774075 0.350850 0.798343
O O13 0.209561 0.460175 0.675189
O O14 0.642740 0.324398 0.056179
O O15 0.685646 0.214014 0.455591
O O16 0.000000 0.000000 0.000000
#
# Coordination Sequence:
#
# PCOD8033017 Si02
#       7
#     2   2   2   2   2   2   2
#     4  11  25  43  73 107 148 204 250 316 388 467
#     4  12  28  51  74 114 158 207 258 320 396 478
#     4  12  26  44  74 113 144 195 260 314 378 455
#     4  11  26  50  73 109 151 200 249 318 387 455
#     4  11  23  44  71 108 151 190 258 320 387 451
#     4  11  25  48  72 105 153 198 250 311 390 455
#     4  12  25  48  81 109 149 199 256 325 381 464
#
# _framework density 24.500973999999999
#
# number of rings (size 3 to 8) (size 9 to 14) (size 15 to 20)
#    0.000    0.571    2.857    4.286    4.000    2.286 
#    5.143    0.000    0.000    0.000    0.000    0.000 
#    0.000    0.000    0.000    0.000    0.000    0.000 
#
# Total GULP energy -173438.482954 kJ/mol
# GULP energy per Si atom -12388.463068 kJ/mol
# Density = 2.444521 g / cm^3
# Si number density = 24.500974 Si / 1000 Ang^3
#
#
#
# Elastic Constant Matrix: (Units=GPa)
#
#
# Indices 1 2 3 4 5 6 
#
# 1 94.5872 29.7250 43.1694 2.4475 0.3849 8.7442
# 2 29.7250 120.7934 48.8199 16.0437 -7.9089 22.1530
# 3 43.1694 48.8199 133.4473 6.9917 14.3631 9.1544
# 4 2.4475 16.0437 6.9917 49.7270 3.0982 -7.4161
# 5 0.3849 -7.9089 14.3631 3.0982 52.2997 -9.6668
# 6 8.7442 22.1530 9.1544 -7.4161 -9.6668 42.4358
#
#
#
# Elastic Compliance Matrix: (Units=1/GPa)
#
#
# Indices 1 2 3 4 5 6 
#
# 1 0.012758 -0.001524 -0.003568 0.000199 0.000473 -0.000921
# 2 -0.001524 0.011688 -0.003414 -0.004133 0.001977 -0.005323
# 3 -0.003568 -0.003414 0.010298 -0.000031 -0.003406 -0.000486
# 4 0.000199 -0.004133 -0.000031 0.022362 -0.000864 0.005834
# 5 0.000473 0.001977 -0.003406 -0.000864 0.021194 0.004282
# 6 -0.000921 -0.005323 -0.000486 0.005834 0.004282 0.028633
#
#
# Mechanical properties :
#
#
# Convention : Reuss Voigt Hill
#
# Bulk Modulus (GPa) = 56.39354 65.80628 61.09991
# Shear Modulus (GPa) = 38.50439 44.03340 41.26889
#
# Velocity S-wave (km/s) = 3.96857 4.24395 4.10857
# Velocity P-wave (km/s) = 6.63824 7.13665 6.89195
#
# Compressibility (1/GPa) = 0.01773253
#
# Stress axis : x y z
#
# Youngs Moduli (GPa) = 78.38514 85.55741 97.10401
#
# Poissons Ratio (x) = 0.13038 0.34643
# Poissons Ratio (y) = 0.11945 0.33152
# Poissons Ratio (z) = 0.27965 0.29210
#
# Static dielectric constant tensor:
#      x y z
#    x 4.508520 0.176840 -0.091280 
#    y 0.176840 4.627530 -0.275960 
#    z -0.091280 -0.275960 5.377900 
# 
# 
# High freq. dielectric constant tensor:
#      x y z
#    x 1.961690 0.003000 0.009160 
#    y 0.003000 1.984050 -0.003330 
#    z 0.009160 -0.003330 1.997900 
# 
# From -- ./inp_files/360809.got.cif
#   From: 2010.06.25/outbox.cif.g09.slc.cpg/sg2_181_cif.got.tgz:360809.got - 2010.06.27 13:26:56.
