data_PCOD8033098
_publ_section_title
;
Structure prediction by ZEFSAII (Michael W. Deem and Ramdas Pophale) SiO2 
 PCOD8033098
Probable space group: P -1
;
_chemical_formula_sum "Si O2"
_cell_formula_units_Z 16
_cell_length_a 8.690925
_cell_length_b 10.272609
_cell_length_c 14.540784
_cell_angle_alpha 135.180069
_cell_angle_beta 91.894757
_cell_angle_gamma 112.915114
_cell_volume 741.092869
_symmetry_space_group_name_H-M "P -1"
_symmetry_group_IT_number 2
_symmetry_cell_setting 'triclinic'
loop_
_space_group_symop_operation_xyz
x,y,z
-x,-y,-z
loop_
_atom_site_type_symbol
_atom_site_label
_atom_site_fract_x
_atom_site_fract_y
_atom_site_fract_z
Si Si1 0.173449 0.482750 0.990899
Si Si2 0.817133 0.449795 0.635842
Si Si3 0.261520 0.707727 0.775358
Si Si4 0.699917 0.557190 0.507145
Si Si5 0.526580 0.216469 0.998548
Si Si6 0.377813 0.510020 0.187976
Si Si7 0.041385 0.985390 0.347441
Si Si8 0.243656 0.994389 0.528636
O O1 0.355196 0.693023 0.047615
O O2 0.236280 0.489207 0.098613
O O3 0.111117 0.254309 0.822712
O O4 0.000000 0.500000 0.000000
O O5 0.767099 0.456064 0.532700
O O6 0.733218 0.554938 0.749895
O O7 0.717294 0.191418 0.539270
O O8 0.041218 0.595734 0.721170
O O9 0.308419 0.551004 0.645243
O O10 0.328775 0.735147 0.894398
O O11 0.367357 0.948990 0.847015
O O12 0.500000 0.500000 0.500000
O O13 0.844524 0.830395 0.638680
O O14 0.418751 0.327918 0.075444
O O15 0.572455 0.759327 0.319885
O O16 0.933597 0.063392 0.443567
O O17 0.188029 0.975608 0.410505
#
# Coordination Sequence:
#
# PCOD8033098 Si02
#       8
#     2   2   2   2   2   2   2   2
#     4  12  27  44  70 101 139 177 229 279 338 403
#     4  12  26  44  71 100 138 178 229 279 338 403
#     4  11  25  45  69  98 139 178 221 278 340 405
#     4  12  27  44  70 101 139 177 229 279 338 403
#     4  11  25  45  69  98 139 178 221 278 340 405
#     4  12  26  44  71 100 138 178 229 279 338 403
#     4  11  24  44  73 102 135 178 227 284 339 397
#     4  11  23  44  74 100 136 176 228 287 337 396
#
# _framework density 21.589737
#
# number of rings (size 3 to 8) (size 9 to 14) (size 15 to 20)
#    0.000    0.500    2.500    5.625    5.250    0.500 
#    0.000    0.000    0.000    0.000    0.000    0.000 
#    0.000    0.000    0.000    0.000    0.000    0.000 
#
# Total GULP energy -198536.507164 kJ/mol
# GULP energy per Si atom -12408.531698 kJ/mol
# Density = 2.154060 g / cm^3
# Si number density = 21.589737 Si / 1000 Ang^3
#
#
#
# Elastic Constant Matrix: (Units=GPa)
#
#
# Indices 1 2 3 4 5 6 
#
# 1 109.0643 15.5162 5.6540 10.6945 -0.6840 11.6569
# 2 15.5162 93.5977 21.6513 12.0680 0.6685 -4.0677
# 3 5.6540 21.6513 66.3595 6.3736 13.6945 2.3348
# 4 10.6945 12.0680 6.3736 35.0595 0.0719 3.1933
# 5 -0.6840 0.6685 13.6945 0.0719 33.7074 -9.6053
# 6 11.6569 -4.0677 2.3348 3.1933 -9.6053 38.6717
#
#
#
# Elastic Compliance Matrix: (Units=1/GPa)
#
#
# Indices 1 2 3 4 5 6 
#
# 1 0.009931 -0.001517 0.000122 -0.002240 -0.000711 -0.003152
# 2 -0.001517 0.012437 -0.004171 -0.003324 0.002235 0.002847
# 3 0.000122 -0.004171 0.018435 -0.001613 -0.008411 -0.003544
# 4 -0.002240 -0.003324 -0.001613 0.030837 0.000005 -0.002122
# 5 -0.000711 0.002235 -0.008411 0.000005 0.035834 0.009857
# 6 -0.003152 0.002847 -0.003544 -0.002122 0.009857 0.029946
#
#
# Mechanical properties :
#
#
# Convention : Reuss Voigt Hill
#
# Bulk Modulus (GPa) = 33.70417 39.40718 36.55568
# Shear Modulus (GPa) = 31.55721 36.56772 34.06246
#
# Velocity S-wave (km/s) = 3.82734 4.11999 3.97636
# Velocity P-wave (km/s) = 5.93097 6.39725 6.16852
#
# Compressibility (1/GPa) = 0.02966992
#
# Stress axis : x y z
#
# Youngs Moduli (GPa) = 100.69886 80.40744 54.24390
#
# Poissons Ratio (x) = 0.12202 -0.00661
# Poissons Ratio (y) = 0.15281 0.22624
# Poissons Ratio (z) = -0.01227 0.33536
#
# Static dielectric constant tensor:
#      x y z
#    x 3.940680 0.015970 -0.032510 
#    y 0.015970 3.976070 0.033180 
#    z -0.032510 0.033180 3.971800 
# 
# 
# High freq. dielectric constant tensor:
#      x y z
#    x 1.862310 0.001870 0.003700 
#    y 0.001870 1.859280 0.001600 
#    z 0.003700 0.001600 1.852010 
# 
# From -- ./inp_files/495742.got.cif
#   From: 2010.06.25/outbox.cif.g09.slc.cpg/sg2_248_cif.got.tgz:495742.got - 2010.06.27 13:26:56.
