data_PCOD8033414
_publ_section_title
;
Structure prediction by ZEFSAII (Michael W. Deem and Ramdas Pophale) SiO2 
 PCOD8033414
Probable space group: P -1
;
_chemical_formula_sum "Si O2"
_cell_formula_units_Z 16
_cell_length_a 23.530836
_cell_length_b 7.895932
_cell_length_c 7.458050
_cell_angle_alpha 126.114685
_cell_angle_beta 125.156279
_cell_angle_gamma 36.271677
_cell_volume 647.418605
_symmetry_space_group_name_H-M "P -1"
_symmetry_group_IT_number 2
_symmetry_cell_setting 'triclinic'
loop_
_space_group_symop_operation_xyz
x,y,z
-x,-y,-z
loop_
_atom_site_type_symbol
_atom_site_label
_atom_site_fract_x
_atom_site_fract_y
_atom_site_fract_z
Si Si1 0.407205 0.319809 0.597829
Si Si2 0.689054 0.080030 0.347020
Si Si3 0.505726 0.217382 0.063573
Si Si4 0.752726 0.647276 0.746845
Si Si5 0.100915 0.271305 0.430564
Si Si6 0.806053 0.288969 0.964962
Si Si7 0.672566 0.199266 0.775176
Si Si8 0.896607 0.321945 0.494942
O O1 0.365485 0.579860 0.546370
O O2 0.436504 0.379074 0.865702
O O3 0.327100 0.315072 0.483768
O O4 0.500000 0.000000 0.500000
O O5 0.697681 0.002828 0.525098
O O6 0.802879 0.870555 0.357350
O O7 0.618332 0.048026 0.116941
O O8 0.445942 0.514326 0.259188
O O9 0.500000 0.000000 0.000000
O O10 0.762478 0.556320 0.915237
O O11 0.848978 0.392330 0.647172
O O12 0.717035 0.968808 0.879429
O O13 0.091379 0.455791 0.367971
O O14 0.000000 0.500000 0.500000
O O15 0.115666 0.014753 0.199246
O O16 0.723653 0.316433 0.919882
O O17 0.846941 0.329718 0.232452
O O18 0.000000 0.000000 0.500000
#
# Coordination Sequence:
#
# PCOD8033414 Si02
#       8
#     2   2   2   2   2   2   2   2
#     4  12  25  43  69 108 153 195 254 305 380 463
#     4  11  23  46  70 105 152 193 253 315 378 460
#     4  12  26  41  71 108 152 204 249 314 388 461
#     4  12  24  50  77 110 152 204 253 322 384 464
#     4  11  25  50  77 113 154 201 263 328 382 459
#     4  11  26  51  79 112 155 202 256 323 395 459
#     4  11  23  48  72 110 149 194 258 309 384 469
#     4  12  28  49  80 115 153 198 268 324 395 464
#
# _framework density 24.713529000000001
#
# number of rings (size 3 to 8) (size 9 to 14) (size 15 to 20)
#    0.000    0.500    5.000    4.500    1.750    3.500 
#    4.500    0.000    0.000    0.000    0.000    0.000 
#    0.000    0.000    0.000    0.000    0.000    0.000 
#
# Total GULP energy -198252.985125 kJ/mol
# GULP energy per Si atom -12390.811570 kJ/mol
# Density = 2.465728 g / cm^3
# Si number density = 24.713529 Si / 1000 Ang^3
#
#
#
# Elastic Constant Matrix: (Units=GPa)
#
#
# Indices 1 2 3 4 5 6 
#
# 1 138.7014 69.6993 28.5999 -7.0554 14.6686 1.5916
# 2 69.6993 157.9880 16.3627 2.0746 10.6779 3.7559
# 3 28.5999 16.3627 74.2130 -13.1764 7.2631 1.0909
# 4 -7.0554 2.0746 -13.1764 42.2155 1.0508 -0.1370
# 5 14.6686 10.6779 7.2631 1.0508 23.0717 -2.0443
# 6 1.5916 3.7559 1.0909 -0.1370 -2.0443 62.0447
#
#
#
# Elastic Compliance Matrix: (Units=1/GPa)
#
#
# Indices 1 2 3 4 5 6 
#
# 1 0.010202 -0.003995 -0.002445 0.001236 -0.003933 -0.000104
# 2 -0.003995 0.008232 -0.000363 -0.001159 -0.001141 -0.000430
# 3 -0.002445 -0.000363 0.015651 0.004579 -0.003439 -0.000294
# 4 0.001236 -0.001159 0.004579 0.025452 -0.002857 -0.000080
# 5 -0.003933 -0.001141 -0.003439 -0.002857 0.047744 0.001797
# 6 -0.000104 -0.000430 -0.000294 -0.000080 0.001797 0.016210
#
#
# Mechanical properties :
#
#
# Convention : Reuss Voigt Hill
#
# Bulk Modulus (GPa) = 48.83208 66.69180 57.76194
# Shear Modulus (GPa) = 34.74094 42.54907 38.64501
#
# Velocity S-wave (km/s) = 3.75340 4.15383 3.95868
# Velocity P-wave (km/s) = 6.21177 7.07462 6.65719
#
# Compressibility (1/GPa) = 0.02047834
#
# Stress axis : x y z
#
# Youngs Moduli (GPa) = 98.02473 121.47183 63.89455
#
# Poissons Ratio (x) = 0.48532 0.15620
# Poissons Ratio (y) = 0.39164 0.02320
# Poissons Ratio (z) = 0.23964 0.04411
#
# Static dielectric constant tensor:
#      x y z
#    x 4.057560 0.075280 0.677870 
#    y 0.075280 4.867300 -0.150390 
#    z 0.677870 -0.150390 3.732320 
# 
# 
# High freq. dielectric constant tensor:
#      x y z
#    x 1.991960 0.005050 0.001440 
#    y 0.005050 2.007850 0.010190 
#    z 0.001440 0.010190 1.970470 
# 
# From -- ./inp_files/356544.got.cif
#   From: 2010.06.25/outbox.cif.g09.slc.cpg/sg2_179_cif.got.tgz:356544.got - 2010.06.27 13:26:56.
