data_PCOD8033007
_publ_section_title
;
Structure prediction by ZEFSAII (Michael W. Deem and Ramdas Pophale) SiO2 
 PCOD8033007
Probable space group: P -1
;
_chemical_formula_sum "Si O2"
_cell_formula_units_Z 16
_cell_length_a 14.574824
_cell_length_b 17.861862
_cell_length_c 11.516609
_cell_angle_alpha 127.228324
_cell_angle_beta 32.524655
_cell_angle_gamma 150.234997
_cell_volume 703.993567
_symmetry_space_group_name_H-M "P -1"
_symmetry_group_IT_number 2
_symmetry_cell_setting 'triclinic'
loop_
_space_group_symop_operation_xyz
x,y,z
-x,-y,-z
loop_
_atom_site_type_symbol
_atom_site_label
_atom_site_fract_x
_atom_site_fract_y
_atom_site_fract_z
Si Si1 0.242323 0.734428 0.415571
Si Si2 0.960797 0.059795 0.001707
Si Si3 0.153707 0.308530 0.660559
Si Si4 0.278449 0.258739 0.267108
Si Si5 0.178302 0.298031 0.172799
Si Si6 0.138891 0.103107 0.607254
Si Si7 0.204161 0.669372 0.874869
Si Si8 0.962606 0.537578 0.762781
O O1 0.111954 0.597668 0.338188
O O2 0.101811 0.765431 0.544439
O O3 0.116232 0.668596 0.619637
O O4 0.611473 0.907289 0.183923
O O5 0.082326 0.211673 0.070673
O O6 0.180078 0.139829 0.734591
O O7 0.000000 0.000000 0.000000
O O8 0.500000 0.500000 0.500000
O O9 0.133178 0.277116 0.514788
O O10 0.081753 0.176888 0.677425
O O11 0.903380 0.273342 0.927819
O O12 0.205893 0.232300 0.182241
O O13 0.648325 0.437589 0.055518
O O14 0.153039 0.100292 0.298642
O O15 0.500000 0.500000 0.000000
O O16 0.446420 0.188032 0.318810
O O17 0.196489 0.644038 0.721525
O O18 0.000000 0.500000 0.000000
#
# Coordination Sequence:
#
# PCOD8033007 Si02
#       8
#     2   2   2   2   2   2   2   2
#     4  11  25  43  72 105 144 193 234 292 363 440
#     4  12  25  48  71 105 148 186 236 296 372 426
#     4  12  27  48  77 103 141 194 244 299 367 427
#     4  12  25  50  69 107 146 190 240 299 361 425
#     4  12  27  42  72 109 148 188 240 298 359 441
#     4  12  27  48  77 104 148 188 241 311 357 430
#     4  12  27  46  75 108 140 188 245 300 363 434
#     4  11  23  44  71 102 146 187 236 290 363 429
#
# _framework density 22.72748
#
# number of rings (size 3 to 8) (size 9 to 14) (size 15 to 20)
#    0.000    0.250    6.250    1.500    8.750    1.500 
#    0.000    0.000    0.000    0.000    0.000    0.000 
#    0.000    0.000    0.000    0.000    0.000    0.000 
#
# Total GULP energy -198404.223746 kJ/mol
# GULP energy per Si atom -12400.263984 kJ/mol
# Density = 2.267575 g / cm^3
# Si number density = 22.727480 Si / 1000 Ang^3
#
#
#
# Elastic Constant Matrix: (Units=GPa)
#
#
# Indices 1 2 3 4 5 6 
#
# 1 63.9113 19.8345 31.4666 10.2791 0.1509 -8.6810
# 2 19.8345 98.7871 31.7908 11.2218 3.4173 -7.3688
# 3 31.4666 31.7908 127.9593 9.5762 -9.8034 -9.4493
# 4 10.2791 11.2218 9.5762 42.0512 4.1099 5.8240
# 5 0.1509 3.4173 -9.8034 4.1099 46.7645 8.9653
# 6 -8.6810 -7.3688 -9.4493 5.8240 8.9653 36.9135
#
#
#
# Elastic Compliance Matrix: (Units=1/GPa)
#
#
# Indices 1 2 3 4 5 6 
#
# 1 0.019252 -0.001877 -0.003773 -0.003796 -0.001162 0.004068
# 2 -0.001877 0.011683 -0.002234 -0.002286 -0.001507 0.002046
# 3 -0.003773 -0.002234 0.009590 -0.000978 0.002126 0.000760
# 4 -0.003796 -0.002286 -0.000978 0.026424 -0.001303 -0.005452
# 5 -0.001162 -0.001507 0.002126 -0.001303 0.023100 -0.005435
# 6 0.004068 0.002046 0.000760 -0.005452 -0.005435 0.030830
#
#
# Mechanical properties :
#
#
# Convention : Reuss Voigt Hill
#
# Bulk Modulus (GPa) = 40.39060 50.76017 45.57538
# Shear Modulus (GPa) = 34.50672 38.98356 36.74514
#
# Velocity S-wave (km/s) = 3.90074 4.14606 4.02527
# Velocity P-wave (km/s) = 6.17236 6.73072 6.45757
#
# Compressibility (1/GPa) = 0.02475824
#
# Stress axis : x y z
#
# Youngs Moduli (GPa) = 51.94155 85.59395 104.27441
#
# Poissons Ratio (x) = 0.16062 0.39339
# Poissons Ratio (y) = 0.09747 0.23300
# Poissons Ratio (z) = 0.19596 0.19126
#
# Static dielectric constant tensor:
#      x y z
#    x 4.124870 0.066990 0.139110 
#    y 0.066990 4.186640 0.154840 
#    z 0.139110 0.154840 4.361130 
# 
# 
# High freq. dielectric constant tensor:
#      x y z
#    x 1.897340 0.004950 0.008070 
#    y 0.004950 1.904080 0.006590 
#    z 0.008070 0.006590 1.908130 
# 
# From -- ./inp_files/226732.got.cif
#   From: 2010.06.25/outbox.cif.g09.slc.cpg/sg2_114_cif.got.tgz:226732.got - 2010.06.27 13:26:56.
