data_PCOD8033563
_publ_section_title
;
Structure prediction by ZEFSAII (Michael W. Deem and Ramdas Pophale) SiO2 
 PCOD8033563
Probable space group: P -1
;
_chemical_formula_sum "Si O2"
_cell_formula_units_Z 16
_cell_length_a 8.750640
_cell_length_b 8.679505
_cell_length_c 12.738140
_cell_angle_alpha 83.675569
_cell_angle_beta 130.905230
_cell_angle_gamma 100.222791
_cell_volume 719.581474
_symmetry_space_group_name_H-M "P -1"
_symmetry_group_IT_number 2
_symmetry_cell_setting 'triclinic'
loop_
_space_group_symop_operation_xyz
x,y,z
-x,-y,-z
loop_
_atom_site_type_symbol
_atom_site_label
_atom_site_fract_x
_atom_site_fract_y
_atom_site_fract_z
Si Si1 0.101234 0.197200 0.154598
Si Si2 0.282025 0.703661 0.133857
Si Si3 0.789102 0.935094 0.122338
Si Si4 0.958319 0.445224 0.369708
Si Si5 0.611992 0.607445 0.129301
Si Si6 0.282138 0.476060 0.346501
Si Si7 0.146074 0.907697 0.640426
Si Si8 0.588549 0.953997 0.822509
O O1 0.216429 0.295408 0.294944
O O2 0.264505 0.167252 0.142145
O O3 0.999847 0.024731 0.161402
O O4 0.935692 0.297950 0.022406
O O5 0.451002 0.674510 0.126652
O O6 0.275364 0.576566 0.231011
O O7 0.345856 0.871331 0.205070
O O8 0.775164 0.747782 0.144123
O O9 0.772351 0.005031 0.224231
O O10 0.606662 0.963034 0.958042
O O11 0.733353 0.485656 0.250434
O O12 0.972688 0.262126 0.377791
O O13 0.000000 0.500000 0.500000
O O14 0.121096 0.529193 0.353365
O O15 0.500000 0.500000 0.000000
O O16 0.500000 0.500000 0.500000
O O17 0.361288 0.894408 0.680692
O O18 0.000000 0.000000 0.500000
#
# Coordination Sequence:
#
# PCOD8033563 Si02
#       8
#     2   2   2   2   2   2   2   2
#     4  11  26  48  72 105 144 188 246 294 359 431
#     4  11  25  47  71 106 145 188 235 301 361 425
#     4  11  23  47  72 105 141 189 241 302 354 412
#     4  12  28  48  71 106 142 190 242 288 362 436
#     4  12  26  42  76 110 143 185 243 295 359 423
#     4  12  28  47  72 101 152 190 234 299 366 430
#     4  12  26  48  75 100 144 191 242 303 352 421
#     4  11  26  44  76 103 142 186 246 297 358 428
#
# _framework density 22.235144999999999
#
# number of rings (size 3 to 8) (size 9 to 14) (size 15 to 20)
#    0.000    0.500    2.500    5.250   14.000    0.000 
#    0.000    1.250    0.000    0.000    0.000    0.000 
#    0.000    0.000    0.000    0.000    0.000    0.000 
#
# Total GULP energy -198345.120871 kJ/mol
# GULP energy per Si atom -12396.570054 kJ/mol
# Density = 2.218454 g / cm^3
# Si number density = 22.235145 Si / 1000 Ang^3
#
#
#
# Elastic Constant Matrix: (Units=GPa)
#
#
# Indices 1 2 3 4 5 6 
#
# 1 127.8180 36.6518 77.5090 -6.0140 11.7413 -9.9227
# 2 36.6518 125.0456 62.0564 -0.1703 -5.3444 4.7215
# 3 77.5090 62.0564 159.5665 5.2963 16.1960 -3.9703
# 4 -6.0140 -0.1703 5.2963 40.3107 -4.9760 1.8580
# 5 11.7413 -5.3444 16.1960 -4.9760 40.6426 -4.4956
# 6 -9.9227 4.7215 -3.9703 1.8580 -4.4956 35.1874
#
#
#
# Elastic Compliance Matrix: (Units=1/GPa)
#
#
# Indices 1 2 3 4 5 6 
#
# 1 0.011636 -0.000963 -0.005198 0.002189 -0.000861 0.002598
# 2 -0.000963 0.010466 -0.003997 0.000898 0.003161 -0.001770
# 3 -0.005198 -0.003997 0.010806 -0.002662 -0.003660 -0.000037
# 4 0.002189 0.000898 -0.002662 0.025970 0.003648 -0.000709
# 5 -0.000861 0.003161 -0.003660 0.003648 0.027421 0.002231
# 6 0.002598 -0.001770 -0.000037 -0.000709 0.002231 0.029708
#
#
# Mechanical properties :
#
#
# Convention : Reuss Voigt Hill
#
# Bulk Modulus (GPa) = 79.42362 84.98494 82.20428
# Shear Modulus (GPa) = 35.58202 38.97568 37.27885
#
# Velocity S-wave (km/s) = 4.00466 4.19129 4.09904
# Velocity P-wave (km/s) = 7.56178 7.85662 7.71061
#
# Compressibility (1/GPa) = 0.01259071
#
# Stress axis : x y z
#
# Youngs Moduli (GPa) = 85.94270 95.54483 92.54510
#
# Poissons Ratio (x) = 0.09198 0.48106
# Poissons Ratio (y) = 0.08274 0.36995
# Poissons Ratio (z) = 0.44674 0.38194
#
# Static dielectric constant tensor:
#      x y z
#    x 4.008800 0.092850 0.036720 
#    y 0.092850 4.235010 0.144150 
#    z 0.036720 0.144150 3.993440 
# 
# 
# High freq. dielectric constant tensor:
#      x y z
#    x 1.881120 0.004950 0.003430 
#    y 0.004950 1.885180 0.006990 
#    z 0.003430 0.006990 1.875870 
# 
# From -- ./inp_files/208686.got.cif
#   From: 2010.06.25/outbox.cif.g09.slc.cpg/sg2_105_cif.got.tgz:208686.got - 2010.06.27 13:26:56.
