data_PCOD8033225
_publ_section_title
;
Structure prediction by ZEFSAII (Michael W. Deem and Ramdas Pophale) SiO2 
 PCOD8033225
Probable space group: P -1
;
_chemical_formula_sum "Si O2"
_cell_formula_units_Z 14
_cell_length_a 17.784701
_cell_length_b 14.577633
_cell_length_c 5.235452
_cell_angle_alpha 54.087703
_cell_angle_beta 67.552939
_cell_angle_gamma 35.123924
_cell_volume 618.375316
_symmetry_space_group_name_H-M "P -1"
_symmetry_group_IT_number 2
_symmetry_cell_setting 'triclinic'
loop_
_space_group_symop_operation_xyz
x,y,z
-x,-y,-z
loop_
_atom_site_type_symbol
_atom_site_label
_atom_site_fract_x
_atom_site_fract_y
_atom_site_fract_z
Si Si1 0.890370 0.837074 0.306466
Si Si2 0.872589 0.614764 0.807235
Si Si3 0.318412 0.587697 0.916165
Si Si4 0.544100 0.641870 0.371221
Si Si5 0.243922 0.923744 0.401778
Si Si6 0.835433 0.457823 0.759112
Si Si7 0.632482 0.784368 0.131815
O O1 0.855838 0.743521 0.438002
O O2 0.051194 0.678865 0.384683
O O3 0.824539 0.940286 0.492268
O O4 0.840493 0.968719 0.922518
O O5 0.903152 0.463641 0.871886
O O6 0.734285 0.754874 0.908070
O O7 0.000000 0.500000 0.000000
O O8 0.428355 0.460057 0.755634
O O9 0.250937 0.783866 0.683471
O O10 0.384435 0.495769 0.256284
O O11 0.202112 0.624361 0.951292
O O12 0.387889 0.820098 0.339097
O O13 0.598293 0.708964 0.138691
O O14 0.700025 0.668552 0.496436
O O15 0.500000 0.000000 0.000000
#
# Coordination Sequence:
#
# PCOD8033225 Si02
#       7
#     2   2   2   2   2   2   2
#     4  12  27  42  71 102 144 186 241 288 355 419
#     4  12  24  46  71  98 143 191 234 287 363 426
#     4  11  24  46  74  99 143 187 236 296 357 415
#     4  11  23  45  70 104 143 183 238 292 361 417
#     4  12  26  45  71 107 138 189 241 295 343 430
#     4  11  26  45  69 102 140 189 233 291 363 421
#     4  11  25  42  70 104 142 184 234 296 354 427
#
# _framework density 22.639973000000001
#
# number of rings (size 3 to 8) (size 9 to 14) (size 15 to 20)
#    0.000    0.571    2.857    4.714    4.000    2.857 
#    0.000    0.000    0.000    0.000    0.000    0.000 
#    0.000    0.000    0.000    0.000    0.000    0.000 
#
# Total GULP energy -173633.814654 kJ/mol
# GULP energy per Si atom -12402.415332 kJ/mol
# Density = 2.258844 g / cm^3
# Si number density = 22.639973 Si / 1000 Ang^3
#
#
#
# Elastic Constant Matrix: (Units=GPa)
#
#
# Indices 1 2 3 4 5 6 
#
# 1 96.7271 43.8217 29.9316 -3.0601 -11.2984 -15.2819
# 2 43.8217 132.3075 34.3467 10.7216 -3.5053 -25.8068
# 3 29.9316 34.3467 110.0184 -3.6743 -4.2370 -11.9561
# 4 -3.0601 10.7216 -3.6743 40.4425 2.3191 1.7186
# 5 -11.2984 -3.5053 -4.2370 2.3191 34.2410 8.7801
# 6 -15.2819 -25.8068 -11.9561 1.7186 8.7801 34.7847
#
#
#
# Elastic Compliance Matrix: (Units=1/GPa)
#
#
# Indices 1 2 3 4 5 6 
#
# 1 0.013300 -0.003579 -0.002157 0.001506 0.003256 0.001551
# 2 -0.003579 0.010693 -0.001858 -0.003445 -0.001704 0.006323
# 3 -0.002157 -0.001858 0.010427 0.001226 -0.000002 0.001198
# 4 0.001506 -0.003445 0.001226 0.026020 -0.000811 -0.002554
# 5 0.003256 -0.001704 -0.000002 -0.000811 0.032190 -0.007920
# 6 0.001551 0.006323 0.001198 -0.002554 -0.007920 0.036657
#
#
# Mechanical properties :
#
#
# Convention : Reuss Voigt Hill
#
# Bulk Modulus (GPa) = 51.99445 61.69477 56.84461
# Shear Modulus (GPa) = 33.13747 37.29051 35.21399
#
# Velocity S-wave (km/s) = 3.82995 4.06286 3.94812
# Velocity P-wave (km/s) = 6.52485 7.02273 6.77836
#
# Compressibility (1/GPa) = 0.01923282
#
# Stress axis : x y z
#
# Youngs Moduli (GPa) = 75.18803 93.51806 95.90127
#
# Poissons Ratio (x) = 0.33466 0.20686
# Poissons Ratio (y) = 0.26906 0.17821
# Poissons Ratio (z) = 0.16218 0.17378
#
# Static dielectric constant tensor:
#      x y z
#    x 4.273160 -0.086260 -0.283160 
#    y -0.086260 4.230800 0.003760 
#    z -0.283160 0.003760 4.219420 
# 
# 
# High freq. dielectric constant tensor:
#      x y z
#    x 1.897720 -0.006970 -0.013370 
#    y -0.006970 1.903750 0.005410 
#    z -0.013370 0.005410 1.899810 
# 
# From -- ./inp_files/49292.got.cif
#   From: 2010.06.25/outbox.cif.g09.slc.cpg/sg2_25_cif.got.tgz:49292.got - 2010.06.27 13:26:56.
