data_PCOD8033430
_publ_section_title
;
Structure prediction by ZEFSAII (Michael W. Deem and Ramdas Pophale) SiO2 
 PCOD8033430
Probable space group: P -1
;
_chemical_formula_sum "Si O2"
_cell_formula_units_Z 16
_cell_length_a 17.214951
_cell_length_b 15.364034
_cell_length_c 24.233813
_cell_angle_alpha 161.430479
_cell_angle_beta 21.577039
_cell_angle_gamma 148.384658
_cell_volume 725.730345
_symmetry_space_group_name_H-M "P -1"
_symmetry_group_IT_number 2
_symmetry_cell_setting 'triclinic'
loop_
_space_group_symop_operation_xyz
x,y,z
-x,-y,-z
loop_
_atom_site_type_symbol
_atom_site_label
_atom_site_fract_x
_atom_site_fract_y
_atom_site_fract_z
Si Si1 0.459517 0.785211 0.758956
Si Si2 0.096603 0.773472 0.251517
Si Si3 0.936139 0.776086 0.744358
Si Si4 0.647257 0.788482 0.526411
Si Si5 0.292011 0.110027 0.741910
Si Si6 0.456402 0.174690 0.787160
Si Si7 0.304785 0.104600 0.234218
Si Si8 0.835864 0.443648 0.709155
O O1 0.580122 0.913472 0.707110
O O2 0.371497 0.525432 0.642745
O O3 0.613320 0.691098 0.654233
O O4 0.242252 0.029820 0.061175
O O5 0.896290 0.789684 0.351375
O O6 0.279983 0.850173 0.137839
O O7 0.192168 0.450178 0.013531
O O8 0.000000 0.000000 0.500000
O O9 0.840994 0.703646 0.822085
O O10 0.000000 0.500000 0.500000
O O11 0.122012 0.935616 0.731168
O O12 0.496358 0.948576 0.673887
O O13 0.370804 0.033475 0.706582
O O14 0.500000 0.000000 0.500000
O O15 0.679175 0.263335 0.677595
O O16 0.268959 0.445211 0.095350
O O17 0.081932 0.256135 0.442226
O O18 0.500000 0.000000 0.000000
#
# Coordination Sequence:
#
# PCOD8033430 Si02
#       8
#     2   2   2   2   2   2   2   2
#     4  11  25  44  71 103 140 188 244 296 369 421
#     4  12  25  49  79 105 146 198 258 302 360 448
#     4  12  26  47  70 101 150 191 237 300 371 441
#     4  11  23  46  71 104 137 185 245 313 349 430
#     4  12  30  47  73 110 146 195 245 305 377 445
#     4  11  25  45  75 105 144 192 247 310 365 442
#     4  12  27  43  71 107 150 195 241 303 373 438
#     4  11  25  44  70 108 145 191 247 299 371 437
#
# _framework density 22.046756999999999
#
# number of rings (size 3 to 8) (size 9 to 14) (size 15 to 20)
#    0.000    0.500    5.000    2.250    8.750    0.500 
#    0.000    1.250    0.000    0.000    0.000    0.000 
#    0.000    0.000    0.000    0.000    0.000    0.000 
#
# Total GULP energy -198295.153265 kJ/mol
# GULP energy per Si atom -12393.447079 kJ/mol
# Density = 2.199658 g / cm^3
# Si number density = 22.046757 Si / 1000 Ang^3
#
#
#
# Elastic Constant Matrix: (Units=GPa)
#
#
# Indices 1 2 3 4 5 6 
#
# 1 115.9826 34.3821 48.3691 -9.9700 2.5246 4.8498
# 2 34.3821 121.5544 49.6884 -12.7114 6.8328 4.2814
# 3 48.3691 49.6884 132.8393 -7.6477 -3.8118 4.6800
# 4 -9.9700 -12.7114 -7.6477 36.3004 -0.0216 -3.4630
# 5 2.5246 6.8328 -3.8118 -0.0216 35.6449 -2.6222
# 6 4.8498 4.2814 4.6800 -3.4630 -2.6222 37.6357
#
#
#
# Elastic Compliance Matrix: (Units=1/GPa)
#
#
# Indices 1 2 3 4 5 6 
#
# 1 0.010581 -0.001428 -0.003223 0.001659 -0.000871 -0.000708
# 2 -0.001428 0.010372 -0.003263 0.002502 -0.002273 -0.000518
# 3 -0.003223 -0.003263 0.009990 0.000048 0.001899 -0.000319
# 4 0.001659 0.002502 0.000048 0.029094 -0.000417 0.002144
# 5 -0.000871 -0.002273 0.001899 -0.000417 0.028910 0.002111
# 6 -0.000708 -0.000518 -0.000319 0.002144 0.002111 0.027105
#
#
# Mechanical properties :
#
#
# Convention : Reuss Voigt Hill
#
# Bulk Modulus (GPa) = 66.15599 70.58390 68.36994
# Shear Modulus (GPa) = 36.51849 37.77865 37.14857
#
# Velocity S-wave (km/s) = 4.07432 4.14402 4.10932
# Velocity P-wave (km/s) = 7.22535 7.41500 7.32079
#
# Compressibility (1/GPa) = 0.01511579
#
# Stress axis : x y z
#
# Youngs Moduli (GPa) = 94.51290 96.41400 100.09696
#
# Poissons Ratio (x) = 0.13766 0.32262
# Poissons Ratio (y) = 0.13495 0.32658
# Poissons Ratio (z) = 0.30462 0.31456
#
# Static dielectric constant tensor:
#      x y z
#    x 4.043700 0.032900 -0.081640 
#    y 0.032900 4.200300 -0.195550 
#    z -0.081640 -0.195550 4.019660 
# 
# 
# High freq. dielectric constant tensor:
#      x y z
#    x 1.874600 0.004990 -0.009860 
#    y 0.004990 1.879370 -0.009250 
#    z -0.009860 -0.009250 1.866130 
# 
# From -- ./inp_files/613261.got.cif
#   From: 2010.06.25/outbox.cif.g09.slc.cpg/sg2_307_cif.got.tgz:613261.got - 2010.06.27 13:26:56.
