data_PCOD8033409
_publ_section_title
;
Structure prediction by ZEFSAII (Michael W. Deem and Ramdas Pophale) SiO2 
 PCOD8033409
Probable space group: P -1
;
_chemical_formula_sum "Si O2"
_cell_formula_units_Z 16
_cell_length_a 13.159903
_cell_length_b 8.947670
_cell_length_c 15.439447
_cell_angle_alpha 30.459008
_cell_angle_beta 131.781052
_cell_angle_gamma 128.589860
_cell_volume 681.326957
_symmetry_space_group_name_H-M "P -1"
_symmetry_group_IT_number 2
_symmetry_cell_setting 'triclinic'
loop_
_space_group_symop_operation_xyz
x,y,z
-x,-y,-z
loop_
_atom_site_type_symbol
_atom_site_label
_atom_site_fract_x
_atom_site_fract_y
_atom_site_fract_z
Si Si1 0.220892 0.087870 0.879817
Si Si2 0.590726 0.798973 0.918038
Si Si3 0.580404 0.712078 0.373660
Si Si4 0.103041 0.300690 0.411593
Si Si5 0.276151 0.172740 0.199928
Si Si6 0.872111 0.444075 0.520474
Si Si7 0.422944 0.680464 0.142245
Si Si8 0.000844 0.637008 0.027258
O O1 0.224264 0.307174 0.689328
O O2 0.298930 0.260351 0.917564
O O3 0.278630 0.771918 0.050417
O O4 0.066486 0.981486 0.879861
O O5 0.665849 0.934059 0.805285
O O6 0.480598 0.981600 0.807003
O O7 0.500000 0.500000 0.000000
O O8 0.500000 0.500000 0.500000
O O9 0.741622 0.767970 0.454865
O O10 0.529741 0.560240 0.329660
O O11 0.071206 0.491929 0.381966
O O12 0.089530 0.474258 0.227701
O O13 0.000000 0.000000 0.500000
O O14 0.393753 0.406836 0.195126
O O15 0.220766 0.881416 0.372244
O O16 0.149917 0.362191 0.018292
O O17 0.000000 0.500000 0.500000
O O18 0.500000 0.000000 0.000000
O O19 0.000000 0.500000 0.000000
#
# Coordination Sequence:
#
# PCOD8033409 Si02
#       8
#     2   2   2   2   2   2   2   2
#     4  11  23  46  70 101 153 197 246 303 374 456
#     4  11  27  46  73 108 145 199 246 314 375 444
#     4  11  25  49  72 101 143 191 252 298 370 452
#     4  12  29  46  78 111 150 206 257 312 382 461
#     4  12  26  46  77 114 151 195 255 317 390 438
#     4  12  27  45  69 118 157 193 251 321 384 441
#     4  11  24  44  76 100 141 201 248 296 367 463
#     4  12  25  46  77 109 149 200 253 307 384 460
#
# _framework density 23.483585999999999
#
# number of rings (size 3 to 8) (size 9 to 14) (size 15 to 20)
#    0.000    0.500    2.500    6.000    5.250    2.000 
#    0.000    3.750    0.000    0.000    0.000    0.000 
#    0.000    0.000    0.000    0.000    0.000    0.000 
#
# Total GULP energy -198265.586294 kJ/mol
# GULP energy per Si atom -12391.599143 kJ/mol
# Density = 2.343014 g / cm^3
# Si number density = 23.483586 Si / 1000 Ang^3
#
#
#
# Elastic Constant Matrix: (Units=GPa)
#
#
# Indices 1 2 3 4 5 6 
#
# 1 111.5971 36.0657 13.0027 15.2182 -4.8118 2.9837
# 2 36.0657 166.3622 50.3385 10.1966 -8.5966 2.9363
# 3 13.0027 50.3385 115.3042 20.4432 -19.2954 3.0223
# 4 15.2182 10.1966 20.4432 50.0800 6.1611 -8.0306
# 5 -4.8118 -8.5966 -19.2954 6.1611 40.2145 1.5675
# 6 2.9837 2.9363 3.0223 -8.0306 1.5675 44.9622
#
#
#
# Elastic Compliance Matrix: (Units=1/GPa)
#
#
# Indices 1 2 3 4 5 6 
#
# 1 0.010113 -0.002084 0.000664 -0.003319 0.001640 -0.001230
# 2 -0.002084 0.007361 -0.003087 0.000413 -0.000218 -0.000054
# 3 0.000664 -0.003087 0.011990 -0.005513 0.006089 -0.001845
# 4 -0.003319 0.000413 -0.005513 0.024841 -0.006964 0.005243
# 5 0.001640 -0.000218 0.006089 -0.006964 0.029113 -0.002763
# 6 -0.001230 -0.000054 -0.001845 0.005243 -0.002763 0.023483
#
#
# Mechanical properties :
#
#
# Convention : Reuss Voigt Hill
#
# Bulk Modulus (GPa) = 48.89516 65.78637 57.34076
# Shear Modulus (GPa) = 40.73982 46.64177 43.69079
#
# Velocity S-wave (km/s) = 4.16964 4.46145 4.31801
# Velocity P-wave (km/s) = 6.63682 7.39013 7.02358
#
# Compressibility (1/GPa) = 0.02045192
#
# Stress axis : x y z
#
# Youngs Moduli (GPa) = 98.88332 135.84905 83.40090
#
# Poissons Ratio (x) = 0.28304 -0.05540
# Poissons Ratio (y) = 0.20602 0.25745
# Poissons Ratio (z) = -0.06568 0.41936
#
# Static dielectric constant tensor:
#      x y z
#    x 4.504580 0.088950 -0.054030 
#    y 0.088950 4.537210 0.351470 
#    z -0.054030 0.351470 4.556200 
# 
# 
# High freq. dielectric constant tensor:
#      x y z
#    x 1.944920 0.012050 -0.008250 
#    y 0.012050 1.941530 0.004480 
#    z -0.008250 0.004480 1.931190 
# 
# From -- ./inp_files/347520.got.cif
#   From: 2010.06.25/outbox.cif.g09.slc.cpg/sg2_174_cif.got.tgz:347520.got - 2010.06.27 13:26:56.
