data_PCOD8033125
_publ_section_title
;
Structure prediction by ZEFSAII (Michael W. Deem and Ramdas Pophale) SiO2 
 PCOD8033125
Probable space group: P -1
;
_chemical_formula_sum "Si O2"
_cell_formula_units_Z 16
_cell_length_a 17.728619
_cell_length_b 9.719149
_cell_length_c 12.494686
_cell_angle_alpha 134.731585
_cell_angle_beta 38.912925
_cell_angle_gamma 105.758509
_cell_volume 754.852742
_symmetry_space_group_name_H-M "P -1"
_symmetry_group_IT_number 2
_symmetry_cell_setting 'triclinic'
loop_
_space_group_symop_operation_xyz
x,y,z
-x,-y,-z
loop_
_atom_site_type_symbol
_atom_site_label
_atom_site_fract_x
_atom_site_fract_y
_atom_site_fract_z
Si Si1 0.344370 0.407009 0.403488
Si Si2 0.315586 0.009615 0.268240
Si Si3 0.621136 0.205130 0.698964
Si Si4 0.101866 0.570965 0.387315
Si Si5 0.145483 0.781278 0.656395
Si Si6 0.570526 0.927101 0.264869
Si Si7 0.904345 0.936820 0.631467
Si Si8 0.354004 0.730457 0.730021
O O1 0.240584 0.520774 0.473005
O O2 0.300761 0.641068 0.646000
O O3 0.311315 0.245501 0.418659
O O4 0.523000 0.229469 0.083103
O O5 0.287432 0.922061 0.361069
O O6 0.183008 0.101607 0.380758
O O7 0.746154 0.139699 0.436865
O O8 0.543535 0.078108 0.687965
O O9 0.500000 0.500000 0.000000
O O10 0.094319 0.749161 0.580666
O O11 0.000000 0.500000 0.500000
O O12 0.034837 0.688359 0.410684
O O13 0.274431 0.345012 0.050397
O O14 0.000000 0.000000 0.000000
O O15 0.500000 0.000000 0.500000
O O16 0.602094 0.105498 0.277567
O O17 0.000000 0.000000 0.500000
O O18 0.783776 0.130432 0.958133
O O19 0.500000 0.500000 0.500000
#
# Coordination Sequence:
#
# PCOD8033125 Si02
#       8
#     2   2   2   2   2   2   2   2
#     4  11  23  44  75  99 137 181 233 289 347 411
#     4  11  24  45  71 103 135 185 235 281 350 410
#     4  12  24  46  74 101 137 180 240 291 338 418
#     4  12  25  47  69 102 147 185 236 287 353 426
#     4  12  26  44  73 104 141 182 231 293 355 410
#     4  12  28  45  75 108 138 186 240 293 354 419
#     4  12  27  44  71 100 145 189 227 287 355 417
#     4  12  25  45  69 105 143 180 235 289 348 418
#
# _framework density 21.196186999999998
#
# number of rings (size 3 to 8) (size 9 to 14) (size 15 to 20)
#    0.000    0.250    5.000    3.750    5.250    0.000 
#    0.000    1.250    0.000    0.000    0.000    0.000 
#    0.000    0.000    0.000    0.000    0.000    0.000 
#
# Total GULP energy -198418.898612 kJ/mol
# GULP energy per Si atom -12401.181163 kJ/mol
# Density = 2.114794 g / cm^3
# Si number density = 21.196187 Si / 1000 Ang^3
#
#
#
# Elastic Constant Matrix: (Units=GPa)
#
#
# Indices 1 2 3 4 5 6 
#
# 1 132.3420 51.6002 50.5202 9.7059 -4.5888 -6.1401
# 2 51.6002 170.0866 69.8369 -7.7641 -0.7285 -7.0230
# 3 50.5202 69.8369 130.4521 -17.1020 -0.7119 5.0788
# 4 9.7059 -7.7641 -17.1020 38.6414 -2.1533 -6.1885
# 5 -4.5888 -0.7285 -0.7119 -2.1533 37.1085 7.1817
# 6 -6.1401 -7.0230 5.0788 -6.1885 7.1817 45.5938
#
#
#
# Elastic Compliance Matrix: (Units=1/GPa)
#
#
# Indices 1 2 3 4 5 6 
#
# 1 0.009941 -0.001737 -0.003501 -0.004231 0.000733 0.000771
# 2 -0.001737 0.007962 -0.003562 0.000685 -0.000386 0.001543
# 3 -0.003501 -0.003562 0.011661 0.005074 0.000341 -0.001684
# 4 -0.004231 0.000685 0.005074 0.029832 0.000757 0.002900
# 5 0.000733 -0.000386 0.000341 0.000757 0.027912 -0.004293
# 6 0.000771 0.001543 -0.001684 0.002900 -0.004293 0.023532
#
#
# Mechanical properties :
#
#
# Convention : Reuss Voigt Hill
#
# Bulk Modulus (GPa) = 83.57882 86.31057 84.94470
# Shear Modulus (GPa) = 37.75614 41.66362 39.70988
#
# Velocity S-wave (km/s) = 4.22509 4.43834 4.33303
# Velocity P-wave (km/s) = 7.95729 8.18984 8.07440
#
# Compressibility (1/GPa) = 0.01196475
#
# Stress axis : x y z
#
# Youngs Moduli (GPa) = 100.59080 125.59290 85.75442
#
# Poissons Ratio (x) = 0.21810 0.30023
# Poissons Ratio (y) = 0.17468 0.30549
# Poissons Ratio (z) = 0.35217 0.44741
#
# Static dielectric constant tensor:
#      x y z
#    x 4.366670 -0.173670 -0.259080 
#    y -0.173670 4.139070 0.024390 
#    z -0.259080 0.024390 3.950230 
# 
# 
# High freq. dielectric constant tensor:
#      x y z
#    x 1.847140 -0.005250 -0.010190 
#    y -0.005250 1.848710 -0.002610 
#    z -0.010190 -0.002610 1.829890 
# 
# From -- ./inp_files/332258.got.cif
#   From: 2010.06.25/outbox.cif.g09.slc.cpg/sg2_167_cif.got.tgz:332258.got - 2010.06.27 13:26:56.
