data_PCOD8033024
_publ_section_title
;
Structure prediction by ZEFSAII (Michael W. Deem and Ramdas Pophale) SiO2 
 PCOD8033024
Probable space group: P -1
;
_chemical_formula_sum "Si O2"
_cell_formula_units_Z 12
_cell_length_a 17.077198
_cell_length_b 19.694600
_cell_length_c 11.865805
_cell_angle_alpha 157.374658
_cell_angle_beta 31.852570
_cell_angle_gamma 159.060303
_cell_volume 546.350717
_symmetry_space_group_name_H-M "P -1"
_symmetry_group_IT_number 2
_symmetry_cell_setting 'triclinic'
loop_
_space_group_symop_operation_xyz
x,y,z
-x,-y,-z
loop_
_atom_site_type_symbol
_atom_site_label
_atom_site_fract_x
_atom_site_fract_y
_atom_site_fract_z
Si Si1 0.825401 0.035221 0.876827
Si Si2 0.410492 0.246794 0.664144
Si Si3 0.706023 0.667792 0.278831
Si Si4 0.523343 0.161980 0.817615
Si Si5 0.097016 0.687338 0.274538
Si Si6 0.697416 0.237665 0.202780
O O1 0.729059 0.773336 0.536382
O O2 0.696824 0.993900 0.079639
O O3 0.076466 0.209731 0.864952
O O4 0.829959 0.186972 0.007518
O O5 0.393063 0.273497 0.593694
O O6 0.592910 0.252682 0.458436
O O7 0.190938 0.965526 0.555290
O O8 0.500000 0.500000 0.000000
O O9 0.554425 0.367427 0.024034
O O10 0.721210 0.279125 0.837811
O O11 0.500000 0.000000 0.500000
O O12 0.880741 0.527749 0.369643
O O13 0.000000 0.500000 0.000000
O O14 0.500000 0.000000 0.000000
#
# Coordination Sequence:
#
# PCOD8033024 Si02
#       6
#     2   2   2   2   2   2
#     4  11  23  44  71  99 137 184 234 290 343 425
#     4  12  27  45  70 108 148 178 233 306 354 412
#     4  11  25  43  69 104 138 178 239 287 348 421
#     4  12  26  44  71 105 140 185 235 297 363 417
#     4  12  24  44  77 102 137 192 241 277 353 438
#     4  12  22  45  73 101 138 190 239 286 352 430
#
# _framework density 21.963916000000001
#
# number of rings (size 3 to 8) (size 9 to 14) (size 15 to 20)
#    0.000    0.333    6.667    1.500    2.333    4.000 
#    0.000    0.000    0.000    0.000    0.000    0.000 
#    0.000    0.000    0.000    0.000    0.000    0.000 
#
# Total GULP energy -148719.846871 kJ/mol
# GULP energy per Si atom -12393.320573 kJ/mol
# Density = 2.191393 g / cm^3
# Si number density = 21.963916 Si / 1000 Ang^3
#
#
#
# Elastic Constant Matrix: (Units=GPa)
#
#
# Indices 1 2 3 4 5 6 
#
# 1 71.5391 20.8289 15.9033 7.6577 -7.8750 -6.8473
# 2 20.8289 133.4970 62.5676 -0.3829 6.0934 -26.6010
# 3 15.9033 62.5676 140.5508 3.9617 -0.4186 -15.2810
# 4 7.6577 -0.3829 3.9617 48.5046 -13.1532 -10.8651
# 5 -7.8750 6.0934 -0.4186 -13.1532 37.9295 3.4695
# 6 -6.8473 -26.6010 -15.2810 -10.8651 3.4695 36.4832
#
#
#
# Elastic Compliance Matrix: (Units=1/GPa)
#
#
# Indices 1 2 3 4 5 6 
#
# 1 0.015270 -0.002140 -0.000693 -0.001505 0.002959 0.000286
# 2 -0.002140 0.011184 -0.004054 0.001639 -0.002336 0.006765
# 3 -0.000693 -0.004054 0.009071 -0.000430 0.000408 0.000546
# 4 -0.001505 0.001639 -0.000430 0.024513 0.007248 0.007343
# 5 0.002959 -0.002336 0.000408 0.007248 0.030025 -0.001674
# 6 0.000286 0.006765 0.000546 0.007343 -0.001674 0.034971
#
#
# Mechanical properties :
#
#
# Convention : Reuss Voigt Hill
#
# Bulk Modulus (GPa) = 45.97637 60.46516 53.22077
# Shear Modulus (GPa) = 34.23282 41.00258 37.61770
#
# Velocity S-wave (km/s) = 3.95219 4.32535 4.14297
# Velocity P-wave (km/s) = 6.46564 7.24803 6.86799
#
# Compressibility (1/GPa) = 0.02175030
#
# Stress axis : x y z
#
# Youngs Moduli (GPa) = 65.48971 89.41086 110.24414
#
# Poissons Ratio (x) = 0.19136 0.07637
# Poissons Ratio (y) = 0.14016 0.44696
# Poissons Ratio (z) = 0.04537 0.36250
#
# Static dielectric constant tensor:
#      x y z
#    x 3.162110 -3.720010 3.283830 
#    y -3.720010 -8.499220 12.439890 
#    z 3.283830 12.439890 -7.981810 
# 
# 
# High freq. dielectric constant tensor:
#      x y z
#    x 1.863170 -0.006460 -0.015100 
#    y -0.006460 1.870930 -0.001050 
#    z -0.015100 -0.001050 1.868460 
# 
# From -- ./inp_files/150553.got.cif
#   From: 2010.06.25/outbox.cif.g09.slc.cpg/sg2_76_cif.got.tgz:150553.got - 2010.06.27 13:26:56.
