data_PCOD8033380
_publ_section_title
;
Structure prediction by ZEFSAII (Michael W. Deem and Ramdas Pophale) SiO2 
 PCOD8033380
Probable space group: P -1
;
_chemical_formula_sum "Si O2"
_cell_formula_units_Z 14
_cell_length_a 9.518198
_cell_length_b 5.471126
_cell_length_c 22.956771
_cell_angle_alpha 114.273760
_cell_angle_beta 142.847380
_cell_angle_gamma 54.319487
_cell_volume 582.931110
_symmetry_space_group_name_H-M "P -1"
_symmetry_group_IT_number 2
_symmetry_cell_setting 'triclinic'
loop_
_space_group_symop_operation_xyz
x,y,z
-x,-y,-z
loop_
_atom_site_type_symbol
_atom_site_label
_atom_site_fract_x
_atom_site_fract_y
_atom_site_fract_z
Si Si1 0.761760 0.674072 0.980919
Si Si2 0.144672 0.432536 0.676422
Si Si3 0.022766 0.463461 0.838560
Si Si4 0.186467 0.933220 0.322280
Si Si5 0.641643 0.414067 0.477276
Si Si6 0.442584 0.019667 0.307688
Si Si7 0.437598 0.324096 0.878144
O O1 0.605095 0.481209 0.922823
O O2 0.596960 0.996709 0.928279
O O3 0.000000 0.500000 0.000000
O O4 0.876176 0.708428 0.083970
O O5 0.270935 0.292937 0.766374
O O6 0.978904 0.796161 0.660825
O O7 0.947462 0.305996 0.577822
O O8 0.375067 0.313072 0.691647
O O9 0.741362 0.761917 0.783771
O O10 0.243456 0.530840 0.886095
O O11 0.979860 0.247324 0.756788
O O12 0.218596 0.043713 0.280338
O O13 0.487452 0.726144 0.421163
O O14 0.500000 0.500000 0.500000
O O15 0.623696 0.142874 0.411130
#
# Coordination Sequence:
#
# PCOD8033380 Si02
#       7
#     2   2   2   2   2   2   2
#     4  12  28  47  76 113 149 193 255 313 375 452
#     4  12  24  45  73 103 148 188 251 303 370 441
#     4  11  25  48  73 103 153 190 248 306 375 448
#     4  11  24  46  70 105 143 195 242 306 372 439
#     4  11  23  46  68 101 146 192 241 306 371 441
#     4  11  25  44  71 106 141 193 245 304 369 444
#     4  12  26  47  74 111 145 205 245 307 382 446
#
# _framework density 24.016559999999998
#
# number of rings (size 3 to 8) (size 9 to 14) (size 15 to 20)
#    0.000    0.571    2.857    4.714    4.000    0.571 
#   10.286    0.000    0.000    0.000    0.000    0.000 
#    0.000    0.000    0.000    0.000    0.000    0.000 
#
# Total GULP energy -173501.150909 kJ/mol
# GULP energy per Si atom -12392.939351 kJ/mol
# Density = 2.396190 g / cm^3
# Si number density = 24.016560 Si / 1000 Ang^3
#
#
#
# Elastic Constant Matrix: (Units=GPa)
#
#
# Indices 1 2 3 4 5 6 
#
# 1 119.3170 56.7674 24.3770 7.6360 9.6144 -11.4551
# 2 56.7674 109.0631 25.8008 -1.7013 0.5369 -11.5962
# 3 24.3770 25.8008 128.4832 -12.0781 5.5892 5.2633
# 4 7.6360 -1.7013 -12.0781 20.5314 -0.1109 -7.3503
# 5 9.6144 0.5369 5.5892 -0.1109 33.5570 3.4834
# 6 -11.4551 -11.5962 5.2633 -7.3503 3.4834 49.2258
#
#
#
# Elastic Compliance Matrix: (Units=1/GPa)
#
#
# Indices 1 2 3 4 5 6 
#
# 1 0.012265 -0.005982 -0.001553 -0.005630 -0.003282 0.001003
# 2 -0.005982 0.012862 -0.001291 0.003314 0.001509 0.002164
# 3 -0.001553 -0.001291 0.008920 0.005448 -0.000925 -0.000740
# 4 -0.005630 0.003314 0.005448 0.056923 0.000074 0.007382
# 5 -0.003282 0.001509 -0.000925 0.000074 0.031130 -0.002501
# 6 0.001003 0.002164 -0.000740 0.007382 -0.002501 0.022416
#
#
# Mechanical properties :
#
#
# Convention : Reuss Voigt Hill
#
# Bulk Modulus (GPa) = 60.99197 63.41709 62.20453
# Shear Modulus (GPa) = 29.82698 37.32405 33.57552
#
# Velocity S-wave (km/s) = 3.52793 3.94648 3.74306
# Velocity P-wave (km/s) = 6.48429 6.87235 6.68114
#
# Compressibility (1/GPa) = 0.01639560
#
# Stress axis : x y z
#
# Youngs Moduli (GPa) = 81.53022 77.74731 112.11065
#
# Poissons Ratio (x) = 0.46506 0.17416
# Poissons Ratio (y) = 0.48769 0.14470
# Poissons Ratio (z) = 0.12665 0.10035
#
# Static dielectric constant tensor:
#      x y z
#    x 4.323280 -0.285880 0.138490 
#    y -0.285880 4.989660 -1.257710 
#    z 0.138490 -1.257710 5.840270 
# 
# 
# High freq. dielectric constant tensor:
#      x y z
#    x 1.952590 -0.008730 0.004650 
#    y -0.008730 1.943360 -0.010000 
#    z 0.004650 -0.010000 1.977050 
# 
# From -- ./inp_files/553661.got.cif
#   From: 2010.06.25/outbox.cif.g09.slc.cpg/sg2_277_cif.got.tgz:553661.got - 2010.06.27 13:26:56.
