data_PCOD8033223
_publ_section_title
;
Structure prediction by ZEFSAII (Michael W. Deem and Ramdas Pophale) SiO2 
 PCOD8033223
Probable space group: P -1
;
_chemical_formula_sum "Si O2"
_cell_formula_units_Z 14
_cell_length_a 22.467555
_cell_length_b 7.823090
_cell_length_c 9.348019
_cell_angle_alpha 72.262869
_cell_angle_beta 39.698845
_cell_angle_gamma 43.875509
_cell_volume 600.352787
_symmetry_space_group_name_H-M "P -1"
_symmetry_group_IT_number 2
_symmetry_cell_setting 'triclinic'
loop_
_space_group_symop_operation_xyz
x,y,z
-x,-y,-z
loop_
_atom_site_type_symbol
_atom_site_label
_atom_site_fract_x
_atom_site_fract_y
_atom_site_fract_z
Si Si1 0.604412 0.208076 0.216414
Si Si2 0.150770 0.218830 0.609988
Si Si3 0.283842 0.793237 0.722989
Si Si4 0.336564 0.690496 0.191725
Si Si5 0.099550 0.446133 0.210345
Si Si6 0.678455 0.675939 0.764764
Si Si7 0.139857 0.733250 0.207773
O O1 0.417106 0.470137 0.475070
O O2 0.626734 0.199513 0.347130
O O3 0.658779 0.291569 0.994365
O O4 0.714288 0.875825 0.047667
O O5 0.221807 0.307396 0.478457
O O6 0.967891 0.511630 0.832121
O O7 0.172387 0.066064 0.749361
O O8 0.215415 0.011112 0.406113
O O9 0.183386 0.837094 0.008336
O O10 0.294992 0.543162 0.327466
O O11 0.500000 0.500000 0.000000
O O12 0.079413 0.687156 0.213238
O O13 0.000000 0.500000 0.500000
O O14 0.722502 0.566140 0.875945
O O15 0.500000 0.000000 0.000000
O O16 0.000000 0.000000 0.500000
#
# Coordination Sequence:
#
# PCOD8033223 Si02
#       7
#     2   2   2   2   2   2   2
#     4  11  23  45  70 103 148 191 233 297 368 423
#     4  12  26  46  71 109 147 185 246 303 356 425
#     4  11  26  46  71 104 148 189 234 308 364 418
#     4  12  21  42  73 103 147 189 238 294 355 434
#     4  12  24  44  74 105 144 193 243 295 354 438
#     4  12  24  41  73 107 139 191 243 289 358 432
#     4  12  26  49  74 103 144 197 242 288 376 443
#
# _framework density 23.319623
#
# number of rings (size 3 to 8) (size 9 to 14) (size 15 to 20)
#    0.000    0.286    7.143    1.714    2.000    1.714 
#    2.571    0.000    0.000    0.000    0.000    0.000 
#    0.000    0.000    0.000    0.000    0.000    0.000 
#
# Total GULP energy -173497.527013 kJ/mol
# GULP energy per Si atom -12392.680501 kJ/mol
# Density = 2.326655 g / cm^3
# Si number density = 23.319623 Si / 1000 Ang^3
#
#
#
# Elastic Constant Matrix: (Units=GPa)
#
#
# Indices 1 2 3 4 5 6 
#
# 1 110.2747 52.7085 18.9100 -7.6355 -9.8901 4.4118
# 2 52.7085 140.6874 50.7939 -14.9533 -6.8586 -14.4693
# 3 18.9100 50.7939 100.0419 -12.1393 6.5020 4.7142
# 4 -7.6355 -14.9533 -12.1393 32.4438 -0.3007 11.9692
# 5 -9.8901 -6.8586 6.5020 -0.3007 32.6136 -2.7555
# 6 4.4118 -14.4693 4.7142 11.9692 -2.7555 55.2039
#
#
#
# Elastic Compliance Matrix: (Units=1/GPa)
#
#
# Indices 1 2 3 4 5 6 
#
# 1 0.011527 -0.004327 0.000174 0.001658 0.002371 -0.002311
# 2 -0.004327 0.011135 -0.005048 0.000913 0.002350 0.003615
# 3 0.000174 -0.005048 0.013437 0.004016 -0.003951 -0.003552
# 4 0.001658 0.000913 0.004016 0.036117 -0.000456 -0.008090
# 5 0.002371 0.002350 -0.003951 -0.000456 0.032870 0.002503
# 6 -0.002311 0.003615 -0.003552 -0.008090 0.002503 0.021429
#
#
# Mechanical properties :
#
#
# Convention : Reuss Voigt Hill
#
# Bulk Modulus (GPa) = 56.50544 66.20320 61.35432
# Shear Modulus (GPa) = 33.15314 39.29169 36.22241
#
# Velocity S-wave (km/s) = 3.77461 4.10923 3.94547
# Velocity P-wave (km/s) = 6.57878 7.13901 6.86461
#
# Compressibility (1/GPa) = 0.01769741
#
# Stress axis : x y z
#
# Youngs Moduli (GPa) = 86.75573 89.80674 74.41991
#
# Poissons Ratio (x) = 0.38862 -0.01298
# Poissons Ratio (y) = 0.37542 0.37566
# Poissons Ratio (z) = -0.01513 0.45333
#
# Static dielectric constant tensor:
#      x y z
#    x 4.277420 -0.184500 0.103340 
#    y -0.184500 4.528620 0.310640 
#    z 0.103340 0.310640 4.202980 
# 
# 
# High freq. dielectric constant tensor:
#      x y z
#    x 1.924350 -0.012960 -0.001240 
#    y -0.012960 1.934330 0.019080 
#    z -0.001240 0.019080 1.906790 
# 
# From -- ./inp_files/352136.got.cif
#   From: 2010.06.25/outbox.cif.g09.slc.cpg/sg2_177_cif.got.tgz:352136.got - 2010.06.27 13:26:56.
