data_PCOD8033350
_publ_section_title
;
Structure prediction by ZEFSAII (Michael W. Deem and Ramdas Pophale) SiO2 
 PCOD8033350
Probable space group: P -1
;
_chemical_formula_sum "Si O2"
_cell_formula_units_Z 16
_cell_length_a 12.088089
_cell_length_b 9.312359
_cell_length_c 15.387951
_cell_angle_alpha 59.099726
_cell_angle_beta 28.096115
_cell_angle_gamma 62.649381
_cell_volume 699.905143
_symmetry_space_group_name_H-M "P -1"
_symmetry_group_IT_number 2
_symmetry_cell_setting 'triclinic'
loop_
_space_group_symop_operation_xyz
x,y,z
-x,-y,-z
loop_
_atom_site_type_symbol
_atom_site_label
_atom_site_fract_x
_atom_site_fract_y
_atom_site_fract_z
Si Si1 0.928652 0.821636 0.397283
Si Si2 0.917161 0.280029 0.968853
Si Si3 0.100531 0.184965 0.382519
Si Si4 0.486695 0.331515 0.366708
Si Si5 0.656471 0.142560 0.465524
Si Si6 0.209939 0.571656 0.590291
Si Si7 0.572717 0.089820 0.009624
Si Si8 0.746017 0.959606 0.101355
O O1 0.870722 0.769952 0.551224
O O2 0.767689 0.709448 0.483222
O O3 0.883798 0.020055 0.347652
O O4 0.205172 0.790421 0.197147
O O5 0.680574 0.360795 0.148989
O O6 0.871255 0.137765 0.972548
O O7 0.053302 0.424261 0.781360
O O8 0.075323 0.197214 0.961965
O O9 0.353891 0.203364 0.156678
O O10 0.927001 0.317376 0.418718
O O11 0.000000 0.000000 0.500000
O O12 0.575946 0.176977 0.412307
O O13 0.442498 0.496931 0.404370
O O14 0.706690 0.318058 0.421538
O O15 0.454218 0.043173 0.685871
O O16 0.633277 0.952748 0.085554
O O17 0.500000 0.000000 0.000000
#
# Coordination Sequence:
#
# PCOD8033350 Si02
#       8
#     2   2   2   2   2   2   2   2
#     4  12  25  45  75 103 137 193 242 284 351 435
#     4  11  25  46  73 109 146 185 235 297 356 425
#     4  12  24  49  70 101 145 188 239 299 353 417
#     4  12  26  45  72 108 144 187 234 293 363 423
#     4  12  23  47  76 102 150 186 230 300 355 425
#     4  12  27  46  71 106 147 186 235 302 362 410
#     4  12  23  40  72 106 132 182 245 289 336 419
#     4  11  23  45  76 105 145 190 236 290 357 424
#
# _framework density 22.860243000000001
#
# number of rings (size 3 to 8) (size 9 to 14) (size 15 to 20)
#    0.000    0.250    6.250    2.250    1.750    2.000 
#    4.500    4.375    0.000    0.000    0.000    0.000 
#    0.000    0.000    0.000    0.000    0.000    0.000 
#
# Total GULP energy -198486.564004 kJ/mol
# GULP energy per Si atom -12405.410250 kJ/mol
# Density = 2.280821 g / cm^3
# Si number density = 22.860243 Si / 1000 Ang^3
#
#
#
# Elastic Constant Matrix: (Units=GPa)
#
#
# Indices 1 2 3 4 5 6 
#
# 1 121.7808 -0.4038 -1.2733 -3.8007 6.7985 -11.3791
# 2 -0.4038 79.9097 11.0116 -5.7513 -1.8686 -9.7979
# 3 -1.2733 11.0116 97.6803 18.4926 -6.7994 -2.0149
# 4 -3.8007 -5.7513 18.4926 36.4321 -1.1707 -5.9960
# 5 6.7985 -1.8686 -6.7994 -1.1707 34.7571 -0.7004
# 6 -11.3791 -9.7979 -2.0149 -5.9960 -0.7004 34.3485
#
#
#
# Elastic Compliance Matrix: (Units=1/GPa)
#
#
# Indices 1 2 3 4 5 6 
#
# 1 0.008655 0.000566 -0.000304 0.001632 -0.001601 0.003263
# 2 0.000566 0.013701 -0.002190 0.004120 0.000431 0.004695
# 3 -0.000304 -0.002190 0.011828 -0.006502 0.002014 -0.001126
# 4 0.001632 0.004120 -0.006502 0.032725 -0.000126 0.007045
# 5 -0.001601 0.000431 0.002014 -0.000126 0.029503 0.000290
# 6 0.003263 0.004695 -0.001126 0.007045 0.000290 0.032703
#
#
# Mechanical properties :
#
#
# Convention : Reuss Voigt Hill
#
# Bulk Modulus (GPa) = 32.97341 35.33777 34.15559
# Shear Modulus (GPa) = 34.94484 40.44331 37.69407
#
# Velocity S-wave (km/s) = 3.91401 4.21070 4.06506
# Velocity P-wave (km/s) = 5.90603 6.25553 6.08329
#
# Compressibility (1/GPa) = 0.03032747
#
# Stress axis : x y z
#
# Youngs Moduli (GPa) = 115.53453 72.98668 84.54261
#
# Poissons Ratio (x) = -0.04130 0.02571
# Poissons Ratio (y) = -0.06537 0.18518
# Poissons Ratio (z) = 0.03514 0.15987
#
# Static dielectric constant tensor:
#      x y z
#    x 4.398300 -0.043020 -0.052700 
#    y -0.043020 4.024160 0.065850 
#    z -0.052700 0.065850 4.392120 
# 
# 
# High freq. dielectric constant tensor:
#      x y z
#    x 1.922480 -0.001050 -0.000450 
#    y -0.001050 1.878120 0.011040 
#    z -0.000450 0.011040 1.915570 
# 
# From -- ./inp_files/515283.got.cif
#   From: 2010.06.25/outbox.cif.g09.slc.cpg/sg2_258_cif.got.tgz:515283.got - 2010.06.27 13:26:56.
