data_PCOD8033543
_publ_section_title
;
Structure prediction by ZEFSAII (Michael W. Deem and Ramdas Pophale) SiO2 
 PCOD8033543
Probable space group: P -1
;
_chemical_formula_sum "Si O2"
_cell_formula_units_Z 14
_cell_length_a 8.370143
_cell_length_b 8.018674
_cell_length_c 23.607579
_cell_angle_alpha 30.637537
_cell_angle_beta 49.266243
_cell_angle_gamma 56.320012
_cell_volume 611.754724
_symmetry_space_group_name_H-M "P -1"
_symmetry_group_IT_number 2
_symmetry_cell_setting 'triclinic'
loop_
_space_group_symop_operation_xyz
x,y,z
-x,-y,-z
loop_
_atom_site_type_symbol
_atom_site_label
_atom_site_fract_x
_atom_site_fract_y
_atom_site_fract_z
Si Si1 0.328190 0.417529 0.819089
Si Si2 0.340962 0.331772 0.245972
Si Si3 0.518614 0.720756 0.985629
Si Si4 0.692375 0.246545 0.388769
Si Si5 0.053302 0.768381 0.455766
Si Si6 0.069103 0.434237 0.669190
Si Si7 0.996236 0.717208 0.882258
O O1 0.500979 0.651840 0.741788
O O2 0.331942 0.477328 0.733844
O O3 0.095056 0.502739 0.871506
O O4 0.370883 0.034797 0.929393
O O5 0.128387 0.522535 0.255420
O O6 0.283772 0.953451 0.351132
O O7 0.465306 0.510285 0.114644
O O8 0.760196 0.838799 0.892266
O O9 0.500000 0.500000 0.000000
O O10 0.717103 0.414364 0.395912
O O11 0.500000 0.000000 0.500000
O O12 0.902467 0.050439 0.388300
O O13 0.009101 0.617234 0.571726
O O14 0.000000 0.500000 0.500000
O O15 0.127597 0.056515 0.757582
O O16 0.000000 0.500000 0.000000
#
# Coordination Sequence:
#
# PCOD8033543 Si02
#       7
#     2   2   2   2   2   2   2
#     4  12  25  46  73 107 146 185 243 296 356 432
#     4  11  23  47  71 100 144 193 235 294 365 415
#     4  12  29  46  73 106 148 192 236 299 359 426
#     4  11  25  43  70 106 142 187 243 296 354 425
#     4  11  25  45  72 103 143 190 239 296 362 428
#     4  11  24  45  74 103 147 189 237 299 359 429
#     4  12  26  46  73 106 143 189 243 290 360 425
#
# _framework density 22.884988
#
# number of rings (size 3 to 8) (size 9 to 14) (size 15 to 20)
#    0.000    0.571    2.857    5.571    8.000    1.714 
#    0.000    2.857    0.000    0.000    0.000    0.000 
#    0.000    0.000    0.000    0.000    0.000    0.000 
#
# Total GULP energy -173526.998732 kJ/mol
# GULP energy per Si atom -12394.785624 kJ/mol
# Density = 2.283290 g / cm^3
# Si number density = 22.884988 Si / 1000 Ang^3
#
#
#
# Elastic Constant Matrix: (Units=GPa)
#
#
# Indices 1 2 3 4 5 6 
#
# 1 118.6875 40.1413 45.8947 -3.1086 4.5051 26.2606
# 2 40.1413 123.7505 41.8501 -12.2591 -7.6839 11.8363
# 3 45.8947 41.8501 99.5673 -10.9557 -4.3783 5.7145
# 4 -3.1086 -12.2591 -10.9557 41.0859 2.4407 -3.4723
# 5 4.5051 -7.6839 -4.3783 2.4407 39.1535 -2.8029
# 6 26.2606 11.8363 5.7145 -3.4723 -2.8029 43.8152
#
#
#
# Elastic Compliance Matrix: (Units=1/GPa)
#
#
# Indices 1 2 3 4 5 6 
#
# 1 0.012516 -0.002123 -0.004769 -0.001350 -0.002778 -0.006591
# 2 -0.002123 0.010142 -0.002952 0.001907 0.001727 -0.000821
# 3 -0.004769 -0.002952 0.013700 0.002505 0.001500 0.002164
# 4 -0.001350 0.001907 0.002505 0.025678 -0.000651 0.001961
# 5 -0.002778 0.001727 0.001500 -0.000651 0.026597 0.002653
# 6 -0.006591 -0.000821 0.002164 0.001961 0.002653 0.027038
#
#
# Mechanical properties :
#
#
# Convention : Reuss Voigt Hill
#
# Bulk Modulus (GPa) = 59.98593 66.41972 63.20282
# Shear Modulus (GPa) = 35.48214 39.08552 37.28383
#
# Velocity S-wave (km/s) = 3.94185 4.13717 4.04069
# Velocity P-wave (km/s) = 6.85466 7.20471 7.03187
#
# Compressibility (1/GPa) = 0.01667058
#
# Stress axis : x y z
#
# Youngs Moduli (GPa) = 79.89790 98.59834 72.99312
#
# Poissons Ratio (x) = 0.20930 0.34813
# Poissons Ratio (y) = 0.16961 0.21545
# Poissons Ratio (z) = 0.38106 0.29103
#
# Static dielectric constant tensor:
#      x y z
#    x 3.450150 -0.692990 -0.462540 
#    y -0.692990 3.586530 -0.251330 
#    z -0.462540 -0.251330 3.931080 
# 
# 
# High freq. dielectric constant tensor:
#      x y z
#    x 1.917880 0.009240 -0.002170 
#    y 0.009240 1.902140 -0.009660 
#    z -0.002170 -0.009660 1.909210 
# 
# From -- ./inp_files/380317.got.cif
#   From: 2010.06.25/outbox.cif.g09.slc.cpg/sg2_191_cif.got.tgz:380317.got - 2010.06.27 13:26:56.
