data_PCOD8033341
_publ_section_title
;
Structure prediction by ZEFSAII (Michael W. Deem and Ramdas Pophale) SiO2 
 PCOD8033341
Probable space group: P -1
;
_chemical_formula_sum "Si O2"
_cell_formula_units_Z 14
_cell_length_a 8.584378
_cell_length_b 8.951497
_cell_length_c 9.426252
_cell_angle_alpha 85.624983
_cell_angle_beta 61.395931
_cell_angle_gamma 92.935268
_cell_volume 630.889874
_symmetry_space_group_name_H-M "P -1"
_symmetry_group_IT_number 2
_symmetry_cell_setting 'triclinic'
loop_
_space_group_symop_operation_xyz
x,y,z
-x,-y,-z
loop_
_atom_site_type_symbol
_atom_site_label
_atom_site_fract_x
_atom_site_fract_y
_atom_site_fract_z
Si Si1 0.167265 0.441615 0.855379
Si Si2 0.844791 0.147547 0.496693
Si Si3 0.353014 0.922575 0.668920
Si Si4 0.176321 0.522825 0.518447
Si Si5 0.491588 0.356424 0.268292
Si Si6 0.229950 0.124969 0.259353
Si Si7 0.821558 0.901010 0.047515
O O1 0.139111 0.481429 0.700887
O O2 0.350407 0.513504 0.848086
O O3 0.165639 0.263796 0.884568
O O4 0.000000 0.500000 0.000000
O O5 0.826372 0.086085 0.347025
O O6 0.753938 0.301602 0.542820
O O7 0.059276 0.178554 0.415141
O O8 0.743062 0.032682 0.662799
O O9 0.402276 0.753838 0.676845
O O10 0.500000 0.000000 0.500000
O O11 0.335059 0.017316 0.813358
O O12 0.335378 0.427277 0.412954
O O13 0.000000 0.500000 0.500000
O O14 0.397347 0.253349 0.191095
O O15 0.210970 0.097294 0.104565
O O16 0.000000 0.000000 0.000000
#
# Coordination Sequence:
#
# PCOD8033341 Si02
#       7
#     2   2   2   2   2   2   2
#     4  12  28  48  72 108 149 193 236 300 367 424
#     4  11  23  45  75 106 145 186 243 297 359 423
#     4  12  24  45  72 106 142 189 237 299 356 431
#     4  12  26  46  77 107 140 188 242 299 364 427
#     4  12  26  46  74 106 147 187 247 292 358 436
#     4  11  25  46  73 109 142 191 243 301 351 431
#     4  12  27  47  74 102 144 192 241 292 366 425
#
# _framework density 22.190874999999998
#
# number of rings (size 3 to 8) (size 9 to 14) (size 15 to 20)
#    0.000    0.286    5.714    3.000    4.000    1.143 
#    0.000    0.000    0.000    0.000    0.000    0.000 
#    0.000    0.000    0.000    0.000    0.000    0.000 
#
# Total GULP energy -173485.887768 kJ/mol
# GULP energy per Si atom -12391.849126 kJ/mol
# Density = 2.214037 g / cm^3
# Si number density = 22.190875 Si / 1000 Ang^3
#
#
#
# Elastic Constant Matrix: (Units=GPa)
#
#
# Indices 1 2 3 4 5 6 
#
# 1 138.8602 59.2439 66.9177 1.6308 3.7761 20.0270
# 2 59.2439 179.8265 75.7192 -12.3257 2.7481 -6.8663
# 3 66.9177 75.7192 136.2561 12.7477 7.0901 -0.3727
# 4 1.6308 -12.3257 12.7477 29.6938 -4.5786 -6.1762
# 5 3.7761 2.7481 7.0901 -4.5786 48.5144 -0.0903
# 6 20.0270 -6.8663 -0.3727 -6.1762 -0.0903 54.5397
#
#
#
# Elastic Compliance Matrix: (Units=1/GPa)
#
#
# Indices 1 2 3 4 5 6 
#
# 1 0.010634 -0.001991 -0.004064 -0.000578 -0.000183 -0.004249
# 2 -0.001991 0.008584 -0.004415 0.006225 0.000906 0.002488
# 3 -0.004064 -0.004415 0.012571 -0.007267 -0.001956 0.000196
# 4 -0.000578 0.006225 -0.007267 0.041303 0.004663 0.005631
# 5 -0.000183 0.000906 -0.001956 0.004663 0.021303 0.000731
# 6 -0.004249 0.002488 0.000196 0.005631 0.000731 0.020849
#
#
# Mechanical properties :
#
#
# Convention : Reuss Voigt Hill
#
# Bulk Modulus (GPa) = 92.18160 95.41159 93.79659
# Shear Modulus (GPa) = 35.76557 43.42038 39.59297
#
# Velocity S-wave (km/s) = 4.01898 4.42823 4.22856
# Velocity P-wave (km/s) = 7.94775 8.32075 8.13639
#
# Compressibility (1/GPa) = 0.01084815
#
# Stress axis : x y z
#
# Youngs Moduli (GPa) = 94.03682 116.49957 79.55034
#
# Poissons Ratio (x) = 0.23198 0.32330
# Poissons Ratio (y) = 0.18725 0.35121
# Poissons Ratio (z) = 0.38217 0.51433
#
# Static dielectric constant tensor:
#      x y z
#    x 4.177340 -0.107840 -0.165920 
#    y -0.107840 4.051350 -0.122110 
#    z -0.165920 -0.122110 3.748210 
# 
# 
# High freq. dielectric constant tensor:
#      x y z
#    x 1.893320 0.003370 -0.000610 
#    y 0.003370 1.896020 -0.001920 
#    z -0.000610 -0.001920 1.859830 
# 
# From -- ./inp_files/157893.got.cif
#   From: 2010.06.25/outbox.cif.g09.slc.cpg/sg2_79_cif.got.tgz:157893.got - 2010.06.27 13:26:56.
