data_PCOD8033139
_publ_section_title
;
Structure prediction by ZEFSAII (Michael W. Deem and Ramdas Pophale) SiO2 
 PCOD8033139
Probable space group: P -1
;
_chemical_formula_sum "Si O2"
_cell_formula_units_Z 16
_cell_length_a 15.255870
_cell_length_b 11.301008
_cell_length_c 9.281436
_cell_angle_alpha 84.248423
_cell_angle_beta 71.102279
_cell_angle_gamma 29.447844
_cell_volume 685.073197
_symmetry_space_group_name_H-M "P -1"
_symmetry_group_IT_number 2
_symmetry_cell_setting 'triclinic'
loop_
_space_group_symop_operation_xyz
x,y,z
-x,-y,-z
loop_
_atom_site_type_symbol
_atom_site_label
_atom_site_fract_x
_atom_site_fract_y
_atom_site_fract_z
Si Si1 0.446347 0.140302 0.144100
Si Si2 0.481786 0.685701 0.022718
Si Si3 0.971634 0.635986 0.387193
Si Si4 0.786311 0.260815 0.151392
Si Si5 0.525876 0.559946 0.701190
Si Si6 0.302700 0.212530 0.671422
Si Si7 0.777445 0.433682 0.408573
Si Si8 0.181638 0.982496 0.387852
O O1 0.512567 0.197098 0.075176
O O2 0.201926 0.418913 0.265696
O O3 0.605687 0.910740 0.205347
O O4 0.500000 0.000000 0.000000
O O5 0.521876 0.552491 0.880432
O O6 0.651745 0.481620 0.078400
O O7 0.266660 0.924453 0.191885
O O8 0.853555 0.715022 0.301185
O O9 0.000000 0.500000 0.500000
O O10 0.824566 0.904862 0.503144
O O11 0.697286 0.233337 0.249677
O O12 0.796668 0.329765 0.274961
O O13 0.000000 0.000000 0.000000
O O14 0.574168 0.631619 0.588951
O O15 0.687889 0.277267 0.589661
O O16 0.196710 0.461673 0.673517
O O17 0.500000 0.000000 0.500000
O O18 0.952252 0.202600 0.457732
#
# Coordination Sequence:
#
# PCOD8033139 Si02
#       8
#     2   2   2   2   2   2   2   2
#     4  12  27  49  72 107 148 187 243 299 354 427
#     4  11  24  47  68 100 144 186 227 298 360 416
#     4  12  24  47  72 108 140 192 240 295 364 419
#     4  11  24  44  67 102 142 181 236 288 355 432
#     4  11  24  44  70 102 138 185 231 290 360 417
#     4  12  26  45  75 103 145 188 241 294 357 426
#     4  12  24  43  70 105 133 183 239 289 355 423
#     4  11  23  44  76  97 146 182 229 295 355 428
#
# _framework density 23.355169
#
# number of rings (size 3 to 8) (size 9 to 14) (size 15 to 20)
#    0.000    0.500    2.500    6.750    3.500    1.500 
#    9.000    0.000    0.000    0.000    0.000    0.000 
#    0.000    0.000    0.000    0.000    0.000    0.000 
#
# Total GULP energy -198246.746434 kJ/mol
# GULP energy per Si atom -12390.421652 kJ/mol
# Density = 2.330201 g / cm^3
# Si number density = 23.355169 Si / 1000 Ang^3
#
#
#
# Elastic Constant Matrix: (Units=GPa)
#
#
# Indices 1 2 3 4 5 6 
#
# 1 125.0177 33.1567 44.2628 1.9904 12.2930 -18.6969
# 2 33.1567 72.6450 26.8544 5.3828 -5.9176 -16.5674
# 3 44.2628 26.8544 108.5402 7.9485 17.3134 2.0203
# 4 1.9904 5.3828 7.9485 40.7035 -3.2861 1.2532
# 5 12.2930 -5.9176 17.3134 -3.2861 41.5150 -5.9335
# 6 -18.6969 -16.5674 2.0203 1.2532 -5.9335 33.6699
#
#
#
# Elastic Compliance Matrix: (Units=1/GPa)
#
#
# Indices 1 2 3 4 5 6 
#
# 1 0.010823 -0.002662 -0.003643 0.000279 -0.001376 0.004666
# 2 -0.002662 0.019727 -0.005002 -0.001240 0.006990 0.009807
# 3 -0.003643 -0.005002 0.013192 -0.002043 -0.006197 -0.006292
# 4 0.000279 -0.001240 -0.002043 0.025343 0.002479 -0.000839
# 5 -0.001376 0.006990 -0.006197 0.002479 0.029436 0.008142
# 6 0.004666 0.009807 -0.006292 -0.000839 0.008142 0.038960
#
#
# Mechanical properties :
#
#
# Convention : Reuss Voigt Hill
#
# Bulk Modulus (GPa) = 47.32978 57.19450 52.26214
# Shear Modulus (GPa) = 29.91544 36.63962 33.27753
#
# Velocity S-wave (km/s) = 3.58284 3.96511 3.77881
# Velocity P-wave (km/s) = 6.11759 6.74573 6.43932
#
# Compressibility (1/GPa) = 0.02112835
#
# Stress axis : x y z
#
# Youngs Moduli (GPa) = 92.39279 50.69094 75.80637
#
# Poissons Ratio (x) = 0.13494 0.27616
# Poissons Ratio (y) = 0.24595 0.37918
# Poissons Ratio (z) = 0.33659 0.25356
#
# Static dielectric constant tensor:
#      x y z
#    x 4.601680 -0.129760 -0.168650 
#    y -0.129760 4.159090 0.331430 
#    z -0.168650 0.331430 4.713920 
# 
# 
# High freq. dielectric constant tensor:
#      x y z
#    x 1.946650 -0.001660 0.003250 
#    y -0.001660 1.920320 0.001220 
#    z 0.003250 0.001220 1.933390 
# 
# From -- ./inp_files/307294.got.cif
#   From: 2010.06.25/outbox.cif.g09.slc.cpg/sg2_154_cif.got.tgz:307294.got - 2010.06.27 13:26:56.
