data_PCOD8033234
_publ_section_title
;
Structure prediction by ZEFSAII (Michael W. Deem and Ramdas Pophale) SiO2 
 PCOD8033234
Probable space group: P -1
;
_chemical_formula_sum "Si O2"
_cell_formula_units_Z 16
_cell_length_a 16.365059
_cell_length_b 11.579977
_cell_length_c 6.306414
_cell_angle_alpha 57.760536
_cell_angle_beta 127.781634
_cell_angle_gamma 128.255864
_cell_volume 718.482737
_symmetry_space_group_name_H-M "P -1"
_symmetry_group_IT_number 2
_symmetry_cell_setting 'triclinic'
loop_
_space_group_symop_operation_xyz
x,y,z
-x,-y,-z
loop_
_atom_site_type_symbol
_atom_site_label
_atom_site_fract_x
_atom_site_fract_y
_atom_site_fract_z
Si Si1 0.935614 0.402207 0.289072
Si Si2 0.089081 0.348275 0.258338
Si Si3 0.458985 0.343000 0.215623
Si Si4 0.762415 0.789567 0.264709
Si Si5 0.056445 0.948071 0.946324
Si Si6 0.249038 0.873549 0.522493
Si Si7 0.396782 0.176433 0.687373
Si Si8 0.557095 0.161953 0.325035
O O1 0.819852 0.252513 0.292124
O O2 0.000000 0.500000 0.500000
O O3 0.015989 0.338940 0.360991
O O4 0.892999 0.500431 0.980602
O O5 0.213117 0.357835 0.514438
O O6 0.035578 0.203941 0.157982
O O7 0.449057 0.329001 0.470509
O O8 0.551155 0.280839 0.365989
O O9 0.500000 0.500000 0.000000
O O10 0.329590 0.236230 0.039659
O O11 0.714772 0.829024 0.365006
O O12 0.887826 0.920390 0.270005
O O13 0.161684 0.915802 0.216010
O O14 0.000000 0.000000 0.000000
O O15 0.309620 0.796769 0.542397
O O16 0.353567 0.021768 0.638028
O O17 0.494805 0.178592 0.996433
O O18 0.500000 0.000000 0.500000
#
# Coordination Sequence:
#
# PCOD8033234 Si02
#       8
#     2   2   2   2   2   2   2   2
#     4  11  25  44  63  96 140 180 226 281 339 422
#     4  11  25  43  65  98 139 177 229 283 344 414
#     4  11  26  45  67 100 139 178 228 291 352 426
#     4  11  24  42  69  98 132 179 229 277 354 415
#     4  12  23  43  71 100 139 181 232 291 344 414
#     4  12  22  41  72  95 129 185 222 282 350 403
#     4  11  23  45  70  98 138 175 233 292 349 416
#     4  11  24  44  68 104 133 173 238 289 343 423
#
# _framework density 22.269148000000001
#
# number of rings (size 3 to 8) (size 9 to 14) (size 15 to 20)
#    0.000    0.750    3.750    3.750    0.000    5.000 
#    0.000    0.000    0.000    0.000    0.000    0.000 
#    0.000    0.000    0.000    0.000    0.000    0.000 
#
# Total GULP energy -198325.260733 kJ/mol
# GULP energy per Si atom -12395.328796 kJ/mol
# Density = 2.221846 g / cm^3
# Si number density = 22.269148 Si / 1000 Ang^3
#
#
#
# Elastic Constant Matrix: (Units=GPa)
#
#
# Indices 1 2 3 4 5 6 
#
# 1 159.6002 27.2971 63.0912 -18.4826 5.5575 -19.4963
# 2 27.2971 65.7721 17.3753 -20.6225 -12.4540 -4.1066
# 3 63.0912 17.3753 100.6096 -18.7986 -4.4058 -1.6177
# 4 -18.4826 -20.6225 -18.7986 36.1680 1.2699 -5.9287
# 5 5.5575 -12.4540 -4.4058 1.2699 50.5102 -10.2038
# 6 -19.4963 -4.1066 -1.6177 -5.9287 -10.2038 37.9086
#
#
#
# Elastic Compliance Matrix: (Units=1/GPa)
#
#
# Indices 1 2 3 4 5 6 
#
# 1 0.009447 -0.001920 -0.005241 0.001770 -0.001125 0.004401
# 2 -0.001920 0.021080 0.000083 0.011648 0.006085 0.004759
# 3 -0.005241 0.000083 0.014100 0.004485 0.001517 -0.000975
# 4 0.001770 0.011648 0.004485 0.038948 0.004016 0.009536
# 5 -0.001125 0.006085 0.001517 0.004016 0.022852 0.006924
# 6 0.004401 0.004759 -0.000975 0.009536 0.006924 0.032472
#
#
# Mechanical properties :
#
#
# Convention : Reuss Voigt Hill
#
# Bulk Modulus (GPa) = 32.81611 60.16768 46.49190
# Shear Modulus (GPa) = 30.63472 39.46525 35.04998
#
# Velocity S-wave (km/s) = 3.71301 4.21431 3.97158
# Velocity P-wave (km/s) = 5.75761 7.12444 6.47718
#
# Compressibility (1/GPa) = 0.03047283
#
# Stress axis : x y z
#
# Youngs Moduli (GPa) = 105.84828 47.43723 70.92115
#
# Poissons Ratio (x) = 0.09107 0.37167
# Poissons Ratio (y) = 0.20320 -0.00586
# Poissons Ratio (z) = 0.55471 -0.00392
#
# Static dielectric constant tensor:
#      x y z
#    x 4.546150 -0.033020 0.076950 
#    y -0.033020 3.891880 -0.144720 
#    z 0.076950 -0.144720 4.321230 
# 
# 
# High freq. dielectric constant tensor:
#      x y z
#    x 1.895920 -0.004940 0.002360 
#    y -0.004940 1.859820 -0.019220 
#    z 0.002360 -0.019220 1.895720 
# 
# From -- ./inp_files/94506.got.cif
#   From: 2010.06.25/outbox.cif.g09.slc.cpg/sg2_48_cif.got.tgz:94506.got - 2010.06.27 13:26:56.
