data_PCOD8033280
_publ_section_title
;
Structure prediction by ZEFSAII (Michael W. Deem and Ramdas Pophale) SiO2 
 PCOD8033280
Probable space group: P -1
;
_chemical_formula_sum "Si O2"
_cell_formula_units_Z 12
_cell_length_a 22.545007
_cell_length_b 5.169532
_cell_length_c 5.236688
_cell_angle_alpha 93.095782
_cell_angle_beta 108.917068
_cell_angle_gamma 124.999332
_cell_volume 449.701276
_symmetry_space_group_name_H-M "P -1"
_symmetry_group_IT_number 2
_symmetry_cell_setting 'triclinic'
loop_
_space_group_symop_operation_xyz
x,y,z
-x,-y,-z
loop_
_atom_site_type_symbol
_atom_site_label
_atom_site_fract_x
_atom_site_fract_y
_atom_site_fract_z
Si Si1 0.088053 0.787025 0.537249
Si Si2 0.368075 0.662663 0.796581
Si Si3 0.252270 0.033359 0.902942
Si Si4 0.499282 0.757485 0.676151
Si Si5 0.087452 0.272707 0.240543
Si Si6 0.253733 0.714547 0.369046
O O1 0.097543 0.606467 0.310809
O O2 0.000000 0.500000 0.500000
O O3 0.163358 0.919746 0.836585
O O4 0.094686 0.105685 0.489263
O O5 0.313614 0.421252 0.941208
O O6 0.421076 0.569113 0.740840
O O7 0.313810 0.629463 0.484726
O O8 0.424009 0.032226 0.015708
O O9 0.249786 0.839444 0.646250
O O10 0.285524 0.975138 0.197718
O O11 0.500000 0.500000 0.500000
O O12 0.500000 0.000000 0.500000
O O13 0.161490 0.382804 0.162125
O O14 0.000000 0.000000 0.000000
#
# Coordination Sequence:
#
# PCOD8033280 Si02
#       6
#     2   2   2   2   2   2
#     4  11  23  45  72 113 161 215 274 337 402 478
#     4  11  28  52  82 120 168 210 282 344 420 509
#     4  11  27  48  79 118 162 217 278 338 410 491
#     4  11  30  53  87 120 164 214 272 344 432 508
#     4  11  23  45  72 113 161 215 274 337 402 478
#     4  11  27  48  79 118 162 217 278 338 410 491
#
# _framework density 26.684381999999999
#
# number of rings (size 3 to 8) (size 9 to 14) (size 15 to 20)
#    0.000    1.000    1.667    2.000    9.333    4.000 
#    0.000    2.500    0.000    0.000    0.000    0.000 
#    0.000    0.000    0.000    0.000    0.000    0.000 
#
# Total GULP energy -148740.079960 kJ/mol
# GULP energy per Si atom -12395.006663 kJ/mol
# Density = 2.662365 g / cm^3
# Si number density = 26.684382 Si / 1000 Ang^3
#
#
#
# Elastic Constant Matrix: (Units=GPa)
#
#
# Indices 1 2 3 4 5 6 
#
# 1 144.1986 71.8557 68.7710 17.2047 19.8212 16.3824
# 2 71.8557 129.8050 59.4072 -19.5708 19.9328 10.3052
# 3 68.7710 59.4072 123.2678 -17.4790 21.8084 16.8454
# 4 17.2047 -19.5708 -17.4790 58.8404 2.5527 -0.2747
# 5 19.8212 19.9328 21.8084 2.5527 47.1164 17.3661
# 6 16.3824 10.3052 16.8454 -0.2747 17.3661 53.0235
#
#
#
# Elastic Compliance Matrix: (Units=1/GPa)
#
#
# Indices 1 2 3 4 5 6 
#
# 1 0.013727 -0.006112 -0.005688 -0.007760 0.000385 -0.001412
# 2 -0.006112 0.013101 -0.001704 0.005764 -0.002801 0.000831
# 3 -0.005688 -0.001704 0.013545 0.005244 -0.002995 -0.001207
# 4 -0.007760 0.005764 0.005244 0.022878 -0.003118 0.000751
# 5 0.000385 -0.002801 -0.002995 -0.003118 0.026500 -0.007318
# 6 -0.001412 0.000831 -0.001207 0.000751 -0.007318 0.021919
#
#
# Mechanical properties :
#
#
# Convention : Reuss Voigt Hill
#
# Bulk Modulus (GPa) = 74.82916 88.59325 81.71121
# Shear Modulus (GPa) = 34.93278 44.94521 39.93899
#
# Velocity S-wave (km/s) = 3.62209 4.10851 3.87294
# Velocity P-wave (km/s) = 6.75247 7.46853 7.11951
#
# Compressibility (1/GPa) = 0.01336377
#
# Stress axis : x y z
#
# Youngs Moduli (GPa) = 72.85065 76.33223 73.82598
#
# Poissons Ratio (x) = 0.46658 0.41990
# Poissons Ratio (y) = 0.44530 0.12582
# Poissons Ratio (z) = 0.41435 0.13010
#
# Static dielectric constant tensor:
#      x y z
#    x 5.547810 0.323780 0.621540 
#    y 0.323780 4.504600 0.220270 
#    z 0.621540 0.220270 4.930730 
# 
# 
# High freq. dielectric constant tensor:
#      x y z
#    x 2.087060 0.011980 0.022630 
#    y 0.011980 2.074970 0.009280 
#    z 0.022630 0.009280 2.068100 
# 
# From -- ./inp_files/120839.got.cif
#   From: 2010.06.25/outbox.cif.g09.slc.cpg/sg2_61_cif.got.tgz:120839.got - 2010.06.27 13:26:56.
