data_PCOD8033703
_publ_section_title
;
Structure prediction by ZEFSAII (Michael W. Deem and Ramdas Pophale) SiO2 
 PCOD8033703
Probable space group: P -1
;
_chemical_formula_sum "Si O2"
_cell_formula_units_Z 16
_cell_length_a 12.537159
_cell_length_b 6.438742
_cell_length_c 11.807586
_cell_angle_alpha 53.286832
_cell_angle_beta 98.673255
_cell_angle_gamma 85.379346
_cell_volume 737.610856
_symmetry_space_group_name_H-M "P -1"
_symmetry_group_IT_number 2
_symmetry_cell_setting 'triclinic'
loop_
_space_group_symop_operation_xyz
x,y,z
-x,-y,-z
loop_
_atom_site_type_symbol
_atom_site_label
_atom_site_fract_x
_atom_site_fract_y
_atom_site_fract_z
Si Si1 0.483099 0.106415 0.088827
Si Si2 0.790470 0.518666 0.671126
Si Si3 0.337710 0.672331 0.835727
Si Si4 0.733820 0.133423 0.474807
Si Si5 0.602107 0.286826 0.629546
Si Si6 0.034608 0.701193 0.067816
Si Si7 0.067759 0.725369 0.429873
Si Si8 0.082651 0.726686 0.811891
O O1 0.601175 0.127691 0.153270
O O2 0.432644 0.923449 0.224697
O O3 0.395405 0.380853 0.978461
O O4 0.500000 0.000000 0.000000
O O5 0.671538 0.449895 0.663582
O O6 0.840883 0.441738 0.828193
O O7 0.873299 0.320665 0.666577
O O8 0.780048 0.829757 0.543436
O O9 0.344505 0.714947 0.687028
O O10 0.210681 0.729106 0.832766
O O11 0.666716 0.139687 0.579040
O O12 0.836253 0.282359 0.457312
O O13 0.500000 0.500000 0.500000
O O14 0.948588 0.535294 0.164591
O O15 0.032132 0.709599 0.931460
O O16 0.000000 0.000000 0.000000
O O17 0.000000 0.500000 0.500000
O O18 0.984011 0.005452 0.342920
#
# Coordination Sequence:
#
# PCOD8033703 Si02
#       8
#     2   2   2   2   2   2   2   2
#     4  11  27  48  69  99 136 170 229 282 345 404
#     4  11  24  41  69  98 134 182 227 278 341 402
#     4  11  27  44  70 101 132 181 220 283 346 400
#     4  11  25  46  69  99 141 175 232 283 338 409
#     4  11  26  45  72 100 131 181 231 285 341 405
#     4  11  24  41  67  99 139 180 224 279 338 407
#     4  11  24  41  64 101 139 182 226 274 336 408
#     4  11  25  41  67 101 137 176 231 275 339 407
#
# _framework density 21.691654
#
# number of rings (size 3 to 8) (size 9 to 14) (size 15 to 20)
#    0.000    1.000    2.500    2.250    7.000    7.000 
#    0.000    0.000    0.000    0.000    0.000    0.000 
#    0.000    0.000    0.000    0.000    0.000    0.000 
#
# Total GULP energy -198360.783328 kJ/mol
# GULP energy per Si atom -12397.548958 kJ/mol
# Density = 2.164228 g / cm^3
# Si number density = 21.691654 Si / 1000 Ang^3
#
#
#
# Elastic Constant Matrix: (Units=GPa)
#
#
# Indices 1 2 3 4 5 6 
#
# 1 148.6384 61.3781 56.6828 -5.1657 4.1417 30.2815
# 2 61.3781 118.5642 45.9135 -12.5112 -4.1664 30.4978
# 3 56.6828 45.9135 135.6945 -8.7217 3.5379 25.2714
# 4 -5.1657 -12.5112 -8.7217 38.9091 3.4222 1.6653
# 5 4.1417 -4.1664 3.5379 3.4222 41.8581 1.1630
# 6 30.2815 30.4978 25.2714 1.6653 1.1630 42.6183
#
#
#
# Elastic Compliance Matrix: (Units=1/GPa)
#
#
# Indices 1 2 3 4 5 6 
#
# 1 0.009638 -0.003360 -0.002302 -0.000098 -0.001001 -0.003048
# 2 -0.003360 0.012750 -0.001626 0.003401 0.001626 -0.005949
# 3 -0.002302 -0.001626 0.009537 0.001502 -0.000783 -0.002893
# 4 -0.000098 0.003401 0.001502 0.027469 -0.001906 -0.004276
# 5 -0.001001 0.001626 -0.000783 -0.001906 0.024389 -0.000580
# 6 -0.003048 -0.005949 -0.002893 -0.004276 -0.000580 0.031786
#
#
# Mechanical properties :
#
#
# Convention : Reuss Voigt Hill
#
# Bulk Modulus (GPa) = 57.63984 81.20511 69.42248
# Shear Modulus (GPa) = 36.78431 40.60525 38.69478
#
# Velocity S-wave (km/s) = 4.12245 4.33127 4.22815
# Velocity P-wave (km/s) = 7.02065 7.90763 7.47730
#
# Compressibility (1/GPa) = 0.01734911
#
# Stress axis : x y z
#
# Youngs Moduli (GPa) = 103.75248 78.43376 104.85344
#
# Poissons Ratio (x) = 0.26351 0.24137
# Poissons Ratio (y) = 0.34857 0.17053
# Poissons Ratio (z) = 0.23883 0.12756
#
# Static dielectric constant tensor:
#      x y z
#    x 3.979750 0.110350 0.113490 
#    y 0.110350 3.906510 -0.025950 
#    z 0.113490 -0.025950 4.145400 
# 
# 
# High freq. dielectric constant tensor:
#      x y z
#    x 1.855960 0.015610 0.008740 
#    y 0.015610 1.865060 -0.001160 
#    z 0.008740 -0.001160 1.864710 
# 
# From -- ./inp_files/78393.got.cif
#   From: 2010.06.25/outbox.cif.g09.slc.cpg/sg2_40_cif.got.tgz:78393.got - 2010.06.27 13:26:56.
