data_PCOD8033084
_publ_section_title
;
Structure prediction by ZEFSAII (Michael W. Deem and Ramdas Pophale) SiO2 
 PCOD8033084
Probable space group: P -1
;
_chemical_formula_sum "Si O2"
_cell_formula_units_Z 14
_cell_length_a 9.566219
_cell_length_b 8.345179
_cell_length_c 8.152714
_cell_angle_alpha 107.928289
_cell_angle_beta 85.850497
_cell_angle_gamma 109.552783
_cell_volume 583.191631
_symmetry_space_group_name_H-M "P -1"
_symmetry_group_IT_number 2
_symmetry_cell_setting 'triclinic'
loop_
_space_group_symop_operation_xyz
x,y,z
-x,-y,-z
loop_
_atom_site_type_symbol
_atom_site_label
_atom_site_fract_x
_atom_site_fract_y
_atom_site_fract_z
Si Si1 0.625193 0.009228 0.867689
Si Si2 0.904463 0.112958 0.103070
Si Si3 0.455592 0.663938 0.627505
Si Si4 0.845262 0.947677 0.399488
Si Si5 0.325246 0.814245 0.400826
Si Si6 0.197319 0.444103 0.813572
Si Si7 0.894503 0.499480 0.823697
O O1 0.601262 0.142136 0.770993
O O2 0.596185 0.799924 0.754549
O O3 0.784535 0.102651 0.968604
O O4 0.500000 0.000000 0.000000
O O5 0.015933 0.307863 0.188997
O O6 0.838716 0.047801 0.263448
O O7 0.000000 0.000000 0.000000
O O8 0.500000 0.500000 0.500000
O O9 0.433806 0.798398 0.530557
O O10 0.307590 0.596849 0.735642
O O11 0.778169 0.737832 0.302248
O O12 0.734377 0.016598 0.536044
O O13 0.000000 0.000000 0.500000
O O14 0.200634 0.618661 0.352092
O O15 0.019960 0.408696 0.820054
O O16 0.224164 0.495974 0.020171
#
# Coordination Sequence:
#
# PCOD8033084 Si02
#       7
#     2   2   2   2   2   2   2
#     4  12  26  51  72 100 146 198 244 290 365 445
#     4  12  26  45  74 107 143 193 242 298 361 433
#     4  12  29  47  72 105 149 196 247 298 362 433
#     4  12  24  43  72 114 149 185 236 303 375 428
#     4  12  26  46  75 108 146 191 241 309 363 427
#     4  11  23  45  70 108 145 189 236 300 361 440
#     4  11  23  44  73 108 144 181 246 298 369 426
#
# _framework density 24.005832000000002
#
# number of rings (size 3 to 8) (size 9 to 14) (size 15 to 20)
#    0.000    0.286    2.857    7.286    4.000    2.286 
#    0.000    2.143    0.000    0.000    0.000    0.000 
#    0.000    0.000    0.000    0.000    0.000    0.000 
#
# Total GULP energy -173442.241781 kJ/mol
# GULP energy per Si atom -12388.731556 kJ/mol
# Density = 2.395119 g / cm^3
# Si number density = 24.005832 Si / 1000 Ang^3
#
#
#
# Elastic Constant Matrix: (Units=GPa)
#
#
# Indices 1 2 3 4 5 6 
#
# 1 81.9351 32.3993 28.7381 1.7482 -3.9583 -0.2832
# 2 32.3993 139.1714 49.3405 6.3917 3.0781 2.5110
# 3 28.7381 49.3405 84.4513 -0.4838 2.2422 5.6157
# 4 1.7482 6.3917 -0.4838 67.1237 -1.0523 -1.1456
# 5 -3.9583 3.0781 2.2422 -1.0523 35.6078 3.3959
# 6 -0.2832 2.5110 5.6157 -1.1456 3.3959 44.1310
#
#
#
# Elastic Compliance Matrix: (Units=1/GPa)
#
#
# Indices 1 2 3 4 5 6 
#
# 1 0.014455 -0.002062 -0.003803 -0.000167 0.001968 0.000538
# 2 -0.002062 0.009421 -0.004793 -0.000888 -0.000777 0.000097
# 3 -0.003803 -0.004793 0.016076 0.000629 -0.000838 -0.001716
# 4 -0.000167 -0.000888 0.000629 0.015004 0.000431 0.000326
# 5 0.001968 -0.000777 -0.000838 0.000431 0.028629 -0.002028
# 6 0.000538 0.000097 -0.001716 0.000326 -0.002028 0.023041
#
#
# Mechanical properties :
#
#
# Convention : Reuss Voigt Hill
#
# Bulk Modulus (GPa) = 53.66460 58.50152 56.08306
# Shear Modulus (GPa) = 37.27075 42.37781 39.82428
#
# Velocity S-wave (km/s) = 3.94454 4.20612 4.07743
# Velocity P-wave (km/s) = 6.56881 6.92901 6.75131
#
# Compressibility (1/GPa) = 0.01863426
#
# Stress axis : x y z
#
# Youngs Moduli (GPa) = 69.18183 106.14394 62.20543
#
# Poissons Ratio (x) = 0.21891 0.23656
# Poissons Ratio (y) = 0.14268 0.29818
# Poissons Ratio (z) = 0.26309 0.50879
#
# Static dielectric constant tensor:
#      x y z
#    x 8.051000 2.591230 0.069080 
#    y 2.591230 6.012480 0.510240 
#    z 0.069080 0.510240 4.715130 
# 
# 
# High freq. dielectric constant tensor:
#      x y z
#    x 1.931120 0.012920 -0.009240 
#    y 0.012920 1.973600 0.010490 
#    z -0.009240 0.010490 1.975110 
# 
# From -- ./inp_files/159655.got.cif
#   From: 2010.06.25/outbox.cif.g09.slc.cpg/sg2_80_cif.got.tgz:159655.got - 2010.06.27 13:26:56.
