data_PCOD8033387
_publ_section_title
;
Structure prediction by ZEFSAII (Michael W. Deem and Ramdas Pophale) SiO2 
 PCOD8033387
Probable space group: P -1
;
_chemical_formula_sum "Si O2"
_cell_formula_units_Z 16
_cell_length_a 9.540946
_cell_length_b 12.723813
_cell_length_c 20.867049
_cell_angle_alpha 143.413812
_cell_angle_beta 150.312074
_cell_angle_gamma 48.506682
_cell_volume 742.517265
_symmetry_space_group_name_H-M "P -1"
_symmetry_group_IT_number 2
_symmetry_cell_setting 'triclinic'
loop_
_space_group_symop_operation_xyz
x,y,z
-x,-y,-z
loop_
_atom_site_type_symbol
_atom_site_label
_atom_site_fract_x
_atom_site_fract_y
_atom_site_fract_z
Si Si1 0.696564 0.906693 0.852947
Si Si2 0.680096 0.525503 0.391607
Si Si3 0.381318 0.155636 0.569239
Si Si4 0.110087 0.645652 0.062151
Si Si5 0.365004 0.144348 0.056842
Si Si6 0.649143 0.506427 0.630046
Si Si7 0.189293 0.417761 0.858092
Si Si8 0.871494 0.987238 0.370860
O O1 0.627234 0.957594 0.922394
O O2 0.755305 0.706789 0.784956
O O3 0.434348 0.934015 0.714150
O O4 0.000000 0.000000 0.000000
O O5 0.640826 0.694503 0.417580
O O6 0.523286 0.343047 0.213040
O O7 0.580904 0.571082 0.446190
O O8 0.000000 0.500000 0.500000
O O9 0.580352 0.252508 0.750808
O O10 0.500000 0.000000 0.500000
O O11 0.084693 0.089985 0.454489
O O12 0.095192 0.533323 0.935958
O O13 0.000000 0.500000 0.000000
O O14 0.941835 0.818934 0.073562
O O15 0.500000 0.000000 0.000000
O O16 0.500000 0.500000 0.500000
O O17 0.941286 0.413083 0.702617
O O18 0.197645 0.213796 0.780214
O O19 0.500000 0.500000 0.000000
O O20 0.000000 0.000000 0.500000
#
# Coordination Sequence:
#
# PCOD8033387 Si02
#       8
#     2   2   2   2   2   2   2   2
#     4  11  25  45  68  98 140 179 235 294 346 423
#     4  11  24  45  68 101 141 181 237 293 359 427
#     4  12  26  43  73 104 145 187 233 302 364 426
#     4  12  24  47  73 103 141 188 244 296 360 433
#     4  11  26  46  70 102 139 185 243 294 355 429
#     4  11  23  46  68  98 140 183 233 288 351 425
#     4  12  25  46  74 103 144 190 239 296 356 426
#     4  12  27  45  70 109 143 187 245 292 361 431
#
# _framework density 21.548321000000001
#
# number of rings (size 3 to 8) (size 9 to 14) (size 15 to 20)
#    0.000    0.500    3.750    5.250    7.000    2.000 
#    0.000    0.000    0.000    0.000    0.000    0.000 
#    0.000    0.000    0.000    0.000    0.000    0.000 
#
# Total GULP energy -198276.448431 kJ/mol
# GULP energy per Si atom -12392.278027 kJ/mol
# Density = 2.149928 g / cm^3
# Si number density = 21.548321 Si / 1000 Ang^3
#
#
#
# Elastic Constant Matrix: (Units=GPa)
#
#
# Indices 1 2 3 4 5 6 
#
# 1 132.5071 53.7314 58.6811 3.0054 12.8164 15.1373
# 2 53.7314 137.5381 46.3021 -4.4767 11.7639 9.6299
# 3 58.6811 46.3021 119.8054 -9.8275 25.6975 14.3203
# 4 3.0054 -4.4767 -9.8275 47.6734 -3.0350 -1.9745
# 5 12.8164 11.7639 25.6975 -3.0350 43.7044 -0.7298
# 6 15.1373 9.6299 14.3203 -1.9745 -0.7298 37.8393
#
#
#
# Elastic Compliance Matrix: (Units=1/GPa)
#
#
# Indices 1 2 3 4 5 6 
#
# 1 0.010765 -0.002727 -0.004071 -0.001876 -0.000196 -0.002174
# 2 -0.002727 0.009092 -0.001980 0.000570 -0.000451 -0.000452
# 3 -0.004071 -0.001980 0.012841 0.002241 -0.005713 -0.002720
# 4 -0.001876 0.000570 0.002241 0.021685 0.000600 0.000901
# 5 -0.000196 -0.000451 -0.005713 0.000600 0.026509 0.002898
# 6 -0.002174 -0.000452 -0.002720 0.000901 0.002898 0.028545
#
#
# Mechanical properties :
#
#
# Convention : Reuss Voigt Hill
#
# Bulk Modulus (GPa) = 66.04869 78.58664 72.31766
# Shear Modulus (GPa) = 37.86717 41.25247 39.55982
#
# Velocity S-wave (km/s) = 4.19658 4.38015 4.28935
# Velocity P-wave (km/s) = 7.36204 7.88227 7.62659
#
# Compressibility (1/GPa) = 0.01514035
#
# Stress axis : x y z
#
# Youngs Moduli (GPa) = 92.89096 109.99113 77.87798
#
# Poissons Ratio (x) = 0.29998 0.31704
# Poissons Ratio (y) = 0.25334 0.15422
# Poissons Ratio (z) = 0.37816 0.21782
#
# Static dielectric constant tensor:
#      x y z
#    x 3.137340 0.081120 0.605370 
#    y 0.081120 4.327870 -0.075080 
#    z 0.605370 -0.075080 3.695490 
# 
# 
# High freq. dielectric constant tensor:
#      x y z
#    x 1.848400 0.002720 0.004520 
#    y 0.002720 1.869680 -0.002350 
#    z 0.004520 -0.002350 1.858520 
# 
# From -- ./inp_files/297824.got.cif
#   From: 2010.06.25/outbox.cif.g09.slc.cpg/sg2_149_cif.got.tgz:297824.got - 2010.06.27 13:26:56.
