data_PCOD8033935
_publ_section_title
;
Structure prediction by ZEFSAII (Michael W. Deem and Ramdas Pophale) SiO2 
 PCOD8033935
Probable space group: P -1
;
_chemical_formula_sum "Si O2"
_cell_formula_units_Z 14
_cell_length_a 17.289201
_cell_length_b 9.977663
_cell_length_c 11.309330
_cell_angle_alpha 112.595188
_cell_angle_beta 20.556623
_cell_angle_gamma 113.509840
_cell_volume 627.822738
_symmetry_space_group_name_H-M "P -1"
_symmetry_group_IT_number 2
_symmetry_cell_setting 'triclinic'
loop_
_space_group_symop_operation_xyz
x,y,z
-x,-y,-z
loop_
_atom_site_type_symbol
_atom_site_label
_atom_site_fract_x
_atom_site_fract_y
_atom_site_fract_z
Si Si1 0.880472 0.957850 0.779118
Si Si2 0.289264 0.888219 0.292365
Si Si3 0.925425 0.656057 0.170607
Si Si4 0.291580 0.762164 0.839097
Si Si5 0.403171 0.634484 0.883488
Si Si6 0.029265 0.840093 0.859621
Si Si7 0.686758 0.702008 0.107359
O O1 0.077426 0.974645 0.599556
O O2 0.757575 0.792094 0.915715
O O3 0.000000 0.000000 0.500000
O O4 0.689455 0.063687 0.107083
O O5 0.263791 0.846772 0.453702
O O6 0.278837 0.740193 0.180520
O O7 0.500000 0.000000 0.000000
O O8 0.662367 0.657064 0.551209
O O9 0.040213 0.743391 0.925964
O O10 0.000000 0.500000 0.000000
O O11 0.031661 0.719699 0.163724
O O12 0.365985 0.674678 0.814928
O O13 0.435249 0.722595 0.508077
O O14 0.294787 0.468112 0.002531
O O15 0.832727 0.766078 0.031418
O O16 0.000000 0.000000 0.000000
#
# Coordination Sequence:
#
# PCOD8033935 Si02
#       7
#     2   2   2   2   2   2   2
#     4  11  24  43  65 102 132 182 234 287 338 420
#     4  11  25  46  72  99 145 188 232 291 358 411
#     4  12  24  44  69 105 139 175 235 285 346 420
#     4  12  23  44  75 100 141 181 236 288 348 419
#     4  12  24  48  72 105 144 186 229 294 358 418
#     4  11  24  44  71 103 136 187 240 283 346 425
#     4  11  24  43  70 104 138 186 236 288 357 406
#
# _framework density 22.299287
#
# number of rings (size 3 to 8) (size 9 to 14) (size 15 to 20)
#    0.000    0.571    4.286    5.143    0.000    3.429 
#    2.571    0.714    0.000    0.000    0.000    0.000 
#    0.000    0.000    0.000    0.000    0.000    0.000 
#
# Total GULP energy -173537.044898 kJ/mol
# GULP energy per Si atom -12395.503207 kJ/mol
# Density = 2.224853 g / cm^3
# Si number density = 22.299287 Si / 1000 Ang^3
#
#
#
# Elastic Constant Matrix: (Units=GPa)
#
#
# Indices 1 2 3 4 5 6 
#
# 1 85.7280 41.9576 31.1625 -8.3122 -2.6204 -1.2392
# 2 41.9576 183.4752 46.6707 -5.4968 11.9295 -10.0978
# 3 31.1625 46.6707 89.0512 -4.8292 7.1964 -5.8880
# 4 -8.3122 -5.4968 -4.8292 38.9526 1.1326 -0.0675
# 5 -2.6204 11.9295 7.1964 1.1326 46.3656 -0.3402
# 6 -1.2392 -10.0978 -5.8880 -0.0675 -0.3402 40.6293
#
#
#
# Elastic Compliance Matrix: (Units=1/GPa)
#
#
# Indices 1 2 3 4 5 6 
#
# 1 0.014540 -0.002435 -0.003899 0.002216 0.001994 -0.000706
# 2 -0.002435 0.006816 -0.002507 0.000177 -0.001497 0.001244
# 3 -0.003899 -0.002507 0.014172 0.000625 -0.001781 0.001298
# 4 0.002216 0.000177 0.000625 0.026267 -0.000657 0.000240
# 5 0.001994 -0.001497 -0.001781 -0.000657 0.022355 -0.000383
# 6 -0.000706 0.001244 0.001298 0.000240 -0.000383 0.025086
#
#
# Mechanical properties :
#
#
# Convention : Reuss Voigt Hill
#
# Bulk Modulus (GPa) = 56.04176 66.42622 61.23399
# Shear Modulus (GPa) = 37.63148 41.08705 39.35927
#
# Velocity S-wave (km/s) = 4.11245 4.29712 4.20580
# Velocity P-wave (km/s) = 6.90912 7.38062 7.14876
#
# Compressibility (1/GPa) = 0.01784384
#
# Stress axis : x y z
#
# Youngs Moduli (GPa) = 68.77683 146.71095 70.56344
#
# Poissons Ratio (x) = 0.35728 0.27516
# Poissons Ratio (y) = 0.16749 0.17692
# Poissons Ratio (z) = 0.26819 0.36783
#
# Static dielectric constant tensor:
#      x y z
#    x 5.230800 1.859360 -1.601800 
#    y 1.859360 8.349840 -3.203120 
#    z -1.601800 -3.203120 6.743940 
# 
# 
# High freq. dielectric constant tensor:
#      x y z
#    x 1.872560 -0.006680 -0.001720 
#    y -0.006680 1.895360 -0.000590 
#    z -0.001720 -0.000590 1.882610 
# 
# From -- ./inp_files/262866.got.cif
#   From: 2010.06.25/outbox.cif.g09.slc.cpg/sg2_132_cif.got.tgz:262866.got - 2010.06.27 13:26:56.
