data_PCOD8033483
_publ_section_title
;
Structure prediction by ZEFSAII (Michael W. Deem and Ramdas Pophale) SiO2 
 PCOD8033483
Probable space group: P -1
;
_chemical_formula_sum "Si O2"
_cell_formula_units_Z 12
_cell_length_a 14.206114
_cell_length_b 9.700231
_cell_length_c 9.906539
_cell_angle_alpha 108.069666
_cell_angle_beta 43.352051
_cell_angle_gamma 72.714595
_cell_volume 533.504576
_symmetry_space_group_name_H-M "P -1"
_symmetry_group_IT_number 2
_symmetry_cell_setting 'triclinic'
loop_
_space_group_symop_operation_xyz
x,y,z
-x,-y,-z
loop_
_atom_site_type_symbol
_atom_site_label
_atom_site_fract_x
_atom_site_fract_y
_atom_site_fract_z
Si Si1 0.861060 0.255440 0.908632
Si Si2 0.399899 0.801404 0.873427
Si Si3 0.432591 0.263212 0.767361
Si Si4 0.890183 0.449192 0.166262
Si Si5 0.241041 0.111885 0.916379
Si Si6 0.362684 0.764895 0.201667
O O1 0.648167 0.323911 0.159060
O O2 0.779049 0.447425 0.946318
O O3 0.929655 0.272992 0.982074
O O4 0.087753 0.975652 0.539802
O O5 0.620186 0.690599 0.541504
O O6 0.201059 0.064860 0.087759
O O7 0.428342 0.788230 0.000237
O O8 0.335187 0.188960 0.874996
O O9 0.581553 0.176310 0.716018
O O10 0.590606 0.124899 0.427508
O O11 0.000000 0.500000 0.000000
O O12 0.997353 0.330404 0.164340
O O13 0.500000 0.500000 0.000000
#
# Coordination Sequence:
#
# PCOD8033483 Si02
#       6
#     2   2   2   2   2   2
#     4  12  25  46  75 102 145 194 240 294 354 432
#     4  12  28  43  73 114 143 185 249 297 355 430
#     4  11  23  46  74 104 146 193 235 297 363 426
#     4  12  24  46  76 108 144 190 244 297 355 425
#     4  11  24  43  74 109 143 183 245 301 353 419
#     4  12  28  47  72 105 152 192 235 299 370 423
#
# _framework density 22.492775999999999
#
# number of rings (size 3 to 8) (size 9 to 14) (size 15 to 20)
#    0.000    0.333    6.667    2.000    2.333    1.333 
#    0.000    1.667    0.000    0.000    0.000    0.000 
#    0.000    0.000    0.000    0.000    0.000    0.000 
#
# Total GULP energy -148738.819682 kJ/mol
# GULP energy per Si atom -12394.901640 kJ/mol
# Density = 2.244158 g / cm^3
# Si number density = 22.492776 Si / 1000 Ang^3
#
#
#
# Elastic Constant Matrix: (Units=GPa)
#
#
# Indices 1 2 3 4 5 6 
#
# 1 153.1960 70.4732 32.6559 -12.3305 -8.0553 -13.5231
# 2 70.4732 161.6806 44.6464 -3.7932 9.3008 -27.2214
# 3 32.6559 44.6464 77.0637 -1.6487 -19.1662 2.4702
# 4 -12.3305 -3.7932 -1.6487 36.7723 -6.5519 -0.7029
# 5 -8.0553 9.3008 -19.1662 -6.5519 16.2595 -5.5241
# 6 -13.5231 -27.2214 2.4702 -0.7029 -5.5241 45.3421
#
#
#
# Elastic Compliance Matrix: (Units=1/GPa)
#
#
# Indices 1 2 3 4 5 6 
#
# 1 0.009663 -0.005225 0.002201 0.005116 0.012864 0.001271
# 2 -0.005225 0.014129 -0.012833 -0.005520 -0.026562 0.004302
# 3 0.002201 -0.012833 0.031967 0.009536 0.049050 -0.002666
# 4 0.005116 -0.005520 0.009536 0.034421 0.031504 0.002064
# 5 0.012864 -0.026562 0.049050 0.031504 0.155149 0.004608
# 6 0.001271 0.004302 -0.002666 0.002064 0.004608 0.025755
#
#
# Mechanical properties :
#
#
# Convention : Reuss Voigt Hill
#
# Bulk Modulus (GPa) = 41.59246 76.38792 58.99019
# Shear Modulus (GPa) = 16.08680 35.95243 26.01962
#
# Velocity S-wave (km/s) = 2.67722 4.00234 3.40486
# Velocity P-wave (km/s) = 5.29984 7.44265 6.46070
#
# Compressibility (1/GPa) = 0.02404282
#
# Stress axis : x y z
#
# Youngs Moduli (GPa) = 103.49126 70.77556 31.28211
#
# Poissons Ratio (x) = 0.36983 -0.06884
# Poissons Ratio (y) = 0.54078 0.40146
# Poissons Ratio (z) = -0.22775 0.90829
#
# Static dielectric constant tensor:
#      x y z
#    x 4.348580 -0.199760 -0.078420 
#    y -0.199760 4.074450 0.114950 
#    z -0.078420 0.114950 3.853520 
# 
# 
# High freq. dielectric constant tensor:
#      x y z
#    x 1.912490 -0.015110 -0.010780 
#    y -0.015110 1.897860 0.008730 
#    z -0.010780 0.008730 1.858370 
# 
# From -- ./inp_files/159028.got.cif
#   From: 2010.06.25/outbox.cif.g09.slc.cpg/sg2_80_cif.got.tgz:159028.got - 2010.06.27 13:26:56.
