data_PCOD8033936
_publ_section_title
;
Structure prediction by ZEFSAII (Michael W. Deem and Ramdas Pophale) SiO2 
 PCOD8033936
Probable space group: P -1
;
_chemical_formula_sum "Si O2"
_cell_formula_units_Z 16
_cell_length_a 9.347617
_cell_length_b 9.480078
_cell_length_c 11.967716
_cell_angle_alpha 85.831562
_cell_angle_beta 83.609759
_cell_angle_gamma 44.945404
_cell_volume 744.512187
_symmetry_space_group_name_H-M "P -1"
_symmetry_group_IT_number 2
_symmetry_cell_setting 'triclinic'
loop_
_space_group_symop_operation_xyz
x,y,z
-x,-y,-z
loop_
_atom_site_type_symbol
_atom_site_label
_atom_site_fract_x
_atom_site_fract_y
_atom_site_fract_z
Si Si1 0.332828 0.738174 0.017341
Si Si2 0.341068 0.230373 0.505107
Si Si3 0.643130 0.267655 0.508279
Si Si4 0.516959 0.089108 0.886514
Si Si5 0.165005 0.262368 0.290937
Si Si6 0.029366 0.053916 0.341169
Si Si7 0.146451 0.311012 0.754351
Si Si8 0.066709 0.054152 0.848252
O O1 0.405071 0.807295 0.095898
O O2 0.126349 0.796215 0.061703
O O3 0.500000 0.500000 0.000000
O O4 0.277003 0.864525 0.902325
O O5 0.475382 0.274146 0.488596
O O6 0.213560 0.311152 0.398172
O O7 0.207143 0.310385 0.623223
O O8 0.500000 0.000000 0.500000
O O9 0.500000 0.500000 0.500000
O O10 0.832351 0.131680 0.416167
O O11 0.752759 0.161308 0.623795
O O12 0.298729 0.255926 0.839911
O O13 0.650133 0.924166 0.787550
O O14 0.500000 0.000000 0.000000
O O15 0.025486 0.226089 0.340295
O O16 0.050483 0.457513 0.213982
O O17 0.001563 0.026713 0.218997
O O18 0.101622 0.175370 0.771967
#
# Coordination Sequence:
#
# PCOD8033936 Si02
#       8
#     2   2   2   2   2   2   2   2
#     4  11  27  49  73  97 139 183 229 289 355 418
#     4  12  23  47  70 100 145 186 234 286 345 411
#     4  11  25  41  66  98 135 182 227 277 338 406
#     4  12  26  48  71 103 140 179 238 293 348 415
#     4  12  27  46  71 102 144 189 232 291 347 416
#     4  11  24  43  65  95 139 175 226 284 337 402
#     4  12  27  43  74 104 142 188 232 286 352 415
#     4  11  26  46  67 104 136 177 231 287 344 418
#
# _framework density 21.490582
#
# number of rings (size 3 to 8) (size 9 to 14) (size 15 to 20)
#    0.000    0.500    5.000    1.875    7.000    1.500 
#    0.000    0.000    0.000    0.000    0.000    0.000 
#    0.000    0.000    0.000    0.000    0.000    0.000 
#
# Total GULP energy -198308.108503 kJ/mol
# GULP energy per Si atom -12394.256781 kJ/mol
# Density = 2.144167 g / cm^3
# Si number density = 21.490582 Si / 1000 Ang^3
#
#
#
# Elastic Constant Matrix: (Units=GPa)
#
#
# Indices 1 2 3 4 5 6 
#
# 1 146.1680 53.3875 49.5722 -11.3243 10.5528 16.7917
# 2 53.3875 155.2497 35.4274 -26.2646 19.0389 3.9834
# 3 49.5722 35.4274 110.2754 -15.6200 21.9424 0.3190
# 4 -11.3243 -26.2646 -15.6200 28.3199 -1.7667 3.5428
# 5 10.5528 19.0389 21.9424 -1.7667 40.8043 -5.7526
# 6 16.7917 3.9834 0.3190 3.5428 -5.7526 31.5872
#
#
#
# Elastic Compliance Matrix: (Units=1/GPa)
#
#
# Indices 1 2 3 4 5 6 
#
# 1 0.009406 -0.002245 -0.003396 0.000389 -0.000214 -0.004765
# 2 -0.002245 0.008925 -0.000154 0.007253 -0.003378 -0.001359
# 3 -0.003396 -0.000154 0.012449 0.005005 -0.005509 0.000134
# 4 0.000389 0.007253 0.005005 0.045532 -0.005224 -0.007230
# 5 -0.000214 -0.003378 -0.005509 -0.005224 0.029807 0.006610
# 6 -0.004765 -0.001359 0.000134 -0.007230 0.006610 0.036376
#
#
# Mechanical properties :
#
#
# Convention : Reuss Voigt Hill
#
# Bulk Modulus (GPa) = 52.11282 76.49638 64.30460
# Shear Modulus (GPa) = 31.15608 38.36268 34.75938
#
# Velocity S-wave (km/s) = 3.81170 4.22962 4.02608
# Velocity P-wave (km/s) = 6.60862 7.71528 7.18329
#
# Compressibility (1/GPa) = 0.01918914
#
# Stress axis : x y z
#
# Youngs Moduli (GPa) = 106.31270 112.04637 80.32901
#
# Poissons Ratio (x) = 0.25160 0.27276
# Poissons Ratio (y) = 0.23873 0.01239
# Poissons Ratio (z) = 0.36099 0.01729
#
# Static dielectric constant tensor:
#      x y z
#    x 3.999900 -0.109820 0.012780 
#    y -0.109820 4.003720 -0.192180 
#    z 0.012780 -0.192180 3.841230 
# 
# 
# High freq. dielectric constant tensor:
#      x y z
#    x 1.862540 -0.000570 0.004730 
#    y -0.000570 1.851900 -0.008120 
#    z 0.004730 -0.008120 1.846510 
# 
# From -- ./inp_files/382310.got.cif
#   From: 2010.06.25/outbox.cif.g09.slc.cpg/sg2_192_cif.got.tgz:382310.got - 2010.06.27 13:26:56.
