data_PCOD8033794
_publ_section_title
;
Structure prediction by ZEFSAII (Michael W. Deem and Ramdas Pophale) SiO2 
 PCOD8033794
Probable space group: P -1
;
_chemical_formula_sum "Si O2"
_cell_formula_units_Z 16
_cell_length_a 9.506477
_cell_length_b 12.460978
_cell_length_c 9.437099
_cell_angle_alpha 127.996855
_cell_angle_beta 113.207121
_cell_angle_gamma 57.480612
_cell_volume 739.484322
_symmetry_space_group_name_H-M "P -1"
_symmetry_group_IT_number 2
_symmetry_cell_setting 'triclinic'
loop_
_space_group_symop_operation_xyz
x,y,z
-x,-y,-z
loop_
_atom_site_type_symbol
_atom_site_label
_atom_site_fract_x
_atom_site_fract_y
_atom_site_fract_z
Si Si1 0.575106 0.105307 0.994647
Si Si2 0.581704 0.321674 0.713770
Si Si3 0.377223 0.646062 0.932987
Si Si4 0.774015 0.842989 0.037398
Si Si5 0.041274 0.318778 0.527606
Si Si6 0.589788 0.890705 0.572672
Si Si7 0.958082 0.173037 0.639717
Si Si8 0.954808 0.375067 0.223088
O O1 0.378314 0.206210 0.030225
O O2 0.581585 0.981674 0.783963
O O3 0.660433 0.213805 0.069557
O O4 0.682741 0.018993 0.103989
O O5 0.492806 0.495077 0.771786
O O6 0.496429 0.224045 0.523214
O O7 0.778460 0.254979 0.707337
O O8 0.538413 0.325790 0.867709
O O9 0.204331 0.644634 0.918588
O O10 0.896737 0.812461 0.194932
O O11 0.874152 0.753559 0.868063
O O12 0.221217 0.192492 0.467655
O O13 0.053939 0.467973 0.711228
O O14 0.950843 0.253592 0.551973
O O15 0.937909 0.365465 0.378229
O O16 0.500000 0.000000 0.500000
O O17 0.000000 0.000000 0.500000
#
# Coordination Sequence:
#
# PCOD8033794 Si02
#       8
#     2   2   2   2   2   2   2   2
#     4  11  25  42  70  99 132 182 227 279 335 404
#     4  11  24  42  66 102 139 174 225 278 335 406
#     4  11  24  43  69 100 133 179 232 275 334 400
#     4  11  25  45  69  98 137 175 228 277 341 403
#     4  11  26  44  70 100 135 182 224 278 344 404
#     4  12  21  43  67  94 137 182 220 273 339 402
#     4  12  27  44  67 104 138 176 227 282 339 399
#     4  11  24  48  70  99 135 180 227 281 339 403
#
# _framework density 21.636700000000001
#
# number of rings (size 3 to 8) (size 9 to 14) (size 15 to 20)
#    0.000    0.750    5.000    2.250    3.500    1.000 
#    0.000    0.625    0.000    0.000    0.000    0.000 
#    0.000    0.000    0.000    0.000    0.000    0.000 
#
# Total GULP energy -198421.351969 kJ/mol
# GULP energy per Si atom -12401.334498 kJ/mol
# Density = 2.158745 g / cm^3
# Si number density = 21.636700 Si / 1000 Ang^3
#
#
#
# Elastic Constant Matrix: (Units=GPa)
#
#
# Indices 1 2 3 4 5 6 
#
# 1 97.7109 33.6180 31.3052 24.0269 -11.4000 1.0500
# 2 33.6180 98.1647 31.4002 15.3646 -6.0642 17.3959
# 3 31.3052 31.4002 68.5589 14.5384 -3.2627 7.1585
# 4 24.0269 15.3646 14.5384 33.8450 0.5089 -3.6919
# 5 -11.4000 -6.0642 -3.2627 0.5089 29.9024 7.9727
# 6 1.0500 17.3959 7.1585 -3.6919 7.9727 46.8491
#
#
#
# Elastic Compliance Matrix: (Units=1/GPa)
#
#
# Indices 1 2 3 4 5 6 
#
# 1 0.014748 -0.002222 -0.003744 -0.007973 0.005009 -0.000414
# 2 -0.002222 0.013894 -0.003864 -0.003696 0.003032 -0.005326
# 3 -0.003744 -0.003864 0.019121 -0.004003 0.000421 -0.001790
# 4 -0.007973 -0.003696 -0.004003 0.039400 -0.006601 0.006391
# 5 0.005009 0.003032 0.000421 -0.006601 0.038351 -0.008349
# 6 -0.000414 -0.005326 -0.001790 0.006391 -0.008349 0.025530
#
#
# Mechanical properties :
#
#
# Convention : Reuss Voigt Hill
#
# Bulk Modulus (GPa) = 35.58529 50.78681 43.18605
# Shear Modulus (GPa) = 27.76656 33.32672 30.54664
#
# Velocity S-wave (km/s) = 3.58622 3.92891 3.76147
# Velocity P-wave (km/s) = 5.79917 6.64118 6.23440
#
# Compressibility (1/GPa) = 0.02810150
#
# Stress axis : x y z
#
# Youngs Moduli (GPa) = 67.80666 71.97465 52.29781
#
# Poissons Ratio (x) = 0.15995 0.19580
# Poissons Ratio (y) = 0.15068 0.20210
# Poissons Ratio (z) = 0.25387 0.27814
#
# Static dielectric constant tensor:
#      x y z
#    x 3.894450 -0.067890 0.001980 
#    y -0.067890 4.034600 0.018060 
#    z 0.001980 0.018060 3.927560 
# 
# 
# High freq. dielectric constant tensor:
#      x y z
#    x 1.852780 -0.008810 -0.001290 
#    y -0.008810 1.859330 0.005050 
#    z -0.001290 0.005050 1.847620 
# 
# From -- ./inp_files/190171.got.cif
#   From: 2010.06.25/outbox.cif.g09.slc.cpg/sg2_96_cif.got.tgz:190171.got - 2010.06.27 13:26:56.
