data_PCOD8033342
_publ_section_title
;
Structure prediction by ZEFSAII (Michael W. Deem and Ramdas Pophale) SiO2 
 PCOD8033342
Probable space group: P -1
;
_chemical_formula_sum "Si O2"
_cell_formula_units_Z 16
_cell_length_a 11.961758
_cell_length_b 26.798351
_cell_length_c 9.356795
_cell_angle_alpha 29.179141
_cell_angle_beta 141.848061
_cell_angle_gamma 150.751786
_cell_volume 710.664527
_symmetry_space_group_name_H-M "P -1"
_symmetry_group_IT_number 2
_symmetry_cell_setting 'triclinic'
loop_
_space_group_symop_operation_xyz
x,y,z
-x,-y,-z
loop_
_atom_site_type_symbol
_atom_site_label
_atom_site_fract_x
_atom_site_fract_y
_atom_site_fract_z
Si Si1 0.959234 0.223093 0.690573
Si Si2 0.915167 0.580477 0.913417
Si Si3 0.834139 0.915689 0.834397
Si Si4 0.763441 0.253760 0.922024
Si Si5 0.289186 0.170131 0.758276
Si Si6 0.460478 0.444515 0.254437
Si Si7 0.971861 0.599056 0.453943
Si Si8 0.454108 0.014684 0.753652
O O1 0.697329 0.099264 0.702530
O O2 0.043193 0.348774 0.369999
O O3 0.965153 0.269319 0.742338
O O4 0.129870 0.186918 0.931125
O O5 0.652538 0.507187 0.882490
O O6 0.094203 0.692441 0.924481
O O7 0.941304 0.468003 0.200439
O O8 0.666575 0.915848 0.554134
O O9 0.717355 0.877521 0.968821
O O10 0.079840 0.056813 0.735780
O O11 0.520755 0.223956 0.773188
O O12 0.910483 0.365041 0.672536
O O13 0.717657 0.121505 0.159739
O O14 0.275303 0.287842 0.458010
O O15 0.698766 0.489902 0.445732
O O16 0.500000 0.500000 0.000000
O O17 0.500000 0.000000 0.000000
#
# Coordination Sequence:
#
# PCOD8033342 Si02
#       8
#     2   2   2   2   2   2   2   2
#     4  12  27  48  71 106 142 190 234 293 367 421
#     4  12  25  45  74 103 142 183 245 293 350 426
#     4  11  26  46  74 105 143 182 239 298 355 426
#     4  12  23  46  74 104 140 186 238 293 354 420
#     4  11  23  45  75 107 139 182 238 301 353 412
#     4  12  24  43  71 105 141 187 235 292 354 416
#     4  12  27  46  68 104 146 188 237 291 354 428
#     4  12  27  48  71 106 146 188 231 295 366 428
#
# _framework density 22.514139
#
# number of rings (size 3 to 8) (size 9 to 14) (size 15 to 20)
#    0.000    0.250    6.250    3.000    1.750    3.000 
#    2.250    0.000    0.000    0.000    0.000    0.000 
#    0.000    0.000    0.000    0.000    0.000    0.000 
#
# Total GULP energy -198478.115286 kJ/mol
# GULP energy per Si atom -12404.882205 kJ/mol
# Density = 2.246290 g / cm^3
# Si number density = 22.514139 Si / 1000 Ang^3
#
#
#
# Elastic Constant Matrix: (Units=GPa)
#
#
# Indices 1 2 3 4 5 6 
#
# 1 101.5686 30.4262 29.6763 11.0944 14.7718 14.7529
# 2 30.4262 65.8316 23.8953 -9.9482 3.8949 6.2040
# 3 29.6763 23.8953 117.9802 10.9788 19.1833 6.9715
# 4 11.0944 -9.9482 10.9788 33.1919 -0.9111 6.3830
# 5 14.7718 3.8949 19.1833 -0.9111 41.3117 -4.1291
# 6 14.7529 6.2040 6.9715 6.3830 -4.1291 44.6275
#
#
#
# Elastic Compliance Matrix: (Units=1/GPa)
#
#
# Indices 1 2 3 4 5 6 
#
# 1 0.013690 -0.006389 -0.000713 -0.005778 -0.004400 -0.003107
# 2 -0.006389 0.021076 -0.003866 0.010070 0.002169 -0.001454
# 3 -0.000713 -0.003866 0.010617 -0.004427 -0.004475 -0.000666
# 4 -0.005778 0.010070 -0.004427 0.037373 0.003616 -0.003809
# 5 -0.004400 0.002169 -0.004475 0.003616 0.028126 0.003937
# 6 -0.003107 -0.001454 -0.000666 -0.003809 0.003937 0.024650
#
#
# Mechanical properties :
#
#
# Convention : Reuss Voigt Hill
#
# Bulk Modulus (GPa) = 42.64518 50.37512 46.51015
# Shear Modulus (GPa) = 30.25097 37.25173 33.75135
#
# Velocity S-wave (km/s) = 3.66955 4.07208 3.87605
# Velocity P-wave (km/s) = 6.07756 6.67327 6.38237
#
# Compressibility (1/GPa) = 0.02344931
#
# Stress axis : x y z
#
# Youngs Moduli (GPa) = 73.04639 47.44623 94.18670
#
# Poissons Ratio (x) = 0.30311 0.06715
# Poissons Ratio (y) = 0.46666 0.36409
# Poissons Ratio (z) = 0.05208 0.18341
#
# Static dielectric constant tensor:
#      x y z
#    x 4.203180 0.278640 0.094070 
#    y 0.278640 4.139030 -0.131460 
#    z 0.094070 -0.131460 4.002230 
# 
# 
# High freq. dielectric constant tensor:
#      x y z
#    x 1.898590 0.014000 0.005820 
#    y 0.014000 1.885390 -0.010550 
#    z 0.005820 -0.010550 1.892000 
# 
# From -- ./inp_files/272313.got.cif
#   From: 2010.06.25/outbox.cif.g09.slc.cpg/sg2_137_cif.got.tgz:272313.got - 2010.06.27 13:26:56.
