data_PCOD8033521
_publ_section_title
;
Structure prediction by ZEFSAII (Michael W. Deem and Ramdas Pophale) SiO2 
 PCOD8033521
Probable space group: P -1
;
_chemical_formula_sum "Si O2"
_cell_formula_units_Z 16
_cell_length_a 8.171907
_cell_length_b 19.534175
_cell_length_c 16.485548
_cell_angle_alpha 158.125299
_cell_angle_beta 65.345665
_cell_angle_gamma 125.855983
_cell_volume 721.663396
_symmetry_space_group_name_H-M "P -1"
_symmetry_group_IT_number 2
_symmetry_cell_setting 'triclinic'
loop_
_space_group_symop_operation_xyz
x,y,z
-x,-y,-z
loop_
_atom_site_type_symbol
_atom_site_label
_atom_site_fract_x
_atom_site_fract_y
_atom_site_fract_z
Si Si1 0.156119 0.963054 0.782173
Si Si2 0.732416 0.497806 0.850810
Si Si3 0.154712 0.748818 0.933589
Si Si4 0.831576 0.634984 0.735437
Si Si5 0.313613 0.106530 0.727056
Si Si6 0.773103 0.303264 0.791944
Si Si7 0.546206 0.201444 0.419665
Si Si8 0.737309 0.555811 0.491748
O O1 0.287291 0.869806 0.688362
O O2 0.892008 0.781121 0.653278
O O3 0.191277 0.006689 0.727224
O O4 0.247214 0.199787 0.067886
O O5 0.713117 0.391037 0.823542
O O6 0.533798 0.300624 0.617776
O O7 0.720041 0.708726 0.096166
O O8 0.960969 0.575624 0.845325
O O9 0.301930 0.992404 0.213761
O O10 0.300784 0.657140 0.782442
O O11 0.051852 0.760250 0.883112
O O12 0.632464 0.393498 0.545584
O O13 0.874249 0.598623 0.594135
O O14 0.576205 0.217312 0.803338
O O15 0.207859 0.900152 0.458037
O O16 0.000000 0.500000 0.000000
O O17 0.500000 0.500000 0.500000
#
# Coordination Sequence:
#
# PCOD8033521 Si02
#       8
#     2   2   2   2   2   2   2   2
#     4  12  23  48  69  99 139 188 236 286 345 420
#     4  11  23  47  68 103 142 182 231 281 343 421
#     4  11  24  43  71 101 140 189 233 289 349 408
#     4  11  25  46  68 100 139 182 239 297 341 408
#     4  11  24  46  72  98 143 181 224 286 346 411
#     4  11  26  44  73 110 138 175 227 283 346 422
#     4  11  24  43  71  98 138 186 233 286 343 411
#     4  12  26  45  70 103 143 187 240 296 354 407
#
# _framework density 22.171002000000001
#
# number of rings (size 3 to 8) (size 9 to 14) (size 15 to 20)
#    0.000    0.750    6.250    1.875    3.500    2.000 
#    2.250    0.000    0.000    0.000    0.000    0.000 
#    0.000    0.000    0.000    0.000    0.000    0.000 
#
# Total GULP energy -198436.898600 kJ/mol
# GULP energy per Si atom -12402.306163 kJ/mol
# Density = 2.212054 g / cm^3
# Si number density = 22.171002 Si / 1000 Ang^3
#
#
#
# Elastic Constant Matrix: (Units=GPa)
#
#
# Indices 1 2 3 4 5 6 
#
# 1 61.5299 23.7133 51.7095 2.2709 11.0210 2.5279
# 2 23.7133 97.2093 47.4478 -0.0596 5.8773 -4.7916
# 3 51.7095 47.4478 163.6127 1.3915 4.2009 -1.4481
# 4 2.2709 -0.0596 1.3915 31.2679 2.7890 -4.6676
# 5 11.0210 5.8773 4.2009 2.7890 50.7205 1.3604
# 6 2.5279 -4.7916 -1.4481 -4.6676 1.3604 31.2170
#
#
#
# Elastic Compliance Matrix: (Units=1/GPa)
#
#
# Indices 1 2 3 4 5 6 
#
# 1 0.023719 -0.002391 -0.006707 -0.001450 -0.004171 -0.002634
# 2 -0.002391 0.012391 -0.002805 0.000706 -0.000779 0.002105
# 3 -0.006707 -0.002805 0.009023 0.000063 0.001018 0.000496
# 4 -0.001450 0.000706 0.000063 0.033022 -0.001728 0.005242
# 5 -0.004171 -0.000779 0.001018 -0.001728 0.020747 -0.000897
# 6 -0.002634 0.002105 0.000496 0.005242 -0.000897 0.033416
#
#
# Mechanical properties :
#
#
# Convention : Reuss Voigt Hill
#
# Bulk Modulus (GPa) = 46.88916 63.12146 55.00531
# Shear Modulus (GPa) = 30.63113 35.93983 33.28548
#
# Velocity S-wave (km/s) = 3.72100 4.03057 3.87887
# Velocity P-wave (km/s) = 6.29729 7.08468 6.70256
#
# Compressibility (1/GPa) = 0.02132689
#
# Stress axis : x y z
#
# Youngs Moduli (GPa) = 42.16041 80.70526 110.82969
#
# Poissons Ratio (x) = 0.19296 0.74332
# Poissons Ratio (y) = 0.10080 0.31088
# Poissons Ratio (z) = 0.28276 0.22638
#
# Static dielectric constant tensor:
#      x y z
#    x 3.811640 -0.070920 -0.121620 
#    y -0.070920 4.113970 -0.128950 
#    z -0.121620 -0.128950 4.473790 
# 
# 
# High freq. dielectric constant tensor:
#      x y z
#    x 1.853730 -0.002020 -0.011810 
#    y -0.002020 1.877380 -0.000640 
#    z -0.011810 -0.000640 1.896870 
# 
# From -- ./inp_files/337619.got.cif
#   From: 2010.06.25/outbox.cif.g09.slc.cpg/sg2_169_cif.got.tgz:337619.got - 2010.06.27 13:26:56.
