data_PCOD8033399
_publ_section_title
;
Structure prediction by ZEFSAII (Michael W. Deem and Ramdas Pophale) SiO2 
 PCOD8033399
Probable space group: P -1
;
_chemical_formula_sum "Si O2"
_cell_formula_units_Z 12
_cell_length_a 9.097151
_cell_length_b 13.115064
_cell_length_c 12.820422
_cell_angle_alpha 37.388955
_cell_angle_beta 56.557634
_cell_angle_gamma 84.606129
_cell_volume 569.238310
_symmetry_space_group_name_H-M "P -1"
_symmetry_group_IT_number 2
_symmetry_cell_setting 'triclinic'
loop_
_space_group_symop_operation_xyz
x,y,z
-x,-y,-z
loop_
_atom_site_type_symbol
_atom_site_label
_atom_site_fract_x
_atom_site_fract_y
_atom_site_fract_z
Si Si1 0.437334 0.084615 0.667275
Si Si2 0.097576 0.967753 0.719547
Si Si3 0.749624 0.592901 0.777653
Si Si4 0.689762 0.513870 0.356304
Si Si5 0.921007 0.405259 0.725206
Si Si6 0.924891 0.278281 0.262580
O O1 0.538907 0.321353 0.483429
O O2 0.656824 0.101012 0.554525
O O3 0.331672 0.053856 0.618994
O O4 0.238423 0.867790 0.994855
O O5 0.068474 0.871276 0.696141
O O6 0.115016 0.177657 0.527897
O O7 0.862648 0.767524 0.037281
O O8 0.752981 0.437478 0.821629
O O9 0.894929 0.630701 0.789226
O O10 0.500000 0.500000 0.000000
O O11 0.500000 0.500000 0.500000
O O12 0.836671 0.474248 0.401036
O O13 0.000000 0.500000 0.500000
O O14 0.000000 0.500000 0.000000
#
# Coordination Sequence:
#
# PCOD8033399 Si02
#       6
#     2   2   2   2   2   2
#     4  11  23  46  69  97 136 177 228 278 338 403
#     4  11  25  41  70 101 134 178 226 281 341 404
#     4  12  26  44  68 106 140 177 229 284 340 404
#     4  11  26  45  70  99 133 183 230 275 339 407
#     4  11  27  46  69 101 138 182 228 279 340 405
#     4  12  21  44  70  98 137 179 224 277 344 403
#
# _framework density 21.0808
#
# number of rings (size 3 to 8) (size 9 to 14) (size 15 to 20)
#    0.000    0.667    3.333    4.000    4.667    3.333 
#    0.000    0.000    0.000    0.000    0.000    0.000 
#    0.000    0.000    0.000    0.000    0.000    0.000 
#
# Total GULP energy -148757.917952 kJ/mol
# GULP energy per Si atom -12396.493163 kJ/mol
# Density = 2.103282 g / cm^3
# Si number density = 21.080800 Si / 1000 Ang^3
#
#
#
# Elastic Constant Matrix: (Units=GPa)
#
#
# Indices 1 2 3 4 5 6 
#
# 1 102.8058 36.5250 57.7956 8.9430 6.0390 4.5712
# 2 36.5250 89.4885 36.6175 18.2281 -6.3489 -3.8492
# 3 57.7956 36.6175 122.1651 -0.3929 6.4746 6.8894
# 4 8.9430 18.2281 -0.3929 39.0413 -4.7189 -3.6692
# 5 6.0390 -6.3489 6.4746 -4.7189 38.7792 4.9721
# 6 4.5712 -3.8492 6.8894 -3.6692 4.9721 42.0745
#
#
#
# Elastic Compliance Matrix: (Units=1/GPa)
#
#
# Indices 1 2 3 4 5 6 
#
# 1 0.014447 -0.003309 -0.005694 -0.002146 -0.001988 -0.000892
# 2 -0.003309 0.015333 -0.003273 -0.005975 0.002657 0.001463
# 3 -0.005694 -0.003273 0.012003 0.002693 -0.001162 -0.001274
# 4 -0.002146 -0.005975 0.002693 0.029342 0.002280 0.001535
# 5 -0.001988 0.002657 -0.001162 0.002280 0.027308 -0.002379
# 6 -0.000892 0.001463 -0.001274 0.001535 -0.002379 0.024622
#
#
# Mechanical properties :
#
#
# Convention : Reuss Voigt Hill
#
# Bulk Modulus (GPa) = 58.03705 64.03729 61.03717
# Shear Modulus (GPa) = 32.60512 36.21376 34.40944
#
# Velocity S-wave (km/s) = 3.93704 4.14920 4.04451
# Velocity P-wave (km/s) = 6.94677 7.30736 7.12934
#
# Compressibility (1/GPa) = 0.01723037
#
# Stress axis : x y z
#
# Youngs Moduli (GPa) = 69.21889 65.21892 83.31465
#
# Poissons Ratio (x) = 0.21580 0.47441
# Poissons Ratio (y) = 0.22903 0.27269
# Poissons Ratio (z) = 0.39415 0.21346
#
# Static dielectric constant tensor:
#      x y z
#    x 4.039210 -0.178440 0.013440 
#    y -0.178440 3.933450 -0.319700 
#    z 0.013440 -0.319700 4.133020 
# 
# 
# High freq. dielectric constant tensor:
#      x y z
#    x 1.832830 0.002670 -0.003180 
#    y 0.002670 1.831580 -0.003590 
#    z -0.003180 -0.003590 1.842020 
# 
# From -- ./inp_files/20882.got.cif
#   From: 2010.06.25/outbox.cif.g09.slc.cpg/sg2_11_cif.got.tgz:20882.got - 2010.06.27 13:26:56.
