data_PCOD8033529
_publ_section_title
;
Structure prediction by ZEFSAII (Michael W. Deem and Ramdas Pophale) SiO2 
 PCOD8033529
Probable space group: P -1
;
_chemical_formula_sum "Si O2"
_cell_formula_units_Z 16
_cell_length_a 5.306937
_cell_length_b 15.133467
_cell_length_c 8.716348
_cell_angle_alpha 105.319206
_cell_angle_beta 110.941761
_cell_angle_gamma 86.944294
_cell_volume 629.902101
_symmetry_space_group_name_H-M "P -1"
_symmetry_group_IT_number 2
_symmetry_cell_setting 'triclinic'
loop_
_space_group_symop_operation_xyz
x,y,z
-x,-y,-z
loop_
_atom_site_type_symbol
_atom_site_label
_atom_site_fract_x
_atom_site_fract_y
_atom_site_fract_z
Si Si1 0.352630 0.529432 0.330118
Si Si2 0.386828 0.028491 0.321556
Si Si3 0.436337 0.663584 0.159834
Si Si4 0.838911 0.321782 0.438405
Si Si5 0.183156 0.066281 0.828443
Si Si6 0.017541 0.235703 0.708139
Si Si7 0.007148 0.358827 0.176447
Si Si8 0.343555 0.194214 0.195180
O O1 0.500000 0.500000 0.500000
O O2 0.520693 0.579848 0.251779
O O3 0.165494 0.608605 0.386829
O O4 0.208896 0.437730 0.186399
O O5 0.595931 0.996371 0.225373
O O6 0.083875 0.990566 0.197808
O O7 0.500000 0.000000 0.500000
O O8 0.367090 0.138726 0.336680
O O9 0.705692 0.707918 0.162259
O O10 0.244080 0.734171 0.238648
O O11 0.273168 0.625082 0.960185
O O12 0.568462 0.277594 0.282531
O O13 0.988548 0.239486 0.517299
O O14 0.996792 0.377805 0.365752
O O15 0.064361 0.130373 0.701486
O O16 0.343964 0.122030 0.023261
O O17 0.076004 0.251257 0.133105
#
# Coordination Sequence:
#
# PCOD8033529 Si02
#       8
#     2   2   2   2   2   2   2   2
#     4  11  23  47  69 108 144 196 246 302 358 423
#     4  12  29  49  77 109 146 188 241 301 363 439
#     4  11  25  45  71 105 145 191 244 297 359 428
#     4  11  26  43  75 103 149 194 245 300 359 430
#     4  12  26  49  76 107 150 185 242 298 368 435
#     4  11  24  46  74 106 142 193 241 298 360 427
#     4  12  25  44  72 105 149 194 247 298 361 436
#     4  12  27  46  73 110 146 193 240 300 367 430
#
# _framework density 25.400774999999999
#
# number of rings (size 3 to 8) (size 9 to 14) (size 15 to 20)
#    0.000    0.500    2.500    4.875    7.000    1.000 
#    0.000    3.750    0.000    0.000    0.000    0.000 
#    0.000    0.000    0.000    0.000    0.000    0.000 
#
# Total GULP energy -198217.203319 kJ/mol
# GULP energy per Si atom -12388.575207 kJ/mol
# Density = 2.534296 g / cm^3
# Si number density = 25.400775 Si / 1000 Ang^3
#
#
#
# Elastic Constant Matrix: (Units=GPa)
#
#
# Indices 1 2 3 4 5 6 
#
# 1 89.9973 19.6927 1.3596 12.2687 9.4744 4.0004
# 2 19.6927 126.8440 5.7526 -10.1156 -0.0604 -1.0449
# 3 1.3596 5.7526 74.5844 -2.2779 7.1462 -17.4974
# 4 12.2687 -10.1156 -2.2779 47.6276 1.3293 8.3767
# 5 9.4744 -0.0604 7.1462 1.3293 33.2495 -1.5614
# 6 4.0004 -1.0449 -17.4974 8.3767 -1.5614 25.1975
#
#
#
# Elastic Compliance Matrix: (Units=1/GPa)
#
#
# Indices 1 2 3 4 5 6 
#
# 1 0.012477 -0.002212 -0.000122 -0.003373 -0.003457 -0.001250
# 2 -0.002212 0.008448 -0.000736 0.002410 0.000681 -0.000569
# 3 -0.000122 -0.000736 0.016440 -0.001309 -0.002900 0.011660
# 4 -0.003373 0.002410 -0.001309 0.023755 -0.000087 -0.008176
# 5 -0.003457 0.000681 -0.002900 -0.000087 0.031715 0.000557
# 6 -0.001250 -0.000569 0.011660 -0.008176 0.000557 0.050711
#
#
# Mechanical properties :
#
#
# Convention : Reuss Voigt Hill
#
# Bulk Modulus (GPa) = 32.02680 38.33729 35.18204
# Shear Modulus (GPa) = 31.23150 38.85633 35.04391
#
# Velocity S-wave (km/s) = 3.51030 3.91542 3.71838
# Velocity P-wave (km/s) = 5.39125 5.96376 5.68471
#
# Compressibility (1/GPa) = 0.03122385
#
# Stress axis : x y z
#
# Youngs Moduli (GPa) = 80.14908 118.36526 60.82725
#
# Poissons Ratio (x) = 0.26188 0.00741
# Poissons Ratio (y) = 0.17733 0.04479
# Poissons Ratio (z) = 0.00976 0.08716
#
# Static dielectric constant tensor:
#      x y z
#    x 4.493060 -0.009410 0.140620 
#    y -0.009410 4.002810 -0.748400 
#    z 0.140620 -0.748400 4.485520 
# 
# 
# High freq. dielectric constant tensor:
#      x y z
#    x 1.997060 0.000950 0.011350 
#    y 0.000950 2.036020 -0.023240 
#    z 0.011350 -0.023240 2.018920 
# 
# From -- ./inp_files/90654.got.cif
#   From: 2010.06.25/outbox.cif.g09.slc.cpg/sg2_46_cif.got.tgz:90654.got - 2010.06.27 13:26:56.
