data_PCOD8033645
_publ_section_title
;
Structure prediction by ZEFSAII (Michael W. Deem and Ramdas Pophale) SiO2 
 PCOD8033645
Probable space group: P -1
;
_chemical_formula_sum "Si O2"
_cell_formula_units_Z 16
_cell_length_a 12.279132
_cell_length_b 17.997527
_cell_length_c 9.682977
_cell_angle_alpha 40.344304
_cell_angle_beta 34.124574
_cell_angle_gamma 36.159900
_cell_volume 679.280346
_symmetry_space_group_name_H-M "P -1"
_symmetry_group_IT_number 2
_symmetry_cell_setting 'triclinic'
loop_
_space_group_symop_operation_xyz
x,y,z
-x,-y,-z
loop_
_atom_site_type_symbol
_atom_site_label
_atom_site_fract_x
_atom_site_fract_y
_atom_site_fract_z
Si Si1 0.064968 0.693976 0.080920
Si Si2 0.002023 0.361631 0.479192
Si Si3 0.940984 0.982215 0.738233
Si Si4 0.058182 0.179531 0.428813
Si Si5 0.576051 0.362527 0.680563
Si Si6 0.394253 0.412509 0.086283
Si Si7 0.462563 0.189569 0.887554
Si Si8 0.670115 0.648072 0.463166
O O1 0.091726 0.683570 0.231447
O O2 0.848125 0.687866 0.272262
O O3 0.285514 0.570541 0.962414
O O4 0.049175 0.829530 0.865320
O O5 0.079047 0.244974 0.453937
O O6 0.216429 0.370713 0.284702
O O7 0.801751 0.507731 0.442223
O O8 0.671777 0.058586 0.913938
O O9 0.054837 0.041165 0.642598
O O10 0.000000 0.000000 0.500000
O O11 0.817077 0.275130 0.482122
O O12 0.251638 0.164374 0.142695
O O13 0.500000 0.500000 0.500000
O O14 0.413582 0.307430 0.879003
O O15 0.590295 0.357419 0.842303
O O16 0.462209 0.363050 0.245120
O O17 0.492351 0.237940 0.634498
#
# Coordination Sequence:
#
# PCOD8033645 Si02
#       8
#     2   2   2   2   2   2   2   2
#     4   9  20  39  66  93 133 168 216 267 312 385
#     4   9  18  39  66  98 126 169 208 264 336 382
#     4  11  26  44  63  93 127 174 226 263 310 380
#     4  11  24  41  66  95 132 172 215 263 323 385
#     4  11  24  37  65 103 132 166 210 268 332 383
#     4   9  19  40  68  98 133 163 207 270 329 384
#     4  11  24  43  68  95 131 171 215 269 318 382
#     4   9  19  37  69  99 125 172 209 261 337 379
#
# _framework density 23.554338999999999
#
# number of rings (size 3 to 8) (size 9 to 14) (size 15 to 20)
#    0.000    2.000    1.250    3.000    7.000    3.500 
#    2.250    2.500    0.000    0.000    0.000    0.000 
#    0.000    0.000    0.000    0.000    0.000    0.000 
#
# Total GULP energy -198235.502803 kJ/mol
# GULP energy per Si atom -12389.718925 kJ/mol
# Density = 2.350073 g / cm^3
# Si number density = 23.554339 Si / 1000 Ang^3
#
#
#
# Elastic Constant Matrix: (Units=GPa)
#
#
# Indices 1 2 3 4 5 6 
#
# 1 84.2392 24.6019 26.5870 -14.0350 4.3529 14.8395
# 2 24.6019 86.0841 56.9924 -23.5374 -4.7844 17.3965
# 3 26.5870 56.9924 118.4453 -10.5062 -1.9772 1.0547
# 4 -14.0350 -23.5374 -10.5062 45.0391 1.2342 -3.5199
# 5 4.3529 -4.7844 -1.9772 1.2342 37.3669 0.7810
# 6 14.8395 17.3965 1.0547 -3.5199 0.7810 33.1759
#
#
#
# Elastic Compliance Matrix: (Units=1/GPa)
#
#
# Indices 1 2 3 4 5 6 
#
# 1 0.014522 -0.000323 -0.002790 0.003300 -0.001868 -0.005843
# 2 -0.000323 0.023118 -0.010143 0.008706 0.002399 -0.010788
# 3 -0.002790 -0.010143 0.013669 -0.002515 -0.000290 0.005872
# 4 0.003300 0.008706 -0.002515 0.026959 -0.000228 -0.003095
# 5 -0.001868 0.002399 -0.000290 -0.000228 0.027301 -0.001080
# 6 -0.005843 -0.010788 0.005872 -0.003095 -0.001080 0.037923
#
#
# Mechanical properties :
#
#
# Convention : Reuss Voigt Hill
#
# Bulk Modulus (GPa) = 40.32969 56.12567 48.22768
# Shear Modulus (GPa) = 28.04730 35.15552 31.60141
#
# Velocity S-wave (km/s) = 3.45447 3.86752 3.66681
# Velocity P-wave (km/s) = 5.75068 6.61993 6.20055
#
# Compressibility (1/GPa) = 0.02479563
#
# Stress axis : x y z
#
# Youngs Moduli (GPa) = 68.86230 43.25666 73.15677
#
# Poissons Ratio (x) = 0.01399 0.20414
# Poissons Ratio (y) = 0.02227 0.74201
# Poissons Ratio (z) = 0.19216 0.43874
#
# Static dielectric constant tensor:
#      x y z
#    x 5.538860 -0.373110 0.520770 
#    y -0.373110 3.961530 0.327320 
#    z 0.520770 0.327320 4.183450 
# 
# 
# High freq. dielectric constant tensor:
#      x y z
#    x 1.945030 0.015150 -0.022540 
#    y 0.015150 1.918090 0.003230 
#    z -0.022540 0.003230 1.933560 
# 
# From -- ./inp_files/278753.got.cif
#   From: 2010.06.25/outbox.cif.g09.slc.cpg/sg2_140_cif.got.tgz:278753.got - 2010.06.27 13:26:56.
