data_PCOD8033971
_publ_section_title
;
Structure prediction by ZEFSAII (Michael W. Deem and Ramdas Pophale) SiO2 
 PCOD8033971
Probable space group: P -1
;
_chemical_formula_sum "Si O2"
_cell_formula_units_Z 16
_cell_length_a 15.028735
_cell_length_b 24.093176
_cell_length_c 8.474053
_cell_angle_alpha 129.025805
_cell_angle_beta 63.376176
_cell_angle_gamma 159.988437
_cell_volume 686.640120
_symmetry_space_group_name_H-M "P -1"
_symmetry_group_IT_number 2
_symmetry_cell_setting 'triclinic'
loop_
_space_group_symop_operation_xyz
x,y,z
-x,-y,-z
loop_
_atom_site_type_symbol
_atom_site_label
_atom_site_fract_x
_atom_site_fract_y
_atom_site_fract_z
Si Si1 0.737069 0.871806 0.540146
Si Si2 0.760172 0.890825 0.907700
Si Si3 0.653431 0.638698 0.777789
Si Si4 0.902871 0.503717 0.259861
Si Si5 0.708858 0.499745 0.001465
Si Si6 0.932056 0.756999 0.034195
Si Si7 0.789164 0.270035 0.896160
Si Si8 0.279237 0.869438 0.796456
O O1 0.663230 0.796922 0.643370
O O2 0.445585 0.659953 0.283062
O O3 0.000000 0.000000 0.500000
O O4 0.833864 0.019877 0.711584
O O5 0.429737 0.689628 0.887927
O O6 0.000000 0.000000 0.000000
O O7 0.979464 0.108731 0.098860
O O8 0.500000 0.500000 0.500000
O O9 0.508479 0.619017 0.894493
O O10 0.632055 0.579872 0.853923
O O11 0.852031 0.387265 0.150425
O O12 0.042993 0.643977 0.544719
O O13 0.173301 0.685824 0.238989
O O14 0.984326 0.641958 0.104325
O O15 0.830907 0.653438 0.092770
O O16 0.086388 0.805846 0.884369
O O17 0.459899 0.014898 0.753785
O O18 0.500000 0.000000 0.000000
#
# Coordination Sequence:
#
# PCOD8033971 Si02
#       8
#     2   2   2   2   2   2   2   2
#     4  11  24  43  68 103 143 183 239 297 350 436
#     4  11  24  45  71 104 140 191 234 292 370 421
#     4  11  26  44  69 108 144 184 238 297 361 434
#     4  11  27  50  73 103 152 189 244 308 353 444
#     4  12  24  45  72 105 142 191 237 294 365 429
#     4  11  25  45  69 102 141 186 238 297 362 421
#     4  11  26  48  74 106 142 197 245 295 371 425
#     4  12  26  48  74 108 141 191 244 301 367 426
#
# _framework density 23.301870999999998
#
# number of rings (size 3 to 8) (size 9 to 14) (size 15 to 20)
#    0.000    0.750    3.750    3.750    7.000    0.500 
#    4.500    0.000    0.000    0.000    0.000    0.000 
#    0.000    0.000    0.000    0.000    0.000    0.000 
#
# Total GULP energy -198235.917132 kJ/mol
# GULP energy per Si atom -12389.744821 kJ/mol
# Density = 2.324883 g / cm^3
# Si number density = 23.301871 Si / 1000 Ang^3
#
#
#
# Elastic Constant Matrix: (Units=GPa)
#
#
# Indices 1 2 3 4 5 6 
#
# 1 92.0014 4.5603 28.2908 5.8781 -21.1028 10.2769
# 2 4.5603 105.4938 20.6739 -6.4642 -14.7166 6.9775
# 3 28.2908 20.6739 144.9619 1.4257 -18.8881 8.8638
# 4 5.8781 -6.4642 1.4257 30.5329 3.9075 -1.9745
# 5 -21.1028 -14.7166 -18.8881 3.9075 36.8563 -4.0597
# 6 10.2769 6.9775 8.8638 -1.9745 -4.0597 38.1427
#
#
#
# Elastic Compliance Matrix: (Units=1/GPa)
#
#
# Indices 1 2 3 4 5 6 
#
# 1 0.013529 0.000714 -0.001587 -0.003493 0.007278 -0.002813
# 2 0.000714 0.010356 -0.001068 0.001545 0.003682 -0.001367
# 3 -0.001587 -0.001068 0.007765 -0.000678 0.002613 -0.000938
# 4 -0.003493 0.001545 -0.000678 0.034577 -0.005170 0.002056
# 5 0.007278 0.003682 0.002613 -0.005170 0.034677 0.000182
# 6 -0.002813 -0.001367 -0.000938 0.002056 0.000182 0.027569
#
#
# Mechanical properties :
#
#
# Convention : Reuss Voigt Hill
#
# Bulk Modulus (GPa) = 36.01463 49.94522 42.97992
# Shear Modulus (GPa) = 35.30750 40.36852 37.83801
#
# Velocity S-wave (km/s) = 3.89681 4.16675 4.03404
# Velocity P-wave (km/s) = 5.97796 6.68053 6.33899
#
# Compressibility (1/GPa) = 0.02776650
#
# Stress axis : x y z
#
# Youngs Moduli (GPa) = 73.91553 96.55808 128.78392
#
# Poissons Ratio (x) = -0.06890 0.20443
# Poissons Ratio (y) = -0.05275 0.13756
# Poissons Ratio (z) = 0.11733 0.10314
#
# Static dielectric constant tensor:
#      x y z
#    x 4.764760 0.035770 -0.192040 
#    y 0.035770 4.696300 -0.254940 
#    z -0.192040 -0.254940 3.785690 
# 
# 
# High freq. dielectric constant tensor:
#      x y z
#    x 1.925200 0.000110 -0.011260 
#    y 0.000110 1.935690 -0.008330 
#    z -0.011260 -0.008330 1.914970 
# 
# From -- ./inp_files/320740.got.cif
#   From: 2010.06.25/outbox.cif.g09.slc.cpg/sg2_161_cif.got.tgz:320740.got - 2010.06.27 13:26:56.
