data_PCOD8033299
_publ_section_title
;
Structure prediction by ZEFSAII (Michael W. Deem and Ramdas Pophale) SiO2 
 PCOD8033299
Probable space group: P -1
;
_chemical_formula_sum "Si O2"
_cell_formula_units_Z 14
_cell_length_a 10.802980
_cell_length_b 12.852888
_cell_length_c 6.843589
_cell_angle_alpha 129.393492
_cell_angle_beta 121.862807
_cell_angle_gamma 78.529012
_cell_volume 610.122200
_symmetry_space_group_name_H-M "P -1"
_symmetry_group_IT_number 2
_symmetry_cell_setting 'triclinic'
loop_
_space_group_symop_operation_xyz
x,y,z
-x,-y,-z
loop_
_atom_site_type_symbol
_atom_site_label
_atom_site_fract_x
_atom_site_fract_y
_atom_site_fract_z
Si Si1 0.954323 0.056855 0.826392
Si Si2 0.538731 0.787371 0.752572
Si Si3 0.179514 0.730098 0.864602
Si Si4 0.940339 0.598566 0.214607
Si Si5 0.632474 0.436020 0.934478
Si Si6 0.840431 0.832498 0.202952
Si Si7 0.414816 0.957774 0.177114
O O1 0.093072 0.077072 0.819833
O O2 0.819129 0.942874 0.484839
O O3 0.911798 0.207643 0.970974
O O4 0.000000 0.000000 0.000000
O O5 0.428031 0.655491 0.414043
O O6 0.589452 0.900892 0.764603
O O7 0.684071 0.737261 0.893750
O O8 0.477820 0.852677 0.966998
O O9 0.062292 0.621934 0.514944
O O10 0.308907 0.658375 0.968230
O O11 0.249206 0.871531 0.977228
O O12 0.945429 0.738273 0.267893
O O13 0.775243 0.546804 0.108110
O O14 0.000000 0.500000 0.000000
O O15 0.500000 0.500000 0.000000
O O16 0.500000 0.000000 0.500000
#
# Coordination Sequence:
#
# PCOD8033299 Si02
#       7
#     2   2   2   2   2   2   2
#     4  11  23  45  73 113 144 182 240 314 384 436
#     4  11  26  44  72 107 147 184 246 304 378 445
#     4  12  25  47  78 103 149 191 251 312 374 441
#     4  12  28  49  73 106 153 203 255 306 367 452
#     4  12  30  48  74 107 152 209 258 303 371 456
#     4  11  26  42  74 107 145 186 241 303 378 441
#     4  11  23  45  75 109 142 186 238 313 390 440
#
# _framework density 22.94622
#
# number of rings (size 3 to 8) (size 9 to 14) (size 15 to 20)
#    0.000    0.571    2.857    3.857   10.000    1.714 
#    0.000    0.000    0.000    0.000    0.000    0.000 
#    0.000    0.000    0.000    0.000    0.000    0.000 
#
# Total GULP energy -173515.108037 kJ/mol
# GULP energy per Si atom -12393.936288 kJ/mol
# Density = 2.289399 g / cm^3
# Si number density = 22.946220 Si / 1000 Ang^3
#
#
#
# Elastic Constant Matrix: (Units=GPa)
#
#
# Indices 1 2 3 4 5 6 
#
# 1 95.9083 28.4155 69.3122 -2.9901 1.4544 -5.8499
# 2 28.4155 82.2801 49.4368 -3.1784 -10.1304 -12.2632
# 3 69.3122 49.4368 208.5853 3.0213 4.3423 -11.9149
# 4 -2.9901 -3.1784 3.0213 36.0004 -1.5361 0.8219
# 5 1.4544 -10.1304 4.3423 -1.5361 44.8352 5.4162
# 6 -5.8499 -12.2632 -11.9149 0.8219 5.4162 50.4001
#
#
#
# Elastic Compliance Matrix: (Units=1/GPa)
#
#
# Indices 1 2 3 4 5 6 
#
# 1 0.014193 -0.002415 -0.004144 0.001286 -0.000575 0.000121
# 2 -0.002415 0.015563 -0.002845 0.001512 0.003630 0.002419
# 3 -0.004144 -0.002845 0.006926 -0.001246 -0.001297 0.000624
# 4 0.001286 0.001512 -0.001246 0.028192 0.001434 -0.000391
# 5 -0.000575 0.003630 -0.001297 0.001434 0.023565 -0.002046
# 6 0.000121 0.002419 0.000624 -0.000391 -0.002046 0.020818
#
#
# Mechanical properties :
#
#
# Convention : Reuss Voigt Hill
#
# Bulk Modulus (GPa) = 55.94669 75.67807 65.81238
# Shear Modulus (GPa) = 37.30703 42.22109 39.76406
#
# Velocity S-wave (km/s) = 4.03655 4.29418 4.16736
# Velocity P-wave (km/s) = 6.79409 7.59202 7.20411
#
# Compressibility (1/GPa) = 0.01787416
#
# Stress axis : x y z
#
# Youngs Moduli (GPa) = 70.45781 64.25457 144.37949
#
# Poissons Ratio (x) = 0.15518 0.59825
# Poissons Ratio (y) = 0.17016 0.41082
# Poissons Ratio (z) = 0.29195 0.18283
#
# Static dielectric constant tensor:
#      x y z
#    x 4.298360 0.044660 -0.041100 
#    y 0.044660 4.100080 0.009780 
#    z -0.041100 0.009780 4.469510 
# 
# 
# High freq. dielectric constant tensor:
#      x y z
#    x 1.911910 0.000560 -0.002300 
#    y 0.000560 1.905580 -0.002640 
#    z -0.002300 -0.002640 1.928110 
# 
# From -- ./inp_files/72473.got.cif
#   From: 2010.06.25/outbox.cif.g09.slc.cpg/sg2_37_cif.got.tgz:72473.got - 2010.06.27 13:26:56.
