data_PCOD8033159
_publ_section_title
;
Structure prediction by ZEFSAII (Michael W. Deem and Ramdas Pophale) SiO2 
 PCOD8033159
Probable space group: P -1
;
_chemical_formula_sum "Si O2"
_cell_formula_units_Z 16
_cell_length_a 14.783271
_cell_length_b 11.992154
_cell_length_c 9.538764
_cell_angle_alpha 101.875855
_cell_angle_beta 70.944296
_cell_angle_gamma 151.275664
_cell_volume 756.018768
_symmetry_space_group_name_H-M "P -1"
_symmetry_group_IT_number 2
_symmetry_cell_setting 'triclinic'
loop_
_space_group_symop_operation_xyz
x,y,z
-x,-y,-z
loop_
_atom_site_type_symbol
_atom_site_label
_atom_site_fract_x
_atom_site_fract_y
_atom_site_fract_z
Si Si1 0.674294 0.915060 0.322289
Si Si2 0.297365 0.641764 0.034850
Si Si3 0.278444 0.229566 0.523776
Si Si4 0.725755 0.123684 0.840984
Si Si5 0.086131 0.713797 0.501951
Si Si6 0.903776 0.147336 0.979446
Si Si7 0.890912 0.932597 0.720152
Si Si8 0.740565 0.522650 0.705646
O O1 0.760308 0.911457 0.384916
O O2 0.438044 0.666148 0.365247
O O3 0.753779 0.113326 0.406714
O O4 0.775075 0.001622 0.145425
O O5 0.225238 0.691012 0.133368
O O6 0.341581 0.613245 0.142607
O O7 0.132770 0.406376 0.965829
O O8 0.491561 0.855377 0.896424
O O9 0.500000 0.500000 0.500000
O O10 0.238952 0.149739 0.362600
O O11 0.121946 0.167675 0.618911
O O12 0.806700 0.153165 0.665517
O O13 0.832738 0.180250 0.934168
O O14 0.000000 0.500000 0.500000
O O15 0.915124 0.629525 0.581122
O O16 0.871904 0.995059 0.877753
O O17 0.809058 0.723063 0.748689
#
# Coordination Sequence:
#
# PCOD8033159 Si02
#       8
#     2   2   2   2   2   2   2   2
#     4  12  25  44  71  99 139 183 229 282 346 409
#     4  11  24  47  71 101 142 178 228 290 335 410
#     4  11  23  45  66  97 135 181 221 284 341 401
#     4  11  25  45  72 104 137 178 234 280 345 406
#     4  12  25  47  71 102 139 181 228 290 341 407
#     4  12  25  44  71 103 135 184 229 283 347 404
#     4  11  26  43  71 100 137 177 234 282 341 414
#     4  12  24  47  69 101 140 182 231 281 342 414
#
# _framework density 21.163497
#
# number of rings (size 3 to 8) (size 9 to 14) (size 15 to 20)
#    0.000    0.500    6.250    1.125    1.750    6.000 
#    0.000    0.000    0.000    0.000    0.000    0.000 
#    0.000    0.000    0.000    0.000    0.000    0.000 
#
# Total GULP energy -198459.561265 kJ/mol
# GULP energy per Si atom -12403.722579 kJ/mol
# Density = 2.111533 g / cm^3
# Si number density = 21.163497 Si / 1000 Ang^3
#
#
#
# Elastic Constant Matrix: (Units=GPa)
#
#
# Indices 1 2 3 4 5 6 
#
# 1 111.4979 54.9894 49.9355 14.0662 17.1501 -3.8132
# 2 54.9894 140.8693 67.1042 15.3255 -0.2863 14.3813
# 3 49.9355 67.1042 157.0484 6.7737 6.6719 -8.1749
# 4 14.0662 15.3255 6.7737 38.1925 -0.4791 5.0162
# 5 17.1501 -0.2863 6.6719 -0.4791 21.8682 0.3591
# 6 -3.8132 14.3813 -8.1749 5.0162 0.3591 38.7706
#
#
#
# Elastic Compliance Matrix: (Units=1/GPa)
#
#
# Indices 1 2 3 4 5 6 
#
# 1 0.014339 -0.004739 -0.001737 -0.003651 -0.010913 0.003375
# 2 -0.004739 0.011494 -0.003841 -0.001412 0.005097 -0.005404
# 3 -0.001737 -0.003841 0.008773 0.000202 -0.001411 0.003091
# 4 -0.003651 -0.001412 0.000202 0.028565 0.003467 -0.003521
# 5 -0.010913 0.005097 -0.001411 0.003467 0.054929 -0.004219
# 6 0.003375 -0.005404 0.003091 -0.003521 -0.004219 0.029276
#
#
# Mechanical properties :
#
#
# Convention : Reuss Voigt Hill
#
# Bulk Modulus (GPa) = 71.57940 83.71932 77.64936
# Shear Modulus (GPa) = 28.95719 35.59203 32.27461
#
# Velocity S-wave (km/s) = 3.70301 4.10538 3.90938
# Velocity P-wave (km/s) = 7.22348 7.88140 7.55960
#
# Compressibility (1/GPa) = 0.01397050
#
# Stress axis : x y z
#
# Youngs Moduli (GPa) = 69.74084 86.99965 113.98077
#
# Poissons Ratio (x) = 0.41230 0.19804
# Poissons Ratio (y) = 0.33051 0.43785
# Poissons Ratio (z) = 0.12117 0.33420
#
# Static dielectric constant tensor:
#      x y z
#    x 4.077490 -0.067470 0.074040 
#    y -0.067470 4.178540 0.121150 
#    z 0.074040 0.121150 3.924850 
# 
# 
# High freq. dielectric constant tensor:
#      x y z
#    x 1.834510 0.000020 0.011580 
#    y 0.000020 1.850300 -0.002430 
#    z 0.011580 -0.002430 1.831520 
# 
# From -- ./inp_files/307994.got.cif
#   From: 2010.06.25/outbox.cif.g09.slc.cpg/sg2_154_cif.got.tgz:307994.got - 2010.06.27 13:26:56.
