data_PCOD8033161
_publ_section_title
;
Structure prediction by ZEFSAII (Michael W. Deem and Ramdas Pophale) SiO2 
 PCOD8033161
Probable space group: P -1
;
_chemical_formula_sum "Si O2"
_cell_formula_units_Z 14
_cell_length_a 10.125515
_cell_length_b 9.442422
_cell_length_c 11.987913
_cell_angle_alpha 46.532130
_cell_angle_beta 120.920631
_cell_angle_gamma 133.261876
_cell_volume 603.816181
_symmetry_space_group_name_H-M "P -1"
_symmetry_group_IT_number 2
_symmetry_cell_setting 'triclinic'
loop_
_space_group_symop_operation_xyz
x,y,z
-x,-y,-z
loop_
_atom_site_type_symbol
_atom_site_label
_atom_site_fract_x
_atom_site_fract_y
_atom_site_fract_z
Si Si1 0.869832 0.372920 0.117493
Si Si2 0.926714 0.981953 0.340815
Si Si3 0.330241 0.315889 0.367838
Si Si4 0.934333 0.276224 0.795371
Si Si5 0.160609 0.130602 0.871565
Si Si6 0.680608 0.440505 0.572725
Si Si7 0.448653 0.550227 0.073496
O O1 0.835394 0.122111 0.264720
O O2 0.975018 0.523726 0.186033
O O3 0.671795 0.337492 0.046827
O O4 0.000000 0.500000 0.000000
O O5 0.126684 0.088038 0.429034
O O6 0.949580 0.035487 0.188868
O O7 0.795929 0.707227 0.439634
O O8 0.487745 0.292619 0.505338
O O9 0.343575 0.538978 0.314666
O O10 0.341954 0.330387 0.230023
O O11 0.776001 0.300378 0.658587
O O12 0.087226 0.303541 0.761308
O O13 0.855941 0.020744 0.946782
O O14 0.376089 0.287976 0.862500
O O15 0.500000 0.500000 0.000000
#
# Coordination Sequence:
#
# PCOD8033161 Si02
#       7
#     2   2   2   2   2   2   2
#     4  12  22  41  73  99 138 183 239 297 345 403
#     4  12  24  45  74 103 137 191 236 291 354 418
#     4  11  24  43  70 104 143 180 238 294 342 428
#     4  11  23  45  67 100 141 190 230 292 355 420
#     4  11  25  43  72 102 140 185 242 291 355 414
#     4  11  25  46  72  99 148 188 232 286 360 429
#     4  12  24  44  71 107 143 182 242 298 349 417
#
# _framework density 23.185865
#
# number of rings (size 3 to 8) (size 9 to 14) (size 15 to 20)
#    0.000    0.571    7.143    0.429    2.000    3.429 
#    0.000    0.714    0.000    0.000    0.000    0.000 
#    0.000    0.000    0.000    0.000    0.000    0.000 
#
# Total GULP energy -173450.104844 kJ/mol
# GULP energy per Si atom -12389.293203 kJ/mol
# Density = 2.313309 g / cm^3
# Si number density = 23.185865 Si / 1000 Ang^3
#
#
#
# Elastic Constant Matrix: (Units=GPa)
#
#
# Indices 1 2 3 4 5 6 
#
# 1 159.5208 49.9102 68.5876 2.3752 47.4549 1.5935
# 2 49.9102 89.6036 35.2382 14.5749 25.6372 4.7537
# 3 68.5876 35.2382 96.5036 -1.3607 38.2539 -4.6428
# 4 2.3752 14.5749 -1.3607 41.0370 0.0490 5.7400
# 5 47.4549 25.6372 38.2539 0.0490 57.2188 10.3771
# 6 1.5935 4.7537 -4.6428 5.7400 10.3771 40.6241
#
#
#
# Elastic Compliance Matrix: (Units=1/GPa)
#
#
# Indices 1 2 3 4 5 6 
#
# 1 0.010431 -0.002785 -0.004627 0.000169 -0.004398 0.000487
# 2 -0.002785 0.015439 -0.002688 -0.005330 -0.002704 -0.000561
# 3 -0.004627 -0.002688 0.017923 0.001218 -0.007730 0.004347
# 4 0.000169 -0.005330 0.001218 0.026786 0.002055 -0.003553
# 5 -0.004398 -0.002704 -0.007730 0.002055 0.028968 -0.008084
# 6 0.000487 -0.000561 0.004347 -0.003553 -0.008084 0.027726
#
#
# Mechanical properties :
#
#
# Convention : Reuss Voigt Hill
#
# Bulk Modulus (GPa) = 42.38837 72.56665 57.47751
# Shear Modulus (GPa) = 32.18769 40.56878 36.37823
#
# Velocity S-wave (km/s) = 3.72996 4.18750 3.96534
# Velocity P-wave (km/s) = 6.07222 7.39905 6.76823
#
# Compressibility (1/GPa) = 0.02359138
#
# Stress axis : x y z
#
# Youngs Moduli (GPa) = 95.87171 64.76960 55.79447
#
# Poissons Ratio (x) = 0.18041 0.25817
# Poissons Ratio (y) = 0.26704 0.14999
# Poissons Ratio (z) = 0.44361 0.17412
#
# Static dielectric constant tensor:
#      x y z
#    x 4.519450 0.029310 -0.103760 
#    y 0.029310 4.000750 0.226910 
#    z -0.103760 0.226910 4.322720 
# 
# 
# High freq. dielectric constant tensor:
#      x y z
#    x 1.931130 0.006980 0.004590 
#    y 0.006980 1.907990 0.021520 
#    z 0.004590 0.021520 1.915240 
# 
# From -- ./inp_files/381147.got.cif
#   From: 2010.06.25/outbox.cif.g09.slc.cpg/sg2_191_cif.got.tgz:381147.got - 2010.06.27 13:26:56.
