data_PCOD8033854
_publ_section_title
;
Structure prediction by ZEFSAII (Michael W. Deem and Ramdas Pophale) SiO2 
 PCOD8033854
Probable space group: P -1
;
_chemical_formula_sum "Si O2"
_cell_formula_units_Z 16
_cell_length_a 6.554026
_cell_length_b 15.682339
_cell_length_c 14.871121
_cell_angle_alpha 141.015930
_cell_angle_beta 61.210182
_cell_angle_gamma 130.285558
_cell_volume 732.819552
_symmetry_space_group_name_H-M "P -1"
_symmetry_group_IT_number 2
_symmetry_cell_setting 'triclinic'
loop_
_space_group_symop_operation_xyz
x,y,z
-x,-y,-z
loop_
_atom_site_type_symbol
_atom_site_label
_atom_site_fract_x
_atom_site_fract_y
_atom_site_fract_z
Si Si1 0.809499 0.557580 0.977128
Si Si2 0.185443 0.772505 0.923673
Si Si3 0.937507 0.305853 0.776933
Si Si4 0.969032 0.492400 0.606766
Si Si5 0.509363 0.017804 0.406133
Si Si6 0.221445 0.077410 0.091380
Si Si7 0.897735 0.770742 0.599317
Si Si8 0.371837 0.258020 0.545675
O O1 0.966361 0.691590 0.981286
O O2 0.860030 0.415520 0.824792
O O3 0.500000 0.500000 0.000000
O O4 0.908550 0.613346 0.100777
O O5 0.484482 0.817335 0.928909
O O6 0.109664 0.663537 0.761593
O O7 0.198681 0.935601 0.038064
O O8 0.122299 0.269737 0.644635
O O9 0.665070 0.153333 0.738501
O O10 0.654175 0.411508 0.631016
O O11 0.000000 0.500000 0.500000
O O12 0.100803 0.392543 0.535749
O O13 0.373313 0.114878 0.477596
O O14 0.810367 0.086652 0.366659
O O15 0.500000 0.000000 0.500000
O O16 0.176989 0.196783 0.259892
O O17 0.000000 0.000000 0.000000
O O18 0.680551 0.766635 0.570880
#
# Coordination Sequence:
#
# PCOD8033854 Si02
#       8
#     2   2   2   2   2   2   2   2
#     4  11  27  43  68  98 137 180 223 277 335 410
#     4  11  26  45  68  96 137 175 228 275 338 404
#     4  11  25  42  65 100 133 176 224 269 346 399
#     4  11  24  44  69  99 134 175 226 286 338 400
#     4  11  25  40  68 100 136 174 220 281 341 405
#     4  11  27  45  68  98 134 181 224 279 337 401
#     4  11  25  42  69 101 132 177 232 276 342 403
#     4  11  24  42  69  99 134 173 227 283 334 407
#
# _framework density 21.833479000000001
#
# number of rings (size 3 to 8) (size 9 to 14) (size 15 to 20)
#    0.000    1.000    1.250    3.375    8.750    8.000 
#    0.000    0.000    0.000    0.000    0.000    0.000 
#    0.000    0.000    0.000    0.000    0.000    0.000 
#
# Total GULP energy -198438.999080 kJ/mol
# GULP energy per Si atom -12402.437442 kJ/mol
# Density = 2.178379 g / cm^3
# Si number density = 21.833479 Si / 1000 Ang^3
#
#
#
# Elastic Constant Matrix: (Units=GPa)
#
#
# Indices 1 2 3 4 5 6 
#
# 1 134.4424 33.9409 25.4609 0.7103 8.3259 7.4729
# 2 33.9409 99.9293 0.9494 1.2252 -2.1945 14.0470
# 3 25.4609 0.9494 67.2940 3.6116 4.0298 6.9979
# 4 0.7103 1.2252 3.6116 40.2433 2.3189 4.8624
# 5 8.3259 -2.1945 4.0298 2.3189 27.2450 -0.6242
# 6 7.4729 14.0470 6.9979 4.8624 -0.6242 40.6136
#
#
#
# Elastic Compliance Matrix: (Units=1/GPa)
#
#
# Indices 1 2 3 4 5 6 
#
# 1 0.008982 -0.003064 -0.003210 0.000385 -0.002553 -0.000125
# 2 -0.003064 0.011582 0.001281 -0.000067 0.001602 -0.003630
# 3 -0.003210 0.001281 0.016461 -0.001072 -0.001319 -0.002581
# 4 0.000385 -0.000067 -0.001072 0.025422 -0.002196 -0.002940
# 5 -0.002553 0.001602 -0.001319 -0.002196 0.038018 0.000990
# 6 -0.000125 -0.003630 -0.002581 -0.002940 0.000990 0.026713
#
#
# Mechanical properties :
#
#
# Convention : Reuss Voigt Hill
#
# Bulk Modulus (GPa) = 36.98207 46.92980 41.95593
# Shear Modulus (GPa) = 34.20504 37.70800 35.95652
#
# Velocity S-wave (km/s) = 3.96237 4.16031 4.06255
# Velocity P-wave (km/s) = 6.15701 6.67972 6.42369
#
# Compressibility (1/GPa) = 0.02704013
#
# Stress axis : x y z
#
# Youngs Moduli (GPa) = 111.32767 86.34291 60.74787
#
# Poissons Ratio (x) = 0.26452 0.19501
# Poissons Ratio (y) = 0.34106 -0.07781
# Poissons Ratio (z) = 0.35737 -0.11059
#
# Static dielectric constant tensor:
#      x y z
#    x 4.297740 0.124940 0.031580 
#    y 0.124940 4.246450 0.306200 
#    z 0.031580 0.306200 4.086780 
# 
# 
# High freq. dielectric constant tensor:
#      x y z
#    x 1.876050 0.006590 0.004460 
#    y 0.006590 1.867660 0.006050 
#    z 0.004460 0.006050 1.860950 
# 
# From -- ./inp_files/484457.got.cif
#   From: 2010.06.25/outbox.cif.g09.slc.cpg/sg2_243_cif.got.tgz:484457.got - 2010.06.27 13:26:56.
