data_PCOD8033033
_publ_section_title
;
Structure prediction by ZEFSAII (Michael W. Deem and Ramdas Pophale) SiO2 
 PCOD8033033
Probable space group: P -1
;
_chemical_formula_sum "Si O2"
_cell_formula_units_Z 16
_cell_length_a 11.554272
_cell_length_b 11.776032
_cell_length_c 12.177648
_cell_angle_alpha 141.713391
_cell_angle_beta 110.899756
_cell_angle_gamma 97.279867
_cell_volume 682.406129
_symmetry_space_group_name_H-M "P -1"
_symmetry_group_IT_number 2
_symmetry_cell_setting 'triclinic'
loop_
_space_group_symop_operation_xyz
x,y,z
-x,-y,-z
loop_
_atom_site_type_symbol
_atom_site_label
_atom_site_fract_x
_atom_site_fract_y
_atom_site_fract_z
Si Si1 0.014296 0.165942 0.534756
Si Si2 0.316872 0.299068 0.344896
Si Si3 0.195889 0.580258 0.514351
Si Si4 0.393744 0.115508 0.606732
Si Si5 0.335846 0.391985 0.669307
Si Si6 0.332758 0.030006 0.764424
Si Si7 0.260377 0.721252 0.095996
Si Si8 0.801017 0.218177 0.109223
O O1 0.150626 0.268530 0.559451
O O2 0.081279 0.421252 0.811210
O O3 0.000000 0.000000 0.500000
O O4 0.831070 0.007773 0.288273
O O5 0.500000 0.500000 0.500000
O O6 0.213329 0.380568 0.349322
O O7 0.320938 0.273374 0.457965
O O8 0.229302 0.027056 0.055927
O O9 0.246826 0.693084 0.741008
O O10 0.002931 0.446733 0.319736
O O11 0.323556 0.820665 0.658081
O O12 0.415407 0.349773 0.760506
O O13 0.302352 0.980591 0.587476
O O14 0.588166 0.241913 0.770053
O O15 0.256293 0.895463 0.303214
O O16 0.478466 0.698701 0.933219
O O17 0.309672 0.832614 0.072609
#
# Coordination Sequence:
#
# PCOD8033033 Si02
#       8
#     2   2   2   2   2   2   2   2
#     4  12  24  44  73 106 145 195 249 298 378 449
#     4  12  28  47  76 110 147 202 251 310 380 442
#     4  11  27  47  77 107 147 197 252 314 370 452
#     4  11  24  43  72 105 148 190 235 306 372 446
#     4  12  25  48  72 107 152 189 247 316 362 449
#     4  12  25  44  73 109 144 197 248 299 383 446
#     4  11  23  44  72 102 145 194 235 306 375 440
#     4  11  24  51  74 106 149 194 255 313 377 437
#
# _framework density 23.446449999999999
#
# number of rings (size 3 to 8) (size 9 to 14) (size 15 to 20)
#    0.000    0.500    5.000    3.000    3.500    1.500 
#    4.500    0.000    0.000    0.000    0.000    0.000 
#    0.000    0.000    0.000    0.000    0.000    0.000 
#
# Total GULP energy -198346.324039 kJ/mol
# GULP energy per Si atom -12396.645252 kJ/mol
# Density = 2.339308 g / cm^3
# Si number density = 23.446450 Si / 1000 Ang^3
#
#
#
# Elastic Constant Matrix: (Units=GPa)
#
#
# Indices 1 2 3 4 5 6 
#
# 1 66.5091 -6.5151 6.8292 5.3640 9.6762 8.6357
# 2 -6.5151 84.4990 1.8500 14.7812 13.0987 4.3226
# 3 6.8292 1.8500 71.0734 12.0936 2.7113 10.2539
# 4 5.3640 14.7812 12.0936 45.3112 -2.3210 -1.1950
# 5 9.6762 13.0987 2.7113 -2.3210 27.6755 7.9987
# 6 8.6357 4.3226 10.2539 -1.1950 7.9987 43.5577
#
#
#
# Elastic Compliance Matrix: (Units=1/GPa)
#
#
# Indices 1 2 3 4 5 6 
#
# 1 0.016976 0.003093 -0.000547 -0.003290 -0.006940 -0.002360
# 2 0.003093 0.014364 0.000734 -0.005690 -0.008179 -0.000866
# 3 -0.000547 0.000734 0.015405 -0.004431 -0.001018 -0.003526
# 4 -0.003290 -0.005690 -0.004431 0.025850 0.005900 0.001886
# 5 -0.006940 -0.008179 -0.001018 0.005900 0.044646 -0.005610
# 6 -0.002360 -0.000866 -0.003526 0.001886 -0.005610 0.025424
#
#
# Mechanical properties :
#
#
# Convention : Reuss Voigt Hill
#
# Bulk Modulus (GPa) = 18.75973 25.15665 21.95819
# Shear Modulus (GPa) = 32.49432 37.97003 35.23218
#
# Velocity S-wave (km/s) = 3.72680 4.02859 3.88063
# Velocity P-wave (km/s) = 5.15143 5.69140 5.42813
#
# Compressibility (1/GPa) = 0.05330567
#
# Stress axis : x y z
#
# Youngs Moduli (GPa) = 58.90660 69.61718 64.91444
#
# Poissons Ratio (x) = -0.21532 0.03548
# Poissons Ratio (y) = -0.18219 -0.04764
# Poissons Ratio (z) = 0.03220 -0.05109
#
# Static dielectric constant tensor:
#      x y z
#    x 4.320240 -0.023990 -0.180770 
#    y -0.023990 4.312240 0.111350 
#    z -0.180770 0.111350 4.392630 
# 
# 
# High freq. dielectric constant tensor:
#      x y z
#    x 1.926720 -0.008220 0.001480 
#    y -0.008220 1.945690 0.007010 
#    z 0.001480 0.007010 1.924920 
# 
# From -- ./inp_files/429119.got.cif
#   From: 2010.06.25/outbox.cif.g09.slc.cpg/sg2_215_cif.got.tgz:429119.got - 2010.06.27 13:26:56.
