data_PCOD8033258
_publ_section_title
;
Structure prediction by ZEFSAII (Michael W. Deem and Ramdas Pophale) SiO2 
 PCOD8033258
Probable space group: P -1
;
_chemical_formula_sum "Si O2"
_cell_formula_units_Z 16
_cell_length_a 13.217988
_cell_length_b 13.087410
_cell_length_c 8.848420
_cell_angle_alpha 84.653555
_cell_angle_beta 131.053463
_cell_angle_gamma 56.989235
_cell_volume 678.522919
_symmetry_space_group_name_H-M "P -1"
_symmetry_group_IT_number 2
_symmetry_cell_setting 'triclinic'
loop_
_space_group_symop_operation_xyz
x,y,z
-x,-y,-z
loop_
_atom_site_type_symbol
_atom_site_label
_atom_site_fract_x
_atom_site_fract_y
_atom_site_fract_z
Si Si1 0.438994 0.687920 0.820522
Si Si2 0.466514 0.358262 0.411623
Si Si3 0.132617 0.059710 0.504899
Si Si4 0.834327 0.825258 0.969779
Si Si5 0.235803 0.310150 0.305072
Si Si6 0.137793 0.751907 0.069922
Si Si7 0.165927 0.653270 0.572674
Si Si8 0.576494 0.939021 0.254653
O O1 0.520899 0.684941 0.743765
O O2 0.319974 0.653291 0.670388
O O3 0.258484 0.875661 0.700156
O O4 0.664690 0.535064 0.163569
O O5 0.422810 0.284085 0.477732
O O6 0.264567 0.564577 0.207885
O O7 0.707489 0.255393 0.708991
O O8 0.318457 0.015748 0.607506
O O9 0.029632 0.183950 0.529464
O O10 0.931001 0.163596 0.174219
O O11 0.915527 0.871560 0.940599
O O12 0.050067 0.667621 0.313998
O O13 0.730494 0.800524 0.768325
O O14 0.626961 0.979256 0.854468
O O15 0.235909 0.263593 0.484479
O O16 0.000000 0.500000 0.000000
O O17 0.500000 0.000000 0.000000
#
# Coordination Sequence:
#
# PCOD8033258 Si02
#       8
#     2   2   2   2   2   2   2   2
#     4  11  25  42  75 107 145 194 240 306 370 437
#     4  11  23  45  71 112 139 189 254 296 364 442
#     4  12  24  48  71 104 147 195 241 304 371 433
#     4  12  24  46  74  98 143 195 233 304 366 422
#     4  12  26  46  75 105 143 189 248 297 363 442
#     4  11  24  44  76 100 147 189 239 313 362 426
#     4  11  25  48  69 107 154 186 246 301 369 438
#     4  12  27  47  70 101 150 190 240 305 367 442
#
# _framework density 23.580631
#
# number of rings (size 3 to 8) (size 9 to 14) (size 15 to 20)
#    0.000    0.500    6.250    1.500    1.750    2.500 
#    2.250    1.875    0.000    0.000    0.000    0.000 
#    0.000    0.000    0.000    0.000    0.000    0.000 
#
# Total GULP energy -198291.045333 kJ/mol
# GULP energy per Si atom -12393.190333 kJ/mol
# Density = 2.352696 g / cm^3
# Si number density = 23.580631 Si / 1000 Ang^3
#
#
#
# Elastic Constant Matrix: (Units=GPa)
#
#
# Indices 1 2 3 4 5 6 
#
# 1 98.9946 30.5059 34.6631 6.5311 -5.2708 6.7489
# 2 30.5059 66.6643 37.4204 -6.5222 -13.6668 3.6182
# 3 34.6631 37.4204 120.9800 4.2201 -24.7976 12.4130
# 4 6.5311 -6.5222 4.2201 32.2799 -1.1216 0.9406
# 5 -5.2708 -13.6668 -24.7976 -1.1216 50.8602 -0.3428
# 6 6.7489 3.6182 12.4130 0.9406 -0.3428 39.9382
#
#
#
# Elastic Compliance Matrix: (Units=1/GPa)
#
#
# Indices 1 2 3 4 5 6 
#
# 1 0.012627 -0.005138 -0.002049 -0.003337 -0.001151 -0.000963
# 2 -0.005138 0.021182 -0.004705 0.006030 0.003000 0.000295
# 3 -0.002049 -0.004705 0.011484 -0.001817 0.004064 -0.002719
# 4 -0.003337 0.006030 -0.001817 0.033155 0.001119 -0.000189
# 5 -0.001151 0.003000 0.004064 0.001119 0.022347 -0.001175
# 6 -0.000963 0.000295 -0.002719 -0.000189 -0.001175 0.026014
#
#
# Mechanical properties :
#
#
# Convention : Reuss Voigt Hill
#
# Bulk Modulus (GPa) = 46.49641 54.64641 50.57141
# Shear Modulus (GPa) = 31.69313 36.88561 34.28937
#
# Velocity S-wave (km/s) = 3.67008 3.95933 3.81745
# Velocity P-wave (km/s) = 6.14168 6.64276 6.39713
#
# Compressibility (1/GPa) = 0.02150704
#
# Stress axis : x y z
#
# Youngs Moduli (GPa) = 79.19550 47.20987 87.07911
#
# Poissons Ratio (x) = 0.24257 0.17847
# Poissons Ratio (y) = 0.40691 0.40974
# Poissons Ratio (z) = 0.16231 0.22214
#
# Static dielectric constant tensor:
#      x y z
#    x 4.586110 -0.225410 -0.097300 
#    y -0.225410 3.710090 -0.043600 
#    z -0.097300 -0.043600 4.798180 
# 
# 
# High freq. dielectric constant tensor:
#      x y z
#    x 1.942220 -0.001910 0.003200 
#    y -0.001910 1.905240 0.001830 
#    z 0.003200 0.001830 1.958060 
# 
# From -- ./inp_files/315347.got.cif
#   From: 2010.06.25/outbox.cif.g09.slc.cpg/sg2_158_cif.got.tgz:315347.got - 2010.06.27 13:26:56.
