data_PCOD8033790
_publ_section_title
;
Structure prediction by ZEFSAII (Michael W. Deem and Ramdas Pophale) SiO2 
 PCOD8033790
Probable space group: P -1
;
_chemical_formula_sum "Si O2"
_cell_formula_units_Z 16
_cell_length_a 32.350867
_cell_length_b 5.187254
_cell_length_c 9.793723
_cell_angle_alpha 98.099012
_cell_angle_beta 26.587190
_cell_angle_gamma 103.490289
_cell_volume 706.557169
_symmetry_space_group_name_H-M "P -1"
_symmetry_group_IT_number 2
_symmetry_cell_setting 'triclinic'
loop_
_space_group_symop_operation_xyz
x,y,z
-x,-y,-z
loop_
_atom_site_type_symbol
_atom_site_label
_atom_site_fract_x
_atom_site_fract_y
_atom_site_fract_z
Si Si1 0.084468 0.541489 0.360919
Si Si2 0.650911 0.833919 0.355096
Si Si3 0.710475 0.459931 0.654052
Si Si4 0.016287 0.284452 0.826614
Si Si5 0.827830 0.989505 0.682419
Si Si6 0.187578 0.933648 0.552191
Si Si7 0.710986 0.428267 0.334365
Si Si8 0.516615 0.240981 0.359572
O O1 0.000000 0.500000 0.500000
O O2 0.041761 0.374242 0.604855
O O3 0.119183 0.848441 0.332182
O O4 0.176110 0.450596 0.021699
O O5 0.645758 0.593422 0.459491
O O6 0.551717 0.824427 0.574335
O O7 0.682229 0.118870 0.356718
O O8 0.728763 0.798922 0.009976
O O9 0.788989 0.291242 0.434605
O O10 0.685929 0.451418 0.567041
O O11 0.743021 0.771823 0.620327
O O12 0.622667 0.304663 0.993331
O O13 0.105118 0.173151 0.604932
O O14 0.919066 0.052148 0.088994
O O15 0.000000 0.500000 0.000000
O O16 0.806914 0.170009 0.629869
O O17 0.500000 0.500000 0.500000
O O18 0.500000 0.000000 0.500000
#
# Coordination Sequence:
#
# PCOD8033790 Si02
#       8
#     2   2   2   2   2   2   2   2
#     4  11  25  42  65  96 144 191 243 293 351 426
#     4  11  24  45  73  99 142 189 233 296 355 432
#     4  12  27  47  71 107 143 183 238 301 359 428
#     4  12  24  42  67 100 137 191 247 291 353 425
#     4  11  24  42  65  99 138 183 241 291 353 428
#     4  12  26  42  72 100 147 187 235 301 358 412
#     4  11  25  46  68 102 143 193 239 284 365 430
#     4  12  26  47  77 111 139 180 238 297 370 432
#
# _framework density 22.645016999999999
#
# number of rings (size 3 to 8) (size 9 to 14) (size 15 to 20)
#    0.000    0.500    2.500    5.625    3.500    3.500 
#    0.000    0.000    0.000    0.000    0.000    0.000 
#    0.000    0.000    0.000    0.000    0.000    0.000 
#
# Total GULP energy -198366.137585 kJ/mol
# GULP energy per Si atom -12397.883599 kJ/mol
# Density = 2.259348 g / cm^3
# Si number density = 22.645017 Si / 1000 Ang^3
#
#
#
# Elastic Constant Matrix: (Units=GPa)
#
#
# Indices 1 2 3 4 5 6 
#
# 1 121.6879 36.5197 22.4547 4.1012 11.4029 -7.6899
# 2 36.5197 104.4730 28.8633 3.0622 1.0706 -10.0868
# 3 22.4547 28.8633 103.4878 -10.4696 16.8152 5.5634
# 4 4.1012 3.0622 -10.4696 24.1317 -0.6813 0.3827
# 5 11.4029 1.0706 16.8152 -0.6813 40.5174 -6.4617
# 6 -7.6899 -10.0868 5.5634 0.3827 -6.4617 40.8997
#
#
#
# Elastic Compliance Matrix: (Units=1/GPa)
#
#
# Indices 1 2 3 4 5 6 
#
# 1 0.009609 -0.002859 -0.001202 -0.001864 -0.002007 0.000966
# 2 -0.002859 0.011914 -0.003533 -0.002542 0.002438 0.003290
# 3 -0.001202 -0.003533 0.012574 0.006018 -0.005275 -0.003697
# 4 -0.001864 -0.002542 0.006018 0.044685 -0.001546 -0.002458
# 5 -0.002007 0.002438 -0.005275 -0.001546 0.028208 0.005412
# 6 0.000966 0.003290 -0.003697 -0.002458 0.005412 0.026824
#
#
# Mechanical properties :
#
#
# Convention : Reuss Voigt Hill
#
# Bulk Modulus (GPa) = 52.88078 56.14712 54.51395
# Shear Modulus (GPa) = 32.19478 37.23049 34.71263
#
# Velocity S-wave (km/s) = 3.77466 4.05914 3.91948
# Velocity P-wave (km/s) = 6.51154 6.84230 6.67897
#
# Compressibility (1/GPa) = 0.01891046
#
# Stress axis : x y z
#
# Youngs Moduli (GPa) = 104.06512 83.93238 79.53027
#
# Poissons Ratio (x) = 0.23992 0.09560
# Poissons Ratio (y) = 0.29747 0.28097
# Poissons Ratio (z) = 0.12510 0.29653
#
# Static dielectric constant tensor:
#      x y z
#    x 5.095090 -0.356670 -0.490660 
#    y -0.356670 4.374730 0.273950 
#    z -0.490660 0.273950 4.917710 
# 
# 
# High freq. dielectric constant tensor:
#      x y z
#    x 1.908940 -0.004910 0.005900 
#    y -0.004910 1.888010 -0.006930 
#    z 0.005900 -0.006930 1.902880 
# 
# From -- ./inp_files/138578.got.cif
#   From: 2010.06.25/outbox.cif.g09.slc.cpg/sg2_70_cif.got.tgz:138578.got - 2010.06.27 13:26:56.
