data_PCOD8033164
_publ_section_title
;
Structure prediction by ZEFSAII (Michael W. Deem and Ramdas Pophale) SiO2 
 PCOD8033164
Probable space group: P -1
;
_chemical_formula_sum "Si O2"
_cell_formula_units_Z 16
_cell_length_a 14.054614
_cell_length_b 24.960569
_cell_length_c 9.285396
_cell_angle_alpha 137.359430
_cell_angle_beta 123.861717
_cell_angle_gamma 21.819243
_cell_volume 710.557414
_symmetry_space_group_name_H-M "P -1"
_symmetry_group_IT_number 2
_symmetry_cell_setting 'triclinic'
loop_
_space_group_symop_operation_xyz
x,y,z
-x,-y,-z
loop_
_atom_site_type_symbol
_atom_site_label
_atom_site_fract_x
_atom_site_fract_y
_atom_site_fract_z
Si Si1 0.171647 0.972948 0.116693
Si Si2 0.341084 0.670740 0.116954
Si Si3 0.700020 0.583611 0.152698
Si Si4 0.222074 0.190682 0.971464
Si Si5 0.231771 0.677819 0.733582
Si Si6 0.879230 0.758911 0.687480
Si Si7 0.171820 0.465358 0.138856
Si Si8 0.204538 0.015747 0.546913
O O1 0.110442 0.047404 0.371064
O O2 0.522901 0.745082 0.935180
O O3 0.053099 0.108033 0.164537
O O4 0.000000 0.000000 0.000000
O O5 0.528662 0.631657 0.207588
O O6 0.500000 0.500000 0.000000
O O7 0.325935 0.670493 0.932627
O O8 0.016590 0.886880 0.336483
O O9 0.531157 0.775930 0.391670
O O10 0.737618 0.534899 0.919520
O O11 0.033279 0.373169 0.079425
O O12 0.561692 0.999638 0.860042
O O13 0.182349 0.124420 0.757305
O O14 0.117458 0.270382 0.203410
O O15 0.500000 0.500000 0.500000
O O16 0.149135 0.646035 0.666476
O O17 0.932423 0.652545 0.415610
O O18 0.000000 0.500000 0.000000
#
# Coordination Sequence:
#
# PCOD8033164 Si02
#       8
#     2   2   2   2   2   2   2   2
#     4  11  25  44  68 102 142 180 233 298 348 416
#     4  12  22  41  68 101 141 183 233 286 354 421
#     4  11  24  42  71  98 136 186 229 288 350 416
#     4  11  25  46  68 103 137 185 235 285 352 422
#     4  12  24  40  68 103 136 182 229 287 359 412
#     4  11  24  45  68  98 142 177 231 294 341 422
#     4  11  26  48  70 101 138 184 240 289 356 427
#     4  11  23  45  67 102 142 180 237 285 347 429
#
# _framework density 22.517533
#
# number of rings (size 3 to 8) (size 9 to 14) (size 15 to 20)
#    0.000    0.750    2.500    5.625    3.500    2.500 
#    0.000    1.875    0.000    0.000    0.000    0.000 
#    0.000    0.000    0.000    0.000    0.000    0.000 
#
# Total GULP energy -198357.819604 kJ/mol
# GULP energy per Si atom -12397.363725 kJ/mol
# Density = 2.246628 g / cm^3
# Si number density = 22.517533 Si / 1000 Ang^3
#
#
#
# Elastic Constant Matrix: (Units=GPa)
#
#
# Indices 1 2 3 4 5 6 
#
# 1 62.3829 17.5856 17.4051 13.9205 -13.8868 -3.2722
# 2 17.5856 136.5689 28.4631 23.6164 -8.1092 23.0382
# 3 17.4051 28.4631 116.4959 9.1890 -25.6611 9.6215
# 4 13.9205 23.6164 9.1890 32.4916 -5.0162 7.0151
# 5 -13.8868 -8.1092 -25.6611 -5.0162 39.7283 -0.3842
# 6 -3.2722 23.0382 9.6215 7.0151 -0.3842 48.2392
#
#
#
# Elastic Compliance Matrix: (Units=1/GPa)
#
#
# Indices 1 2 3 4 5 6 
#
# 1 0.019579 -0.001305 -0.001237 -0.007034 0.004922 0.003260
# 2 -0.001305 0.009232 -0.001410 -0.005023 -0.000150 -0.003487
# 3 -0.001237 -0.001410 0.010587 -0.000189 0.006080 -0.001446
# 4 -0.007034 -0.005023 -0.000189 0.038466 0.001216 -0.003625
# 5 0.004922 -0.000150 0.006080 0.001216 0.030935 -0.000738
# 6 0.003260 -0.003487 -0.001446 -0.003625 -0.000738 0.023426
#
#
# Mechanical properties :
#
#
# Convention : Reuss Voigt Hill
#
# Bulk Modulus (GPa) = 31.74970 49.15061 40.45016
# Shear Modulus (GPa) = 33.19498 40.89140 37.04319
#
# Velocity S-wave (km/s) = 3.84368 4.26606 4.06036
# Velocity P-wave (km/s) = 5.81627 6.79270 6.32336
#
# Compressibility (1/GPa) = 0.03149636
#
# Stress axis : x y z
#
# Youngs Moduli (GPa) = 51.07454 108.31844 94.45679
#
# Poissons Ratio (x) = 0.14132 0.11681
# Poissons Ratio (y) = 0.06664 0.13314
# Poissons Ratio (z) = 0.06316 0.15268
#
# Static dielectric constant tensor:
#      x y z
#    x 3.882360 -0.181960 -0.189440 
#    y -0.181960 4.129670 0.138750 
#    z -0.189440 0.138750 4.173610 
# 
# 
# High freq. dielectric constant tensor:
#      x y z
#    x 1.889040 -0.004550 -0.016230 
#    y -0.004550 1.902350 0.006580 
#    z -0.016230 0.006580 1.887500 
# 
# From -- ./inp_files/320745.got.cif
#   From: 2010.06.25/outbox.cif.g09.slc.cpg/sg2_161_cif.got.tgz:320745.got - 2010.06.27 13:26:56.
