data_PCOD8033766
_publ_section_title
;
Structure prediction by ZEFSAII (Michael W. Deem and Ramdas Pophale) SiO2 
 PCOD8033766
Probable space group: P -1
;
_chemical_formula_sum "Si O2"
_cell_formula_units_Z 16
_cell_length_a 11.512918
_cell_length_b 13.989771
_cell_length_c 9.601704
_cell_angle_alpha 116.361422
_cell_angle_beta 143.542193
_cell_angle_gamma 50.247574
_cell_volume 698.101786
_symmetry_space_group_name_H-M "P -1"
_symmetry_group_IT_number 2
_symmetry_cell_setting 'triclinic'
loop_
_space_group_symop_operation_xyz
x,y,z
-x,-y,-z
loop_
_atom_site_type_symbol
_atom_site_label
_atom_site_fract_x
_atom_site_fract_y
_atom_site_fract_z
Si Si1 0.261707 0.935343 0.067974
Si Si2 0.163548 0.425502 0.982293
Si Si3 0.735193 0.125736 0.658854
Si Si4 0.035426 0.731738 0.401410
Si Si5 0.314081 0.681244 0.885385
Si Si6 0.392977 0.026099 0.759160
Si Si7 0.828330 0.479593 0.230647
Si Si8 0.596482 0.350255 0.500999
O O1 0.338240 0.905340 0.284823
O O2 0.458599 0.941496 0.178373
O O3 0.232164 0.825146 0.911532
O O4 0.012434 0.061393 0.885865
O O5 0.132903 0.524855 0.900350
O O6 0.106601 0.334280 0.789970
O O7 0.423510 0.335432 0.225940
O O8 0.000000 0.500000 0.000000
O O9 0.616903 0.278436 0.620688
O O10 0.632000 0.082955 0.406038
O O11 0.264241 0.651179 0.662998
O O12 0.139545 0.734297 0.353869
O O13 0.870979 0.862597 0.404070
O O14 0.157425 0.651446 0.814584
O O15 0.582278 0.594230 0.118811
O O16 0.500000 0.000000 0.000000
O O17 0.000000 0.500000 0.500000
O O18 0.500000 0.500000 0.500000
#
# Coordination Sequence:
#
# PCOD8033766 Si02
#       8
#     2   2   2   2   2   2   2   2
#     4  11  26  48  75 109 147 192 251 307 372 444
#     4  12  25  43  66 103 146 190 240 297 367 441
#     4  11  27  49  75 107 148 199 242 305 380 437
#     4  12  24  43  71 105 144 189 242 304 365 437
#     4  11  24  41  71  99 142 188 243 300 363 432
#     4  12  26  46  76 111 145 191 246 310 370 442
#     4  11  24  42  68 102 139 192 243 298 365 435
#     4  12  27  47  73 104 152 194 246 304 370 448
#
# _framework density 22.919294000000001
#
# number of rings (size 3 to 8) (size 9 to 14) (size 15 to 20)
#    0.000    0.500    5.000    2.625    3.500    2.000 
#    0.000    0.000    0.000    0.000    0.000    0.000 
#    0.000    0.000    0.000    0.000    0.000    0.000 
#
# Total GULP energy -198287.777649 kJ/mol
# GULP energy per Si atom -12392.986103 kJ/mol
# Density = 2.286713 g / cm^3
# Si number density = 22.919294 Si / 1000 Ang^3
#
#
#
# Elastic Constant Matrix: (Units=GPa)
#
#
# Indices 1 2 3 4 5 6 
#
# 1 160.6081 40.8943 42.2673 -13.4257 -7.7317 5.9013
# 2 40.8943 113.4400 40.4659 -2.7303 -1.9270 15.2454
# 3 42.2673 40.4659 137.9433 -1.8525 -4.7134 12.7782
# 4 -13.4257 -2.7303 -1.8525 33.4928 1.4636 -5.3881
# 5 -7.7317 -1.9270 -4.7134 1.4636 44.1563 -4.4936
# 6 5.9013 15.2454 12.7782 -5.3881 -4.4936 33.4942
#
#
#
# Elastic Compliance Matrix: (Units=1/GPa)
#
#
# Indices 1 2 3 4 5 6 
#
# 1 0.007461 -0.002127 -0.001671 0.002822 0.001032 0.000883
# 2 -0.002127 0.010867 -0.002201 -0.000696 -0.000508 -0.003912
# 3 -0.001671 -0.002201 0.008599 -0.000719 0.000344 -0.002054
# 4 0.002822 -0.000696 -0.000719 0.031731 -0.000138 0.005180
# 5 0.001032 -0.000508 0.000344 -0.000138 0.023152 0.003002
# 6 0.000883 -0.003912 -0.002054 0.005180 0.003002 0.033501
#
#
# Mechanical properties :
#
#
# Convention : Reuss Voigt Hill
#
# Bulk Modulus (GPa) = 66.97534 73.24960 70.11247
# Shear Modulus (GPa) = 37.79735 41.45292 39.62514
#
# Velocity S-wave (km/s) = 4.06538 4.25743 4.16251
# Velocity P-wave (km/s) = 7.16394 7.49645 7.33208
#
# Compressibility (1/GPa) = 0.01493087
#
# Stress axis : x y z
#
# Youngs Moduli (GPa) = 134.03636 92.01914 116.28940
#
# Poissons Ratio (x) = 0.19570 0.19430
# Poissons Ratio (y) = 0.28507 0.25590
# Poissons Ratio (z) = 0.22395 0.20249
#
# Static dielectric constant tensor:
#      x y z
#    x 4.348270 0.185920 0.027660 
#    y 0.185920 4.179930 -0.061270 
#    z 0.027660 -0.061270 4.385050 
# 
# 
# High freq. dielectric constant tensor:
#      x y z
#    x 1.915930 0.012670 0.002070 
#    y 0.012670 1.892170 0.001630 
#    z 0.002070 0.001630 1.925580 
# 
# From -- ./inp_files/273929.got.cif
#   From: 2010.06.25/outbox.cif.g09.slc.cpg/sg2_137_cif.got.tgz:273929.got - 2010.06.27 13:26:56.
