data_PCOD8033748
_publ_section_title
;
Structure prediction by ZEFSAII (Michael W. Deem and Ramdas Pophale) SiO2 
 PCOD8033748
Probable space group: P -1
;
_chemical_formula_sum "Si O2"
_cell_formula_units_Z 14
_cell_length_a 9.441198
_cell_length_b 12.901549
_cell_length_c 9.299608
_cell_angle_alpha 119.306532
_cell_angle_beta 106.874356
_cell_angle_gamma 119.258897
_cell_volume 618.751076
_symmetry_space_group_name_H-M "P -1"
_symmetry_group_IT_number 2
_symmetry_cell_setting 'triclinic'
loop_
_space_group_symop_operation_xyz
x,y,z
-x,-y,-z
loop_
_atom_site_type_symbol
_atom_site_label
_atom_site_fract_x
_atom_site_fract_y
_atom_site_fract_z
Si Si1 0.156250 0.988966 0.593989
Si Si2 0.217263 0.690572 0.762227
Si Si3 0.132749 0.902646 0.852518
Si Si4 0.681307 0.298777 0.886883
Si Si5 0.984745 0.305922 0.839877
Si Si6 0.458225 0.278703 0.280684
Si Si7 0.235886 0.377866 0.232826
O O1 0.129140 0.967092 0.742510
O O2 0.063440 0.810925 0.382849
O O3 0.414528 0.157825 0.729596
O O4 0.000000 0.000000 0.500000
O O5 0.258249 0.851884 0.835904
O O6 0.427074 0.737916 0.812508
O O7 0.000000 0.500000 0.500000
O O8 0.195978 0.674647 0.916102
O O9 0.883917 0.722840 0.717663
O O10 0.244740 0.064073 0.111467
O O11 0.758191 0.248002 0.755615
O O12 0.791385 0.488962 0.002549
O O13 0.050898 0.279199 0.988199
O O14 0.394219 0.361270 0.234032
O O15 0.613335 0.409940 0.553009
#
# Coordination Sequence:
#
# PCOD8033748 Si02
#       7
#     2   2   2   2   2   2   2
#     4  12  28  45  70 106 143 185 229 284 353 418
#     4  12  22  44  71 103 137 175 236 285 340 412
#     4  12  24  44  72 102 135 182 227 288 339 410
#     4  11  25  47  69 102 139 187 234 283 348 409
#     4  11  25  47  71  99 142 186 230 287 349 413
#     4  11  24  41  70 100 138 176 228 287 346 397
#     4  11  25  45  68 104 137 179 231 284 345 411
#
# _framework density 22.626225000000002
#
# number of rings (size 3 to 8) (size 9 to 14) (size 15 to 20)
#    0.000    0.571    4.286    3.000    0.000    5.143 
#    0.000    0.000    0.000    0.000    0.000    0.000 
#    0.000    0.000    0.000    0.000    0.000    0.000 
#
# Total GULP energy -173551.386248 kJ/mol
# GULP energy per Si atom -12396.527589 kJ/mol
# Density = 2.257473 g / cm^3
# Si number density = 22.626225 Si / 1000 Ang^3
#
#
#
# Elastic Constant Matrix: (Units=GPa)
#
#
# Indices 1 2 3 4 5 6 
#
# 1 104.6030 41.3650 33.1412 7.3556 7.9504 -14.4613
# 2 41.3650 102.1919 33.3711 5.0029 4.7076 -5.7513
# 3 33.1412 33.3711 112.1841 24.2488 -1.8775 -6.4686
# 4 7.3556 5.0029 24.2488 34.1137 -7.8656 -8.6485
# 5 7.9504 4.7076 -1.8775 -7.8656 39.0089 10.4797
# 6 -14.4613 -5.7513 -6.4686 -8.6485 10.4797 28.8369
#
#
#
# Elastic Compliance Matrix: (Units=1/GPa)
#
#
# Indices 1 2 3 4 5 6 
#
# 1 0.013133 -0.003962 -0.002433 0.000263 -0.004094 0.006816
# 2 -0.003962 0.012270 -0.002658 0.000876 -0.000730 0.000392
# 3 -0.002433 -0.002658 0.012070 -0.008005 0.000190 -0.001513
# 4 0.000263 0.000876 -0.008005 0.038015 0.004940 0.008117
# 5 -0.004094 -0.000730 0.000190 0.004940 0.030746 -0.011848
# 6 0.006816 0.000392 -0.001513 0.008117 -0.011848 0.044575
#
#
# Mechanical properties :
#
#
# Convention : Reuss Voigt Hill
#
# Bulk Modulus (GPa) = 51.63945 59.41484 55.52715
# Shear Modulus (GPa) = 28.51098 34.46534 31.48816
#
# Velocity S-wave (km/s) = 3.55362 3.90711 3.73455
# Velocity P-wave (km/s) = 6.30159 6.83157 6.57192
#
# Compressibility (1/GPa) = 0.01936504
#
# Stress axis : x y z
#
# Youngs Moduli (GPa) = 76.14608 81.49884 82.85165
#
# Poissons Ratio (x) = 0.32288 0.20162
# Poissons Ratio (y) = 0.30168 0.22026
# Poissons Ratio (z) = 0.18530 0.21666
#
# Static dielectric constant tensor:
#      x y z
#    x 2.662280 0.138600 0.479860 
#    y 0.138600 4.289720 0.373300 
#    z 0.479860 0.373300 4.178550 
# 
# 
# High freq. dielectric constant tensor:
#      x y z
#    x 1.910060 -0.006290 -0.001910 
#    y -0.006290 1.882460 0.018530 
#    z -0.001910 0.018530 1.898350 
# 
# From -- ./inp_files/190288.got.cif
#   From: 2010.06.25/outbox.cif.g09.slc.cpg/sg2_96_cif.got.tgz:190288.got - 2010.06.27 13:26:56.
