data_PCOD8033339
_publ_section_title
;
Structure prediction by ZEFSAII (Michael W. Deem and Ramdas Pophale) SiO2 
 PCOD8033339
Probable space group: P -1
;
_chemical_formula_sum "Si O2"
_cell_formula_units_Z 16
_cell_length_a 18.589969
_cell_length_b 9.148743
_cell_length_c 5.574387
_cell_angle_alpha 75.571122
_cell_angle_beta 57.906853
_cell_angle_gamma 56.960648
_cell_volume 672.211865
_symmetry_space_group_name_H-M "P -1"
_symmetry_group_IT_number 2
_symmetry_cell_setting 'triclinic'
loop_
_space_group_symop_operation_xyz
x,y,z
-x,-y,-z
loop_
_atom_site_type_symbol
_atom_site_label
_atom_site_fract_x
_atom_site_fract_y
_atom_site_fract_z
Si Si1 0.946953 0.707914 0.004896
Si Si2 0.744926 0.863699 0.569258
Si Si3 0.878336 0.239444 0.298248
Si Si4 0.714678 0.551548 0.720888
Si Si5 0.169960 0.012200 0.257529
Si Si6 0.725849 0.298373 0.162092
Si Si7 0.420815 0.801179 0.436489
Si Si8 0.480157 0.345139 0.162790
O O1 0.017581 0.779114 0.944302
O O2 0.909277 0.793357 0.773853
O O3 0.853782 0.780710 0.308462
O O4 0.000000 0.500000 0.000000
O O5 0.722440 0.712677 0.742672
O O6 0.745649 0.975745 0.748664
O O7 0.659816 0.992488 0.484933
O O8 0.823033 0.400442 0.514279
O O9 0.889973 0.060745 0.456915
O O10 0.814947 0.288900 0.152427
O O11 0.635279 0.597275 0.629494
O O12 0.676078 0.476871 0.029136
O O13 0.231130 0.877822 0.996279
O O14 0.636434 0.306924 0.469840
O O15 0.473775 0.745970 0.625613
O O16 0.484382 0.777372 0.092381
O O17 0.500000 0.500000 0.000000
#
# Coordination Sequence:
#
# PCOD8033339 Si02
#       8
#     2   2   2   2   2   2   2   2
#     4  12  26  45  70 110 141 195 243 307 379 445
#     4  12  27  47  71 106 153 193 237 312 379 447
#     4  11  24  46  73 104 143 190 252 302 368 448
#     4  11  27  44  71 109 147 192 242 313 372 442
#     4  11  24  45  71 101 148 191 245 305 368 449
#     4  11  23  45  75 106 139 198 246 302 374 441
#     4  12  25  48  77 110 151 196 251 310 379 445
#     4  12  26  46  80 113 146 197 258 314 370 447
#
# _framework density 23.802019000000001
#
# number of rings (size 3 to 8) (size 9 to 14) (size 15 to 20)
#    0.000    0.500    5.000    2.250    3.500    5.500 
#    0.000    0.000    0.000    0.000    0.000    0.000 
#    0.000    0.000    0.000    0.000    0.000    0.000 
#
# Total GULP energy -198334.911541 kJ/mol
# GULP energy per Si atom -12395.931971 kJ/mol
# Density = 2.374784 g / cm^3
# Si number density = 23.802019 Si / 1000 Ang^3
#
#
#
# Elastic Constant Matrix: (Units=GPa)
#
#
# Indices 1 2 3 4 5 6 
#
# 1 114.1230 39.7612 24.3463 -19.4080 5.2168 -10.6420
# 2 39.7612 128.0456 27.7104 -39.7513 2.7761 -1.3511
# 3 24.3463 27.7104 67.0274 -1.7613 7.1245 -9.6151
# 4 -19.4080 -39.7513 -1.7613 21.6919 -4.2439 0.5751
# 5 5.2168 2.7761 7.1245 -4.2439 44.7588 -6.1900
# 6 -10.6420 -1.3511 -9.6151 0.5751 -6.1900 46.8616
#
#
#
# Elastic Compliance Matrix: (Units=1/GPa)
#
#
# Indices 1 2 3 4 5 6 
#
# 1 0.011421 0.001002 -0.004070 0.011798 0.000612 0.001723
# 2 0.001002 0.022398 -0.009066 0.041971 0.003778 -0.001003
# 3 -0.004070 -0.009066 0.020422 -0.019389 -0.003671 0.002758
# 4 0.011798 0.041971 -0.019389 0.134312 0.011819 -0.000176
# 5 0.000612 0.003778 -0.003671 0.011819 0.024091 0.002532
# 6 0.001723 -0.001003 0.002758 -0.000176 0.002532 0.022604
#
#
# Mechanical properties :
#
#
# Convention : Reuss Voigt Hill
#
# Bulk Modulus (GPa) = 33.36482 54.75911 44.06196
# Shear Modulus (GPa) = 18.55225 37.15433 27.85329
#
# Velocity S-wave (km/s) = 2.79487 3.95520 3.42454
# Velocity P-wave (km/s) = 4.94603 6.62678 5.84711
#
# Compressibility (1/GPa) = 0.02997169
#
# Stress axis : x y z
#
# Youngs Moduli (GPa) = 87.55881 44.64705 48.96623
#
# Poissons Ratio (x) = -0.04474 0.19931
# Poissons Ratio (y) = -0.08774 0.44394
# Poissons Ratio (z) = 0.35640 0.40478
#
# Static dielectric constant tensor:
#      x y z
#    x 4.346180 -0.122670 0.028370 
#    y -0.122670 4.448870 -0.059320 
#    z 0.028370 -0.059320 4.339180 
# 
# 
# High freq. dielectric constant tensor:
#      x y z
#    x 1.947930 -0.011790 -0.004860 
#    y -0.011790 1.949860 -0.003080 
#    z -0.004860 -0.003080 1.938040 
# 
# From -- ./inp_files/56856.got.cif
#   From: 2010.06.25/outbox.cif.g09.slc.cpg/sg2_29_cif.got.tgz:56856.got - 2010.06.27 13:26:56.
