data_PCOD8033476
_publ_section_title
;
Structure prediction by ZEFSAII (Michael W. Deem and Ramdas Pophale) SiO2 
 PCOD8033476
Probable space group: P -1
;
_chemical_formula_sum "Si O2"
_cell_formula_units_Z 16
_cell_length_a 26.794285
_cell_length_b 11.392718
_cell_length_c 8.234310
_cell_angle_alpha 144.862346
_cell_angle_beta 134.987228
_cell_angle_gamma 31.482522
_cell_volume 755.133431
_symmetry_space_group_name_H-M "P -1"
_symmetry_group_IT_number 2
_symmetry_cell_setting 'triclinic'
loop_
_space_group_symop_operation_xyz
x,y,z
-x,-y,-z
loop_
_atom_site_type_symbol
_atom_site_label
_atom_site_fract_x
_atom_site_fract_y
_atom_site_fract_z
Si Si1 0.255050 0.253861 0.758526
Si Si2 0.909849 0.299610 0.692967
Si Si3 0.649220 0.273653 0.177742
Si Si4 0.421160 0.274740 0.726455
Si Si5 0.086937 0.352247 0.655478
Si Si6 0.548786 0.259408 0.213374
Si Si7 0.740155 0.733566 0.588981
Si Si8 0.808887 0.230162 0.644922
O O1 0.181243 0.240120 0.651567
O O2 0.266393 0.177704 0.509985
O O3 0.355830 0.032354 0.830259
O O4 0.216366 0.560560 0.033480
O O5 0.849964 0.470708 0.587515
O O6 0.842382 0.288439 0.631763
O O7 0.940223 0.441059 0.026005
O O8 0.000000 0.000000 0.500000
O O9 0.604348 0.474869 0.149858
O O10 0.567194 0.347896 0.190127
O O11 0.713244 0.297184 0.459331
O O12 0.712371 0.965201 0.910175
O O13 0.327138 0.329408 0.609523
O O14 0.500000 0.000000 0.500000
O O15 0.469868 0.241231 0.971176
O O16 0.000000 0.500000 0.500000
O O17 0.106785 0.086676 0.466975
O O18 0.500000 0.500000 0.500000
#
# Coordination Sequence:
#
# PCOD8033476 Si02
#       8
#     2   2   2   2   2   2   2   2
#     4  11  27  45  68 101 139 175 228 279 337 405
#     4  11  26  46  70 105 138 174 228 277 337 407
#     4  12  23  47  68  96 138 178 226 279 335 397
#     4  12  26  43  71  98 133 181 229 275 335 396
#     4  11  26  47  73 101 136 180 223 276 343 405
#     4  12  26  45  68 102 138 180 229 279 338 399
#     4  12  26  45  68 103 135 179 226 279 337 401
#     4  11  23  46  73  93 139 183 215 283 339 396
#
# _framework density 21.188310000000001
#
# number of rings (size 3 to 8) (size 9 to 14) (size 15 to 20)
#    0.000    0.500    5.000    2.625    7.000    4.000 
#    0.000    0.000    0.000    0.000    0.000    0.000 
#    0.000    0.000    0.000    0.000    0.000    0.000 
#
# Total GULP energy -198485.853964 kJ/mol
# GULP energy per Si atom -12405.365873 kJ/mol
# Density = 2.114008 g / cm^3
# Si number density = 21.188310 Si / 1000 Ang^3
#
#
#
# Elastic Constant Matrix: (Units=GPa)
#
#
# Indices 1 2 3 4 5 6 
#
# 1 55.6140 8.2839 18.4431 6.3122 -12.8219 6.9840
# 2 8.2839 138.4942 34.5380 -6.5082 2.7577 4.6449
# 3 18.4431 34.5380 114.3543 1.0549 -5.5574 -5.8539
# 4 6.3122 -6.5082 1.0549 45.9909 -0.1015 -2.4216
# 5 -12.8219 2.7577 -5.5574 -0.1015 33.9832 5.4731
# 6 6.9840 4.6449 -5.8539 -2.4216 5.4731 34.4107
#
#
#
# Elastic Compliance Matrix: (Units=1/GPa)
#
#
# Indices 1 2 3 4 5 6 
#
# 1 0.022500 -0.000637 -0.003308 -0.003437 0.009073 -0.006728
# 2 -0.000637 0.007980 -0.002429 0.001212 -0.001104 -0.001100
# 3 -0.003308 -0.002429 0.010158 0.000020 0.000175 0.002701
# 4 -0.003437 0.001212 0.000020 0.022508 -0.001710 0.002393
# 5 0.009073 -0.001104 0.000175 -0.001710 0.034124 -0.007210
# 6 -0.006728 -0.001100 0.002701 0.002393 -0.007210 0.032350
#
#
# Mechanical properties :
#
#
# Convention : Reuss Voigt Hill
#
# Bulk Modulus (GPa) = 35.85462 47.88807 41.87135
# Shear Modulus (GPa) = 32.96734 39.35680 36.16207
#
# Velocity S-wave (km/s) = 3.94880 4.31452 4.13570
# Velocity P-wave (km/s) = 6.14404 6.88987 6.52762
#
# Compressibility (1/GPa) = 0.02789041
#
# Stress axis : x y z
#
# Youngs Moduli (GPa) = 44.44461 125.31121 98.44098
#
# Poissons Ratio (x) = 0.07987 0.32565
# Poissons Ratio (y) = 0.02833 0.23907
# Poissons Ratio (z) = 0.14703 0.30433
#
# Static dielectric constant tensor:
#      x y z
#    x 3.700890 0.077690 0.013960 
#    y 0.077690 4.089100 0.067830 
#    z 0.013960 0.067830 3.984470 
# 
# 
# High freq. dielectric constant tensor:
#      x y z
#    x 1.826740 0.002800 0.002060 
#    y 0.002800 1.846840 -0.002550 
#    z 0.002060 -0.002550 1.846190 
# 
# From -- ./inp_files/37298.got.cif
#   From: 2010.06.25/outbox.cif.g09.slc.cpg/sg2_19_cif.got.tgz:37298.got - 2010.06.27 13:26:56.
