data_PCOD8033013
_publ_section_title
;
Structure prediction by ZEFSAII (Michael W. Deem and Ramdas Pophale) SiO2 
 PCOD8033013
Probable space group: P -1
;
_chemical_formula_sum "Si O2"
_cell_formula_units_Z 16
_cell_length_a 16.814462
_cell_length_b 14.268840
_cell_length_c 11.038182
_cell_angle_alpha 130.299526
_cell_angle_beta 149.971425
_cell_angle_gamma 33.360928
_cell_volume 700.199941
_symmetry_space_group_name_H-M "P -1"
_symmetry_group_IT_number 2
_symmetry_cell_setting 'triclinic'
loop_
_space_group_symop_operation_xyz
x,y,z
-x,-y,-z
loop_
_atom_site_type_symbol
_atom_site_label
_atom_site_fract_x
_atom_site_fract_y
_atom_site_fract_z
Si Si1 0.920106 0.376956 0.433907
Si Si2 0.167808 0.731724 0.539060
Si Si3 0.549145 0.150984 0.489578
Si Si4 0.568595 0.909075 0.139366
Si Si5 0.974119 0.795928 0.814070
Si Si6 0.439890 0.587255 0.364630
Si Si7 0.365511 0.232667 0.574447
Si Si8 0.235265 0.963567 0.888459
O O1 0.899571 0.326817 0.495914
O O2 0.732537 0.587346 0.348633
O O3 0.894538 0.301183 0.221756
O O4 0.176568 0.287693 0.688747
O O5 0.418752 0.561807 0.677297
O O6 0.162984 0.862679 0.714306
O O7 0.989851 0.829898 0.271881
O O8 0.521419 0.044662 0.284959
O O9 0.500799 0.300637 0.473281
O O10 0.376092 0.236665 0.446680
O O11 0.813533 0.006064 0.763515
O O12 0.500000 0.000000 0.000000
O O13 0.410744 0.881174 0.938847
O O14 0.804296 0.781054 0.620986
O O15 0.168629 0.714970 0.100679
O O16 0.500000 0.500000 0.500000
O O17 0.626395 0.069548 0.835616
#
# Coordination Sequence:
#
# PCOD8033013 Si02
#       8
#     2   2   2   2   2   2   2   2
#     4  11  23  44  71 107 139 183 242 288 347 411
#     4  11  26  45  68 108 141 191 232 293 349 421
#     4  11  26  47  72 105 140 188 233 292 355 421
#     4  11  24  45  74 102 140 186 236 289 352 422
#     4  11  26  45  73 103 143 190 234 287 355 422
#     4  12  29  47  68 103 147 184 234 292 361 419
#     4  12  24  45  74 107 142 182 242 295 347 412
#     4  11  25  43  74 100 143 183 239 289 353 413
#
# _framework density 22.850615000000001
#
# number of rings (size 3 to 8) (size 9 to 14) (size 15 to 20)
#    0.000    0.750    5.000    1.875    7.000    2.000 
#    0.000    1.875    0.000    0.000    0.000    0.000 
#    0.000    0.000    0.000    0.000    0.000    0.000 
#
# Total GULP energy -198316.527892 kJ/mol
# GULP energy per Si atom -12394.782993 kJ/mol
# Density = 2.279861 g / cm^3
# Si number density = 22.850615 Si / 1000 Ang^3
#
#
#
# Elastic Constant Matrix: (Units=GPa)
#
#
# Indices 1 2 3 4 5 6 
#
# 1 127.4775 39.3880 18.4350 -0.9885 -8.7409 7.2959
# 2 39.3880 79.9623 4.6777 -13.6833 -3.5635 7.3250
# 3 18.4350 4.6777 93.1891 -14.6001 -0.6583 5.9798
# 4 -0.9885 -13.6833 -14.6001 24.5663 4.1024 -2.8997
# 5 -8.7409 -3.5635 -0.6583 4.1024 30.9489 -1.5928
# 6 7.2959 7.3250 5.9798 -2.8997 -1.5928 39.0029
#
#
#
# Elastic Compliance Matrix: (Units=1/GPa)
#
#
# Indices 1 2 3 4 5 6 
#
# 1 0.010049 -0.005402 -0.002364 -0.004552 0.002732 -0.000730
# 2 -0.005402 0.016936 0.001942 0.010330 -0.000993 -0.001740
# 3 -0.002364 0.001942 0.012504 0.008497 -0.001369 -0.001264
# 4 -0.004552 0.010330 0.008497 0.052613 -0.006826 0.001241
# 5 0.002732 -0.000993 -0.001369 -0.006826 0.033883 0.000762
# 6 -0.000730 -0.001740 -0.001264 0.001241 0.000762 0.026420
#
#
# Mechanical properties :
#
#
# Convention : Reuss Voigt Hill
#
# Bulk Modulus (GPa) = 35.91869 47.29224 41.60547
# Shear Modulus (GPa) = 28.84599 34.77885 31.81242
#
# Velocity S-wave (km/s) = 3.55684 3.90553 3.73526
# Velocity P-wave (km/s) = 5.71150 6.40927 6.07042
#
# Compressibility (1/GPa) = 0.02784066
#
# Stress axis : x y z
#
# Youngs Moduli (GPa) = 99.50945 59.04502 79.97638
#
# Poissons Ratio (x) = 0.31897 0.18905
# Poissons Ratio (y) = 0.53756 -0.15529
# Poissons Ratio (z) = 0.23522 -0.11465
#
# Static dielectric constant tensor:
#      x y z
#    x 4.271550 0.014140 0.006480 
#    y 0.014140 4.067650 -0.459820 
#    z 0.006480 -0.459820 3.890150 
# 
# 
# High freq. dielectric constant tensor:
#      x y z
#    x 1.920420 0.006340 -0.000190 
#    y 0.006340 1.897350 -0.017390 
#    z -0.000190 -0.017390 1.898940 
# 
# From -- ./inp_files/207318.got.cif
#   From: 2010.06.25/outbox.cif.g09.slc.cpg/sg2_104_cif.got.tgz:207318.got - 2010.06.27 13:26:56.
