data_PCOD8033080
_publ_section_title
;
Structure prediction by ZEFSAII (Michael W. Deem and Ramdas Pophale) SiO2 
 PCOD8033080
Probable space group: P -1
;
_chemical_formula_sum "Si O2"
_cell_formula_units_Z 16
_cell_length_a 9.164302
_cell_length_b 18.095400
_cell_length_c 11.855429
_cell_angle_alpha 151.563624
_cell_angle_beta 49.886635
_cell_angle_gamma 130.682507
_cell_volume 696.043417
_symmetry_space_group_name_H-M "P -1"
_symmetry_group_IT_number 2
_symmetry_cell_setting 'triclinic'
loop_
_space_group_symop_operation_xyz
x,y,z
-x,-y,-z
loop_
_atom_site_type_symbol
_atom_site_label
_atom_site_fract_x
_atom_site_fract_y
_atom_site_fract_z
Si Si1 0.606762 0.676453 0.706271
Si Si2 0.386591 0.818042 0.835583
Si Si3 0.964071 0.678649 0.378602
Si Si4 0.629496 0.830305 0.132215
Si Si5 0.606420 0.400468 0.668710
Si Si6 0.830510 0.614381 0.113964
Si Si7 0.356470 0.827262 0.454547
Si Si8 0.923979 0.729230 0.986179
O O1 0.500000 0.500000 0.500000
O O2 0.475098 0.788722 0.872739
O O3 0.817900 0.702162 0.580195
O O4 0.626754 0.700672 0.862682
O O5 0.435574 0.692003 0.552868
O O6 0.151284 0.776723 0.903503
O O7 0.500000 0.000000 0.000000
O O8 0.875422 0.694646 0.321254
O O9 0.144371 0.825783 0.506900
O O10 0.047101 0.520392 0.142751
O O11 0.472382 0.753427 0.202522
O O12 0.566080 0.982411 0.312518
O O13 0.836745 0.858426 0.133471
O O14 0.405138 0.453638 0.873510
O O15 0.649309 0.268242 0.555766
O O16 0.796401 0.550248 0.773642
O O17 0.902019 0.743969 0.152609
#
# Coordination Sequence:
#
# PCOD8033080 Si02
#       8
#     2   2   2   2   2   2   2   2
#     4  12  27  46  70 103 141 186 234 291 348 415
#     4  12  29  48  68 103 147 187 231 294 363 424
#     4  11  25  42  72 104 138 185 230 292 353 410
#     4  11  27  45  70 107 145 184 234 289 355 431
#     4  12  23  48  75 105 138 187 241 297 344 423
#     4  11  23  44  73 107 140 177 244 295 346 417
#     4  11  25  46  72 104 144 186 231 290 358 421
#     4  12  25  44  74 104 137 188 241 292 349 417
#
# _framework density 22.987069999999999
#
# number of rings (size 3 to 8) (size 9 to 14) (size 15 to 20)
#    0.000    0.500    3.750    3.750    8.750    0.500 
#    0.000    1.250    0.000    0.000    0.000    0.000 
#    0.000    0.000    0.000    0.000    0.000    0.000 
#
# Total GULP energy -198277.548738 kJ/mol
# GULP energy per Si atom -12392.346796 kJ/mol
# Density = 2.293475 g / cm^3
# Si number density = 22.987070 Si / 1000 Ang^3
#
#
#
# Elastic Constant Matrix: (Units=GPa)
#
#
# Indices 1 2 3 4 5 6 
#
# 1 137.4107 53.0012 32.9044 -12.7715 -14.7082 5.1638
# 2 53.0012 95.6327 36.1735 -5.3272 -5.8724 9.1129
# 3 32.9044 36.1735 77.3364 -16.1204 0.8049 -4.9354
# 4 -12.7715 -5.3272 -16.1204 42.6094 -5.2740 -7.4225
# 5 -14.7082 -5.8724 0.8049 -5.2740 39.5711 -4.9909
# 6 5.1638 9.1129 -4.9354 -7.4225 -4.9909 47.6991
#
#
#
# Elastic Compliance Matrix: (Units=1/GPa)
#
#
# Indices 1 2 3 4 5 6 
#
# 1 0.010021 -0.004631 -0.001634 0.002290 0.003419 0.000345
# 2 -0.004631 0.015478 -0.005971 -0.002317 -0.000045 -0.003439
# 3 -0.001634 -0.005971 0.017981 0.006215 -0.000515 0.004091
# 4 0.002290 -0.002317 0.006215 0.027798 0.004800 0.005666
# 5 0.003419 -0.000045 -0.000515 0.004800 0.027591 0.003219
# 6 0.000345 -0.003439 0.004091 0.005666 0.003219 0.023226
#
#
# Mechanical properties :
#
#
# Convention : Reuss Voigt Hill
#
# Bulk Modulus (GPa) = 52.61109 61.61535 57.11322
# Shear Modulus (GPa) = 32.70055 38.52927 35.61491
#
# Velocity S-wave (km/s) = 3.77578 4.09850 3.94044
# Velocity P-wave (km/s) = 6.47654 7.01851 6.75296
#
# Compressibility (1/GPa) = 0.01900740
#
# Stress axis : x y z
#
# Youngs Moduli (GPa) = 99.79255 64.60893 55.61565
#
# Poissons Ratio (x) = 0.29921 0.09086
# Poissons Ratio (y) = 0.46215 0.33209
# Poissons Ratio (z) = 0.16303 0.38578
#
# Static dielectric constant tensor:
#      x y z
#    x 4.358550 0.063350 -0.036050 
#    y 0.063350 4.079760 0.009200 
#    z -0.036050 0.009200 4.026440 
# 
# 
# High freq. dielectric constant tensor:
#      x y z
#    x 1.930310 -0.007200 -0.007600 
#    y -0.007200 1.913360 -0.007700 
#    z -0.007600 -0.007700 1.899540 
# 
# From -- ./inp_files/403500.got.cif
#   From: 2010.06.25/outbox.cif.g09.slc.cpg/sg2_202_cif.got.tgz:403500.got - 2010.06.27 13:26:56.
