data_PCOD8033119
_publ_section_title
;
Structure prediction by ZEFSAII (Michael W. Deem and Ramdas Pophale) SiO2 
 PCOD8033119
Probable space group: P -1
;
_chemical_formula_sum "Si O2"
_cell_formula_units_Z 12
_cell_length_a 6.753259
_cell_length_b 11.902919
_cell_length_c 13.191328
_cell_angle_alpha 54.034674
_cell_angle_beta 131.853709
_cell_angle_gamma 134.482886
_cell_volume 549.002633
_symmetry_space_group_name_H-M "P -1"
_symmetry_group_IT_number 2
_symmetry_cell_setting 'triclinic'
loop_
_space_group_symop_operation_xyz
x,y,z
-x,-y,-z
loop_
_atom_site_type_symbol
_atom_site_label
_atom_site_fract_x
_atom_site_fract_y
_atom_site_fract_z
Si Si1 0.148086 0.434286 0.888922
Si Si2 0.823199 0.083988 0.435949
Si Si3 0.923886 0.650932 0.779250
Si Si4 0.197928 0.455365 0.664396
Si Si5 0.120842 0.900206 0.316894
Si Si6 0.145820 0.873266 0.931141
O O1 0.113761 0.474261 0.740419
O O2 0.009403 0.511493 0.877736
O O3 0.500000 0.500000 0.000000
O O4 0.965252 0.242142 0.947477
O O5 0.894599 0.125842 0.555039
O O6 0.945702 0.251619 0.331773
O O7 0.461248 0.960581 0.358462
O O8 0.000000 0.000000 0.500000
O O9 0.557778 0.577083 0.701355
O O10 0.093205 0.768999 0.867961
O O11 0.000000 0.500000 0.500000
O O12 0.121034 0.272669 0.721286
O O13 0.041423 0.034544 0.187393
O O14 0.500000 0.000000 0.000000
#
# Coordination Sequence:
#
# PCOD8033119 Si02
#       6
#     2   2   2   2   2   2
#     4  12  27  48  73 102 147 190 231 292 356 417
#     4  11  23  44  75 102 142 181 229 296 355 407
#     4  12  26  47  73 103 143 185 239 293 348 422
#     4  12  28  47  74 107 142 187 238 289 354 420
#     4  11  26  45  71 108 141 180 238 289 352 423
#     4  12  27  45  72 105 141 188 238 288 353 420
#
# _framework density 21.85782
#
# number of rings (size 3 to 8) (size 9 to 14) (size 15 to 20)
#    0.000    0.333    3.333    4.500    7.000    6.000 
#    0.000    0.000    0.000    0.000    0.000    0.000 
#    0.000    0.000    0.000    0.000    0.000    0.000 
#
# Total GULP energy -148883.621888 kJ/mol
# GULP energy per Si atom -12406.968491 kJ/mol
# Density = 2.180807 g / cm^3
# Si number density = 21.857820 Si / 1000 Ang^3
#
#
#
# Elastic Constant Matrix: (Units=GPa)
#
#
# Indices 1 2 3 4 5 6 
#
# 1 133.0972 61.8793 65.6177 7.4207 1.5764 13.6288
# 2 61.8793 146.1795 56.0013 7.5198 -3.6629 12.8143
# 3 65.6177 56.0013 134.4317 -0.2183 1.6146 6.1603
# 4 7.4207 7.5198 -0.2183 46.8921 6.0132 3.1847
# 5 1.5764 -3.6629 1.6146 6.0132 31.8836 -3.1837
# 6 13.6288 12.8143 6.1603 3.1847 -3.1837 47.6899
#
#
#
# Elastic Compliance Matrix: (Units=1/GPa)
#
#
# Indices 1 2 3 4 5 6 
#
# 1 0.011182 -0.002945 -0.004141 -0.001107 -0.000656 -0.001839
# 2 -0.002945 0.009184 -0.002354 -0.001121 0.001416 -0.001152
# 3 -0.004141 -0.002354 0.010436 0.001158 -0.000779 0.000338
# 4 -0.001107 -0.001121 0.001158 0.022350 -0.004480 -0.001324
# 5 -0.000656 0.001416 -0.000779 -0.004480 0.032682 0.002389
# 6 -0.001839 -0.001152 0.000338 -0.001324 0.002389 0.022008
#
#
# Mechanical properties :
#
#
# Convention : Reuss Voigt Hill
#
# Bulk Modulus (GPa) = 83.88155 86.74499 85.31327
# Shear Modulus (GPa) = 38.25655 40.64047 39.44851
#
# Velocity S-wave (km/s) = 4.18813 4.31665 4.25288
# Velocity P-wave (km/s) = 7.86426 8.03846 7.95184
#
# Compressibility (1/GPa) = 0.01192157
#
# Stress axis : x y z
#
# Youngs Moduli (GPa) = 89.43047 108.88813 95.82009
#
# Poissons Ratio (x) = 0.32072 0.39676
# Poissons Ratio (y) = 0.26341 0.22557
# Poissons Ratio (z) = 0.37030 0.25633
#
# Static dielectric constant tensor:
#      x y z
#    x 3.544140 0.134440 0.404060 
#    y 0.134440 4.138070 -0.321860 
#    z 0.404060 -0.321860 3.709930 
# 
# 
# High freq. dielectric constant tensor:
#      x y z
#    x 1.873030 0.004300 -0.000500 
#    y 0.004300 1.876430 -0.009500 
#    z -0.000500 -0.009500 1.871860 
# 
# From -- ./inp_files/17737.got.cif
#   From: 2010.06.25/outbox.cif.g09.slc.cpg/sg2_9_cif.got.tgz:17737.got - 2010.06.27 13:26:56.
