data_PCOD8033771
_publ_section_title
;
Structure prediction by ZEFSAII (Michael W. Deem and Ramdas Pophale) SiO2 
 PCOD8033771
Probable space group: P -1
;
_chemical_formula_sum "Si O2"
_cell_formula_units_Z 16
_cell_length_a 11.750516
_cell_length_b 13.788630
_cell_length_c 9.141299
_cell_angle_alpha 73.337236
_cell_angle_beta 96.384969
_cell_angle_gamma 147.806883
_cell_volume 730.461481
_symmetry_space_group_name_H-M "P -1"
_symmetry_group_IT_number 2
_symmetry_cell_setting 'triclinic'
loop_
_space_group_symop_operation_xyz
x,y,z
-x,-y,-z
loop_
_atom_site_type_symbol
_atom_site_label
_atom_site_fract_x
_atom_site_fract_y
_atom_site_fract_z
Si Si1 0.391415 0.823912 0.742872
Si Si2 0.727463 0.071030 0.449445
Si Si3 0.675697 0.569460 0.905903
Si Si4 0.081374 0.982328 0.640411
Si Si5 0.495103 0.699671 0.259984
Si Si6 0.364118 0.995003 0.019894
Si Si7 0.878110 0.564330 0.145042
Si Si8 0.908572 0.545477 0.483866
O O1 0.310647 0.879705 0.712467
O O2 0.176515 0.592379 0.842581
O O3 0.487468 0.869187 0.575531
O O4 0.589809 0.949101 0.827541
O O5 0.834494 0.051734 0.415875
O O6 0.884659 0.237659 0.519938
O O7 0.588395 0.452256 0.793760
O O8 0.881700 0.798987 0.798732
O O9 0.500000 0.500000 0.000000
O O10 0.719644 0.516049 0.052521
O O11 0.292982 0.186346 0.671626
O O12 0.000000 0.000000 0.500000
O O13 0.301157 0.596899 0.379246
O O14 0.578915 0.861256 0.119256
O O15 0.119245 0.778304 0.040244
O O16 0.500000 0.000000 0.000000
O O17 0.842522 0.547066 0.320793
O O18 0.000000 0.500000 0.500000
#
# Coordination Sequence:
#
# PCOD8033771 Si02
#       8
#     2   2   2   2   2   2   2   2
#     4  11  24  41  72 105 153 194 231 304 371 439
#     4  11  24  45  71 112 151 191 251 297 368 447
#     4  12  30  52  75 106 144 197 256 314 364 427
#     4  12  29  50  76 107 146 195 253 310 364 434
#     4  12  27  50  76 109 149 189 252 300 369 447
#     4  12  25  40  70 109 148 190 233 295 373 449
#     4  12  25  47  71 108 148 192 243 301 371 436
#     4  12  24  44  77 114 151 198 237 293 373 457
#
# _framework density 21.903960999999999
#
# number of rings (size 3 to 8) (size 9 to 14) (size 15 to 20)
#    0.000    0.250    6.250    2.250    5.250    2.500 
#    0.000    0.000    0.000    0.000    0.000    0.000 
#    0.000    0.000    0.000    0.000    0.000    0.000 
#
# Total GULP energy -198345.232140 kJ/mol
# GULP energy per Si atom -12396.577009 kJ/mol
# Density = 2.185411 g / cm^3
# Si number density = 21.903961 Si / 1000 Ang^3
#
#
#
# Elastic Constant Matrix: (Units=GPa)
#
#
# Indices 1 2 3 4 5 6 
#
# 1 126.6617 36.8113 58.6673 -1.0856 -6.9898 14.1367
# 2 36.8113 122.1088 39.0533 0.8684 -4.1325 12.4138
# 3 58.6673 39.0533 121.4093 -0.9729 11.6483 13.8326
# 4 -1.0856 0.8684 -0.9729 45.8884 6.5889 6.5637
# 5 -6.9898 -4.1325 11.6483 6.5889 44.5820 4.3988
# 6 14.1367 12.4138 13.8326 6.5637 4.3988 24.6283
#
#
#
# Elastic Compliance Matrix: (Units=1/GPa)
#
#
# Indices 1 2 3 4 5 6 
#
# 1 0.011101 -0.001327 -0.004829 0.000245 0.003201 -0.003628
# 2 -0.001327 0.009688 -0.002274 -0.000047 0.001599 -0.003118
# 3 -0.004829 -0.002274 0.011967 0.001100 -0.004023 -0.002378
# 4 0.000245 -0.000047 0.001100 0.023170 -0.003050 -0.006365
# 5 0.003201 0.001599 -0.004023 -0.003050 0.024980 -0.004033
# 6 -0.003628 -0.003118 -0.002378 -0.006365 -0.004033 0.048010
#
#
# Mechanical properties :
#
#
# Convention : Reuss Voigt Hill
#
# Bulk Modulus (GPa) = 62.90535 71.02706 66.96621
# Shear Modulus (GPa) = 33.09604 38.72961 35.91282
#
# Velocity S-wave (km/s) = 3.89133 4.20951 4.05354
# Velocity P-wave (km/s) = 6.99792 7.49157 7.24895
#
# Compressibility (1/GPa) = 0.01589690
#
# Stress axis : x y z
#
# Youngs Moduli (GPa) = 90.08091 103.22113 83.56062
#
# Poissons Ratio (x) = 0.13693 0.40355
# Poissons Ratio (y) = 0.11950 0.19000
# Poissons Ratio (z) = 0.43503 0.23470
#
# Static dielectric constant tensor:
#      x y z
#    x 3.268320 0.123480 -0.164400 
#    y 0.123480 4.872560 0.295060 
#    z -0.164400 0.295060 4.096990 
# 
# 
# High freq. dielectric constant tensor:
#      x y z
#    x 1.846740 0.004250 0.007210 
#    y 0.004250 1.887150 0.001830 
#    z 0.007210 0.001830 1.878850 
# 
# From -- ./inp_files/272550.got.cif
#   From: 2010.06.25/outbox.cif.g09.slc.cpg/sg2_137_cif.got.tgz:272550.got - 2010.06.27 13:26:56.
