data_PCOD8033160
_publ_section_title
;
Structure prediction by ZEFSAII (Michael W. Deem and Ramdas Pophale) SiO2 
 PCOD8033160
Probable space group: P -1
;
_chemical_formula_sum "Si O2"
_cell_formula_units_Z 16
_cell_length_a 14.692443
_cell_length_b 26.371724
_cell_length_c 17.776768
_cell_angle_alpha 159.853031
_cell_angle_beta 21.103483
_cell_angle_gamma 160.452301
_cell_volume 720.924102
_symmetry_space_group_name_H-M "P -1"
_symmetry_group_IT_number 2
_symmetry_cell_setting 'triclinic'
loop_
_space_group_symop_operation_xyz
x,y,z
-x,-y,-z
loop_
_atom_site_type_symbol
_atom_site_label
_atom_site_fract_x
_atom_site_fract_y
_atom_site_fract_z
Si Si1 0.407860 0.766714 0.806914
Si Si2 0.184879 0.636994 0.113064
Si Si3 0.075716 0.135468 0.349704
Si Si4 0.339001 0.084151 0.333203
Si Si5 0.510532 0.188374 0.598126
Si Si6 0.260207 0.534155 0.071147
Si Si7 0.352949 0.617409 0.381488
Si Si8 0.775559 0.962916 0.055669
O O1 0.603999 0.751441 0.698978
O O2 0.573167 0.792626 0.636112
O O3 0.075972 0.597268 0.823063
O O4 0.402511 0.935313 0.064572
O O5 0.256373 0.550115 0.006085
O O6 0.481336 0.777529 0.038154
O O7 0.020265 0.727187 0.401043
O O8 0.000000 0.500000 0.000000
O O9 0.084398 0.045789 0.142157
O O10 0.833009 0.974226 0.363876
O O11 0.545215 0.199788 0.403574
O O12 0.000000 0.000000 0.500000
O O13 0.611011 0.278083 0.727720
O O14 0.552602 0.338151 0.716913
O O15 0.721105 0.120521 0.315173
O O16 0.477699 0.466930 0.829411
O O17 0.000000 0.500000 0.500000
O O18 0.000000 0.000000 0.000000
#
# Coordination Sequence:
#
# PCOD8033160 Si02
#       8
#     2   2   2   2   2   2   2   2
#     4  11  25  41  71  98 136 184 226 287 341 406
#     4  11  27  46  71 104 141 179 232 289 343 414
#     4  11  25  46  72 101 136 180 236 282 347 409
#     4  11  23  45  66  99 139 182 234 276 340 413
#     4  11  26  45  69 102 141 180 234 286 340 417
#     4  12  26  46  68 105 146 179 233 289 346 415
#     4  12  27  43  71 103 142 187 228 285 354 411
#     4  11  24  45  74  98 133 188 232 284 350 401
#
# _framework density 22.193736999999999
#
# number of rings (size 3 to 8) (size 9 to 14) (size 15 to 20)
#    0.000    0.750    1.250    4.875    8.750    7.000 
#    0.000    0.000    0.000    0.000    0.000    0.000 
#    0.000    0.000    0.000    0.000    0.000    0.000 
#
# Total GULP energy -198484.184329 kJ/mol
# GULP energy per Si atom -12405.261521 kJ/mol
# Density = 2.214322 g / cm^3
# Si number density = 22.193737 Si / 1000 Ang^3
#
#
#
# Elastic Constant Matrix: (Units=GPa)
#
#
# Indices 1 2 3 4 5 6 
#
# 1 137.3643 39.9107 44.8797 -5.8535 -8.4472 1.8581
# 2 39.9107 126.8564 39.9373 -6.5227 -9.9772 15.9087
# 3 44.8797 39.9373 112.2209 -7.6700 -4.4392 0.1262
# 4 -5.8535 -6.5227 -7.6700 36.9661 6.3626 1.3645
# 5 -8.4472 -9.9772 -4.4392 6.3626 42.5307 2.4313
# 6 1.8581 15.9087 0.1262 1.3645 2.4313 48.0463
#
#
#
# Elastic Compliance Matrix: (Units=1/GPa)
#
#
# Indices 1 2 3 4 5 6 
#
# 1 0.008796 -0.001816 -0.002812 0.000315 0.000968 0.000211
# 2 -0.001816 0.009885 -0.002669 0.000722 0.001760 -0.003305
# 3 -0.002812 -0.002669 0.011068 0.001396 -0.000292 0.000938
# 4 0.000315 0.000722 0.001396 0.028203 -0.003792 -0.000864
# 5 0.000968 0.001760 -0.000292 -0.003792 0.024756 -0.001765
# 6 0.000211 -0.003305 0.000938 -0.000864 -0.001765 0.022011
#
#
# Mechanical properties :
#
#
# Convention : Reuss Voigt Hill
#
# Bulk Modulus (GPa) = 65.98345 69.54412 67.76378
# Shear Modulus (GPa) = 40.20442 42.28953 41.24697
#
# Velocity S-wave (km/s) = 4.26081 4.36991 4.31570
# Velocity P-wave (km/s) = 7.34855 7.54085 7.44533
#
# Compressibility (1/GPa) = 0.01515532
#
# Stress axis : x y z
#
# Youngs Moduli (GPa) = 113.68214 101.16754 90.34974
#
# Poissons Ratio (x) = 0.18375 0.25406
# Poissons Ratio (y) = 0.20648 0.24111
# Poissons Ratio (z) = 0.31967 0.26998
#
# Static dielectric constant tensor:
#      x y z
#    x 4.154940 0.123770 -0.018480 
#    y 0.123770 3.913490 0.215500 
#    z -0.018480 0.215500 3.717140 
# 
# 
# High freq. dielectric constant tensor:
#      x y z
#    x 1.885150 0.006070 0.005570 
#    y 0.006070 1.887320 -0.002190 
#    z 0.005570 -0.002190 1.881630 
# 
# From -- ./inp_files/574537.got.cif
#   From: 2010.06.25/outbox.cif.g09.slc.cpg/sg2_288_cif.got.tgz:574537.got - 2010.06.27 13:26:56.
