data_PCOD8033162
_publ_section_title
;
Structure prediction by ZEFSAII (Michael W. Deem and Ramdas Pophale) SiO2 
 PCOD8033162
Probable space group: P -1
;
_chemical_formula_sum "Si O2"
_cell_formula_units_Z 16
_cell_length_a 15.896204
_cell_length_b 12.075041
_cell_length_c 12.205879
_cell_angle_alpha 106.015685
_cell_angle_beta 57.662064
_cell_angle_gamma 153.445389
_cell_volume 746.899345
_symmetry_space_group_name_H-M "P -1"
_symmetry_group_IT_number 2
_symmetry_cell_setting 'triclinic'
loop_
_space_group_symop_operation_xyz
x,y,z
-x,-y,-z
loop_
_atom_site_type_symbol
_atom_site_label
_atom_site_fract_x
_atom_site_fract_y
_atom_site_fract_z
Si Si1 0.495033 0.773957 0.820718
Si Si2 0.766090 0.268366 0.679473
Si Si3 0.538032 0.503956 0.145525
Si Si4 0.097744 0.093376 0.195488
Si Si5 0.696552 0.823680 0.321369
Si Si6 0.041966 0.394688 0.163358
Si Si7 0.654769 0.176359 0.328645
Si Si8 0.716025 0.498822 0.334988
O O1 0.555201 0.728553 0.843547
O O2 0.445488 0.668761 0.708009
O O3 0.725821 0.110558 0.739045
O O4 0.253578 0.587598 0.981080
O O5 0.827422 0.438940 0.764944
O O6 0.000000 0.500000 0.500000
O O7 0.519744 0.033739 0.713544
O O8 0.313829 0.342036 0.204341
O O9 0.611332 0.633420 0.246079
O O10 0.785557 0.772027 0.970134
O O11 0.879491 0.958437 0.321396
O O12 0.984100 0.845600 0.224758
O O13 0.445267 0.606596 0.490246
O O14 0.844926 0.081520 0.226121
O O15 0.891456 0.343008 0.206237
O O16 0.770604 0.427126 0.314097
O O17 0.500000 0.000000 0.500000
#
# Coordination Sequence:
#
# PCOD8033162 Si02
#       8
#     2   2   2   2   2   2   2   2
#     4  11  24  46  67  98 136 178 219 275 337 386
#     4  11  24  43  68  97 133 172 223 274 325 395
#     4  11  25  44  68  99 134 176 220 275 331 397
#     4  11  24  43  66  99 132 172 225 269 331 396
#     4  12  23  45  68  98 137 175 218 275 337 387
#     4  12  24  44  72  95 137 179 218 274 332 398
#     4  11  23  45  67 101 133 176 221 271 336 388
#     4  11  24  43  69  97 136 174 221 279 326 398
#
# _framework density 21.421896
#
# number of rings (size 3 to 8) (size 9 to 14) (size 15 to 20)
#    0.000    0.750    5.000    2.625    1.750    3.500 
#    2.250    0.000    0.000    0.000    0.000    0.000 
#    0.000    0.000    0.000    0.000    0.000    0.000 
#
# Total GULP energy -198448.498780 kJ/mol
# GULP energy per Si atom -12403.031174 kJ/mol
# Density = 2.137314 g / cm^3
# Si number density = 21.421896 Si / 1000 Ang^3
#
#
#
# Elastic Constant Matrix: (Units=GPa)
#
#
# Indices 1 2 3 4 5 6 
#
# 1 143.9880 33.0584 38.5805 -5.2104 -9.3157 -11.5117
# 2 33.0584 52.5493 3.0848 4.0159 3.9183 -8.8407
# 3 38.5805 3.0848 70.5419 2.9390 12.0248 -13.5895
# 4 -5.2104 4.0159 2.9390 25.6372 -11.0989 9.1891
# 5 -9.3157 3.9183 12.0248 -11.0989 34.0336 -8.8391
# 6 -11.5117 -8.8407 -13.5895 9.1891 -8.8391 40.5043
#
#
#
# Elastic Compliance Matrix: (Units=1/GPa)
#
#
# Indices 1 2 3 4 5 6 
#
# 1 0.012265 -0.008962 -0.008759 0.009878 0.010343 -0.001393
# 2 -0.008962 0.027267 0.007486 -0.014166 -0.011116 0.006704
# 3 -0.008759 0.007486 0.023004 -0.014252 -0.014219 0.006993
# 4 0.009878 -0.014166 -0.014252 0.060755 0.025747 -0.013231
# 5 0.010343 -0.011116 -0.014219 0.025747 0.046952 0.000148
# 6 -0.001393 0.006704 0.006993 -0.013231 0.000148 0.031136
#
#
# Mechanical properties :
#
#
# Convention : Reuss Voigt Hill
#
# Bulk Modulus (GPa) = 23.77244 46.28073 35.02658
# Shear Modulus (GPa) = 21.19796 32.85871 27.02833
#
# Velocity S-wave (km/s) = 3.14912 3.92073 3.55592
# Velocity P-wave (km/s) = 4.93396 6.49211 5.76591
#
# Compressibility (1/GPa) = 0.04206552
#
# Stress axis : x y z
#
# Youngs Moduli (GPa) = 81.53473 36.67374 43.47137
#
# Poissons Ratio (x) = 0.32867 0.38076
# Poissons Ratio (y) = 0.73070 -0.32541
# Poissons Ratio (z) = 0.71415 -0.27452
#
# Static dielectric constant tensor:
#      x y z
#    x 4.059340 -0.145760 0.194800 
#    y -0.145760 4.012940 -0.079790 
#    z 0.194800 -0.079790 3.921560 
# 
# 
# High freq. dielectric constant tensor:
#      x y z
#    x 1.848950 -0.009790 0.009870 
#    y -0.009790 1.842480 -0.008420 
#    z 0.009870 -0.008420 1.844620 
# 
# From -- ./inp_files/345377.got.cif
#   From: 2010.06.25/outbox.cif.g09.slc.cpg/sg2_173_cif.got.tgz:345377.got - 2010.06.27 13:26:56.
