data_PCOD8033044
_publ_section_title
;
Structure prediction by ZEFSAII (Michael W. Deem and Ramdas Pophale) SiO2 
 PCOD8033044
Probable space group: P -1
;
_chemical_formula_sum "Si O2"
_cell_formula_units_Z 12
_cell_length_a 8.734943
_cell_length_b 6.647044
_cell_length_c 14.861134
_cell_angle_alpha 74.278378
_cell_angle_beta 139.017769
_cell_angle_gamma 101.512168
_cell_volume 544.698466
_symmetry_space_group_name_H-M "P -1"
_symmetry_group_IT_number 2
_symmetry_cell_setting 'triclinic'
loop_
_space_group_symop_operation_xyz
x,y,z
-x,-y,-z
loop_
_atom_site_type_symbol
_atom_site_label
_atom_site_fract_x
_atom_site_fract_y
_atom_site_fract_z
Si Si1 0.508622 0.159569 0.566911
Si Si2 0.524978 0.087094 0.900602
Si Si3 0.005469 0.318144 0.093501
Si Si4 0.533376 0.844755 0.759605
Si Si5 0.804232 0.533339 0.333155
Si Si6 0.871628 0.500115 0.684541
O O1 0.765308 0.266074 0.674425
O O2 0.326198 0.344767 0.455556
O O3 0.500000 0.000000 0.500000
O O4 0.423390 0.041967 0.633825
O O5 0.313512 0.236504 0.753850
O O6 0.543687 0.891624 0.864463
O O7 0.766697 0.201439 0.991516
O O8 0.500000 0.000000 0.000000
O O9 0.218721 0.167484 0.180168
O O10 0.024457 0.418569 0.187057
O O11 0.000000 0.500000 0.000000
O O12 0.395221 0.631494 0.710630
O O13 0.000000 0.500000 0.500000
O O14 0.914756 0.493027 0.290234
#
# Coordination Sequence:
#
# PCOD8033044 Si02
#       6
#     2   2   2   2   2   2
#     4  11  23  44  72 106 137 183 236 287 351 414
#     4  12  29  47  72 106 144 187 235 289 357 418
#     4  12  25  46  72 103 142 185 234 289 351 417
#     4  12  26  46  74 102 140 188 235 289 350 421
#     4  12  28  48  71 104 145 185 235 294 351 417
#     4  11  26  43  72 103 144 180 234 294 346 419
#
# _framework density 22.030538
#
# number of rings (size 3 to 8) (size 9 to 14) (size 15 to 20)
#    0.000    0.333    3.333    4.500    7.000    6.667 
#    0.000    0.000    0.000    0.000    0.000    0.000 
#    0.000    0.000    0.000    0.000    0.000    0.000 
#
# Total GULP energy -148801.825325 kJ/mol
# GULP energy per Si atom -12400.152110 kJ/mol
# Density = 2.198040 g / cm^3
# Si number density = 22.030538 Si / 1000 Ang^3
#
#
#
# Elastic Constant Matrix: (Units=GPa)
#
#
# Indices 1 2 3 4 5 6 
#
# 1 133.3734 29.5519 42.9203 -1.8866 -9.8757 -8.7594
# 2 29.5519 96.0356 35.8599 -2.5030 -1.7530 0.1434
# 3 42.9203 35.8599 119.4177 1.9865 -9.2182 -6.4670
# 4 -1.8866 -2.5030 1.9865 30.9369 2.5784 -13.7295
# 5 -9.8757 -1.7530 -9.2182 2.5784 48.4231 2.9487
# 6 -8.7594 0.1434 -6.4670 -13.7295 2.9487 45.7256
#
#
#
# Elastic Compliance Matrix: (Units=1/GPa)
#
#
# Indices 1 2 3 4 5 6 
#
# 1 0.008903 -0.001750 -0.002520 0.001200 0.001109 0.001644
# 2 -0.001750 0.012121 -0.003094 0.000890 -0.000523 -0.000510
# 3 -0.002520 -0.003094 0.010363 -0.000901 0.001356 0.000635
# 4 0.001200 0.000890 -0.000901 0.037917 -0.002623 0.011654
# 5 0.001109 -0.000523 0.001356 -0.002623 0.021363 -0.001759
# 6 0.001644 -0.000510 0.000635 0.011654 -0.001759 0.025888
#
#
# Mechanical properties :
#
#
# Convention : Reuss Voigt Hill
#
# Bulk Modulus (GPa) = 60.02327 62.83233 61.42780
# Shear Modulus (GPa) = 36.54002 41.05010 38.79506
#
# Velocity S-wave (km/s) = 4.07702 4.32131 4.20094
# Velocity P-wave (km/s) = 7.03331 7.31306 7.17454
#
# Compressibility (1/GPa) = 0.01666021
#
# Stress axis : x y z
#
# Youngs Moduli (GPa) = 112.31689 82.50268 96.49980
#
# Poissons Ratio (x) = 0.14436 0.24317
# Poissons Ratio (y) = 0.19652 0.29854
# Poissons Ratio (z) = 0.28303 0.25524
#
# Static dielectric constant tensor:
#      x y z
#    x 4.111640 0.097680 -0.112350 
#    y 0.097680 4.325150 0.127240 
#    z -0.112350 0.127240 4.425330 
# 
# 
# High freq. dielectric constant tensor:
#      x y z
#    x 1.883350 0.003810 -0.007240 
#    y 0.003810 1.880550 -0.002770 
#    z -0.007240 -0.002770 1.878620 
# 
# From -- ./inp_files/22664.got.cif
#   From: 2010.06.25/outbox.cif.g09.slc.cpg/sg2_12_cif.got.tgz:22664.got - 2010.06.27 13:26:56.
