data_PCOD8033504
_publ_section_title
;
Structure prediction by ZEFSAII (Michael W. Deem and Ramdas Pophale) SiO2 
 PCOD8033504
Probable space group: P -1
;
_chemical_formula_sum "Si O2"
_cell_formula_units_Z 14
_cell_length_a 7.860626
_cell_length_b 8.734788
_cell_length_c 19.669398
_cell_angle_alpha 63.560759
_cell_angle_beta 129.827826
_cell_angle_gamma 145.322246
_cell_volume 579.757407
_symmetry_space_group_name_H-M "P -1"
_symmetry_group_IT_number 2
_symmetry_cell_setting 'triclinic'
loop_
_space_group_symop_operation_xyz
x,y,z
-x,-y,-z
loop_
_atom_site_type_symbol
_atom_site_label
_atom_site_fract_x
_atom_site_fract_y
_atom_site_fract_z
Si Si1 0.686192 0.453509 0.902374
Si Si2 0.602520 0.377606 0.255890
Si Si3 0.163060 0.105509 0.594764
Si Si4 0.745950 0.483119 0.063559
Si Si5 0.684024 0.694457 0.659729
Si Si6 0.744301 0.124147 0.143021
Si Si7 0.255518 0.816885 0.252355
O O1 0.472240 0.502112 0.834104
O O2 0.961251 0.616673 0.880959
O O3 0.430022 0.136861 0.889173
O O4 0.877789 0.553253 0.004704
O O5 0.546634 0.374553 0.322545
O O6 0.009104 0.589894 0.295071
O O7 0.334603 0.064618 0.231918
O O8 0.424305 0.422533 0.602709
O O9 0.376108 0.060690 0.673909
O O10 0.000000 0.000000 0.500000
O O11 0.842168 0.933537 0.601998
O O12 0.529322 0.175147 0.090634
O O13 0.091474 0.699845 0.157647
O O14 0.500000 0.500000 0.000000
O O15 0.039869 0.806770 0.749828
#
# Coordination Sequence:
#
# PCOD8033504 Si02
#       7
#     2   2   2   2   2   2   2
#     4  11  24  44  65  97 139 190 238 278 328 423
#     4  11  24  46  71 105 144 192 231 283 358 416
#     4  12  26  48  76 107 135 179 236 292 355 426
#     4  12  26  42  67 103 146 183 241 288 349 394
#     4  11  23  46  76 100 139 186 232 285 350 430
#     4  11  24  45  67  96 138 188 238 276 341 413
#     4  12  26  46  69 105 148 183 232 301 352 406
#
# _framework density 24.148029000000001
#
# number of rings (size 3 to 8) (size 9 to 14) (size 15 to 20)
#    0.000    0.571    2.857    6.429    0.000    1.714 
#    0.000    4.286    0.000    0.000    0.000    0.000 
#    0.000    0.000    0.000    0.000    0.000    0.000 
#
# Total GULP energy -173479.590378 kJ/mol
# GULP energy per Si atom -12391.399313 kJ/mol
# Density = 2.409307 g / cm^3
# Si number density = 24.148029 Si / 1000 Ang^3
#
#
#
# Elastic Constant Matrix: (Units=GPa)
#
#
# Indices 1 2 3 4 5 6 
#
# 1 77.8230 63.4736 53.2044 6.4841 -26.8505 15.3900
# 2 63.4736 217.6893 62.1328 17.2003 -29.8145 34.5981
# 3 53.2044 62.1328 144.9390 27.0123 -37.4463 14.0499
# 4 6.4841 17.2003 27.0123 31.3811 -0.4628 -7.4817
# 5 -26.8505 -29.8145 -37.4463 -0.4628 40.4207 -20.0084
# 6 15.3900 34.5981 14.0499 -7.4817 -20.0084 83.9555
#
#
#
# Elastic Compliance Matrix: (Units=1/GPa)
#
#
# Indices 1 2 3 4 5 6 
#
# 1 0.021778 -0.004250 -0.004764 0.002145 0.007168 0.000456
# 2 -0.004250 0.006566 -0.000349 -0.002877 0.000693 -0.001960
# 3 -0.004764 -0.000349 0.012734 -0.009665 0.008261 -0.000006
# 4 0.002145 -0.002877 -0.009665 0.042297 -0.006925 0.004529
# 5 0.007168 0.000693 0.008261 -0.006925 0.040594 0.006075
# 6 0.000456 -0.001960 -0.000006 0.004529 0.006075 0.014487
#
#
# Mechanical properties :
#
#
# Convention : Reuss Voigt Hill
#
# Bulk Modulus (GPa) = 44.74183 88.67477 66.70830
# Shear Modulus (GPa) = 30.37023 48.59416 39.48219
#
# Velocity S-wave (km/s) = 3.55021 4.49078 4.04791
# Velocity P-wave (km/s) = 5.94758 7.98064 7.03791
#
# Compressibility (1/GPa) = 0.02235045
#
# Stress axis : x y z
#
# Youngs Moduli (GPa) = 45.91882 152.28820 78.52808
#
# Poissons Ratio (x) = 0.64728 0.37412
# Poissons Ratio (y) = 0.19517 0.02744
# Poissons Ratio (z) = 0.21877 0.05321
#
# Static dielectric constant tensor:
#      x y z
#    x 4.988460 -0.368890 0.220390 
#    y -0.368890 5.044820 -0.704870 
#    z 0.220390 -0.704870 4.764100 
# 
# 
# High freq. dielectric constant tensor:
#      x y z
#    x 1.973200 -0.002420 -0.014990 
#    y -0.002420 1.978940 -0.009560 
#    z -0.014990 -0.009560 1.941170 
# 
# From -- ./inp_files/587930.got.cif
#   From: 2010.06.25/outbox.cif.g09.slc.cpg/sg2_294_cif.got.tgz:587930.got - 2010.06.27 13:26:56.
