data_PCOD8033898
_publ_section_title
;
Structure prediction by ZEFSAII (Michael W. Deem and Ramdas Pophale) SiO2 
 PCOD8033898
Probable space group: P -1
;
_chemical_formula_sum "Si O2"
_cell_formula_units_Z 16
_cell_length_a 14.118079
_cell_length_b 8.386617
_cell_length_c 6.510230
_cell_angle_alpha 94.779916
_cell_angle_beta 110.391194
_cell_angle_gamma 76.769004
_cell_volume 703.341876
_symmetry_space_group_name_H-M "P -1"
_symmetry_group_IT_number 2
_symmetry_cell_setting 'triclinic'
loop_
_space_group_symop_operation_xyz
x,y,z
-x,-y,-z
loop_
_atom_site_type_symbol
_atom_site_label
_atom_site_fract_x
_atom_site_fract_y
_atom_site_fract_z
Si Si1 0.387233 0.614509 0.947702
Si Si2 0.349777 0.079417 0.444502
Si Si3 0.472739 0.913076 0.166980
Si Si4 0.108392 0.076435 0.696922
Si Si5 0.794415 0.396873 0.918111
Si Si6 0.155420 0.265450 0.114564
Si Si7 0.737462 0.199299 0.475851
Si Si8 0.018723 0.807122 0.753937
O O1 0.326528 0.648590 0.689228
O O2 0.500000 0.500000 0.000000
O O3 0.400051 0.788170 0.060322
O O4 0.318839 0.541982 0.057014
O O5 0.416987 0.170928 0.654643
O O6 0.409317 0.058652 0.272636
O O7 0.344139 0.901058 0.508479
O O8 0.236774 0.190364 0.343351
O O9 0.500000 0.000000 0.000000
O O10 0.176816 0.169893 0.902333
O O11 0.039311 0.212852 0.508430
O O12 0.178788 0.927970 0.606887
O O13 0.032938 0.995814 0.778666
O O14 0.792446 0.273302 0.713443
O O15 0.840460 0.547037 0.888616
O O16 0.867594 0.308017 0.148054
O O17 0.045107 0.241163 0.108159
#
# Coordination Sequence:
#
# PCOD8033898 Si02
#       8
#     2   2   2   2   2   2   2   2
#     4  12  28  45  70 100 143 187 232 284 357 420
#     4  11  24  42  72  99 133 178 241 286 337 412
#     4  11  24  44  69 100 132 178 238 296 340 398
#     4  11  25  44  80 102 134 185 242 283 340 414
#     4  12  29  46  68 104 153 182 224 289 360 420
#     4  12  27  44  71 106 144 185 230 286 352 419
#     4  12  24  48  72 102 140 186 230 292 347 411
#     4  11  25  47  73 107 140 184 233 291 349 416
#
# _framework density 22.748539999999998
#
# number of rings (size 3 to 8) (size 9 to 14) (size 15 to 20)
#    0.000    0.500    5.000    2.250    7.000    2.000 
#    0.000    0.000    0.000    0.000    0.000    0.000 
#    0.000    0.000    0.000    0.000    0.000    0.000 
#
# Total GULP energy -198366.075226 kJ/mol
# GULP energy per Si atom -12397.879702 kJ/mol
# Density = 2.269676 g / cm^3
# Si number density = 22.748540 Si / 1000 Ang^3
#
#
#
# Elastic Constant Matrix: (Units=GPa)
#
#
# Indices 1 2 3 4 5 6 
#
# 1 124.1305 35.2678 45.5376 -2.7548 -5.9590 3.4160
# 2 35.2678 73.7770 38.1175 -11.5072 -6.9831 7.3690
# 3 45.5376 38.1175 108.0809 -13.1104 7.6852 -2.0591
# 4 -2.7548 -11.5072 -13.1104 30.3074 -1.9749 3.4104
# 5 -5.9590 -6.9831 7.6852 -1.9749 41.1315 -11.5168
# 6 3.4160 7.3690 -2.0591 3.4104 -11.5168 39.1790
#
#
#
# Elastic Compliance Matrix: (Units=1/GPa)
#
#
# Indices 1 2 3 4 5 6 
#
# 1 0.010299 -0.003245 -0.003512 -0.001729 0.001552 0.000135
# 2 -0.003245 0.019137 -0.005012 0.005357 0.003094 -0.003137
# 3 -0.003512 -0.005012 0.013144 0.003164 -0.003484 0.000640
# 4 -0.001729 0.005357 0.003164 0.036704 0.000809 -0.003648
# 5 0.001552 0.003094 -0.003484 0.000809 0.027766 0.007191
# 6 0.000135 -0.003137 0.000640 -0.003648 0.007191 0.028567
#
#
# Mechanical properties :
#
#
# Convention : Reuss Voigt Hill
#
# Bulk Modulus (GPa) = 52.51794 60.42604 56.47199
# Shear Modulus (GPa) = 30.21125 34.59462 32.40293
#
# Velocity S-wave (km/s) = 3.64820 3.90390 3.77821
# Velocity P-wave (km/s) = 6.39392 6.85134 6.62658
#
# Compressibility (1/GPa) = 0.01904111
#
# Stress axis : x y z
#
# Youngs Moduli (GPa) = 97.09762 52.25579 76.08277
#
# Poissons Ratio (x) = 0.16956 0.26724
# Poissons Ratio (y) = 0.31506 0.38131
# Poissons Ratio (z) = 0.34105 0.26190
#
# Static dielectric constant tensor:
#      x y z
#    x 4.300520 0.189850 0.133980 
#    y 0.189850 3.640640 -0.146110 
#    z 0.133980 -0.146110 4.376720 
# 
# 
# High freq. dielectric constant tensor:
#      x y z
#    x 1.915910 0.015300 0.006580 
#    y 0.015300 1.865130 -0.010620 
#    z 0.006580 -0.010620 1.915050 
# 
# From -- ./inp_files/90550.got.cif
#   From: 2010.06.25/outbox.cif.g09.slc.cpg/sg2_46_cif.got.tgz:90550.got - 2010.06.27 13:26:56.
