data_PCOD8033336
_publ_section_title
;
Structure prediction by ZEFSAII (Michael W. Deem and Ramdas Pophale) SiO2 
 PCOD8033336
Probable space group: P -1
;
_chemical_formula_sum "Si O2"
_cell_formula_units_Z 16
_cell_length_a 18.323422
_cell_length_b 12.048874
_cell_length_c 8.630323
_cell_angle_alpha 129.082055
_cell_angle_beta 129.515318
_cell_angle_gamma 26.569081
_cell_volume 646.982955
_symmetry_space_group_name_H-M "P -1"
_symmetry_group_IT_number 2
_symmetry_cell_setting 'triclinic'
loop_
_space_group_symop_operation_xyz
x,y,z
-x,-y,-z
loop_
_atom_site_type_symbol
_atom_site_label
_atom_site_fract_x
_atom_site_fract_y
_atom_site_fract_z
Si Si1 0.225110 0.085419 0.730457
Si Si2 0.606117 0.012115 0.838542
Si Si3 0.709986 0.743651 0.233269
Si Si4 0.068674 0.764776 0.006257
Si Si5 0.785462 0.120829 0.712318
Si Si6 0.859706 0.521582 0.564586
Si Si7 0.500184 0.373534 0.771093
Si Si8 0.871423 0.180587 0.349809
O O1 0.329504 0.059539 0.733932
O O2 0.033214 0.376506 0.725318
O O3 0.231967 0.916010 0.519877
O O4 0.296237 0.999636 0.925549
O O5 0.723495 0.737509 0.698123
O O6 0.460180 0.124317 0.839983
O O7 0.537255 0.180095 0.742346
O O8 0.810032 0.647741 0.442300
O O9 0.819695 0.513489 0.055151
O O10 0.209984 0.712578 0.129862
O O11 0.925990 0.988856 0.132852
O O12 0.965868 0.851523 0.788446
O O13 0.633709 0.238805 0.701931
O O14 0.880282 0.324700 0.410370
O O15 0.315833 0.603370 0.649521
O O16 0.500000 0.500000 0.000000
O O17 0.000000 0.000000 0.500000
#
# Coordination Sequence:
#
# PCOD8033336 Si02
#       8
#     2   2   2   2   2   2   2   2
#     4  12  27  44  74 110 145 194 253 296 363 440
#     4  12  29  47  71 111 154 187 245 314 366 428
#     4  12  25  47  76 105 145 203 242 301 373 435
#     4  11  23  47  74 104 149 190 241 305 369 435
#     4  11  23  45  75 104 145 190 247 299 361 445
#     4  12  25  49  73 107 147 197 247 303 365 439
#     4  12  26  46  76 106 145 196 242 301 374 436
#     4  12  28  47  76 111 147 192 245 306 374 437
#
# _framework density 24.730174000000002
#
# number of rings (size 3 to 8) (size 9 to 14) (size 15 to 20)
#    0.000    0.250    5.000    3.750    7.000    1.000 
#    0.000    1.875    0.000    0.000    0.000    0.000 
#    0.000    0.000    0.000    0.000    0.000    0.000 
#
# Total GULP energy -198340.304595 kJ/mol
# GULP energy per Si atom -12396.269037 kJ/mol
# Density = 2.467389 g / cm^3
# Si number density = 24.730174 Si / 1000 Ang^3
#
#
#
# Elastic Constant Matrix: (Units=GPa)
#
#
# Indices 1 2 3 4 5 6 
#
# 1 86.4473 39.7805 9.6842 -2.5460 9.0811 -24.0915
# 2 39.7805 107.0401 56.2008 -10.4488 -3.7974 -23.7812
# 3 9.6842 56.2008 116.3363 -6.6155 -8.0861 -17.1802
# 4 -2.5460 -10.4488 -6.6155 49.2800 -4.2371 -4.1251
# 5 9.0811 -3.7974 -8.0861 -4.2371 32.7034 -5.1222
# 6 -24.0915 -23.7812 -17.1802 -4.1251 -5.1222 35.5026
#
#
#
# Elastic Compliance Matrix: (Units=1/GPa)
#
#
# Indices 1 2 3 4 5 6 
#
# 1 0.016533 -0.005652 0.002342 0.000362 -0.003349 0.008125
# 2 -0.005652 0.016186 -0.006268 0.002957 0.003027 0.004753
# 3 0.002342 -0.006268 0.012198 0.000944 0.002346 0.003742
# 4 0.000362 0.002957 0.000944 0.021917 0.004231 0.005840
# 5 -0.003349 0.003027 0.002346 0.004231 0.033972 0.006283
# 6 0.008125 0.004753 0.003742 0.005840 0.006283 0.040261
#
#
# Mechanical properties :
#
#
# Convention : Reuss Voigt Hill
#
# Bulk Modulus (GPa) = 38.81910 57.90609 48.36260
# Shear Modulus (GPa) = 29.61889 37.10775 33.36332
#
# Velocity S-wave (km/s) = 3.46451 3.87784 3.67699
# Velocity P-wave (km/s) = 5.63337 6.59668 6.13397
#
# Compressibility (1/GPa) = 0.02576051
#
# Stress axis : x y z
#
# Youngs Moduli (GPa) = 60.48416 61.78106 81.97835
#
# Poissons Ratio (x) = 0.34921 -0.19200
# Poissons Ratio (y) = 0.34188 0.51387
# Poissons Ratio (z) = -0.14166 0.38727
#
# Static dielectric constant tensor:
#      x y z
#    x 4.409010 -0.506170 -0.083690 
#    y -0.506170 5.292990 0.187970 
#    z -0.083690 0.187970 4.787090 
# 
# 
# High freq. dielectric constant tensor:
#      x y z
#    x 1.978820 -0.020570 0.006730 
#    y -0.020570 1.985060 0.004200 
#    z 0.006730 0.004200 1.992290 
# 
# From -- ./inp_files/333824.got.cif
#   From: 2010.06.25/outbox.cif.g09.slc.cpg/sg2_167_cif.got.tgz:333824.got - 2010.06.27 13:26:56.
