data_PCOD8033069
_publ_section_title
;
Structure prediction by ZEFSAII (Michael W. Deem and Ramdas Pophale) SiO2 
 PCOD8033069
Probable space group: P -1
;
_chemical_formula_sum "Si O2"
_cell_formula_units_Z 16
_cell_length_a 17.845357
_cell_length_b 9.506672
_cell_length_c 11.664312
_cell_angle_alpha 47.528740
_cell_angle_beta 131.110003
_cell_angle_gamma 151.037681
_cell_volume 694.358944
_symmetry_space_group_name_H-M "P -1"
_symmetry_group_IT_number 2
_symmetry_cell_setting 'triclinic'
loop_
_space_group_symop_operation_xyz
x,y,z
-x,-y,-z
loop_
_atom_site_type_symbol
_atom_site_label
_atom_site_fract_x
_atom_site_fract_y
_atom_site_fract_z
Si Si1 0.668294 0.185322 0.825205
Si Si2 0.608394 0.492986 0.656668
Si Si3 0.952178 0.099494 0.607137
Si Si4 0.015302 0.778047 0.848521
Si Si5 0.865892 0.227400 0.246749
Si Si6 0.524821 0.700705 0.129509
Si Si7 0.733022 0.952465 0.859674
Si Si8 0.003624 0.224658 0.836678
O O1 0.591379 0.279802 0.675600
O O2 0.843938 0.474516 0.897647
O O3 0.682343 0.091000 0.771032
O O4 0.558433 0.918587 0.954114
O O5 0.500000 0.500000 0.500000
O O6 0.574330 0.379258 0.816153
O O7 0.782461 0.830025 0.642183
O O8 0.958745 0.263798 0.423775
O O9 0.051030 0.306480 0.705351
O O10 0.014085 0.990547 0.679643
O O11 0.033715 0.654314 0.832647
O O12 0.161294 0.985065 0.968267
O O13 0.859971 0.446066 0.145983
O O14 0.693728 0.877286 0.250122
O O15 0.432018 0.400545 0.131716
O O16 0.839330 0.092627 0.774814
O O17 0.000000 0.000000 0.000000
#
# Coordination Sequence:
#
# PCOD8033069 Si02
#       8
#     2   2   2   2   2   2   2   2
#     4  11  24  43  72 101 132 183 235 284 346 398
#     4  11  24  46  67  97 141 184 226 281 347 415
#     4  11  24  45  73 100 138 183 227 284 344 409
#     4  11  23  44  73 102 138 178 231 287 342 404
#     4  12  25  44  71 100 141 183 229 275 352 414
#     4  12  25  41  71 101 137 184 229 285 340 416
#     4  12  23  43  67 106 140 172 232 289 338 400
#     4  12  25  43  71 103 137 180 228 290 339 398
#
# _framework density 23.042839000000001
#
# number of rings (size 3 to 8) (size 9 to 14) (size 15 to 20)
#    0.000    0.500    6.250    2.625    1.750    1.000 
#    0.000    0.625    2.750    0.000    0.000    0.000 
#    0.000    0.000    0.000    0.000    0.000    0.000 
#
# Total GULP energy -198291.384279 kJ/mol
# GULP energy per Si atom -12393.211517 kJ/mol
# Density = 2.299039 g / cm^3
# Si number density = 23.042839 Si / 1000 Ang^3
#
#
#
# Elastic Constant Matrix: (Units=GPa)
#
#
# Indices 1 2 3 4 5 6 
#
# 1 111.2842 39.1291 27.2457 -6.3976 27.5379 -26.4112
# 2 39.1291 137.5947 34.1268 0.0669 11.8134 -19.4027
# 3 27.2457 34.1268 69.2112 0.3754 15.6215 -19.2142
# 4 -6.3976 0.0669 0.3754 27.1703 -3.4635 -1.2049
# 5 27.5379 11.8134 15.6215 -3.4635 38.6372 -9.2409
# 6 -26.4112 -19.4027 -19.2142 -1.2049 -9.2409 42.4513
#
#
#
# Elastic Compliance Matrix: (Units=1/GPa)
#
#
# Indices 1 2 3 4 5 6 
#
# 1 0.013060 -0.002116 -0.001136 0.002472 -0.006725 0.005251
# 2 -0.002116 0.008826 -0.003239 -0.000365 0.000404 0.001329
# 3 -0.001136 -0.003239 0.019053 -0.000882 -0.004693 0.005390
# 4 0.002472 -0.000365 -0.000882 0.037865 0.002732 0.002641
# 5 -0.006725 0.000404 -0.004693 0.002732 0.032964 0.001130
# 6 0.005251 0.001329 0.005390 0.002641 0.001130 0.030191
#
#
# Mechanical properties :
#
#
# Convention : Reuss Voigt Hill
#
# Bulk Modulus (GPa) = 35.76851 57.67703 46.72277
# Shear Modulus (GPa) = 30.43936 36.15766 33.29851
#
# Velocity S-wave (km/s) = 3.63849 3.96555 3.80553
# Velocity P-wave (km/s) = 5.76262 6.78617 6.29523
#
# Compressibility (1/GPa) = 0.02795755
#
# Stress axis : x y z
#
# Youngs Moduli (GPa) = 76.56716 113.30565 52.48415
#
# Poissons Ratio (x) = 0.23973 0.05962
# Poissons Ratio (y) = 0.16200 0.17001
# Poissons Ratio (z) = 0.08698 0.36702
#
# Static dielectric constant tensor:
#      x y z
#    x 4.535570 -0.191570 -0.021130 
#    y -0.191570 4.386550 0.136810 
#    z -0.021130 0.136810 4.259530 
# 
# 
# High freq. dielectric constant tensor:
#      x y z
#    x 1.923740 -0.013590 -0.003320 
#    y -0.013590 1.911900 -0.009200 
#    z -0.003320 -0.009200 1.887260 
# 
# From -- ./inp_files/306441.got.cif
#   From: 2010.06.25/outbox.cif.g09.slc.cpg/sg2_154_cif.got.tgz:306441.got - 2010.06.27 13:26:56.
