data_PCOD8033440
_publ_section_title
;
Structure prediction by ZEFSAII (Michael W. Deem and Ramdas Pophale) SiO2 
 PCOD8033440
Probable space group: P -1
;
_chemical_formula_sum "Si O2"
_cell_formula_units_Z 16
_cell_length_a 15.194101
_cell_length_b 9.126592
_cell_length_c 9.595973
_cell_angle_alpha 111.746527
_cell_angle_beta 145.193809
_cell_angle_gamma 77.907377
_cell_volume 694.146927
_symmetry_space_group_name_H-M "P -1"
_symmetry_group_IT_number 2
_symmetry_cell_setting 'triclinic'
loop_
_space_group_symop_operation_xyz
x,y,z
-x,-y,-z
loop_
_atom_site_type_symbol
_atom_site_label
_atom_site_fract_x
_atom_site_fract_y
_atom_site_fract_z
Si Si1 0.782676 0.855000 0.469415
Si Si2 0.359087 0.468830 0.912642
Si Si3 0.895612 0.126781 0.975116
Si Si4 0.384148 0.151403 0.487383
Si Si5 0.864095 0.085976 0.415947
Si Si6 0.424132 0.499492 0.551586
Si Si7 0.725016 0.207197 0.015590
Si Si8 0.124346 0.661461 0.245366
O O1 0.784119 0.673934 0.360608
O O2 0.628747 0.847189 0.360144
O O3 0.767343 0.965957 0.358289
O O4 0.931630 0.921609 0.791648
O O5 0.281649 0.623076 0.868058
O O6 0.500000 0.500000 0.000000
O O7 0.429254 0.427427 0.136527
O O8 0.881598 0.205329 0.834776
O O9 0.752942 0.987155 0.793141
O O10 0.872448 0.246467 0.113686
O O11 0.351393 0.317405 0.437020
O O12 0.564767 0.130587 0.694752
O O13 0.754490 0.098117 0.145910
O O14 0.911339 0.255751 0.623468
O O15 0.000000 0.000000 0.500000
O O16 0.500000 0.500000 0.500000
O O17 0.294949 0.612666 0.441565
O O18 0.000000 0.500000 0.000000
#
# Coordination Sequence:
#
# PCOD8033440 Si02
#       8
#     2   2   2   2   2   2   2   2
#     4  12  25  45  74  99 145 195 235 300 361 435
#     4  11  23  46  72 102 140 187 240 291 366 431
#     4  12  26  46  70 108 146 192 239 294 377 435
#     4  11  24  46  75 104 144 189 238 297 367 442
#     4  12  28  48  69 112 149 189 249 312 366 428
#     4  11  25  47  75 112 147 185 242 307 364 434
#     4  11  25  45  75 104 142 184 244 302 365 436
#     4  12  28  45  76 108 146 196 249 301 368 445
#
# _framework density 23.049875
#
# number of rings (size 3 to 8) (size 9 to 14) (size 15 to 20)
#    0.000    0.500    5.000    3.750    3.500    5.000 
#    0.000    0.000    0.000    0.000    0.000    0.000 
#    0.000    0.000    0.000    0.000    0.000    0.000 
#
# Total GULP energy -198269.635016 kJ/mol
# GULP energy per Si atom -12391.852188 kJ/mol
# Density = 2.299741 g / cm^3
# Si number density = 23.049875 Si / 1000 Ang^3
#
#
#
# Elastic Constant Matrix: (Units=GPa)
#
#
# Indices 1 2 3 4 5 6 
#
# 1 124.3381 35.0670 7.4777 -14.8878 -18.1578 -9.3885
# 2 35.0670 112.1360 39.9497 -17.2246 9.4277 -4.0347
# 3 7.4777 39.9497 100.2705 -0.4606 -3.2847 0.4528
# 4 -14.8878 -17.2246 -0.4606 53.1855 6.3356 0.7698
# 5 -18.1578 9.4277 -3.2847 6.3356 33.9058 -6.4443
# 6 -9.3885 -4.0347 0.4528 0.7698 -6.4443 40.9829
#
#
#
# Elastic Compliance Matrix: (Units=1/GPa)
#
#
# Indices 1 2 3 4 5 6 
#
# 1 0.010516 -0.004059 0.001062 0.000720 0.007325 0.003136
# 2 -0.004059 0.013225 -0.005182 0.003976 -0.007245 -0.000785
# 3 0.001062 -0.005182 0.012065 -0.001700 0.003532 0.000187
# 4 0.000720 0.003976 -0.001700 0.020868 -0.004895 -0.000587
# 5 0.007325 -0.007245 0.003532 -0.004895 0.038017 0.006996
# 6 0.003136 -0.000785 0.000187 -0.000587 0.006996 0.026151
#
#
# Mechanical properties :
#
#
# Convention : Reuss Voigt Hill
#
# Bulk Modulus (GPa) = 51.41789 55.74819 53.58304
# Shear Modulus (GPa) = 34.79850 42.56484 38.68167
#
# Velocity S-wave (km/s) = 3.88971 4.30192 4.10099
# Velocity P-wave (km/s) = 6.52141 6.99384 6.76175
#
# Compressibility (1/GPa) = 0.01944848
#
# Stress axis : x y z
#
# Youngs Moduli (GPa) = 95.09007 75.61436 82.88149
#
# Poissons Ratio (x) = 0.30695 -0.08804
# Poissons Ratio (y) = 0.38601 0.42948
# Poissons Ratio (z) = -0.10100 0.39183
#
# Static dielectric constant tensor:
#      x y z
#    x 4.509560 -0.259130 -0.240330 
#    y -0.259130 4.403480 0.116640 
#    z -0.240330 0.116640 4.111670 
# 
# 
# High freq. dielectric constant tensor:
#      x y z
#    x 1.933950 -0.017290 -0.014840 
#    y -0.017290 1.923810 0.005660 
#    z -0.014840 0.005660 1.909560 
# 
# From -- ./inp_files/299403.got.cif
#   From: 2010.06.25/outbox.cif.g09.slc.cpg/sg2_150_cif.got.tgz:299403.got - 2010.06.27 13:26:56.
