data_PCOD8033015
_publ_section_title
;
Structure prediction by ZEFSAII (Michael W. Deem and Ramdas Pophale) SiO2 
 PCOD8033015
Probable space group: P -1
;
_chemical_formula_sum "Si O2"
_cell_formula_units_Z 16
_cell_length_a 5.399563
_cell_length_b 16.804976
_cell_length_c 11.114494
_cell_angle_alpha 125.562196
_cell_angle_beta 112.381987
_cell_angle_gamma 53.556979
_cell_volume 659.023114
_symmetry_space_group_name_H-M "P -1"
_symmetry_group_IT_number 2
_symmetry_cell_setting 'triclinic'
loop_
_space_group_symop_operation_xyz
x,y,z
-x,-y,-z
loop_
_atom_site_type_symbol
_atom_site_label
_atom_site_fract_x
_atom_site_fract_y
_atom_site_fract_z
Si Si1 0.340849 0.904079 0.337356
Si Si2 0.720973 0.409707 0.055239
Si Si3 0.263431 0.690172 0.607327
Si Si4 0.728968 0.488978 0.379804
Si Si5 0.588164 0.144977 0.101271
Si Si6 0.200481 0.047212 0.869372
Si Si7 0.603627 0.731099 0.055084
Si Si8 0.632308 0.901825 0.618241
O O1 0.634675 0.799662 0.234877
O O2 0.376384 0.892084 0.478237
O O3 0.060157 0.887756 0.221740
O O4 0.267048 0.026462 0.385231
O O5 0.769019 0.474627 0.232280
O O6 0.500000 0.500000 0.000000
O O7 0.538592 0.346244 0.004492
O O8 0.060104 0.333695 0.997270
O O9 0.414069 0.605467 0.449290
O O10 0.279696 0.618775 0.664433
O O11 0.457033 0.753469 0.730536
O O12 0.915625 0.778655 0.585298
O O13 0.000000 0.500000 0.500000
O O14 0.858737 0.027164 0.105596
O O15 0.275900 0.135426 0.028724
O O16 0.646948 0.173604 0.001092
O O17 0.502611 0.957452 0.771451
#
# Coordination Sequence:
#
# PCOD8033015 Si02
#       8
#     2   2   2   2   2   2   2   2
#     4  11  25  45  67 106 152 197 249 298 382 463
#     4  12  29  51  80 107 153 196 264 322 392 461
#     4  11  25  46  73 107 147 195 249 321 379 453
#     4  11  27  48  76 107 146 196 261 322 387 454
#     4  11  23  44  71 107 147 191 251 304 379 447
#     4  11  24  43  71 108 151 201 248 305 370 467
#     4  12  26  49  77 110 147 201 250 322 385 459
#     4  11  25  43  71 103 152 194 250 301 381 456
#
# _framework density 24.278361
#
# number of rings (size 3 to 8) (size 9 to 14) (size 15 to 20)
#    0.000    0.750    3.750    2.250    7.000    4.000 
#    0.000    0.000    0.000    0.000    0.000    0.000 
#    0.000    0.000    0.000    0.000    0.000    0.000 
#
# Total GULP energy -198333.141839 kJ/mol
# GULP energy per Si atom -12395.821365 kJ/mol
# Density = 2.422310 g / cm^3
# Si number density = 24.278361 Si / 1000 Ang^3
#
#
#
# Elastic Constant Matrix: (Units=GPa)
#
#
# Indices 1 2 3 4 5 6 
#
# 1 91.7033 46.2547 28.0128 2.3836 8.1804 5.7059
# 2 46.2547 138.7613 59.3254 -4.2647 11.2816 2.2431
# 3 28.0128 59.3254 137.3073 -9.7028 16.8199 1.8786
# 4 2.3836 -4.2647 -9.7028 38.5322 2.2307 5.8353
# 5 8.1804 11.2816 16.8199 2.2307 35.9522 4.3140
# 6 5.7059 2.2431 1.8786 5.8353 4.3140 43.3504
#
#
#
# Elastic Compliance Matrix: (Units=1/GPa)
#
#
# Indices 1 2 3 4 5 6 
#
# 1 0.013419 -0.003996 -0.000945 -0.001257 -0.001131 -0.001237
# 2 -0.003996 0.010069 -0.003414 0.000519 -0.000704 0.000153
# 3 -0.000945 -0.003414 0.009517 0.002282 -0.003297 -0.000090
# 4 -0.001257 0.000519 0.002282 0.027308 -0.002229 -0.003414
# 5 -0.001131 -0.000704 -0.003297 -0.002229 0.030260 -0.002383
# 6 -0.001237 0.000153 -0.000090 -0.003414 -0.002383 0.023923
#
#
# Mechanical properties :
#
#
# Convention : Reuss Voigt Hill
#
# Bulk Modulus (GPa) = 61.36631 70.55083 65.95857
# Shear Modulus (GPa) = 36.59275 39.17889 37.88582
#
# Velocity S-wave (km/s) = 3.88650 4.02149 3.95457
# Velocity P-wave (km/s) = 6.74321 7.11937 6.93384
#
# Compressibility (1/GPa) = 0.01629559
#
# Stress axis : x y z
#
# Youngs Moduli (GPa) = 74.51884 99.31309 105.07254
#
# Poissons Ratio (x) = 0.39686 0.09925
# Poissons Ratio (y) = 0.29778 0.35877
# Poissons Ratio (z) = 0.07039 0.33910
#
# Static dielectric constant tensor:
#      x y z
#    x 4.405050 -0.048760 0.052690 
#    y -0.048760 4.768070 -0.128690 
#    z 0.052690 -0.128690 4.899320 
# 
# 
# High freq. dielectric constant tensor:
#      x y z
#    x 1.953950 0.001600 0.002460 
#    y 0.001600 1.968810 0.002100 
#    z 0.002460 0.002100 1.982680 
# 
# From -- ./inp_files/369533.got.cif
#   From: 2010.06.25/outbox.cif.g09.slc.cpg/sg2_185_cif.got.tgz:369533.got - 2010.06.27 13:26:56.
