data_PCOD8033327
_publ_section_title
;
Structure prediction by ZEFSAII (Michael W. Deem and Ramdas Pophale) SiO2 
 PCOD8033327
Probable space group: P -1
;
_chemical_formula_sum "Si O2"
_cell_formula_units_Z 16
_cell_length_a 26.176379
_cell_length_b 12.521956
_cell_length_c 6.520150
_cell_angle_alpha 134.591323
_cell_angle_beta 132.412819
_cell_angle_gamma 29.064378
_cell_volume 727.832065
_symmetry_space_group_name_H-M "P -1"
_symmetry_group_IT_number 2
_symmetry_cell_setting 'triclinic'
loop_
_space_group_symop_operation_xyz
x,y,z
-x,-y,-z
loop_
_atom_site_type_symbol
_atom_site_label
_atom_site_fract_x
_atom_site_fract_y
_atom_site_fract_z
Si Si1 0.247832 0.539717 0.870840
Si Si2 0.762439 0.656645 0.070071
Si Si3 0.898698 0.061353 0.300225
Si Si4 0.001153 0.320942 0.234739
Si Si5 0.544999 0.513145 0.944739
Si Si6 0.177320 0.922251 0.451782
Si Si7 0.339111 0.859934 0.587492
Si Si8 0.607572 0.733291 0.448527
O O1 0.217544 0.441808 0.781728
O O2 0.175289 0.702175 0.702134
O O3 0.360862 0.318823 0.776334
O O4 0.247448 0.677348 0.209847
O O5 0.882487 0.464266 0.048673
O O6 0.709907 0.903407 0.300494
O O7 0.690336 0.674422 0.749738
O O8 0.837149 0.109057 0.399173
O O9 0.000000 0.000000 0.500000
O O10 0.923273 0.860763 0.989601
O O11 0.000000 0.500000 0.500000
O O12 0.055580 0.151163 0.351559
O O13 0.448972 0.711211 0.799427
O O14 0.637492 0.277042 0.740687
O O15 0.500000 0.500000 0.000000
O O16 0.592607 0.584788 0.272443
O O17 0.252414 0.940280 0.626869
O O18 0.500000 0.000000 0.500000
#
# Coordination Sequence:
#
# PCOD8033327 Si02
#       8
#     2   2   2   2   2   2   2   2
#     4  11  25  43  71  99 139 182 233 287 350 415
#     4  12  26  45  70 102 143 181 232 295 350 416
#     4  11  24  45  72 102 137 191 240 283 352 422
#     4  11  24  44  67 107 142 180 233 289 351 412
#     4  11  27  47  74 101 140 184 237 286 352 427
#     4  11  23  45  74  99 146 188 231 290 349 424
#     4  11  25  47  70 106 140 186 232 286 359 416
#     4  12  26  46  67 106 135 178 237 287 355 417
#
# _framework density 21.983091999999999
#
# number of rings (size 3 to 8) (size 9 to 14) (size 15 to 20)
#    0.000    0.750    3.750    3.000    5.250    3.000 
#    2.250    0.000    0.000    0.000    0.000    0.000 
#    0.000    0.000    0.000    0.000    0.000    0.000 
#
# Total GULP energy -198218.297947 kJ/mol
# GULP energy per Si atom -12388.643622 kJ/mol
# Density = 2.193306 g / cm^3
# Si number density = 21.983092 Si / 1000 Ang^3
#
#
#
# Elastic Constant Matrix: (Units=GPa)
#
#
# Indices 1 2 3 4 5 6 
#
# 1 151.4325 55.3140 77.0427 6.4962 -8.5353 7.4468
# 2 55.3140 149.4332 73.0484 13.5783 -5.9820 -2.6396
# 3 77.0427 73.0484 113.4512 9.5051 1.3459 6.5824
# 4 6.4962 13.5783 9.5051 39.3259 -1.5772 4.5388
# 5 -8.5353 -5.9820 1.3459 -1.5772 43.0038 -1.9551
# 6 7.4468 -2.6396 6.5824 4.5388 -1.9551 38.3504
#
#
#
# Elastic Compliance Matrix: (Units=1/GPa)
#
#
# Indices 1 2 3 4 5 6 
#
# 1 0.010349 -0.000506 -0.006703 0.000266 0.002166 -0.000815
# 2 -0.000506 0.010199 -0.006190 -0.002133 0.001533 0.002193
# 3 -0.006703 -0.006190 0.017585 -0.000869 -0.002873 -0.002186
# 4 0.000266 -0.002133 -0.000869 0.026723 0.000619 -0.003181
# 5 0.002166 0.001533 -0.002873 0.000619 0.024070 0.001332
# 6 -0.000815 0.002193 -0.002186 -0.003181 0.001332 0.027204
#
#
# Mechanical properties :
#
#
# Convention : Reuss Voigt Hill
#
# Bulk Modulus (GPa) = 88.21467 91.68081 89.94774
# Shear Modulus (GPa) = 34.08124 38.06349 36.07236
#
# Velocity S-wave (km/s) = 3.94171 4.16563 4.05521
# Velocity P-wave (km/s) = 7.80587 8.05806 7.93297
#
# Compressibility (1/GPa) = 0.01133598
#
# Stress axis : x y z
#
# Youngs Moduli (GPa) = 96.62384 98.04698 56.86506
#
# Poissons Ratio (x) = 0.04963 0.38116
# Poissons Ratio (y) = 0.04891 0.35199
# Poissons Ratio (z) = 0.64766 0.60691
#
# Static dielectric constant tensor:
#      x y z
#    x 4.043780 0.051460 -0.025770 
#    y 0.051460 4.414370 0.018350 
#    z -0.025770 0.018350 3.961900 
# 
# 
# High freq. dielectric constant tensor:
#      x y z
#    x 1.868930 -0.005800 0.000150 
#    y -0.005800 1.888760 0.009160 
#    z 0.000150 0.009160 1.864870 
# 
# From -- ./inp_files/126958.got.cif
#   From: 2010.06.25/outbox.cif.g09.slc.cpg/sg2_64_cif.got.tgz:126958.got - 2010.06.27 13:26:56.
