data_PCOD8033931
_publ_section_title
;
Structure prediction by ZEFSAII (Michael W. Deem and Ramdas Pophale) SiO2 
 PCOD8033931
Probable space group: P -1
;
_chemical_formula_sum "Si O2"
_cell_formula_units_Z 12
_cell_length_a 24.030046
_cell_length_b 19.304569
_cell_length_c 5.079980
_cell_angle_alpha 113.964247
_cell_angle_beta 66.948796
_cell_angle_gamma 166.224615
_cell_volume 512.716198
_symmetry_space_group_name_H-M "P -1"
_symmetry_group_IT_number 2
_symmetry_cell_setting 'triclinic'
loop_
_space_group_symop_operation_xyz
x,y,z
-x,-y,-z
loop_
_atom_site_type_symbol
_atom_site_label
_atom_site_fract_x
_atom_site_fract_y
_atom_site_fract_z
Si Si1 0.828241 0.462168 0.570817
Si Si2 0.305815 0.204532 0.333447
Si Si3 0.262781 0.925564 0.286046
Si Si4 0.634836 0.107618 0.730829
Si Si5 0.495800 0.274262 0.906593
Si Si6 0.996831 0.166294 0.155916
O O1 0.567045 0.168844 0.515231
O O2 0.932985 0.664872 0.818691
O O3 0.830865 0.394416 0.662706
O O4 0.999762 0.640210 0.293593
O O5 0.500000 0.500000 0.500000
O O6 0.431122 0.279312 0.130777
O O7 0.137783 0.988423 0.558881
O O8 0.159913 0.060471 0.133003
O O9 0.245672 0.816071 0.218300
O O10 0.405278 0.104754 0.029262
O O11 0.383478 0.120068 0.595019
O O12 0.500000 0.000000 0.000000
O O13 0.775315 0.609262 0.876997
#
# Coordination Sequence:
#
# PCOD8033931 Si02
#       6
#     2   2   2   2   2   2
#     4  11  24  43  65 100 137 188 228 285 338 400
#     4  12  27  48  75 108 137 177 234 293 351 425
#     4  12  25  43  70  99 141 187 238 276 347 406
#     4  11  26  41  65 102 141 182 244 285 330 407
#     4  12  25  45  73 105 136 186 234 282 349 427
#     4  12  25  46  76 100 146 185 224 289 355 412
#
# _framework density 23.404761000000001
#
# number of rings (size 3 to 8) (size 9 to 14) (size 15 to 20)
#    0.000    0.333    5.000    3.000    7.000    2.000 
#    0.000    0.000    0.000    0.000    0.000    0.000 
#    0.000    0.000    0.000    0.000    0.000    0.000 
#
# Total GULP energy -148829.505629 kJ/mol
# GULP energy per Si atom -12402.458802 kJ/mol
# Density = 2.335149 g / cm^3
# Si number density = 23.404761 Si / 1000 Ang^3
#
#
#
# Elastic Constant Matrix: (Units=GPa)
#
#
# Indices 1 2 3 4 5 6 
#
# 1 64.0437 22.4042 2.6326 -13.1496 -3.9614 7.2083
# 2 22.4042 105.0207 33.0372 -21.7116 -11.5652 9.7036
# 3 2.6326 33.0372 87.9456 -9.0254 1.0464 2.3366
# 4 -13.1496 -21.7116 -9.0254 23.8643 4.3201 -4.7585
# 5 -3.9614 -11.5652 1.0464 4.3201 31.7485 -0.6020
# 6 7.2083 9.7036 2.3366 -4.7585 -0.6020 31.0163
#
#
#
# Elastic Compliance Matrix: (Units=1/GPa)
#
#
# Indices 1 2 3 4 5 6 
#
# 1 0.018302 -0.002426 0.001226 0.007821 0.000250 -0.002382
# 2 -0.002426 0.013699 -0.004193 0.008478 0.003634 -0.002035
# 3 0.001226 -0.004193 0.013160 0.002290 -0.002113 0.000346
# 4 0.007821 0.008478 0.002290 0.056222 -0.003587 0.003913
# 5 0.000250 0.003634 -0.002113 -0.003587 0.033392 -0.000938
# 6 -0.002382 -0.002035 0.000346 0.003913 -0.000938 0.033988
#
#
# Mechanical properties :
#
#
# Convention : Reuss Voigt Hill
#
# Bulk Modulus (GPa) = 29.08914 41.46202 35.27558
# Shear Modulus (GPa) = 26.17721 30.58821 28.38271
#
# Velocity S-wave (km/s) = 3.34796 3.61906 3.48615
# Velocity P-wave (km/s) = 5.23458 5.93440 5.59544
#
# Compressibility (1/GPa) = 0.03437710
#
# Stress axis : x y z
#
# Youngs Moduli (GPa) = 54.63904 72.99733 75.98848
#
# Poissons Ratio (x) = 0.17706 -0.09318
# Poissons Ratio (y) = 0.13253 0.31860
# Poissons Ratio (z) = -0.06700 0.30605
#
# Static dielectric constant tensor:
#      x y z
#    x -16.097670 6.528370 -5.809280 
#    y 6.528370 3.336080 1.842630 
#    z -5.809280 1.842630 2.588230 
# 
# 
# High freq. dielectric constant tensor:
#      x y z
#    x 1.920590 0.011390 -0.005960 
#    y 0.011390 1.936190 -0.007260 
#    z -0.005960 -0.007260 1.934970 
# 
# From -- ./inp_files/35681.got.cif
#   From: 2010.06.25/outbox.cif.g09.slc.cpg/sg2_18_cif.got.tgz:35681.got - 2010.06.27 13:26:56.
