data_PCOD8033491
_publ_section_title
;
Structure prediction by ZEFSAII (Michael W. Deem and Ramdas Pophale) SiO2 
 PCOD8033491
Probable space group: P -1
;
_chemical_formula_sum "Si O2"
_cell_formula_units_Z 16
_cell_length_a 9.535705
_cell_length_b 12.080414
_cell_length_c 7.849288
_cell_angle_alpha 63.912190
_cell_angle_beta 102.891368
_cell_angle_gamma 126.618888
_cell_volume 650.829318
_symmetry_space_group_name_H-M "P -1"
_symmetry_group_IT_number 2
_symmetry_cell_setting 'triclinic'
loop_
_space_group_symop_operation_xyz
x,y,z
-x,-y,-z
loop_
_atom_site_type_symbol
_atom_site_label
_atom_site_fract_x
_atom_site_fract_y
_atom_site_fract_z
Si Si1 0.879260 0.703296 0.726363
Si Si2 0.484998 0.551115 0.146735
Si Si3 0.874717 0.335863 0.376604
Si Si4 0.148054 0.219224 0.832301
Si Si5 0.358127 0.958072 0.350788
Si Si6 0.040583 0.667989 0.127509
Si Si7 0.903632 0.960420 0.730395
Si Si8 0.369607 0.773460 0.943045
O O1 0.672408 0.597828 0.703050
O O2 0.935511 0.874321 0.648536
O O3 0.977065 0.695664 0.595359
O O4 0.924738 0.640120 0.946043
O O5 0.667437 0.619687 0.252530
O O6 0.500000 0.500000 0.000000
O O7 0.444108 0.675041 0.056198
O O8 0.760612 0.225963 0.580529
O O9 0.746847 0.282377 0.218659
O O10 0.966021 0.511615 0.312013
O O11 0.985267 0.232645 0.814801
O O12 0.174354 0.146394 0.053250
O O13 0.093167 0.112725 0.724486
O O14 0.500000 0.000000 0.500000
O O15 0.240686 0.007894 0.372974
O O16 0.462462 0.051927 0.145486
O O17 0.245365 0.753799 0.079535
#
# Coordination Sequence:
#
# PCOD8033491 Si02
#       8
#     2   2   2   2   2   2   2   2
#     4  10  18  31  59  83 112 144 193 247 276 330
#     4  12  16  29  55  88 104 139 190 239 276 316
#     4  10  18  31  54  85 114 144 187 238 292 327
#     4  10  21  33  59  81 118 152 184 240 283 343
#     4  10  21  34  55  79 115 156 187 233 281 349
#     4  10  17  33  54  85 112 145 190 238 289 324
#     4  10  20  37  51  83 118 152 187 226 300 341
#     4  10  17  31  52  81 117 134 189 239 276 332
#
# _framework density 24.584019999999999
#
# number of rings (size 3 to 8) (size 9 to 14) (size 15 to 20)
#    0.000    1.750    6.250    0.750    0.000    1.500 
#    0.000    1.250    5.500    0.750    0.000    0.000 
#    0.000    1.250    0.000    0.000    0.000    0.000 
#
# Total GULP energy -198310.840740 kJ/mol
# GULP energy per Si atom -12394.427546 kJ/mol
# Density = 2.452807 g / cm^3
# Si number density = 24.584020 Si / 1000 Ang^3
#
#
#
# Elastic Constant Matrix: (Units=GPa)
#
#
# Indices 1 2 3 4 5 6 
#
# 1 138.0699 50.2282 26.1990 -18.1105 -0.1312 -3.7570
# 2 50.2282 128.1887 32.4616 -42.0166 -12.9172 3.9506
# 3 26.1990 32.4616 49.0371 -30.3675 -7.4523 -3.5484
# 4 -18.1105 -42.0166 -30.3675 46.0126 5.2128 -0.6209
# 5 -0.1312 -12.9172 -7.4523 5.2128 33.5596 -8.3849
# 6 -3.7570 3.9506 -3.5484 -0.6209 -8.3849 34.8349
#
#
#
# Elastic Compliance Matrix: (Units=1/GPa)
#
#
# Indices 1 2 3 4 5 6 
#
# 1 0.008972 -0.003327 -0.004036 -0.001969 -0.001714 0.000486
# 2 -0.003327 0.012703 -0.000132 0.009840 0.003096 -0.000892
# 3 -0.004036 -0.000132 0.038080 0.022795 0.006187 0.005354
# 4 -0.001969 0.009840 0.022795 0.044738 0.002490 0.002390
# 5 -0.001714 0.003096 0.006187 0.002490 0.034052 0.008335
# 6 0.000486 -0.000892 0.005354 0.002390 0.008335 0.031455
#
#
# Mechanical properties :
#
#
# Convention : Reuss Voigt Hill
#
# Bulk Modulus (GPa) = 22.33864 59.23036 40.78450
# Shear Modulus (GPa) = 25.01108 36.64188 30.82648
#
# Velocity S-wave (km/s) = 3.19309 3.86486 3.54492
# Velocity P-wave (km/s) = 4.76453 6.63788 5.77764
#
# Compressibility (1/GPa) = 0.04476548
#
# Stress axis : x y z
#
# Youngs Moduli (GPa) = 111.45708 78.72342 26.26034
#
# Poissons Ratio (x) = 0.26189 0.10600
# Poissons Ratio (y) = 0.37078 0.00346
# Poissons Ratio (z) = 0.44988 0.01037
#
# Static dielectric constant tensor:
#      x y z
#    x 4.766310 0.274000 -0.132810 
#    y 0.274000 4.209010 -0.827430 
#    z -0.132810 -0.827430 4.315540 
# 
# 
# High freq. dielectric constant tensor:
#      x y z
#    x 1.984260 0.012340 0.007470 
#    y 0.012340 1.974190 -0.025750 
#    z 0.007470 -0.025750 1.964790 
# 
# From -- ./inp_files/185118.got.cif
#   From: 2010.06.25/outbox.cif.g09.slc.cpg/sg2_93_cif.got.tgz:185118.got - 2010.06.27 13:26:56.
