data_PCOD8033916
_publ_section_title
;
Structure prediction by ZEFSAII (Michael W. Deem and Ramdas Pophale) SiO2 
 PCOD8033916
Probable space group: P -1
;
_chemical_formula_sum "Si O2"
_cell_formula_units_Z 14
_cell_length_a 11.152837
_cell_length_b 13.513903
_cell_length_c 5.780783
_cell_angle_alpha 113.183281
_cell_angle_beta 124.085145
_cell_angle_gamma 55.346906
_cell_volume 589.978726
_symmetry_space_group_name_H-M "P -1"
_symmetry_group_IT_number 2
_symmetry_cell_setting 'triclinic'
loop_
_space_group_symop_operation_xyz
x,y,z
-x,-y,-z
loop_
_atom_site_type_symbol
_atom_site_label
_atom_site_fract_x
_atom_site_fract_y
_atom_site_fract_z
Si Si1 0.048637 0.539636 0.339546
Si Si2 0.962906 0.911376 0.218782
Si Si3 0.313890 0.773428 0.463817
Si Si4 0.287602 0.985823 0.315721
Si Si5 0.423033 0.422719 0.723769
Si Si6 0.490725 0.209503 0.927663
Si Si7 0.798420 0.804357 0.257975
O O1 0.240967 0.502117 0.502860
O O2 0.000000 0.500000 0.500000
O O3 0.960047 0.684349 0.383367
O O4 0.000000 0.500000 0.000000
O O5 0.830053 0.875294 0.149750
O O6 0.131673 0.787727 0.252134
O O7 0.000000 0.000000 0.500000
O O8 0.885342 0.980780 0.963200
O O9 0.314873 0.889216 0.453022
O O10 0.448019 0.644592 0.401474
O O11 0.356006 0.782098 0.784128
O O12 0.439312 0.921018 0.244508
O O13 0.267593 0.112044 0.509139
O O14 0.406608 0.323344 0.773281
O O15 0.500000 0.500000 0.000000
O O16 0.354810 0.222668 0.985932
#
# Coordination Sequence:
#
# PCOD8033916 Si02
#       7
#     2   2   2   2   2   2   2
#     4  12  29  55  79 113 158 206 265 321 384 465
#     4  12  25  44  68 108 144 191 241 305 379 464
#     4  11  25  46  72  98 154 185 247 314 379 458
#     4  11  24  42  74 104 144 184 249 299 389 446
#     4  11  28  47  77 109 146 202 257 322 380 454
#     4  11  24  48  69 107 146 188 245 308 386 455
#     4  12  27  43  77 102 147 193 244 308 380 452
#
# _framework density 23.729671
#
# number of rings (size 3 to 8) (size 9 to 14) (size 15 to 20)
#    0.000    0.571    4.286    1.714    6.000    5.143 
#    0.000    0.000    0.000    0.000    0.000    0.000 
#    0.000    0.000    0.000    0.000    0.000    0.000 
#
# Total GULP energy -173465.406971 kJ/mol
# GULP energy per Si atom -12390.386212 kJ/mol
# Density = 2.367566 g / cm^3
# Si number density = 23.729671 Si / 1000 Ang^3
#
#
#
# Elastic Constant Matrix: (Units=GPa)
#
#
# Indices 1 2 3 4 5 6 
#
# 1 109.7485 30.6977 14.7842 2.3298 13.4545 -28.2738
# 2 30.6977 148.8803 44.2411 6.0786 5.9905 -32.3427
# 3 14.7842 44.2411 104.7270 -5.5427 4.2668 -20.0743
# 4 2.3298 6.0786 -5.5427 40.1443 -7.7053 4.8342
# 5 13.4545 5.9905 4.2668 -7.7053 37.1695 -6.8207
# 6 -28.2738 -32.3427 -20.0743 4.8342 -6.8207 40.6408
#
#
#
# Elastic Compliance Matrix: (Units=1/GPa)
#
#
# Indices 1 2 3 4 5 6 
#
# 1 0.011595 -0.000600 0.000040 -0.002071 -0.003191 0.007320
# 2 -0.000600 0.008993 -0.002754 -0.002458 -0.000397 0.005605
# 3 0.000040 -0.002754 0.011421 0.001605 0.000056 0.003296
# 4 -0.002071 -0.002458 0.001605 0.027312 0.005726 -0.004892
# 5 -0.003191 -0.000397 0.000056 0.005726 0.029631 0.001783
# 6 0.007320 0.005605 0.003296 -0.004892 0.001783 0.036668
#
#
# Mechanical properties :
#
#
# Convention : Reuss Voigt Hill
#
# Bulk Modulus (GPa) = 39.39841 60.31131 49.85486
# Shear Modulus (GPa) = 35.53490 41.83312 38.68401
#
# Velocity S-wave (km/s) = 3.87394 4.20325 4.04195
# Velocity P-wave (km/s) = 6.05383 7.00197 6.54509
#
# Compressibility (1/GPa) = 0.02538174
#
# Stress axis : x y z
#
# Youngs Moduli (GPa) = 86.24395 111.20105 87.55971
#
# Poissons Ratio (x) = 0.06667 -0.00350
# Poissons Ratio (y) = 0.05170 0.24112
# Poissons Ratio (z) = -0.00344 0.30623
#
# Static dielectric constant tensor:
#      x y z
#    x 4.732810 -0.502860 -0.073620 
#    y -0.502860 4.512210 -0.097040 
#    z -0.073620 -0.097040 4.342060 
# 
# 
# High freq. dielectric constant tensor:
#      x y z
#    x 1.944510 -0.021480 0.002990 
#    y -0.021480 1.954890 -0.010770 
#    z 0.002990 -0.010770 1.937640 
# 
# From -- ./inp_files/68942.got.cif
#   From: 2010.06.25/outbox.cif.g09.slc.cpg/sg2_35_cif.got.tgz:68942.got - 2010.06.27 13:26:56.
