data_PCOD8033413
_publ_section_title
;
Structure prediction by ZEFSAII (Michael W. Deem and Ramdas Pophale) SiO2 
 PCOD8033413
Probable space group: P -1
;
_chemical_formula_sum "Si O2"
_cell_formula_units_Z 16
_cell_length_a 8.688312
_cell_length_b 13.803568
_cell_length_c 11.455872
_cell_angle_alpha 64.608275
_cell_angle_beta 69.831573
_cell_angle_gamma 122.112857
_cell_volume 697.153501
_symmetry_space_group_name_H-M "P -1"
_symmetry_group_IT_number 2
_symmetry_cell_setting 'triclinic'
loop_
_space_group_symop_operation_xyz
x,y,z
-x,-y,-z
loop_
_atom_site_type_symbol
_atom_site_label
_atom_site_fract_x
_atom_site_fract_y
_atom_site_fract_z
Si Si1 0.608324 0.814227 0.277416
Si Si2 0.153166 0.217360 0.929197
Si Si3 0.420570 0.149193 0.245973
Si Si4 0.079585 0.256683 0.486499
Si Si5 0.914579 0.315476 0.917505
Si Si6 0.277359 0.803831 0.211194
Si Si7 0.533973 0.426828 0.934633
Si Si8 0.522591 0.313475 0.370362
O O1 0.614552 0.704570 0.261875
O O2 0.424933 0.799934 0.260427
O O3 0.477875 0.741272 0.475826
O O4 0.924442 0.007768 0.116443
O O5 0.286949 0.311946 0.969128
O O6 0.997637 0.237576 0.907818
O O7 0.414608 0.177870 0.368361
O O8 0.648147 0.178819 0.141380
O O9 0.507475 0.296070 0.067314
O O10 0.126582 0.942388 0.405416
O O11 0.169941 0.394711 0.296558
O O12 0.356450 0.338060 0.406402
O O13 0.955352 0.250780 0.633380
O O14 0.854106 0.330477 0.794843
O O15 0.155752 0.498153 0.832735
O O16 0.500000 0.000000 0.000000
O O17 0.500000 0.500000 0.000000
#
# Coordination Sequence:
#
# PCOD8033413 Si02
#       8
#     2   2   2   2   2   2   2   2
#     4  11  26  43  73 105 137 194 239 299 363 434
#     4  11  23  46  70 105 142 183 242 299 361 429
#     4  12  26  50  73 106 152 194 238 303 365 434
#     4  12  26  47  77 108 144 199 242 298 367 438
#     4  12  25  47  74  99 149 186 233 311 363 422
#     4  12  25  48  71 107 145 189 245 303 372 428
#     4  12  26  45  75 110 148 190 246 298 364 438
#     4  12  27  45  71 107 142 189 247 295 362 434
#
# _framework density 22.950468999999998
#
# number of rings (size 3 to 8) (size 9 to 14) (size 15 to 20)
#    0.000    0.250    5.000    3.000    7.000    1.500 
#    0.000    1.250    0.000    0.000    0.000    0.000 
#    0.000    0.000    0.000    0.000    0.000    0.000 
#
# Total GULP energy -198383.416472 kJ/mol
# GULP energy per Si atom -12398.963530 kJ/mol
# Density = 2.289823 g / cm^3
# Si number density = 22.950469 Si / 1000 Ang^3
#
#
#
# Elastic Constant Matrix: (Units=GPa)
#
#
# Indices 1 2 3 4 5 6 
#
# 1 117.0014 41.5964 39.9189 13.9171 0.0613 6.5960
# 2 41.5964 107.0220 19.3921 15.1629 -11.6354 11.7988
# 3 39.9189 19.3921 90.2297 5.1992 -3.2124 5.5287
# 4 13.9171 15.1629 5.1992 51.4687 -3.6370 -4.4949
# 5 0.0613 -11.6354 -3.2124 -3.6370 38.0904 -1.9558
# 6 6.5960 11.7988 5.5287 -4.4949 -1.9558 33.8937
#
#
#
# Elastic Compliance Matrix: (Units=1/GPa)
#
#
# Indices 1 2 3 4 5 6 
#
# 1 0.011513 -0.003560 -0.004244 -0.001810 -0.001670 -0.000645
# 2 -0.003560 0.011920 -0.000509 -0.002582 0.003176 -0.003533
# 3 -0.004244 -0.000509 0.013173 -0.000066 0.000899 -0.001103
# 4 -0.001810 -0.002582 -0.000066 0.021150 0.001441 0.004150
# 5 -0.001670 0.003176 0.000899 0.001441 0.027483 0.000850
# 6 -0.000645 -0.003533 -0.001103 0.004150 0.000850 0.031639
#
#
# Mechanical properties :
#
#
# Convention : Reuss Voigt Hill
#
# Bulk Modulus (GPa) = 50.04634 57.34088 53.69361
# Shear Modulus (GPa) = 35.67243 38.91360 37.29302
#
# Velocity S-wave (km/s) = 3.94677 4.12217 4.03542
# Velocity P-wave (km/s) = 6.52862 6.90617 6.72005
#
# Compressibility (1/GPa) = 0.01998148
#
# Stress axis : x y z
#
# Youngs Moduli (GPa) = 86.85819 83.89109 75.91183
#
# Poissons Ratio (x) = 0.29863 0.32218
# Poissons Ratio (y) = 0.30919 0.03862
# Poissons Ratio (z) = 0.36863 0.04268
#
# Static dielectric constant tensor:
#      x y z
#    x 4.287290 0.067550 -0.046020 
#    y 0.067550 4.321800 -0.052890 
#    z -0.046020 -0.052890 4.394300 
# 
# 
# High freq. dielectric constant tensor:
#      x y z
#    x 1.904560 0.004010 -0.011390 
#    y 0.004010 1.924370 0.000610 
#    z -0.011390 0.000610 1.910330 
# 
# From -- ./inp_files/205714.got.cif
#   From: 2010.06.25/outbox.cif.g09.slc.cpg/sg2_103_cif.got.tgz:205714.got - 2010.06.27 13:26:56.
