data_PCOD8033575
_publ_section_title
;
Structure prediction by ZEFSAII (Michael W. Deem and Ramdas Pophale) SiO2 
 PCOD8033575
Probable space group: P -1
;
_chemical_formula_sum "Si O2"
_cell_formula_units_Z 16
_cell_length_a 14.868343
_cell_length_b 15.177961
_cell_length_c 8.551893
_cell_angle_alpha 99.517357
_cell_angle_beta 49.205675
_cell_angle_gamma 140.130449
_cell_volume 675.634371
_symmetry_space_group_name_H-M "P -1"
_symmetry_group_IT_number 2
_symmetry_cell_setting 'triclinic'
loop_
_space_group_symop_operation_xyz
x,y,z
-x,-y,-z
loop_
_atom_site_type_symbol
_atom_site_label
_atom_site_fract_x
_atom_site_fract_y
_atom_site_fract_z
Si Si1 0.160685 0.518502 0.289254
Si Si2 0.946480 0.928717 0.367358
Si Si3 0.502961 0.298604 0.746927
Si Si4 0.324490 0.419782 0.539152
Si Si5 0.571138 0.181298 0.440773
Si Si6 0.394997 0.140486 0.319440
Si Si7 0.151232 0.795329 0.970210
Si Si8 0.770595 0.134449 0.741207
O O1 0.375666 0.637904 0.205370
O O2 0.000000 0.500000 0.500000
O O3 0.960660 0.303971 0.446287
O O4 0.320818 0.637638 0.983386
O O5 0.781336 0.729067 0.495247
O O6 0.784867 0.895744 0.448152
O O7 0.000000 0.000000 0.500000
O O8 0.204893 0.079385 0.027120
O O9 0.524642 0.414714 0.699540
O O10 0.643298 0.325603 0.472320
O O11 0.500000 0.500000 0.500000
O O12 0.096931 0.322944 0.854558
O O13 0.413210 0.089327 0.434363
O O14 0.819735 0.286454 0.152969
O O15 0.403785 0.018243 0.710884
O O16 0.264896 0.994488 0.287579
O O17 0.108032 0.766608 0.198206
O O18 0.500000 0.000000 0.000000
#
# Coordination Sequence:
#
# PCOD8033575 Si02
#       8
#     2   2   2   2   2   2   2   2
#     4  12  25  44  74 111 143 188 243 307 375 444
#     4  12  27  51  77 103 150 199 258 308 371 447
#     4  12  27  49  77 103 152 198 248 316 377 442
#     4  12  28  49  74 109 153 201 251 309 375 452
#     4  11  25  45  74 109 145 194 238 308 385 443
#     4  12  26  46  74 111 144 191 248 306 372 451
#     4  11  23  47  73 109 149 193 250 306 379 450
#     4  12  23  47  76 107 151 190 241 316 378 440
#
# _framework density 23.681446999999999
#
# number of rings (size 3 to 8) (size 9 to 14) (size 15 to 20)
#    0.000    0.250    6.250    2.250    1.750    3.000 
#    4.500    0.000    0.000    0.000    0.000    0.000 
#    0.000    0.000    0.000    0.000    0.000    0.000 
#
# Total GULP energy -198465.879808 kJ/mol
# GULP energy per Si atom -12404.117488 kJ/mol
# Density = 2.362755 g / cm^3
# Si number density = 23.681447 Si / 1000 Ang^3
#
#
#
# Elastic Constant Matrix: (Units=GPa)
#
#
# Indices 1 2 3 4 5 6 
#
# 1 122.4540 30.2022 25.6884 2.0267 -20.2605 -14.4952
# 2 30.2022 124.2627 34.7937 -0.4067 -0.5669 -24.0078
# 3 25.6884 34.7937 83.6860 -4.5315 -13.0456 -11.2400
# 4 2.0267 -0.4067 -4.5315 38.4626 -8.7376 -1.3703
# 5 -20.2605 -0.5669 -13.0456 -8.7376 51.0067 -0.7464
# 6 -14.4952 -24.0078 -11.2400 -1.3703 -0.7464 38.1909
#
#
#
# Elastic Compliance Matrix: (Units=1/GPa)
#
#
# Indices 1 2 3 4 5 6 
#
# 1 0.009703 -0.001461 -0.001489 0.000184 0.003524 0.002402
# 2 -0.001461 0.010289 -0.003399 -0.000341 -0.001322 0.004875
# 3 -0.001489 -0.003399 0.014775 0.002673 0.003634 0.001813
# 4 0.000184 -0.000341 0.002673 0.027614 0.005509 0.001740
# 5 0.003524 -0.001322 0.003634 0.005509 0.022896 0.002221
# 6 0.002402 0.004875 0.001813 0.001740 0.002221 0.030800
#
#
# Mechanical properties :
#
#
# Convention : Reuss Voigt Hill
#
# Bulk Modulus (GPa) = 45.31398 56.86349 51.08873
# Shear Modulus (GPa) = 36.72908 41.51327 39.12118
#
# Velocity S-wave (km/s) = 3.94250 4.19141 4.06886
# Velocity P-wave (km/s) = 6.31670 6.89114 6.61017
#
# Compressibility (1/GPa) = 0.02206824
#
# Stress axis : x y z
#
# Youngs Moduli (GPa) = 103.05750 97.19119 67.68333
#
# Poissons Ratio (x) = 0.14196 0.10081
# Poissons Ratio (y) = 0.15053 0.23008
# Poissons Ratio (z) = 0.15349 0.33038
#
# Static dielectric constant tensor:
#      x y z
#    x 4.566100 -0.188210 -0.151900 
#    y -0.188210 4.325250 -0.052330 
#    z -0.151900 -0.052330 4.447610 
# 
# 
# High freq. dielectric constant tensor:
#      x y z
#    x 1.953140 -0.016320 -0.008500 
#    y -0.016320 1.931250 -0.007740 
#    z -0.008500 -0.007740 1.940510 
# 
# From -- ./inp_files/306170.got.cif
#   From: 2010.06.25/outbox.cif.g09.slc.cpg/sg2_154_cif.got.tgz:306170.got - 2010.06.27 13:26:56.
