data_PCOD8033833
_publ_section_title
;
Structure prediction by ZEFSAII (Michael W. Deem and Ramdas Pophale) SiO2 
 PCOD8033833
Probable space group: P -1
;
_chemical_formula_sum "Si O2"
_cell_formula_units_Z 16
_cell_length_a 17.858886
_cell_length_b 11.632350
_cell_length_c 8.663148
_cell_angle_alpha 50.542274
_cell_angle_beta 32.697786
_cell_angle_gamma 55.647939
_cell_volume 748.757552
_symmetry_space_group_name_H-M "P -1"
_symmetry_group_IT_number 2
_symmetry_cell_setting 'triclinic'
loop_
_space_group_symop_operation_xyz
x,y,z
-x,-y,-z
loop_
_atom_site_type_symbol
_atom_site_label
_atom_site_fract_x
_atom_site_fract_y
_atom_site_fract_z
Si Si1 0.865234 0.578372 0.750452
Si Si2 0.381856 0.604792 0.693156
Si Si3 0.769349 0.160129 0.756868
Si Si4 0.262558 0.153772 0.760301
Si Si5 0.325381 0.156129 0.300319
Si Si6 0.633049 0.133446 0.716063
Si Si7 0.967956 0.657326 0.839745
Si Si8 0.476511 0.654631 0.822297
O O1 0.777705 0.704225 0.693343
O O2 0.000000 0.500000 0.500000
O O3 0.898124 0.642206 0.806774
O O4 0.766367 0.446122 0.055579
O O5 0.500000 0.500000 0.500000
O O6 0.375814 0.773788 0.503809
O O7 0.409359 0.605989 0.823100
O O8 0.759273 0.164422 0.584556
O O9 0.903092 0.243472 0.503194
O O10 0.634165 0.246050 0.979495
O O11 0.761211 0.992309 0.974305
O O12 0.271489 0.108609 0.602675
O O13 0.390751 0.247619 0.513692
O O14 0.127774 0.260619 0.936009
O O15 0.331160 0.035073 0.257165
O O16 0.488754 0.180751 0.017647
O O17 0.000000 0.500000 0.000000
O O18 0.500000 0.500000 0.000000
#
# Coordination Sequence:
#
# PCOD8033833 Si02
#       8
#     2   2   2   2   2   2   2   2
#     4  12  25  46  70  99 138 180 227 283 342 408
#     4  12  23  41  67 100 133 178 229 278 340 400
#     4  12  25  45  68 102 135 182 227 277 343 406
#     4  12  25  44  69 102 139 180 226 282 344 406
#     4  11  24  43  68 101 135 180 220 285 342 403
#     4  11  24  42  69 100 138 173 231 279 340 404
#     4  12  26  47  70  98 139 182 228 278 342 413
#     4  12  24  41  67 101 137 175 227 279 336 405
#
# _framework density 21.368732000000001
#
# number of rings (size 3 to 8) (size 9 to 14) (size 15 to 20)
#    0.000    0.250    2.500    7.500    3.500    0.000 
#    0.000    1.875    0.000    0.000    0.000    0.000 
#    0.000    0.000    0.000    0.000    0.000    0.000 
#
# Total GULP energy -198293.596008 kJ/mol
# GULP energy per Si atom -12393.349750 kJ/mol
# Density = 2.132010 g / cm^3
# Si number density = 21.368732 Si / 1000 Ang^3
#
#
#
# Elastic Constant Matrix: (Units=GPa)
#
#
# Indices 1 2 3 4 5 6 
#
# 1 151.7191 21.6479 52.7090 5.4666 1.7863 21.0589
# 2 21.6479 141.4399 42.5227 0.2802 -0.4238 -17.0125
# 3 52.7090 42.5227 148.8041 11.4666 -21.6108 18.7786
# 4 5.4666 0.2802 11.4666 56.9360 -0.8742 7.8124
# 5 1.7863 -0.4238 -21.6108 -0.8742 41.6663 -11.8116
# 6 21.0589 -17.0125 18.7786 7.8124 -11.8116 34.5919
#
#
#
# Elastic Compliance Matrix: (Units=1/GPa)
#
#
# Indices 1 2 3 4 5 6 
#
# 1 0.008408 -0.001247 -0.002411 0.000405 -0.003205 -0.005609
# 2 -0.001247 0.008980 -0.002898 -0.000296 0.000629 0.007030
# 3 -0.002411 -0.002898 0.009511 -0.001128 0.003990 -0.003503
# 4 0.000405 -0.000296 -0.001128 0.018338 -0.001475 -0.004425
# 5 -0.003205 0.000629 0.003990 -0.001475 0.029123 0.010372
# 6 -0.005609 0.007030 -0.003503 -0.004425 0.010372 0.042223
#
#
# Mechanical properties :
#
#
# Convention : Reuss Voigt Hill
#
# Bulk Modulus (GPa) = 72.52596 75.08027 73.80311
# Shear Modulus (GPa) = 37.23276 48.31108 42.77192
#
# Velocity S-wave (km/s) = 4.17873 4.75998 4.47879
# Velocity P-wave (km/s) = 7.56943 8.08837 7.83320
#
# Compressibility (1/GPa) = 0.01378817
#
# Stress axis : x y z
#
# Youngs Moduli (GPa) = 118.92911 111.35578 105.14540
#
# Poissons Ratio (x) = 0.13889 0.25348
# Poissons Ratio (y) = 0.14834 0.30466
# Poissons Ratio (z) = 0.28671 0.32265
#
# Static dielectric constant tensor:
#      x y z
#    x 4.333460 0.163330 0.046820 
#    y 0.163330 4.053820 0.099430 
#    z 0.046820 0.099430 3.992270 
# 
# 
# High freq. dielectric constant tensor:
#      x y z
#    x 1.855190 0.002560 0.003550 
#    y 0.002560 1.860610 0.002730 
#    z 0.003550 0.002730 1.841940 
# 
# From -- ./inp_files/184201.got.cif
#   From: 2010.06.25/outbox.cif.g09.slc.cpg/sg2_93_cif.got.tgz:184201.got - 2010.06.27 13:26:56.
