data_PCOD8033283
_publ_section_title
;
Structure prediction by ZEFSAII (Michael W. Deem and Ramdas Pophale) SiO2 
 PCOD8033283
Probable space group: P -1
;
_chemical_formula_sum "Si O2"
_cell_formula_units_Z 16
_cell_length_a 9.114758
_cell_length_b 8.960038
_cell_length_c 12.116848
_cell_angle_alpha 59.162696
_cell_angle_beta 119.418939
_cell_angle_gamma 113.511649
_cell_volume 725.637831
_symmetry_space_group_name_H-M "P -1"
_symmetry_group_IT_number 2
_symmetry_cell_setting 'triclinic'
loop_
_space_group_symop_operation_xyz
x,y,z
-x,-y,-z
loop_
_atom_site_type_symbol
_atom_site_label
_atom_site_fract_x
_atom_site_fract_y
_atom_site_fract_z
Si Si1 0.303112 0.687936 0.599211
Si Si2 0.925050 0.754379 0.859440
Si Si3 0.954348 0.066527 0.575410
Si Si4 0.772903 0.370790 0.879726
Si Si5 0.246924 0.761182 0.315152
Si Si6 0.133307 0.297355 0.726842
Si Si7 0.467806 0.183156 0.967801
Si Si8 0.604870 0.836770 0.804515
O O1 0.219469 0.858202 0.530088
O O2 0.313030 0.660186 0.481379
O O3 0.189688 0.508728 0.674478
O O4 0.489945 0.726933 0.707871
O O5 0.878032 0.569409 0.847743
O O6 0.784027 0.767155 0.896620
O O7 0.930702 0.908022 0.714300
O O8 0.108357 0.765797 0.982902
O O9 0.101082 0.227421 0.614952
O O10 0.000000 0.000000 0.500000
O O11 0.714616 0.332240 0.747324
O O12 0.601807 0.344275 0.901405
O O13 0.044090 0.762387 0.249088
O O14 0.359525 0.956647 0.285897
O O15 0.273722 0.200116 0.867849
O O16 0.495254 0.196806 0.104049
O O17 0.500000 0.000000 0.000000
#
# Coordination Sequence:
#
# PCOD8033283 Si02
#       8
#     2   2   2   2   2   2   2   2
#     4  11  26  45  70 102 138 183 228 275 349 407
#     4  11  25  45  68 104 136 178 234 274 351 398
#     4  11  25  41  71 100 140 179 225 284 340 406
#     4  11  26  43  69 104 137 177 227 293 332 403
#     4  11  23  45  72  98 138 180 228 276 341 414
#     4  11  25  46  70 102 136 182 231 274 346 409
#     4  12  26  44  71 102 136 177 234 284 343 396
#     4  12  25  46  72  97 140 181 228 280 340 417
#
# _framework density 22.049569000000002
#
# number of rings (size 3 to 8) (size 9 to 14) (size 15 to 20)
#    0.000    0.750    3.750    4.125    7.000    4.000 
#    0.000    1.250    0.000    0.000    0.000    0.000 
#    0.000    0.000    0.000    0.000    0.000    0.000 
#
# Total GULP energy -198446.874927 kJ/mol
# GULP energy per Si atom -12402.929683 kJ/mol
# Density = 2.199938 g / cm^3
# Si number density = 22.049569 Si / 1000 Ang^3
#
#
#
# Elastic Constant Matrix: (Units=GPa)
#
#
# Indices 1 2 3 4 5 6 
#
# 1 103.7774 25.6442 49.6570 13.2807 -20.1763 2.0064
# 2 25.6442 94.3603 23.8966 2.4188 -14.3177 4.9861
# 3 49.6570 23.8966 89.3244 9.7671 -8.6161 -6.7208
# 4 13.2807 2.4188 9.7671 35.0560 -1.2680 4.7982
# 5 -20.1763 -14.3177 -8.6161 -1.2680 36.0320 4.8281
# 6 2.0064 4.9861 -6.7208 4.7982 4.8281 35.3134
#
#
#
# Elastic Compliance Matrix: (Units=1/GPa)
#
#
# Indices 1 2 3 4 5 6 
#
# 1 0.015124 -0.001038 -0.007365 -0.003014 0.006537 -0.002599
# 2 -0.001038 0.012293 -0.002620 0.000812 0.004086 -0.002844
# 3 -0.007365 -0.002620 0.016391 -0.002279 -0.001926 0.004481
# 4 -0.003014 0.000812 -0.002279 0.030860 -0.000215 -0.004541
# 5 0.006537 0.004086 -0.001926 -0.000215 0.033352 -0.005846
# 6 -0.002599 -0.002844 0.004481 -0.004541 -0.005846 0.031136
#
#
# Mechanical properties :
#
#
# Convention : Reuss Voigt Hill
#
# Bulk Modulus (GPa) = 45.95539 53.98419 49.96979
# Shear Modulus (GPa) = 29.68122 33.83125 31.75624
#
# Velocity S-wave (km/s) = 3.67292 3.92130 3.79914
# Velocity P-wave (km/s) = 6.23492 6.71106 6.47737
#
# Compressibility (1/GPa) = 0.02176023
#
# Stress axis : x y z
#
# Youngs Moduli (GPa) = 66.12187 81.34738 61.00919
#
# Poissons Ratio (x) = 0.08448 0.44934
# Poissons Ratio (y) = 0.06867 0.15985
# Poissons Ratio (z) = 0.48699 0.21313
#
# Static dielectric constant tensor:
#      x y z
#    x 4.026420 0.008790 0.012720 
#    y 0.008790 4.124030 0.021130 
#    z 0.012720 0.021130 4.013380 
# 
# 
# High freq. dielectric constant tensor:
#      x y z
#    x 1.863110 0.004130 0.000870 
#    y 0.004130 1.881500 0.000430 
#    z 0.000870 0.000430 1.868980 
# 
# From -- ./inp_files/381495.got.cif
#   From: 2010.06.25/outbox.cif.g09.slc.cpg/sg2_191_cif.got.tgz:381495.got - 2010.06.27 13:26:56.
