data_PCOD8033692
_publ_section_title
;
Structure prediction by ZEFSAII (Michael W. Deem and Ramdas Pophale) SiO2 
 PCOD8033692
Probable space group: P -1
;
_chemical_formula_sum "Si O2"
_cell_formula_units_Z 14
_cell_length_a 9.017445
_cell_length_b 15.876210
_cell_length_c 9.155050
_cell_angle_alpha 79.244874
_cell_angle_beta 64.401365
_cell_angle_gamma 35.084170
_cell_volume 643.194195
_symmetry_space_group_name_H-M "P -1"
_symmetry_group_IT_number 2
_symmetry_cell_setting 'triclinic'
loop_
_space_group_symop_operation_xyz
x,y,z
-x,-y,-z
loop_
_atom_site_type_symbol
_atom_site_label
_atom_site_fract_x
_atom_site_fract_y
_atom_site_fract_z
Si Si1 0.337430 0.880216 0.883255
Si Si2 0.012222 0.330811 0.783843
Si Si3 0.680189 0.669616 0.527119
Si Si4 0.677774 0.368039 0.672830
Si Si5 0.698414 0.601223 0.015307
Si Si6 0.224122 0.100785 0.988313
Si Si7 0.729359 0.306242 0.357536
O O1 0.475269 0.795518 0.699057
O O2 0.330513 0.985662 0.862044
O O3 0.538841 0.753558 0.967504
O O4 0.000000 0.000000 0.000000
O O5 0.282180 0.270604 0.625854
O O6 0.118970 0.231886 0.909980
O O7 0.891986 0.318318 0.716267
O O8 0.758740 0.506822 0.889570
O O9 0.521104 0.657415 0.526610
O O10 0.000000 0.500000 0.500000
O O11 0.537932 0.339567 0.795512
O O12 0.857942 0.270333 0.477104
O O13 0.406215 0.548439 0.696639
O O14 0.000000 0.500000 0.000000
O O15 0.975905 0.169590 0.181048
O O16 0.500000 0.000000 0.000000
#
# Coordination Sequence:
#
# PCOD8033692 Si02
#       7
#     2   2   2   2   2   2   2
#     4  12  26  46  71 105 151 189 236 305 376 426
#     4  12  25  46  77 104 141 191 250 294 356 440
#     4  12  24  45  76 109 142 189 249 300 356 438
#     4  11  24  40  75 103 140 181 246 300 350 424
#     4  12  24  43  75 108 141 192 251 298 358 444
#     4  12  28  48  70 102 150 192 238 302 376 430
#     4  11  24  45  69 107 145 184 237 305 358 425
#
# _framework density 21.766366000000001
#
# number of rings (size 3 to 8) (size 9 to 14) (size 15 to 20)
#    0.000    0.286    5.714    3.000    2.000    0.571 
#    2.571    1.429    0.000    0.000    0.000    0.000 
#    0.000    0.000    0.000    0.000    0.000    0.000 
#
# Total GULP energy -173622.355144 kJ/mol
# GULP energy per Si atom -12401.596796 kJ/mol
# Density = 2.171682 g / cm^3
# Si number density = 21.766366 Si / 1000 Ang^3
#
#
#
# Elastic Constant Matrix: (Units=GPa)
#
#
# Indices 1 2 3 4 5 6 
#
# 1 94.6067 23.3447 28.1172 -5.7664 0.1668 -3.4688
# 2 23.3447 84.5231 43.7155 3.8790 -2.3304 0.0083
# 3 28.1172 43.7155 131.3620 -0.6914 -1.2666 2.2137
# 4 -5.7664 3.8790 -0.6914 37.2660 10.0276 3.1547
# 5 0.1668 -2.3304 -1.2666 10.0276 42.5856 -1.1823
# 6 -3.4688 0.0083 2.2137 3.1547 -1.1823 38.6589
#
#
#
# Elastic Compliance Matrix: (Units=1/GPa)
#
#
# Indices 1 2 3 4 5 6 
#
# 1 0.011869 -0.002510 -0.001717 0.002178 -0.000721 0.000964
# 2 -0.002510 0.014970 -0.004449 -0.002392 0.001267 0.000260
# 3 -0.001717 -0.004449 0.009475 0.000458 -0.000083 -0.000736
# 4 0.002178 -0.002392 0.000458 0.029562 -0.007155 -0.002461
# 5 -0.000721 0.001267 -0.000083 -0.007155 0.025273 0.001297
# 6 0.000964 0.000260 -0.000736 -0.002461 0.001297 0.026236
#
#
# Mechanical properties :
#
#
# Convention : Reuss Voigt Hill
#
# Bulk Modulus (GPa) = 52.73900 55.64962 54.19431
# Shear Modulus (GPa) = 35.44620 38.05640 36.75130
#
# Velocity S-wave (km/s) = 4.03983 4.18593 4.11353
# Velocity P-wave (km/s) = 6.78546 6.99893 6.89302
#
# Compressibility (1/GPa) = 0.01896130
#
# Stress axis : x y z
#
# Youngs Moduli (GPa) = 84.25221 66.79896 105.54372
#
# Poissons Ratio (x) = 0.16767 0.18121
# Poissons Ratio (y) = 0.21148 0.46960
# Poissons Ratio (z) = 0.14465 0.29721
#
# Static dielectric constant tensor:
#      x y z
#    x 4.140240 0.142290 -0.687830 
#    y 0.142290 3.866410 -0.440900 
#    z -0.687830 -0.440900 5.437660 
# 
# 
# High freq. dielectric constant tensor:
#      x y z
#    x 1.867340 0.011670 0.002920 
#    y 0.011670 1.845050 -0.004540 
#    z 0.002920 -0.004540 1.870170 
# 
# From -- ./inp_files/153180.got.cif
#   From: 2010.06.25/outbox.cif.g09.slc.cpg/sg2_77_cif.got.tgz:153180.got - 2010.06.27 13:26:56.
