data_PCOD8033643
_publ_section_title
;
Structure prediction by ZEFSAII (Michael W. Deem and Ramdas Pophale) SiO2 
 PCOD8033643
Probable space group: P -1
;
_chemical_formula_sum "Si O2"
_cell_formula_units_Z 16
_cell_length_a 23.403307
_cell_length_b 4.942677
_cell_length_c 7.685679
_cell_angle_alpha 89.546647
_cell_angle_beta 44.630860
_cell_angle_gamma 96.940249
_cell_volume 614.360760
_symmetry_space_group_name_H-M "P -1"
_symmetry_group_IT_number 2
_symmetry_cell_setting 'triclinic'
loop_
_space_group_symop_operation_xyz
x,y,z
-x,-y,-z
loop_
_atom_site_type_symbol
_atom_site_label
_atom_site_fract_x
_atom_site_fract_y
_atom_site_fract_z
Si Si1 0.863113 0.750152 0.557322
Si Si2 0.675094 0.155067 0.266912
Si Si3 0.444473 0.186938 0.010782
Si Si4 0.091162 0.206302 0.925697
Si Si5 0.193271 0.766226 0.734179
Si Si6 0.722450 0.037588 0.797484
Si Si7 0.050807 0.700104 0.529335
Si Si8 0.585431 0.606891 0.576821
O O1 0.917193 0.804207 0.264034
O O2 0.766813 0.771000 0.733496
O O3 0.869989 0.443042 0.601309
O O4 0.906507 0.981438 0.606887
O O5 0.595654 0.900790 0.451863
O O6 0.734945 0.096604 0.292580
O O7 0.651417 0.448931 0.349870
O O8 0.721844 0.188007 0.982543
O O9 0.373098 0.016516 0.051041
O O10 0.398690 0.347559 0.251177
O O11 0.495287 0.409670 0.765157
O O12 0.500000 0.000000 0.000000
O O13 0.164644 0.445033 0.834138
O O14 0.115647 0.919730 0.936031
O O15 0.005831 0.270780 0.182714
O O16 0.223186 0.783535 0.468319
O O17 0.000000 0.500000 0.500000
#
# Coordination Sequence:
#
# PCOD8033643 Si02
#       8
#     2   2   2   2   2   2   2   2
#     4  11  25  47  67 108 140 187 250 286 362 440
#     4  12  26  45  72 105 152 181 250 293 366 427
#     4  11  23  50  79 104 151 192 245 290 369 431
#     4  11  24  44  75  97 142 196 237 299 356 429
#     4  11  24  45  71 106 145 193 242 292 374 424
#     4  11  27  46  75 109 145 195 234 315 354 431
#     4  12  26  44  73 104 148 186 239 304 360 426
#     4  11  24  47  71 107 140 194 235 296 347 446
#
# _framework density 26.043330000000001
#
# number of rings (size 3 to 8) (size 9 to 14) (size 15 to 20)
#    0.000    0.750    2.500    4.125    5.250    4.000 
#    9.000    0.000    0.000    0.000    0.000    0.000 
#    0.000    0.000    0.000    0.000    0.000    0.000 
#
# Total GULP energy -198264.377703 kJ/mol
# GULP energy per Si atom -12391.523606 kJ/mol
# Density = 2.598405 g / cm^3
# Si number density = 26.043330 Si / 1000 Ang^3
#
#
#
# Elastic Constant Matrix: (Units=GPa)
#
#
# Indices 1 2 3 4 5 6 
#
# 1 72.7513 18.5850 46.7651 15.5641 -9.9163 11.9874
# 2 18.5850 123.2573 36.9985 10.9841 -5.1672 4.9320
# 3 46.7651 36.9985 128.0512 29.1737 3.0435 -0.0906
# 4 15.5641 10.9841 29.1737 48.4249 4.2220 -7.2450
# 5 -9.9163 -5.1672 3.0435 4.2220 28.4830 -0.5518
# 6 11.9874 4.9320 -0.0906 -7.2450 -0.5518 21.9909
#
#
#
# Elastic Compliance Matrix: (Units=1/GPa)
#
#
# Indices 1 2 3 4 5 6 
#
# 1 0.023579 0.000246 -0.007522 -0.006150 0.009684 -0.014722
# 2 0.000246 0.009126 -0.002505 -0.001206 0.002138 -0.002535
# 3 -0.007522 -0.002505 0.012169 -0.003497 -0.003788 0.003465
# 4 -0.006150 -0.001206 -0.003497 0.027381 -0.005803 0.012483
# 5 0.009684 0.002138 -0.003788 -0.005803 0.040003 -0.006682
# 6 -0.014722 -0.002535 0.003465 0.012483 -0.006682 0.058026
#
#
# Mechanical properties :
#
#
# Convention : Reuss Voigt Hill
#
# Bulk Modulus (GPa) = 39.50476 58.75078 49.12777
# Shear Modulus (GPa) = 25.21630 34.56050 29.88840
#
# Velocity S-wave (km/s) = 3.11504 3.64681 3.39136
# Velocity P-wave (km/s) = 5.30469 6.35138 5.85149
#
# Compressibility (1/GPa) = 0.02531341
#
# Stress axis : x y z
#
# Youngs Moduli (GPa) = 42.41049 109.57233 82.17464
#
# Poissons Ratio (x) = -0.02691 0.61809
# Poissons Ratio (y) = -0.01041 0.20581
# Poissons Ratio (z) = 0.31900 0.27443
#
# Static dielectric constant tensor:
#      x y z
#    x 4.497880 0.028120 -0.088650 
#    y 0.028120 5.011780 0.272930 
#    z -0.088650 0.272930 4.818950 
# 
# 
# High freq. dielectric constant tensor:
#      x y z
#    x 2.016320 0.013210 -0.005950 
#    y 0.013210 2.057420 0.013370 
#    z -0.005950 0.013370 2.052290 
# 
# From -- ./inp_files/356035.got.cif
#   From: 2010.06.25/outbox.cif.g09.slc.cpg/sg2_179_cif.got.tgz:356035.got - 2010.06.27 13:26:56.
