data_PCOD8033343
_publ_section_title
;
Structure prediction by ZEFSAII (Michael W. Deem and Ramdas Pophale) SiO2 
 PCOD8033343
Probable space group: P -1
;
_chemical_formula_sum "Si O2"
_cell_formula_units_Z 16
_cell_length_a 11.181140
_cell_length_b 18.561772
_cell_length_c 9.511387
_cell_angle_alpha 128.502422
_cell_angle_beta 41.767041
_cell_angle_gamma 147.764931
_cell_volume 701.163584
_symmetry_space_group_name_H-M "P -1"
_symmetry_group_IT_number 2
_symmetry_cell_setting 'triclinic'
loop_
_space_group_symop_operation_xyz
x,y,z
-x,-y,-z
loop_
_atom_site_type_symbol
_atom_site_label
_atom_site_fract_x
_atom_site_fract_y
_atom_site_fract_z
Si Si1 0.719892 0.644190 0.298673
Si Si2 0.730945 0.311703 0.428004
Si Si3 0.030518 0.717415 0.367958
Si Si4 0.651720 0.641273 0.818875
Si Si5 0.532549 0.944237 0.035795
Si Si6 0.990603 0.224396 0.077577
Si Si7 0.176268 0.583514 0.228568
Si Si8 0.290880 0.149314 0.409510
O O1 0.448817 0.501461 0.298370
O O2 0.692888 0.736275 0.499014
O O3 0.823003 0.618095 0.303587
O O4 0.932283 0.724118 0.086406
O O5 0.843034 0.256089 0.311397
O O6 0.714216 0.366604 0.648431
O O7 0.437072 0.188433 0.477380
O O8 0.910493 0.423614 0.282229
O O9 0.283623 0.861957 0.255537
O O10 0.112642 0.654601 0.295288
O O11 0.900534 0.744198 0.620717
O O12 0.753675 0.697681 0.956135
O O13 0.404115 0.616251 0.979858
O O14 0.789743 0.063575 0.049708
O O15 0.559222 0.849442 0.843732
O O16 0.500000 0.000000 0.000000
O O17 0.000000 0.000000 0.500000
#
# Coordination Sequence:
#
# PCOD8033343 Si02
#       8
#     2   2   2   2   2   2   2   2
#     4  12  25  45  72 109 146 190 242 304 364 437
#     4  11  23  45  75 109 149 195 245 299 364 445
#     4  12  27  49  70 110 152 191 246 307 369 431
#     4  12  27  47  73 111 153 190 242 306 374 433
#     4  12  25  49  72 102 145 199 245 298 362 437
#     4  12  23  48  75 105 147 195 244 303 360 438
#     4  11  26  46  75 111 150 195 242 303 374 433
#     4  12  24  42  75 109 142 191 253 299 356 443
#
# _framework density 22.819210000000002
#
# number of rings (size 3 to 8) (size 9 to 14) (size 15 to 20)
#    0.000    0.250    6.250    2.250    3.500    1.000 
#    0.000    0.625    0.000    0.000    0.000    0.000 
#    0.000    0.000    0.000    0.000    0.000    0.000 
#
# Total GULP energy -198396.843624 kJ/mol
# GULP energy per Si atom -12399.802727 kJ/mol
# Density = 2.276727 g / cm^3
# Si number density = 22.819210 Si / 1000 Ang^3
#
#
#
# Elastic Constant Matrix: (Units=GPa)
#
#
# Indices 1 2 3 4 5 6 
#
# 1 113.8848 49.1157 45.4664 -4.1852 -1.9600 12.1833
# 2 49.1157 128.7573 44.9396 6.5034 0.6874 18.4916
# 3 45.4664 44.9396 145.3090 -8.6624 -7.4289 -6.8731
# 4 -4.1852 6.5034 -8.6624 38.4252 0.4162 1.0399
# 5 -1.9600 0.6874 -7.4289 0.4162 30.5867 0.6717
# 6 12.1833 18.4916 -6.8731 1.0399 0.6717 35.5273
#
#
#
# Elastic Compliance Matrix: (Units=1/GPa)
#
#
# Indices 1 2 3 4 5 6 
#
# 1 0.011566 -0.003113 -0.002709 0.001252 0.000200 -0.002911
# 2 -0.003113 0.010791 -0.002808 -0.002652 -0.000978 -0.004996
# 3 -0.002709 -0.002808 0.009013 0.002082 0.001962 0.004036
# 4 0.001252 -0.002652 0.002082 0.027061 0.000265 0.000557
# 5 0.000200 -0.000978 0.001962 0.000265 0.033197 0.000185
# 6 -0.002911 -0.004996 0.004036 0.000557 0.000185 0.032507
#
#
# Mechanical properties :
#
#
# Convention : Reuss Voigt Hill
#
# Bulk Modulus (GPa) = 70.86827 74.11048 72.48938
# Shear Modulus (GPa) = 34.22388 37.46982 35.84685
#
# Velocity S-wave (km/s) = 3.87691 4.05659 3.96777
# Velocity P-wave (km/s) = 7.15293 7.38167 7.26820
#
# Compressibility (1/GPa) = 0.01411069
#
# Stress axis : x y z
#
# Youngs Moduli (GPa) = 86.46387 92.67365 110.94943
#
# Poissons Ratio (x) = 0.28846 0.30055
# Poissons Ratio (y) = 0.26913 0.31151
# Poissons Ratio (z) = 0.23423 0.26020
#
# Static dielectric constant tensor:
#      x y z
#    x 3.944820 0.192430 -0.088860 
#    y 0.192430 4.218780 0.048670 
#    z -0.088860 0.048670 4.304780 
# 
# 
# High freq. dielectric constant tensor:
#      x y z
#    x 1.890150 0.020940 -0.008890 
#    y 0.020940 1.897430 0.002460 
#    z -0.008890 0.002460 1.913670 
# 
# From -- ./inp_files/283197.got.cif
#   From: 2010.06.25/outbox.cif.g09.slc.cpg/sg2_142_cif.got.tgz:283197.got - 2010.06.27 13:26:56.
