data_PCOD8033319
_publ_section_title
;
Structure prediction by ZEFSAII (Michael W. Deem and Ramdas Pophale) SiO2 
 PCOD8033319
Probable space group: P -1
;
_chemical_formula_sum "Si O2"
_cell_formula_units_Z 16
_cell_length_a 13.845741
_cell_length_b 9.046998
_cell_length_c 15.726100
_cell_angle_alpha 37.505120
_cell_angle_beta 126.106464
_cell_angle_gamma 97.824784
_cell_volume 716.160756
_symmetry_space_group_name_H-M "P -1"
_symmetry_group_IT_number 2
_symmetry_cell_setting 'triclinic'
loop_
_space_group_symop_operation_xyz
x,y,z
-x,-y,-z
loop_
_atom_site_type_symbol
_atom_site_label
_atom_site_fract_x
_atom_site_fract_y
_atom_site_fract_z
Si Si1 0.706362 0.169623 0.560924
Si Si2 0.983042 0.737845 0.130942
Si Si3 0.226665 0.292478 0.067853
Si Si4 0.892216 0.782687 0.247288
Si Si5 0.471812 0.253805 0.118393
Si Si6 0.458669 0.936358 0.094989
Si Si7 0.073131 0.742003 0.931064
Si Si8 0.747928 0.812253 0.589417
O O1 0.577623 0.547743 0.346563
O O2 0.709941 0.108260 0.489274
O O3 0.891992 0.990873 0.762639
O O4 0.655991 0.003389 0.667545
O O5 0.110824 0.375447 0.321593
O O6 0.814258 0.861666 0.951527
O O7 0.998937 0.681221 0.265339
O O8 0.000000 0.000000 0.000000
O O9 0.074342 0.587920 0.913468
O O10 0.299664 0.425444 0.995188
O O11 0.000000 0.500000 0.500000
O O12 0.857391 0.089340 0.131988
O O13 0.728772 0.875115 0.093375
O O14 0.490771 0.083204 0.118924
O O15 0.590975 0.977436 0.376163
O O16 0.500000 0.500000 0.000000
O O17 0.500000 0.000000 0.000000
O O18 0.202824 0.466430 0.192304
#
# Coordination Sequence:
#
# PCOD8033319 Si02
#       8
#     2   2   2   2   2   2   2   2
#     4  11  23  45  75 109 146 180 237 304 366 429
#     4  12  23  46  76 110 143 184 250 302 355 436
#     4  11  24  46  75 103 146 188 240 299 360 433
#     4  12  28  46  73 106 144 193 245 299 368 434
#     4  12  30  48  68 104 148 193 244 298 365 431
#     4  12  29  48  70 101 148 191 240 302 368 432
#     4  11  23  45  74 109 143 186 238 296 365 433
#     4  11  24  43  74 105 145 188 236 298 363 428
#
# _framework density 22.341352000000001
#
# number of rings (size 3 to 8) (size 9 to 14) (size 15 to 20)
#    0.000    0.500    5.000    2.250   10.500    1.500 
#    0.000    1.250    0.000    0.000    0.000    0.000 
#    0.000    0.000    0.000    0.000    0.000    0.000 
#
# Total GULP energy -198240.905155 kJ/mol
# GULP energy per Si atom -12390.056572 kJ/mol
# Density = 2.229050 g / cm^3
# Si number density = 22.341352 Si / 1000 Ang^3
#
#
#
# Elastic Constant Matrix: (Units=GPa)
#
#
# Indices 1 2 3 4 5 6 
#
# 1 132.9530 55.0287 48.7092 -2.1109 -20.8419 1.3760
# 2 55.0287 161.5545 68.4624 5.5394 -8.9244 -0.1142
# 3 48.7092 68.4624 128.6880 4.9090 -8.8015 1.5465
# 4 -2.1109 5.5394 4.9090 38.8992 -1.4246 0.9536
# 5 -20.8419 -8.9244 -8.8015 -1.4246 32.7564 2.7296
# 6 1.3760 -0.1142 1.5465 0.9536 2.7296 44.1269
#
#
#
# Elastic Compliance Matrix: (Units=1/GPa)
#
#
# Indices 1 2 3 4 5 6 
#
# 1 0.010166 -0.002221 -0.002346 0.001374 0.005343 -0.000601
# 2 -0.002221 0.008526 -0.003674 -0.000882 -0.000136 0.000248
# 3 -0.002346 -0.003674 0.010677 -0.000931 0.000361 -0.000313
# 4 0.001374 -0.000882 -0.000931 0.026099 0.001575 -0.000674
# 5 0.005343 -0.000136 0.000361 0.001575 0.034250 -0.002332
# 6 -0.000601 0.000248 -0.000313 -0.000674 -0.002332 0.022851
#
#
# Mechanical properties :
#
#
# Convention : Reuss Voigt Hill
#
# Bulk Modulus (GPa) = 77.59605 85.28846 81.44225
# Shear Modulus (GPa) = 37.49603 39.88953 38.69278
#
# Velocity S-wave (km/s) = 4.10118 4.23005 4.16611
# Velocity P-wave (km/s) = 7.56529 7.88136 7.72494
#
# Compressibility (1/GPa) = 0.01288725
#
# Stress axis : x y z
#
# Youngs Moduli (GPa) = 98.36973 117.28616 93.65715
#
# Poissons Ratio (x) = 0.26048 0.21973
# Poissons Ratio (y) = 0.21847 0.34409
# Poissons Ratio (z) = 0.23078 0.43091
#
# Static dielectric constant tensor:
#      x y z
#    x 4.062750 -0.099890 -0.038130 
#    y -0.099890 4.412180 0.077870 
#    z -0.038130 0.077870 3.999170 
# 
# 
# High freq. dielectric constant tensor:
#      x y z
#    x 1.876550 -0.008970 -0.005860 
#    y -0.008970 1.901700 0.011970 
#    z -0.005860 0.011970 1.870180 
# 
# From -- ./inp_files/529297.got.cif
#   From: 2010.06.25/outbox.cif.g09.slc.cpg/sg2_265_cif.got.tgz:529297.got - 2010.06.27 13:26:56.
