data_PCOD8033386
_publ_section_title
;
Structure prediction by ZEFSAII (Michael W. Deem and Ramdas Pophale) SiO2 
 PCOD8033386
Probable space group: P -1
;
_chemical_formula_sum "Si O2"
_cell_formula_units_Z 14
_cell_length_a 14.532911
_cell_length_b 7.036884
_cell_length_c 9.460086
_cell_angle_alpha 95.760020
_cell_angle_beta 123.819446
_cell_angle_gamma 56.003110
_cell_volume 634.376347
_symmetry_space_group_name_H-M "P -1"
_symmetry_group_IT_number 2
_symmetry_cell_setting 'triclinic'
loop_
_space_group_symop_operation_xyz
x,y,z
-x,-y,-z
loop_
_atom_site_type_symbol
_atom_site_label
_atom_site_fract_x
_atom_site_fract_y
_atom_site_fract_z
Si Si1 0.339261 0.309520 0.308092
Si Si2 0.197463 0.177228 0.682723
Si Si3 0.198413 0.774775 0.039490
Si Si4 0.408025 0.743641 0.023184
Si Si5 0.118227 0.240303 0.138231
Si Si6 0.584031 0.864841 0.339662
Si Si7 0.974380 0.319696 0.297130
O O1 0.238402 0.577830 0.178779
O O2 0.267301 0.176282 0.224658
O O3 0.365846 0.319461 0.498631
O O4 0.484117 0.140338 0.333102
O O5 0.285251 0.937073 0.829459
O O6 0.286291 0.178193 0.632792
O O7 0.143574 0.395581 0.760788
O O8 0.062982 0.201656 0.508570
O O9 0.342724 0.706978 0.099441
O O10 0.107161 0.039718 0.049567
O O11 0.106042 0.783227 0.834496
O O12 0.501783 0.823404 0.154004
O O13 0.500000 0.500000 0.000000
O O14 0.093827 0.256435 0.285061
O O15 0.000000 0.500000 0.000000
#
# Coordination Sequence:
#
# PCOD8033386 Si02
#       7
#     2   2   2   2   2   2   2
#     4  11  24  43  73  99 134 176 224 284 339 395
#     4  11  24  45  70  95 140 180 227 276 331 406
#     4  12  25  44  70 105 133 174 227 280 344 401
#     4  12  25  42  65 100 138 180 223 275 333 405
#     4  12  23  45  68 100 139 174 226 281 340 399
#     4  11  23  46  68  98 135 181 224 278 335 395
#     4  11  24  42  69 102 130 180 224 276 341 394
#
# _framework density 22.068919999999999
#
# number of rings (size 3 to 8) (size 9 to 14) (size 15 to 20)
#    0.000    0.571    4.286    4.286    0.000    2.286 
#    0.000    0.000    0.000    0.000    0.000    0.000 
#    0.000    0.000    0.000    0.000    0.000    0.000 
#
# Total GULP energy -173623.706669 kJ/mol
# GULP energy per Si atom -12401.693334 kJ/mol
# Density = 2.201869 g / cm^3
# Si number density = 22.068920 Si / 1000 Ang^3
#
#
#
# Elastic Constant Matrix: (Units=GPa)
#
#
# Indices 1 2 3 4 5 6 
#
# 1 89.6368 38.4550 5.2046 6.0555 2.0142 -11.0878
# 2 38.4550 155.6541 60.2389 -6.6676 -7.9766 -12.9970
# 3 5.2046 60.2389 118.0723 -6.5156 1.0027 5.5430
# 4 6.0555 -6.6676 -6.5156 23.5426 -2.4635 -4.9769
# 5 2.0142 -7.9766 1.0027 -2.4635 30.7766 1.7925
# 6 -11.0878 -12.9970 5.5430 -4.9769 1.7925 34.6750
#
#
#
# Elastic Compliance Matrix: (Units=1/GPa)
#
#
# Indices 1 2 3 4 5 6 
#
# 1 0.013323 -0.003803 0.001049 -0.003990 -0.002340 0.002215
# 2 -0.003803 0.009851 -0.004859 0.003501 0.003031 0.003599
# 3 0.001049 -0.004859 0.011094 0.000617 -0.001460 -0.003095
# 4 -0.003990 0.003501 0.000617 0.046484 0.004498 0.006377
# 5 -0.002340 0.003031 -0.001460 0.004498 0.033867 -0.000484
# 6 0.002215 0.003599 -0.003095 0.006377 -0.000484 0.032332
#
#
# Mechanical properties :
#
#
# Convention : Reuss Voigt Hill
#
# Bulk Modulus (GPa) = 52.52139 63.46223 57.99181
# Shear Modulus (GPa) = 29.66931 35.09647 32.38289
#
# Velocity S-wave (km/s) = 3.67057 3.99220 3.83476
# Velocity P-wave (km/s) = 6.46642 7.07595 6.77804
#
# Compressibility (1/GPa) = 0.01903986
#
# Stress axis : x y z
#
# Youngs Moduli (GPa) = 75.05781 101.51734 90.13759
#
# Poissons Ratio (x) = 0.38610 -0.09454
# Poissons Ratio (y) = 0.28547 0.43802
# Poissons Ratio (z) = -0.07872 0.49332
#
# Static dielectric constant tensor:
#      x y z
#    x 7.807020 0.758940 2.378280 
#    y 0.758940 4.045500 0.641410 
#    z 2.378280 0.641410 5.557200 
# 
# 
# High freq. dielectric constant tensor:
#      x y z
#    x 1.877720 -0.016590 0.004270 
#    y -0.016590 1.860470 0.001690 
#    z 0.004270 0.001690 1.882350 
# 
# From -- ./inp_files/441266.got.cif
#   From: 2010.06.25/outbox.cif.g09.slc.cpg/sg2_221_cif.got.tgz:441266.got - 2010.06.27 13:26:56.
