data_PCOD8033428
_publ_section_title
;
Structure prediction by ZEFSAII (Michael W. Deem and Ramdas Pophale) SiO2 
 PCOD8033428
Probable space group: P -1
;
_chemical_formula_sum "Si O2"
_cell_formula_units_Z 16
_cell_length_a 15.403055
_cell_length_b 10.438247
_cell_length_c 9.138312
_cell_angle_alpha 137.092437
_cell_angle_beta 47.789898
_cell_angle_gamma 110.838147
_cell_volume 713.303379
_symmetry_space_group_name_H-M "P -1"
_symmetry_group_IT_number 2
_symmetry_cell_setting 'triclinic'
loop_
_space_group_symop_operation_xyz
x,y,z
-x,-y,-z
loop_
_atom_site_type_symbol
_atom_site_label
_atom_site_fract_x
_atom_site_fract_y
_atom_site_fract_z
Si Si1 0.662518 0.200399 0.652684
Si Si2 0.548996 0.873951 0.979567
Si Si3 0.677886 0.473601 0.369295
Si Si4 0.689055 0.553430 0.090449
Si Si5 0.932540 0.017948 0.246105
Si Si6 0.943663 0.385351 0.084661
Si Si7 0.041217 0.570026 0.364286
Si Si8 0.438137 0.807023 0.564321
O O1 0.563769 0.176400 0.858959
O O2 0.790299 0.039825 0.397079
O O3 0.621498 0.187512 0.521682
O O4 0.680575 0.412387 0.845954
O O5 0.610655 0.987915 0.123785
O O6 0.650708 0.686407 0.651230
O O7 0.500000 0.000000 0.000000
O O8 0.660813 0.474836 0.215254
O O9 0.815195 0.359688 0.158307
O O10 0.587899 0.362076 0.448224
O O11 0.586656 0.757578 0.343898
O O12 0.826548 0.574504 0.952676
O O13 0.954088 0.206444 0.462137
O O14 0.000000 0.000000 0.000000
O O15 0.977904 0.833097 0.146156
O O16 0.934951 0.531445 0.352010
O O17 0.000000 0.500000 0.000000
O O18 0.000000 0.500000 0.500000
#
# Coordination Sequence:
#
# PCOD8033428 Si02
#       8
#     2   2   2   2   2   2   2   2
#     4  11  26  45  72 108 142 184 240 300 355 428
#     4  12  26  44  71 105 140 192 233 289 365 429
#     4  12  26  47  71 105 148 187 238 293 362 435
#     4  11  23  46  71 102 151 186 228 302 362 428
#     4  11  25  47  74 103 148 188 241 300 360 426
#     4  12  27  47  72 106 144 193 244 297 356 429
#     4  11  25  46  75 106 141 197 241 297 367 426
#     4  12  25  45  74 106 144 182 239 294 363 428
#
# _framework density 22.430848999999998
#
# number of rings (size 3 to 8) (size 9 to 14) (size 15 to 20)
#    0.000    0.500    5.000    2.625    5.250    2.500 
#    0.000    0.000    0.000    0.000    0.000    0.000 
#    0.000    0.000    0.000    0.000    0.000    0.000 
#
# Total GULP energy -198358.269554 kJ/mol
# GULP energy per Si atom -12397.391847 kJ/mol
# Density = 2.237980 g / cm^3
# Si number density = 22.430849 Si / 1000 Ang^3
#
#
#
# Elastic Constant Matrix: (Units=GPa)
#
#
# Indices 1 2 3 4 5 6 
#
# 1 118.4364 15.8375 39.2132 6.1824 3.2785 -6.4898
# 2 15.8375 96.3409 26.6112 -2.3594 -5.7116 -15.8795
# 3 39.2132 26.6112 105.2902 7.8835 1.3330 -8.8065
# 4 6.1824 -2.3594 7.8835 43.4665 -1.2582 5.8991
# 5 3.2785 -5.7116 1.3330 -1.2582 47.3507 3.3487
# 6 -6.4898 -15.8795 -8.8065 5.8991 3.3487 30.7623
#
#
#
# Elastic Compliance Matrix: (Units=1/GPa)
#
#
# Indices 1 2 3 4 5 6 
#
# 1 0.009748 -0.000579 -0.003310 -0.000986 -0.000754 0.001081
# 2 -0.000579 0.012094 -0.002462 0.000517 0.001215 0.005185
# 3 -0.003310 -0.002462 0.011666 -0.002043 -0.000579 0.001825
# 4 -0.000986 0.000517 -0.002043 0.024302 0.001210 -0.005318
# 5 -0.000754 0.001215 -0.000579 0.001210 0.021527 -0.002273
# 6 0.001081 0.005185 0.001825 -0.005318 -0.002273 0.037202
#
#
# Mechanical properties :
#
#
# Convention : Reuss Voigt Hill
#
# Bulk Modulus (GPa) = 48.06173 53.71012 50.88593
# Shear Modulus (GPa) = 36.71718 40.20960 38.46339
#
# Velocity S-wave (km/s) = 4.05026 4.23851 4.14545
# Velocity P-wave (km/s) = 6.58376 6.92459 6.75633
#
# Compressibility (1/GPa) = 0.02080657
#
# Stress axis : x y z
#
# Youngs Moduli (GPa) = 102.58069 82.68443 85.72204
#
# Poissons Ratio (x) = 0.04785 0.28378
# Poissons Ratio (y) = 0.05937 0.21101
# Poissons Ratio (z) = 0.33959 0.20353
#
# Static dielectric constant tensor:
#      x y z
#    x 4.113820 0.193350 0.091830 
#    y 0.193350 3.878810 -0.064990 
#    z 0.091830 -0.064990 4.233890 
# 
# 
# High freq. dielectric constant tensor:
#      x y z
#    x 1.896180 0.003680 0.008320 
#    y 0.003680 1.886760 -0.005560 
#    z 0.008320 -0.005560 1.893630 
# 
# From -- ./inp_files/308678.got.cif
#   From: 2010.06.25/outbox.cif.g09.slc.cpg/sg2_155_cif.got.tgz:308678.got - 2010.06.27 13:26:56.
