data_PCOD8033929
_publ_section_title
;
Structure prediction by ZEFSAII (Michael W. Deem and Ramdas Pophale) SiO2 
 PCOD8033929
Probable space group: P -1
;
_chemical_formula_sum "Si O2"
_cell_formula_units_Z 12
_cell_length_a 6.571383
_cell_length_b 14.867561
_cell_length_c 18.295443
_cell_angle_alpha 20.171056
_cell_angle_beta 76.176805
_cell_angle_gamma 72.086303
_cell_volume 579.690130
_symmetry_space_group_name_H-M "P -1"
_symmetry_group_IT_number 2
_symmetry_cell_setting 'triclinic'
loop_
_space_group_symop_operation_xyz
x,y,z
-x,-y,-z
loop_
_atom_site_type_symbol
_atom_site_label
_atom_site_fract_x
_atom_site_fract_y
_atom_site_fract_z
Si Si1 0.650150 0.607375 0.459348
Si Si2 0.649117 0.023570 0.692828
Si Si3 0.025408 0.092201 0.846666
Si Si4 0.205343 0.788657 0.611889
Si Si5 0.537360 0.468849 0.935244
Si Si6 0.979993 0.707276 0.014386
O O1 0.500000 0.500000 0.500000
O O2 0.504485 0.705088 0.468590
O O3 0.849820 0.370083 0.643879
O O4 0.738484 0.852095 0.230323
O O5 0.701854 0.067718 0.571153
O O6 0.870223 0.923290 0.796988
O O7 0.511364 0.805474 0.877419
O O8 0.984250 0.864684 0.969255
O O9 0.000000 0.000000 0.000000
O O10 0.383817 0.717432 0.715092
O O11 0.000000 0.000000 0.500000
O O12 0.151958 0.518923 0.790496
O O13 0.500000 0.500000 0.000000
O O14 0.784791 0.455971 0.906946
#
# Coordination Sequence:
#
# PCOD8033929 Si02
#       6
#     2   2   2   2   2   2
#     4  11  24  44  66  96 130 172 211 263 323 380
#     4  11  24  43  67  94 132 169 215 263 321 383
#     4  11  26  42  66  99 131 168 217 263 319 383
#     4  11  26  43  66  99 125 173 218 260 326 382
#     4  11  24  44  67  92 131 166 214 275 319 378
#     4  11  24  43  64  96 132 167 213 269 319 376
#
# _framework density 20.700714999999999
#
# number of rings (size 3 to 8) (size 9 to 14) (size 15 to 20)
#    0.000    1.000    3.333    2.000    4.667    7.333 
#    0.000    0.000    0.000    0.000    0.000    0.000 
#    0.000    0.000    0.000    0.000    0.000    0.000 
#
# Total GULP energy -148834.807758 kJ/mol
# GULP energy per Si atom -12402.900646 kJ/mol
# Density = 2.065360 g / cm^3
# Si number density = 20.700715 Si / 1000 Ang^3
#
#
#
# Elastic Constant Matrix: (Units=GPa)
#
#
# Indices 1 2 3 4 5 6 
#
# 1 106.3433 28.4093 27.7358 6.0393 10.3063 0.3965
# 2 28.4093 118.2190 27.2000 6.5159 16.8363 -0.7135
# 3 27.7358 27.2000 80.6298 12.0989 5.0998 3.7328
# 4 6.0393 6.5159 12.0989 44.1227 1.7454 2.9097
# 5 10.3063 16.8363 5.0998 1.7454 31.5653 -3.5680
# 6 0.3965 -0.7135 3.7328 2.9097 -3.5680 44.6891
#
#
#
# Elastic Compliance Matrix: (Units=1/GPa)
#
#
# Indices 1 2 3 4 5 6 
#
# 1 0.010842 -0.001583 -0.003005 -0.000338 -0.002194 -0.000024
# 2 -0.001583 0.010070 -0.002514 -0.000410 -0.004419 0.000059
# 3 -0.003005 -0.002514 0.014815 -0.003211 -0.000012 -0.001043
# 4 -0.000338 -0.000410 -0.003211 0.023763 -0.000617 -0.001332
# 5 -0.002194 -0.004419 -0.000012 -0.000617 0.035105 0.002793
# 6 -0.000024 0.000059 -0.001043 -0.001332 0.002793 0.022775
#
#
# Mechanical properties :
#
#
# Convention : Reuss Voigt Hill
#
# Bulk Modulus (GPa) = 46.46284 52.43138 49.44711
# Shear Modulus (GPa) = 36.03620 38.86523 37.45071
#
# Velocity S-wave (km/s) = 4.17684 4.33769 4.25803
# Velocity P-wave (km/s) = 6.76425 7.10427 6.93635
#
# Compressibility (1/GPa) = 0.02152257
#
# Stress axis : x y z
#
# Youngs Moduli (GPa) = 92.23312 99.30435 67.49927
#
# Poissons Ratio (x) = 0.15721 0.20283
# Poissons Ratio (y) = 0.14602 0.16971
# Poissons Ratio (z) = 0.27715 0.24967
#
# Static dielectric constant tensor:
#      x y z
#    x 3.862120 0.233870 -0.036110 
#    y 0.233870 3.603300 -0.119140 
#    z -0.036110 -0.119140 3.812740 
# 
# 
# High freq. dielectric constant tensor:
#      x y z
#    x 1.824450 -0.001560 -0.001600 
#    y -0.001560 1.822700 -0.010020 
#    z -0.001600 -0.010020 1.812860 
# 
# From -- ./inp_files/3220.got.cif
#   From: 2010.06.25/outbox.cif.g09.slc.cpg/sg2_2_cif.got.tgz:3220.got - 2010.06.27 13:26:56.
