data_PCOD8033000
_publ_section_title
;
Structure prediction by ZEFSAII (Michael W. Deem and Ramdas Pophale) SiO2 
 PCOD8033000
Probable space group: P -1
;
_chemical_formula_sum "Si O2"
_cell_formula_units_Z 14
_cell_length_a 9.517871
_cell_length_b 17.065252
_cell_length_c 11.074805
_cell_angle_alpha 32.527326
_cell_angle_beta 114.230122
_cell_angle_gamma 135.804830
_cell_volume 576.820291
_symmetry_space_group_name_H-M "P -1"
_symmetry_group_IT_number 2
_symmetry_cell_setting 'triclinic'
loop_
_space_group_symop_operation_xyz
x,y,z
-x,-y,-z
loop_
_atom_site_type_symbol
_atom_site_label
_atom_site_fract_x
_atom_site_fract_y
_atom_site_fract_z
Si Si1 0.984632 0.115780 0.946943
Si Si2 0.569928 0.722496 0.105747
Si Si3 0.278905 0.928784 0.470873
Si Si4 0.944819 0.574139 0.608544
Si Si5 0.601908 0.692934 0.503024
Si Si6 0.079692 0.206770 0.312851
Si Si7 0.834701 0.568689 0.182610
O O1 0.157318 0.101749 0.974118
O O2 0.064375 0.230024 0.959918
O O3 0.961940 0.239391 0.693612
O O4 0.724449 0.870769 0.208868
O O5 0.548012 0.534645 0.324002
O O6 0.340971 0.619261 0.229425
O O7 0.611202 0.848318 0.839180
O O8 0.095891 0.706995 0.610890
O O9 0.150122 0.871852 0.623860
O O10 0.500000 0.000000 0.500000
O O11 0.995619 0.450067 0.735635
O O12 0.768067 0.713538 0.618355
O O13 0.423272 0.665022 0.554560
O O14 0.209151 0.397631 0.010460
O O15 0.000000 0.000000 0.500000
#
# Coordination Sequence:
#
# PCOD8033000 Si02
#       7
#     2   2   2   2   2   2   2
#     4  11  24  48  70 101 135 178 238 273 334 409
#     4  11  23  46  70 100 132 181 230 280 331 406
#     4  12  28  44  67 105 142 177 225 281 344 404
#     4  12  27  45  69 101 143 182 217 286 344 400
#     4  11  23  44  70  99 132 182 228 279 335 398
#     4  12  22  45  69  97 136 177 232 280 331 402
#     4  11  26  41  70 102 135 180 224 282 341 404
#
# _framework density 24.270990999999999
#
# number of rings (size 3 to 8) (size 9 to 14) (size 15 to 20)
#    0.000    0.571    4.286    3.000    4.000    7.429 
#    0.000    0.000    0.000    0.000    0.000    0.000 
#    0.000    0.000    0.000    0.000    0.000    0.000 
#
# Total GULP energy -173505.440944 kJ/mol
# GULP energy per Si atom -12393.245782 kJ/mol
# Density = 2.421575 g / cm^3
# Si number density = 24.270991 Si / 1000 Ang^3
#
#
#
# Elastic Constant Matrix: (Units=GPa)
#
#
# Indices 1 2 3 4 5 6 
#
# 1 200.7731 37.3223 66.2854 -0.6560 -30.1701 20.6194
# 2 37.3223 79.3730 26.7876 7.1913 -19.1813 25.3908
# 3 66.2854 26.7876 156.9512 9.6631 -29.2018 3.6834
# 4 -0.6560 7.1913 9.6631 38.9914 2.3962 -4.2353
# 5 -30.1701 -19.1813 -29.2018 2.3962 45.5840 3.0143
# 6 20.6194 25.3908 3.6834 -4.2353 3.0143 42.0773
#
#
#
# Elastic Compliance Matrix: (Units=1/GPa)
#
#
# Indices 1 2 3 4 5 6 
#
# 1 0.006509 -0.000880 -0.002037 0.000317 0.002791 -0.002648
# 2 -0.000880 0.019821 -0.000836 -0.005343 0.008336 -0.012591
# 3 -0.002037 -0.000836 0.008170 -0.002093 0.003623 0.000317
# 4 0.000317 -0.005343 -0.002093 0.028184 -0.005288 0.006468
# 5 0.002791 0.008336 0.003623 -0.005288 0.030515 -0.009434
# 6 -0.002648 -0.012591 0.000317 0.006468 -0.009434 0.033960
#
#
# Mechanical properties :
#
#
# Convention : Reuss Voigt Hill
#
# Bulk Modulus (GPa) = 37.04491 77.54309 57.29400
# Shear Modulus (GPa) = 34.80344 45.77734 40.29039
#
# Velocity S-wave (km/s) = 3.79086 4.34763 4.07876
# Velocity P-wave (km/s) = 5.87001 7.56444 6.77044
#
# Compressibility (1/GPa) = 0.02699426
#
# Stress axis : x y z
#
# Youngs Moduli (GPa) = 153.62503 50.45121 122.40222
#
# Poissons Ratio (x) = 0.04442 0.24932
# Poissons Ratio (y) = 0.13525 0.10229
# Poissons Ratio (z) = 0.31292 0.04216
#
# Static dielectric constant tensor:
#      x y z
#    x 4.816190 -0.595110 -0.628170 
#    y -0.595110 9.373870 2.173190 
#    z -0.628170 2.173190 5.794460 
# 
# 
# High freq. dielectric constant tensor:
#      x y z
#    x 1.977150 0.002100 -0.016290 
#    y 0.002100 1.987500 -0.000090 
#    z -0.016290 -0.000090 1.977030 
# 
# From -- ./inp_files/47394.got.cif
#   From: 2010.06.25/outbox.cif.g09.slc.cpg/sg2_24_cif.got.tgz:47394.got - 2010.06.27 13:26:56.
