data_PCOD8033865
_publ_section_title
;
Structure prediction by ZEFSAII (Michael W. Deem and Ramdas Pophale) SiO2 
 PCOD8033865
Probable space group: P -1
;
_chemical_formula_sum "Si O2"
_cell_formula_units_Z 14
_cell_length_a 12.695824
_cell_length_b 9.063252
_cell_length_c 14.842039
_cell_angle_alpha 60.025700
_cell_angle_beta 29.223845
_cell_angle_gamma 49.574702
_cell_volume 624.540833
_symmetry_space_group_name_H-M "P -1"
_symmetry_group_IT_number 2
_symmetry_cell_setting 'triclinic'
loop_
_space_group_symop_operation_xyz
x,y,z
-x,-y,-z
loop_
_atom_site_type_symbol
_atom_site_label
_atom_site_fract_x
_atom_site_fract_y
_atom_site_fract_z
Si Si1 0.351721 0.880844 0.378100
Si Si2 0.680567 0.931213 0.969757
Si Si3 0.121381 0.058604 0.811266
Si Si4 0.170852 0.302558 0.380275
Si Si5 0.534089 0.764219 0.468276
Si Si6 0.918024 0.339382 0.373476
Si Si7 0.350901 0.723926 0.010863
O O1 0.566283 0.869222 0.156445
O O2 0.469455 0.744215 0.419738
O O3 0.194728 0.797941 0.468921
O O4 0.164885 0.109588 0.478505
O O5 0.732410 0.108820 0.900842
O O6 0.936728 0.740223 0.805357
O O7 0.500000 0.000000 0.000000
O O8 0.307882 0.125358 0.689369
O O9 0.279250 0.877241 0.681322
O O10 0.892399 0.238120 0.874115
O O11 0.000000 0.000000 0.000000
O O12 0.452117 0.252463 0.205023
O O13 0.000000 0.500000 0.500000
O O14 0.103243 0.332453 0.315492
O O15 0.693540 0.557301 0.460684
O O16 0.500000 0.500000 0.000000
#
# Coordination Sequence:
#
# PCOD8033865 Si02
#       7
#     2   2   2   2   2   2   2
#     4  11  25  46  70 100 144 187 229 294 356 413
#     4  11  24  44  68 103 143 176 239 289 348 424
#     4  11  25  46  70 100 148 185 234 293 355 417
#     4  11  26  42  70 105 138 179 241 288 348 425
#     4  11  27  45  70 106 142 188 241 288 352 431
#     4  12  25  46  73 104 142 189 232 293 358 421
#     4  11  24  42  70 102 133 183 229 292 351 408
#
# _framework density 22.416467999999998
#
# number of rings (size 3 to 8) (size 9 to 14) (size 15 to 20)
#    0.000    0.857    2.857    4.286   10.000    1.714 
#    0.000    0.000    0.000    0.000    0.000    0.000 
#    0.000    0.000    0.000    0.000    0.000    0.000 
#
# Total GULP energy -173567.489192 kJ/mol
# GULP energy per Si atom -12397.677799 kJ/mol
# Density = 2.236545 g / cm^3
# Si number density = 22.416468 Si / 1000 Ang^3
#
#
#
# Elastic Constant Matrix: (Units=GPa)
#
#
# Indices 1 2 3 4 5 6 
#
# 1 74.0717 0.2792 31.4040 5.3486 4.8153 -1.4205
# 2 0.2792 100.4114 40.3784 10.2667 7.0444 -1.9062
# 3 31.4040 40.3784 128.8959 7.4578 8.7599 4.3531
# 4 5.3486 10.2667 7.4578 41.8759 -1.7104 -1.6634
# 5 4.8153 7.0444 8.7599 -1.7104 31.8682 6.2423
# 6 -1.4205 -1.9062 4.3531 -1.6634 6.2423 39.1850
#
#
#
# Elastic Compliance Matrix: (Units=1/GPa)
#
#
# Indices 1 2 3 4 5 6 
#
# 1 0.015569 0.002003 -0.004230 -0.001753 -0.001996 0.001375
# 2 0.002003 0.012002 -0.003994 -0.002526 -0.002258 0.001353
# 3 -0.004230 -0.003994 0.010178 -0.000388 -0.001036 -0.001330
# 4 -0.001753 -0.002526 -0.000388 0.024903 0.002155 0.000571
# 5 -0.001996 -0.002258 -0.001036 0.002155 0.033625 -0.005332
# 6 0.001375 0.001353 -0.001330 0.000571 -0.005332 0.026657
#
#
# Mechanical properties :
#
#
# Convention : Reuss Voigt Hill
#
# Bulk Modulus (GPa) = 39.51476 49.72247 44.61861
# Shear Modulus (GPa) = 34.76791 38.00700 36.38745
#
# Velocity S-wave (km/s) = 3.94254 4.12211 4.03332
# Velocity P-wave (km/s) = 6.19602 6.69963 6.45274
#
# Compressibility (1/GPa) = 0.02530700
#
# Stress axis : x y z
#
# Youngs Moduli (GPa) = 64.23007 83.32049 98.25391
#
# Poissons Ratio (x) = -0.16690 0.41562
# Poissons Ratio (y) = -0.12866 0.39241
# Poissons Ratio (z) = 0.27170 0.33277
#
# Static dielectric constant tensor:
#      x y z
#    x 4.405220 0.191780 0.186800 
#    y 0.191780 4.201980 0.075630 
#    z 0.186800 0.075630 4.968550 
# 
# 
# High freq. dielectric constant tensor:
#      x y z
#    x 1.885320 0.006700 -0.012300 
#    y 0.006700 1.887290 0.006250 
#    z -0.012300 0.006250 1.891730 
# 
# From -- ./inp_files/306568.got.cif
#   From: 2010.06.25/outbox.cif.g09.slc.cpg/sg2_154_cif.got.tgz:306568.got - 2010.06.27 13:26:56.
