data_PCOD8033325
_publ_section_title
;
Structure prediction by ZEFSAII (Michael W. Deem and Ramdas Pophale) SiO2 
 PCOD8033325
Probable space group: P -1
;
_chemical_formula_sum "Si O2"
_cell_formula_units_Z 16
_cell_length_a 9.172257
_cell_length_b 15.392821
_cell_length_c 9.676348
_cell_angle_alpha 143.240721
_cell_angle_beta 117.369411
_cell_angle_gamma 72.785037
_cell_volume 719.311765
_symmetry_space_group_name_H-M "P -1"
_symmetry_group_IT_number 2
_symmetry_cell_setting 'triclinic'
loop_
_space_group_symop_operation_xyz
x,y,z
-x,-y,-z
loop_
_atom_site_type_symbol
_atom_site_label
_atom_site_fract_x
_atom_site_fract_y
_atom_site_fract_z
Si Si1 0.004047 0.898975 0.741955
Si Si2 0.560905 0.647552 0.793470
Si Si3 0.436598 0.600285 0.986987
Si Si4 0.385834 0.918899 0.963510
Si Si5 0.109033 0.938504 0.359104
Si Si6 0.899362 0.603243 0.445545
Si Si7 0.536784 0.083213 0.483381
Si Si8 0.088093 0.348268 0.177282
O O1 0.902254 0.735144 0.505729
O O2 0.198401 0.885547 0.782166
O O3 0.906850 0.968862 0.668239
O O4 0.000000 0.000000 0.000000
O O5 0.500000 0.500000 0.500000
O O6 0.752623 0.686928 0.884370
O O7 0.542160 0.623640 0.920526
O O8 0.451772 0.770171 0.851399
O O9 0.445030 0.746854 0.264051
O O10 0.500000 0.500000 0.000000
O O11 0.252720 0.525883 0.778429
O O12 0.397630 0.031050 0.241689
O O13 0.500000 0.000000 0.000000
O O14 0.286998 0.962889 0.541479
O O15 0.000000 0.000000 0.500000
O O16 0.062787 0.765444 0.091323
O O17 0.903404 0.685464 0.699129
O O18 0.055967 0.517948 0.367969
O O19 0.500000 0.000000 0.500000
#
# Coordination Sequence:
#
# PCOD8033325 Si02
#       8
#     2   2   2   2   2   2   2   2
#     4  12  26  44  76 105 140 187 248 291 349 433
#     4  12  25  46  72 105 145 186 240 299 363 423
#     4  12  29  47  72 107 146 196 237 299 368 433
#     4  12  28  47  74 111 143 190 244 301 360 433
#     4  12  26  46  69 106 141 189 233 295 364 420
#     4  11  25  46  72 104 142 186 244 290 355 434
#     4  12  26  48  73 101 149 187 238 296 366 428
#     4  11  23  45  74  99 139 188 236 294 358 430
#
# _framework density 22.243486999999998
#
# number of rings (size 3 to 8) (size 9 to 14) (size 15 to 20)
#    0.000    0.250    5.000    3.750    7.000    0.000 
#    2.250    1.250    0.000    0.000    0.000    0.000 
#    0.000    0.000    0.000    0.000    0.000    0.000 
#
# Total GULP energy -198318.155201 kJ/mol
# GULP energy per Si atom -12394.884700 kJ/mol
# Density = 2.219286 g / cm^3
# Si number density = 22.243487 Si / 1000 Ang^3
#
#
#
# Elastic Constant Matrix: (Units=GPa)
#
#
# Indices 1 2 3 4 5 6 
#
# 1 85.6994 12.1372 2.0812 13.8685 -11.9659 0.5841
# 2 12.1372 113.9300 17.6824 14.7088 -15.0595 9.4088
# 3 2.0812 17.6824 97.9153 13.4030 -8.1522 5.4679
# 4 13.8685 14.7088 13.4030 39.1827 3.2305 1.8963
# 5 -11.9659 -15.0595 -8.1522 3.2305 39.7288 -2.5717
# 6 0.5841 9.4088 5.4679 1.8963 -2.5717 33.6724
#
#
#
# Elastic Compliance Matrix: (Units=1/GPa)
#
#
# Indices 1 2 3 4 5 6 
#
# 1 0.013156 -0.000297 0.000841 -0.005218 0.004470 0.000353
# 2 -0.000297 0.010078 -0.000895 -0.003571 0.003696 -0.002182
# 3 0.000841 -0.000895 0.011163 -0.003925 0.002448 -0.001169
# 4 -0.005218 -0.003571 -0.003925 0.030590 -0.006249 -0.000474
# 5 0.004470 0.003696 0.002448 -0.006249 0.028997 0.001059
# 6 0.000353 -0.002182 -0.001169 -0.000474 0.001059 0.030599
#
#
# Mechanical properties :
#
#
# Convention : Reuss Voigt Hill
#
# Bulk Modulus (GPa) = 29.67821 40.14958 34.91389
# Shear Modulus (GPa) = 36.62549 40.22638 38.42594
#
# Velocity S-wave (km/s) = 4.06220 4.25721 4.16085
# Velocity P-wave (km/s) = 5.94755 6.50033 6.23007
#
# Compressibility (1/GPa) = 0.03369476
#
# Stress axis : x y z
#
# Youngs Moduli (GPa) = 76.00809 99.22955 89.58075
#
# Poissons Ratio (x) = 0.02944 -0.07531
# Poissons Ratio (y) = 0.02255 0.08019
# Poissons Ratio (z) = -0.06390 0.08883
#
# Static dielectric constant tensor:
#      x y z
#    x 4.328080 0.075220 -0.288150 
#    y 0.075220 3.980420 0.135790 
#    z -0.288150 0.135790 6.004340 
# 
# 
# High freq. dielectric constant tensor:
#      x y z
#    x 1.889440 0.000120 -0.000260 
#    y 0.000120 1.880090 0.012960 
#    z -0.000260 0.012960 1.890550 
# 
# From -- ./inp_files/209540.got.cif
#   From: 2010.06.25/outbox.cif.g09.slc.cpg/sg2_105_cif.got.tgz:209540.got - 2010.06.27 13:26:56.
