data_PCOD8033492
_publ_section_title
;
Structure prediction by ZEFSAII (Michael W. Deem and Ramdas Pophale) SiO2 
 PCOD8033492
Probable space group: P -1
;
_chemical_formula_sum "Si O2"
_cell_formula_units_Z 14
_cell_length_a 21.364703
_cell_length_b 8.882986
_cell_length_c 8.605072
_cell_angle_alpha 56.938397
_cell_angle_beta 46.244450
_cell_angle_gamma 31.127675
_cell_volume 605.038241
_symmetry_space_group_name_H-M "P -1"
_symmetry_group_IT_number 2
_symmetry_cell_setting 'triclinic'
loop_
_space_group_symop_operation_xyz
x,y,z
-x,-y,-z
loop_
_atom_site_type_symbol
_atom_site_label
_atom_site_fract_x
_atom_site_fract_y
_atom_site_fract_z
Si Si1 0.614521 0.351336 0.204282
Si Si2 0.643426 0.551175 0.792350
Si Si3 0.598771 0.784956 0.102193
Si Si4 0.054332 0.080946 0.767983
Si Si5 0.101501 0.295209 0.796617
Si Si6 0.628453 0.529935 0.475243
Si Si7 0.845224 0.458558 0.649170
O O1 0.590307 0.586682 0.187572
O O2 0.486107 0.426966 0.413874
O O3 0.759954 0.030444 0.194713
O O4 0.622156 0.383476 0.987318
O O5 0.603760 0.625098 0.641056
O O6 0.802348 0.353730 0.678286
O O7 0.543918 0.863011 0.880903
O O8 0.620448 0.731901 0.281747
O O9 0.731190 0.673927 0.862832
O O10 0.015544 0.315610 0.808601
O O11 0.992546 0.190756 0.637485
O O12 0.221608 0.809937 0.610887
O O13 0.000000 0.000000 0.000000
O O14 0.149491 0.392879 0.568382
O O15 0.000000 0.500000 0.000000
#
# Coordination Sequence:
#
# PCOD8033492 Si02
#       7
#     2   2   2   2   2   2   2
#     4  11  24  48  69 105 140 185 235 291 350 409
#     4  11  26  43  75 108 138 186 231 297 340 419
#     4  11  23  46  75 101 141 183 234 290 355 413
#     4  12  26  49  71 104 140 190 231 288 357 417
#     4  12  29  48  74 103 140 187 236 292 347 419
#     4  12  25  43  76 104 145 182 235 289 350 413
#     4  11  25  46  71 101 143 183 236 285 348 418
#
# _framework density 23.139033999999999
#
# number of rings (size 3 to 8) (size 9 to 14) (size 15 to 20)
#    0.000    0.571    2.857    5.143    8.000    1.714 
#    0.000    0.000    0.000    0.000    0.000    0.000 
#    0.000    0.000    0.000    0.000    0.000    0.000 
#
# Total GULP energy -173548.255241 kJ/mol
# GULP energy per Si atom -12396.303946 kJ/mol
# Density = 2.308637 g / cm^3
# Si number density = 23.139034 Si / 1000 Ang^3
#
#
#
# Elastic Constant Matrix: (Units=GPa)
#
#
# Indices 1 2 3 4 5 6 
#
# 1 78.0671 43.4001 35.7115 8.6249 -6.4207 -17.6261
# 2 43.4001 111.0996 53.2442 -12.1088 3.3989 -21.3141
# 3 35.7115 53.2442 186.5701 -25.2637 4.4165 -7.2663
# 4 8.6249 -12.1088 -25.2637 39.0481 -9.6081 8.6149
# 5 -6.4207 3.3989 4.4165 -9.6081 34.8233 -4.2513
# 6 -17.6261 -21.3141 -7.2663 8.6149 -4.2513 39.2549
#
#
#
# Elastic Compliance Matrix: (Units=1/GPa)
#
#
# Indices 1 2 3 4 5 6 
#
# 1 0.020862 -0.006213 -0.003292 -0.009612 0.003175 0.007838
# 2 -0.006213 0.013429 -0.002052 0.003259 -0.000893 0.003310
# 3 -0.003292 -0.002052 0.007194 0.005239 -0.000170 -0.002429
# 4 -0.009612 0.003259 0.005239 0.035531 0.005983 -0.008726
# 5 0.003175 -0.000893 -0.000170 0.005983 0.031428 0.003000
# 6 0.007838 0.003310 -0.002429 -0.008726 0.003000 0.032581
#
#
# Mechanical properties :
#
#
# Convention : Reuss Voigt Hill
#
# Bulk Modulus (GPa) = 54.42959 71.16092 62.79526
# Shear Modulus (GPa) = 29.36647 38.85066 34.10856
#
# Velocity S-wave (km/s) = 3.56635 4.10202 3.84353
# Velocity P-wave (km/s) = 6.36651 7.29766 6.84793
#
# Compressibility (1/GPa) = 0.01837236
#
# Stress axis : x y z
#
# Youngs Moduli (GPa) = 47.93373 74.46630 138.99668
#
# Poissons Ratio (x) = 0.46268 0.45752
# Poissons Ratio (y) = 0.29782 0.28518
# Poissons Ratio (z) = 0.15778 0.15278
#
# Static dielectric constant tensor:
#      x y z
#    x 4.444050 -0.275360 0.411010 
#    y -0.275360 4.158590 -0.258570 
#    z 0.411010 -0.258570 4.882070 
# 
# 
# High freq. dielectric constant tensor:
#      x y z
#    x 1.923180 -0.019890 0.017530 
#    y -0.019890 1.903110 -0.013740 
#    z 0.017530 -0.013740 1.944490 
# 
# From -- ./inp_files/296510.got.cif
#   From: 2010.06.25/outbox.cif.g09.slc.cpg/sg2_149_cif.got.tgz:296510.got - 2010.06.27 13:26:56.
