data_PCOD8033718
_publ_section_title
;
Structure prediction by ZEFSAII (Michael W. Deem and Ramdas Pophale) SiO2 
 PCOD8033718
Probable space group: P -1
;
_chemical_formula_sum "Si O2"
_cell_formula_units_Z 14
_cell_length_a 5.194043
_cell_length_b 22.479751
_cell_length_c 6.109542
_cell_angle_alpha 123.084418
_cell_angle_beta 85.727723
_cell_angle_gamma 77.243551
_cell_volume 566.098943
_symmetry_space_group_name_H-M "P -1"
_symmetry_group_IT_number 2
_symmetry_cell_setting 'triclinic'
loop_
_space_group_symop_operation_xyz
x,y,z
-x,-y,-z
loop_
_atom_site_type_symbol
_atom_site_label
_atom_site_fract_x
_atom_site_fract_y
_atom_site_fract_z
Si Si1 0.434346 0.272347 0.165298
Si Si2 0.884152 0.139439 0.995132
Si Si3 0.434024 0.085594 0.119480
Si Si4 0.174967 0.182961 0.709468
Si Si5 0.349997 0.401041 0.730236
Si Si6 0.259959 0.672839 0.093912
Si Si7 0.892057 0.462331 0.236621
O O1 0.701797 0.226881 0.197801
O O2 0.264710 0.340636 0.464625
O O3 0.277898 0.214423 0.986508
O O4 0.502931 0.305659 0.001232
O O5 0.677319 0.091867 0.959570
O O6 0.131912 0.116018 0.100924
O O7 0.002330 0.131213 0.719598
O O8 0.418538 0.133156 0.440871
O O9 0.500000 0.000000 0.000000
O O10 0.998096 0.253034 0.717012
O O11 0.643765 0.361955 0.742811
O O12 0.356562 0.472856 0.731014
O O13 0.128498 0.427469 0.981886
O O14 0.203265 0.607287 0.818112
O O15 0.000000 0.500000 0.500000
#
# Coordination Sequence:
#
# PCOD8033718 Si02
#       7
#     2   2   2   2   2   2   2
#     4  11  25  45  70 105 139 191 247 305 366 440
#     4  11  26  48  76 110 154 194 251 304 373 442
#     4  12  28  49  78 114 153 200 247 303 376 451
#     4  11  26  47  75 108 151 193 252 311 369 448
#     4  11  24  41  66  95 141 184 243 304 370 434
#     4  11  24  41  69  98 136 192 241 305 371 439
#     4  11  25  43  63  97 140 187 243 304 369 441
#
# _framework density 24.730657000000001
#
# number of rings (size 3 to 8) (size 9 to 14) (size 15 to 20)
#    0.000    0.857    1.429    4.286    8.000    8.000 
#    0.000    0.000    0.000    0.000    0.000    0.000 
#    0.000    0.000    0.000    0.000    0.000    0.000 
#
# Total GULP energy -173516.768520 kJ/mol
# GULP energy per Si atom -12394.054894 kJ/mol
# Density = 2.467437 g / cm^3
# Si number density = 24.730657 Si / 1000 Ang^3
#
#
#
# Elastic Constant Matrix: (Units=GPa)
#
#
# Indices 1 2 3 4 5 6 
#
# 1 103.9763 47.6455 28.1659 3.5174 1.9710 -1.1118
# 2 47.6455 165.3291 49.3614 12.4861 -0.4549 1.5633
# 3 28.1659 49.3614 112.2721 23.0509 2.1511 -15.9125
# 4 3.5174 12.4861 23.0509 23.5540 0.8471 1.9350
# 5 1.9710 -0.4549 2.1511 0.8471 27.4446 -2.8903
# 6 -1.1118 1.5633 -15.9125 1.9350 -2.8903 46.2519
#
#
#
# Elastic Compliance Matrix: (Units=1/GPa)
#
#
# Indices 1 2 3 4 5 6 
#
# 1 0.011412 -0.002812 -0.002062 0.001872 -0.000812 -0.000469
# 2 -0.002812 0.007744 -0.002672 -0.000990 0.000446 -0.001179
# 3 -0.002062 -0.002672 0.013879 -0.012294 -0.000043 0.005327
# 4 0.001872 -0.000990 -0.012294 0.055329 -0.001586 -0.006565
# 5 -0.000812 0.000446 -0.000043 -0.001586 0.036799 0.002316
# 6 -0.000469 -0.001179 0.005327 -0.006565 0.002316 0.023901
#
#
# Mechanical properties :
#
#
# Convention : Reuss Voigt Hill
#
# Bulk Modulus (GPa) = 55.73158 70.21366 62.97262
# Shear Modulus (GPa) = 29.38826 36.54374 32.96600
#
# Velocity S-wave (km/s) = 3.45096 3.84822 3.65499
# Velocity P-wave (km/s) = 6.20187 6.94248 6.58260
#
# Compressibility (1/GPa) = 0.01794315
#
# Stress axis : x y z
#
# Youngs Moduli (GPa) = 87.62834 129.13594 72.05259
#
# Poissons Ratio (x) = 0.36318 0.14855
# Poissons Ratio (y) = 0.24644 0.19249
# Poissons Ratio (z) = 0.18066 0.34499
#
# Static dielectric constant tensor:
#      x y z
#    x 4.633630 0.018190 0.130140 
#    y 0.018190 4.958340 0.099010 
#    z 0.130140 0.099010 4.362830 
# 
# 
# High freq. dielectric constant tensor:
#      x y z
#    x 1.976420 -0.007870 -0.005460 
#    y -0.007870 2.006840 -0.002040 
#    z -0.005460 -0.002040 1.965600 
# 
# From -- ./inp_files/10246.got.cif
#   From: 2010.06.25/outbox.cif.g09.slc.cpg/sg2_6_cif.got.tgz:10246.got - 2010.06.27 13:26:56.
