data_PCOD8033912
_publ_section_title
;
Structure prediction by ZEFSAII (Michael W. Deem and Ramdas Pophale) SiO2 
 PCOD8033912
Probable space group: P -1
;
_chemical_formula_sum "Si O2"
_cell_formula_units_Z 12
_cell_length_a 8.438372
_cell_length_b 12.665503
_cell_length_c 8.667504
_cell_angle_alpha 62.402276
_cell_angle_beta 135.170939
_cell_angle_gamma 121.899272
_cell_volume 548.349819
_symmetry_space_group_name_H-M "P -1"
_symmetry_group_IT_number 2
_symmetry_cell_setting 'triclinic'
loop_
_space_group_symop_operation_xyz
x,y,z
-x,-y,-z
loop_
_atom_site_type_symbol
_atom_site_label
_atom_site_fract_x
_atom_site_fract_y
_atom_site_fract_z
Si Si1 0.841915 0.822128 0.635834
Si Si2 0.108975 0.633951 0.914511
Si Si3 0.286951 0.991177 0.973882
Si Si4 0.351531 0.248375 0.780490
Si Si5 0.399266 0.867862 0.431110
Si Si6 0.025172 0.634464 0.499831
O O1 0.789626 0.821373 0.419595
O O2 0.607763 0.809529 0.580970
O O3 0.947611 0.710353 0.822529
O O4 0.042921 0.949354 0.738044
O O5 0.115323 0.632210 0.736162
O O6 0.377363 0.686461 0.124115
O O7 0.000000 0.500000 0.000000
O O8 0.324759 0.134509 0.961668
O O9 0.281308 0.897813 0.173305
O O10 0.500000 0.000000 0.000000
O O11 0.236465 0.350151 0.696896
O O12 0.203112 0.757414 0.458911
O O13 0.500000 0.000000 0.500000
O O14 0.000000 0.500000 0.500000
#
# Coordination Sequence:
#
# PCOD8033912 Si02
#       6
#     2   2   2   2   2   2
#     4  11  24  42  74 101 139 178 236 283 342 409
#     4  11  26  46  73  99 133 190 238 274 342 420
#     4  12  23  42  74 104 135 181 233 274 348 416
#     4  11  24  46  72 102 139 181 234 286 336 418
#     4  12  27  45  69 107 146 178 227 292 352 403
#     4  11  29  46  69 104 146 179 228 293 353 402
#
# _framework density 21.883841
#
# number of rings (size 3 to 8) (size 9 to 14) (size 15 to 20)
#    0.000    0.667    3.333    2.500    9.333    6.000 
#    0.000    0.000    0.000    0.000    0.000    0.000 
#    0.000    0.000    0.000    0.000    0.000    0.000 
#
# Total GULP energy -148771.216219 kJ/mol
# GULP energy per Si atom -12397.601352 kJ/mol
# Density = 2.183403 g / cm^3
# Si number density = 21.883841 Si / 1000 Ang^3
#
#
#
# Elastic Constant Matrix: (Units=GPa)
#
#
# Indices 1 2 3 4 5 6 
#
# 1 119.7555 63.0092 67.5914 -16.5941 10.1066 1.7436
# 2 63.0092 171.1703 63.5337 -20.4525 5.8686 10.2119
# 3 67.5914 63.5337 123.7215 -5.7235 17.4839 12.5649
# 4 -16.5941 -20.4525 -5.7235 40.3969 -1.1154 0.2802
# 5 10.1066 5.8686 17.4839 -1.1154 45.4239 -10.4031
# 6 1.7436 10.2119 12.5649 0.2802 -10.4031 50.9508
#
#
#
# Elastic Compliance Matrix: (Units=1/GPa)
#
#
# Indices 1 2 3 4 5 6 
#
# 1 0.013542 -0.002365 -0.006195 0.003480 0.000116 0.001543
# 2 -0.002365 0.008080 -0.002706 0.002753 0.000407 -0.000803
# 3 -0.006195 -0.002706 0.013744 -0.002065 -0.004420 -0.003526
# 4 0.003480 0.002753 -0.002065 0.027294 0.000277 -0.000255
# 5 0.000116 0.000407 -0.004420 0.000277 0.025045 0.006117
# 6 0.001543 -0.000803 -0.003526 -0.000255 0.006117 0.021855
#
#
# Mechanical properties :
#
#
# Convention : Reuss Voigt Hill
#
# Bulk Modulus (GPa) = 77.92698 89.21286 83.56992
# Shear Modulus (GPa) = 36.66471 42.05518 39.35995
#
# Velocity S-wave (km/s) = 4.09763 4.38853 4.24557
# Velocity P-wave (km/s) = 7.62064 8.15683 7.89329
#
# Compressibility (1/GPa) = 0.01283253
#
# Stress axis : x y z
#
# Youngs Moduli (GPa) = 73.84637 123.76275 72.75873
#
# Poissons Ratio (x) = 0.29276 0.45078
# Poissons Ratio (y) = 0.17468 0.19686
# Poissons Ratio (z) = 0.45751 0.33485
#
# Static dielectric constant tensor:
#      x y z
#    x 3.971130 -0.210230 0.451190 
#    y -0.210230 4.077070 -0.045960 
#    z 0.451190 -0.045960 4.064590 
# 
# 
# High freq. dielectric constant tensor:
#      x y z
#    x 1.858510 -0.002410 0.014070 
#    y -0.002410 1.871330 -0.007200 
#    z 0.014070 -0.007200 1.875920 
# 
# From -- ./inp_files/21553.got.cif
#   From: 2010.06.25/outbox.cif.g09.slc.cpg/sg2_11_cif.got.tgz:21553.got - 2010.06.27 13:26:56.
