data_PCOD8033449
_publ_section_title
;
Structure prediction by ZEFSAII (Michael W. Deem and Ramdas Pophale) SiO2 
 PCOD8033449
Probable space group: P -1
;
_chemical_formula_sum "Si O2"
_cell_formula_units_Z 14
_cell_length_a 14.185323
_cell_length_b 11.846684
_cell_length_c 9.549960
_cell_angle_alpha 48.560175
_cell_angle_beta 60.447843
_cell_angle_gamma 30.133264
_cell_volume 590.446616
_symmetry_space_group_name_H-M "P -1"
_symmetry_group_IT_number 2
_symmetry_cell_setting 'triclinic'
loop_
_space_group_symop_operation_xyz
x,y,z
-x,-y,-z
loop_
_atom_site_type_symbol
_atom_site_label
_atom_site_fract_x
_atom_site_fract_y
_atom_site_fract_z
Si Si1 0.381856 0.445222 0.368693
Si Si2 0.197710 0.684926 0.595021
Si Si3 0.399317 0.515462 0.863177
Si Si4 0.055952 0.519347 0.801880
Si Si5 0.144427 0.630303 0.140176
Si Si6 0.721279 0.853790 0.578131
Si Si7 0.242868 0.081317 0.816656
O O1 0.297422 0.610554 0.436387
O O2 0.525462 0.402381 0.226378
O O3 0.198927 0.616189 0.268189
O O4 0.507423 0.148957 0.537635
O O5 0.356521 0.550263 0.702156
O O6 0.160835 0.550520 0.744395
O O7 0.000000 0.000000 0.500000
O O8 0.202790 0.700717 0.936882
O O9 0.552799 0.220806 0.049349
O O10 0.201521 0.254411 0.820833
O O11 0.869905 0.772001 0.636353
O O12 0.000000 0.500000 0.000000
O O13 0.256733 0.349131 0.244270
O O14 0.916749 0.867701 0.100432
O O15 0.763908 0.837426 0.398080
#
# Coordination Sequence:
#
# PCOD8033449 Si02
#       7
#     2   2   2   2   2   2   2
#     4  12  26  45  72 100 141 185 235 283 352 417
#     4  12  28  48  70  98 144 191 230 283 356 414
#     4  12  28  45  69 107 142 180 237 288 342 414
#     4  11  25  45  74 103 138 187 234 284 347 411
#     4  11  24  46  74 104 140 180 232 287 351 408
#     4  11  23  46  72 106 139 180 235 289 348 415
#     4  11  25  45  75 104 145 174 236 293 345 413
#
# _framework density 23.710867
#
# number of rings (size 3 to 8) (size 9 to 14) (size 15 to 20)
#    0.000    0.571    1.429    7.286    8.000    1.143 
#    0.000    0.000    0.000    0.000    0.000    0.000 
#    0.000    0.000    0.000    0.000    0.000    0.000 
#
# Total GULP energy -173682.213626 kJ/mol
# GULP energy per Si atom -12405.872402 kJ/mol
# Density = 2.365690 g / cm^3
# Si number density = 23.710867 Si / 1000 Ang^3
#
#
#
# Elastic Constant Matrix: (Units=GPa)
#
#
# Indices 1 2 3 4 5 6 
#
# 1 105.4026 5.3658 8.8831 -10.1379 2.5022 -9.9589
# 2 5.3658 72.3307 19.0651 18.9323 4.1213 1.2225
# 3 8.8831 19.0651 76.5729 8.2463 6.7394 -2.2621
# 4 -10.1379 18.9323 8.2463 23.2034 -3.7401 -0.5059
# 5 2.5022 4.1213 6.7394 -3.7401 45.2501 10.0969
# 6 -9.9589 1.2225 -2.2621 -0.5059 10.0969 31.9334
#
#
#
# Elastic Compliance Matrix: (Units=1/GPa)
#
#
# Indices 1 2 3 4 5 6 
#
# 1 0.010745 -0.002350 -0.001282 0.007081 -0.000405 0.003590
# 2 -0.002350 0.019023 -0.002571 -0.016028 -0.002282 -0.001176
# 3 -0.001282 -0.002571 0.014545 -0.004005 -0.002518 0.001462
# 4 0.007081 -0.016028 -0.004005 0.061762 0.006439 0.001481
# 5 -0.000405 -0.002282 -0.002518 0.006439 0.025028 -0.008029
# 6 0.003590 -0.001176 0.001462 0.001481 -0.008029 0.035146
#
#
# Mechanical properties :
#
#
# Convention : Reuss Voigt Hill
#
# Bulk Modulus (GPa) = 31.34349 35.65937 33.50143
# Shear Modulus (GPa) = 26.41439 34.81018 30.61229
#
# Velocity S-wave (km/s) = 3.34132 3.83575 3.59704
# Velocity P-wave (km/s) = 5.30411 5.88975 5.60459
#
# Compressibility (1/GPa) = 0.03190455
#
# Stress axis : x y z
#
# Youngs Moduli (GPa) = 93.06606 52.56912 68.75406
#
# Poissons Ratio (x) = 0.12355 0.08816
# Poissons Ratio (y) = 0.21872 0.17680
# Poissons Ratio (z) = 0.11933 0.13518
#
# Static dielectric constant tensor:
#      x y z
#    x 4.559240 -0.043470 0.084590 
#    y -0.043470 4.248830 0.052490 
#    z 0.084590 0.052490 4.259010 
# 
# 
# High freq. dielectric constant tensor:
#      x y z
#    x 1.960530 -0.002310 0.002770 
#    y -0.002310 1.938530 0.004400 
#    z 0.002770 0.004400 1.941670 
# 
# From -- ./inp_files/188612.got.cif
#   From: 2010.06.25/outbox.cif.g09.slc.cpg/sg2_95_cif.got.tgz:188612.got - 2010.06.27 13:26:56.
