data_PCOD8033739
_publ_section_title
;
Structure prediction by ZEFSAII (Michael W. Deem and Ramdas Pophale) SiO2 
 PCOD8033739
Probable space group: P -1
;
_chemical_formula_sum "Si O2"
_cell_formula_units_Z 16
_cell_length_a 11.459618
_cell_length_b 25.701539
_cell_length_c 8.624212
_cell_angle_alpha 148.730719
_cell_angle_beta 137.861814
_cell_angle_gamma 32.083391
_cell_volume 698.919130
_symmetry_space_group_name_H-M "P -1"
_symmetry_group_IT_number 2
_symmetry_cell_setting 'triclinic'
loop_
_space_group_symop_operation_xyz
x,y,z
-x,-y,-z
loop_
_atom_site_type_symbol
_atom_site_label
_atom_site_fract_x
_atom_site_fract_y
_atom_site_fract_z
Si Si1 0.653474 0.364182 0.880006
Si Si2 0.010994 0.259567 0.551123
Si Si3 0.615700 0.732932 0.162755
Si Si4 0.477729 0.785894 0.809330
Si Si5 0.604321 0.535131 0.814857
Si Si6 0.143578 0.215893 0.907367
Si Si7 0.883343 0.973399 0.093320
Si Si8 0.750264 0.011560 0.399748
O O1 0.626671 0.274657 0.524376
O O2 0.906299 0.313839 0.005769
O O3 0.500000 0.500000 0.000000
O O4 0.576603 0.369759 0.993706
O O5 0.173477 0.270942 0.641444
O O6 0.115608 0.188646 0.634856
O O7 0.799352 0.401915 0.745464
O O8 0.965892 0.173135 0.190298
O O9 0.446656 0.843367 0.394524
O O10 0.508827 0.755502 0.945105
O O11 0.690760 0.601915 0.978952
O O12 0.299221 0.937154 0.990063
O O13 0.712179 0.732292 0.823105
O O14 0.500000 0.500000 0.500000
O O15 0.288762 0.081158 0.793368
O O16 0.027357 0.020353 0.390994
O O17 0.762620 0.985378 0.163103
#
# Coordination Sequence:
#
# PCOD8033739 Si02
#       8
#     2   2   2   2   2   2   2   2
#     4  12  25  47  71 100 139 179 226 279 335 402
#     4  11  25  45  66  99 138 180 223 279 339 399
#     4  11  25  44  68 101 137 174 229 278 335 408
#     4  11  25  46  72 103 135 179 224 281 341 399
#     4  12  26  45  68  98 137 182 227 273 339 401
#     4  11  25  45  70 105 133 177 229 278 340 402
#     4  11  24  42  70 101 136 178 223 280 343 397
#     4  11  24  41  69 104 135 174 227 281 337 405
#
# _framework density 22.892492000000001
#
# number of rings (size 3 to 8) (size 9 to 14) (size 15 to 20)
#    0.000    0.750    2.500    4.125    5.250    6.500 
#    2.250    0.000    0.000    0.000    0.000    0.000 
#    0.000    0.000    0.000    0.000    0.000    0.000 
#
# Total GULP energy -198450.904720 kJ/mol
# GULP energy per Si atom -12403.181545 kJ/mol
# Density = 2.284039 g / cm^3
# Si number density = 22.892492 Si / 1000 Ang^3
#
#
#
# Elastic Constant Matrix: (Units=GPa)
#
#
# Indices 1 2 3 4 5 6 
#
# 1 96.0012 5.5193 11.8977 14.8921 3.7360 -0.5009
# 2 5.5193 68.1748 10.0619 20.3813 7.7358 -4.6394
# 3 11.8977 10.0619 56.0366 19.4179 -2.6497 -0.4537
# 4 14.8921 20.3813 19.4179 32.8362 -1.0519 4.7956
# 5 3.7360 7.7358 -2.6497 -1.0519 30.9498 6.6938
# 6 -0.5009 -4.6394 -0.4537 4.7956 6.6938 40.3709
#
#
#
# Elastic Compliance Matrix: (Units=1/GPa)
#
#
# Indices 1 2 3 4 5 6 
#
# 1 0.011429 0.001263 -0.000740 -0.005798 -0.002245 0.001340
# 2 0.001263 0.019828 0.000874 -0.014355 -0.006626 0.005108
# 3 -0.000740 0.000874 0.022714 -0.013877 0.000946 0.001838
# 4 -0.005798 -0.014355 -0.013877 0.051757 0.006840 -0.009160
# 5 -0.002245 -0.006626 0.000946 0.006840 0.036193 -0.007592
# 6 0.001340 0.005108 0.001838 -0.009160 -0.007592 0.027742
#
#
# Mechanical properties :
#
#
# Convention : Reuss Voigt Hill
#
# Bulk Modulus (GPa) = 17.61632 30.57450 24.09541
# Shear Modulus (GPa) = 26.91205 33.68029 30.29617
#
# Velocity S-wave (km/s) = 3.43240 3.83983 3.64182
# Velocity P-wave (km/s) = 4.83947 5.74837 5.31339
#
# Compressibility (1/GPa) = 0.05676553
#
# Stress axis : x y z
#
# Youngs Moduli (GPa) = 87.49421 50.43383 44.02575
#
# Poissons Ratio (x) = -0.06370 0.03257
# Poissons Ratio (y) = -0.11051 -0.03847
# Poissons Ratio (z) = 0.06473 -0.04407
#
# Static dielectric constant tensor:
#      x y z
#    x 4.264630 0.141300 0.127750 
#    y 0.141300 5.082710 0.438370 
#    z 0.127750 0.438370 4.194260 
# 
# 
# High freq. dielectric constant tensor:
#      x y z
#    x 1.922560 0.005460 0.005240 
#    y 0.005460 1.907100 0.001710 
#    z 0.005240 0.001710 1.896530 
# 
# From -- ./inp_files/285896.got.cif
#   From: 2010.06.25/outbox.cif.g09.slc.cpg/sg2_143_cif.got.tgz:285896.got - 2010.06.27 13:26:56.
