data_PCOD8033983
_publ_section_title
;
Structure prediction by ZEFSAII (Michael W. Deem and Ramdas Pophale) SiO2 
 PCOD8033983
Probable space group: P -1
;
_chemical_formula_sum "Si O2"
_cell_formula_units_Z 12
_cell_length_a 22.046233
_cell_length_b 8.221087
_cell_length_c 21.303677
_cell_angle_alpha 140.518442
_cell_angle_beta 167.141792
_cell_angle_gamma 40.799980
_cell_volume 546.064059
_symmetry_space_group_name_H-M "P -1"
_symmetry_group_IT_number 2
_symmetry_cell_setting 'triclinic'
loop_
_space_group_symop_operation_xyz
x,y,z
-x,-y,-z
loop_
_atom_site_type_symbol
_atom_site_label
_atom_site_fract_x
_atom_site_fract_y
_atom_site_fract_z
Si Si1 0.651359 0.170521 0.451225
Si Si2 0.856273 0.763367 0.954883
Si Si3 0.484083 0.200557 0.902021
Si Si4 0.848816 0.528939 0.648675
Si Si5 0.015626 0.971226 0.433571
Si Si6 0.356403 0.868924 0.257787
O O1 0.397558 0.284315 0.269292
O O2 0.750039 0.395228 0.572644
O O3 0.568093 0.920868 0.254779
O O4 0.908659 0.079660 0.726539
O O5 0.750017 0.917629 0.833828
O O6 0.000000 0.500000 0.000000
O O7 0.249657 0.150930 0.700045
O O8 0.500000 0.500000 0.000000
O O9 0.749686 0.066857 0.158187
O O10 0.932021 0.325831 0.618693
O O11 0.591620 0.692003 0.409533
O O12 0.102690 0.702484 0.974378
O O13 0.000000 0.000000 0.500000
O O14 0.500000 0.000000 0.500000
#
# Coordination Sequence:
#
# PCOD8033983 Si02
#       6
#     2   2   2   2   2   2
#     4  11  24  45  68  95 132 175 218 268 327 388
#     4  12  26  44  67  98 131 171 219 273 327 389
#     4  11  24  43  68  99 133 174 217 269 328 387
#     4  11  24  45  68  95 132 175 218 268 327 388
#     4  11  24  43  68  99 133 174 217 269 328 387
#     4  12  26  44  67  98 131 171 219 273 327 389
#
# _framework density 21.975442999999999
#
# number of rings (size 3 to 8) (size 9 to 14) (size 15 to 20)
#    0.000    0.667    0.000    9.000    0.000    6.667 
#    0.000    0.000    0.000    0.000    0.000    0.000 
#    0.000    0.000    0.000    0.000    0.000    0.000 
#
# Total GULP energy -148850.639518 kJ/mol
# GULP energy per Si atom -12404.219960 kJ/mol
# Density = 2.192543 g / cm^3
# Si number density = 21.975443 Si / 1000 Ang^3
#
#
#
# Elastic Constant Matrix: (Units=GPa)
#
#
# Indices 1 2 3 4 5 6 
#
# 1 169.9262 85.5258 83.5074 -0.5286 -7.1238 -10.8684
# 2 85.5258 182.8151 84.6682 -7.6346 -7.4779 -2.0501
# 3 83.5074 84.6682 192.2338 -6.8298 -2.6363 -0.0525
# 4 -0.5286 -7.6346 -6.8298 52.8946 6.9754 -0.7241
# 5 -7.1238 -7.4779 -2.6363 6.9754 54.3550 -6.8761
# 6 -10.8684 -2.0501 -0.0525 -0.7241 -6.8761 21.6488
#
#
#
# Elastic Compliance Matrix: (Units=1/GPa)
#
#
# Indices 1 2 3 4 5 6 
#
# 1 0.008996 -0.002916 -0.002632 -0.000784 0.001337 0.004632
# 2 -0.002916 0.007883 -0.002173 0.000764 0.000428 -0.000561
# 3 -0.002632 -0.002173 0.007317 0.000659 -0.000585 -0.001673
# 4 -0.000784 0.000764 0.000659 0.019419 -0.002517 -0.000469
# 5 0.001337 0.000428 -0.000585 -0.002517 0.019801 0.006915
# 6 0.004632 -0.000561 -0.001673 -0.000469 0.006915 0.050641
#
#
# Mechanical properties :
#
#
# Convention : Reuss Voigt Hill
#
# Bulk Modulus (GPa) = 114.20995 116.93086 115.57040
# Shear Modulus (GPa) = 37.75987 45.19793 41.47890
#
# Velocity S-wave (km/s) = 4.14971 4.54006 4.34926
# Velocity P-wave (km/s) = 8.66282 8.98933 8.82759
#
# Compressibility (1/GPa) = 0.00875580
#
# Stress axis : x y z
#
# Youngs Moduli (GPa) = 111.16568 126.84844 136.66415
#
# Poissons Ratio (x) = 0.36984 0.35968
# Poissons Ratio (y) = 0.32411 0.29694
# Poissons Ratio (z) = 0.29257 0.27562
#
# Static dielectric constant tensor:
#      x y z
#    x 6.746780 2.354630 -0.130050 
#    y 2.354630 6.186850 -0.290970 
#    z -0.130050 -0.290970 4.690690 
# 
# 
# High freq. dielectric constant tensor:
#      x y z
#    x 1.866750 -0.005130 0.000960 
#    y -0.005130 1.869800 -0.006350 
#    z 0.000960 -0.006350 1.897560 
# 
# From -- ./inp_files/614009.got.cif
#   From: 2010.06.25/outbox.cif.g09.slc.cpg/sg2_308_cif.got.tgz:614009.got - 2010.06.27 13:26:56.
