data_PCOD8033184
_publ_section_title
;
Structure prediction by ZEFSAII (Michael W. Deem and Ramdas Pophale) SiO2 
 PCOD8033184
Probable space group: P -1
;
_chemical_formula_sum "Si O2"
_cell_formula_units_Z 14
_cell_length_a 14.253629
_cell_length_b 11.556334
_cell_length_c 19.710213
_cell_angle_alpha 29.830744
_cell_angle_beta 156.788614
_cell_angle_gamma 150.381218
_cell_volume 591.973178
_symmetry_space_group_name_H-M "P -1"
_symmetry_group_IT_number 2
_symmetry_cell_setting 'triclinic'
loop_
_space_group_symop_operation_xyz
x,y,z
-x,-y,-z
loop_
_atom_site_type_symbol
_atom_site_label
_atom_site_fract_x
_atom_site_fract_y
_atom_site_fract_z
Si Si1 0.357017 0.779771 0.222287
Si Si2 0.804057 0.188817 0.260927
Si Si3 0.070741 0.992876 0.176822
Si Si4 0.552503 0.538521 0.873974
Si Si5 0.802813 0.777296 0.601694
Si Si6 0.971490 0.806800 0.353143
Si Si7 0.810178 0.449886 0.267761
O O1 0.519920 0.783407 0.397926
O O2 0.224673 0.497387 0.251127
O O3 0.547817 0.942206 0.207345
O O4 0.150248 0.900992 0.038762
O O5 0.820922 0.245009 0.325162
O O6 0.054534 0.157879 0.410735
O O7 0.775478 0.425615 0.083408
O O8 0.337640 0.186735 0.226543
O O9 0.105723 0.941583 0.304919
O O10 0.990863 0.725040 0.221760
O O11 0.329354 0.345067 0.778830
O O12 0.467456 0.551816 0.890143
O O13 0.979590 0.967862 0.676324
O O14 0.094317 0.613900 0.562706
#
# Coordination Sequence:
#
# PCOD8033184 Si02
#       7
#     2   2   2   2   2   2   2
#     4  11  23  45  68  97 134 171 225 277 316 396
#     4  12  23  45  69  98 134 176 219 274 332 385
#     4  11  24  46  68 100 135 172 221 273 331 391
#     4  11  24  44  68 100 132 176 220 269 337 388
#     4  11  26  44  69 100 133 174 224 268 333 392
#     4  11  25  45  67  97 137 176 218 272 328 396
#     4  11  25  43  70  98 133 174 224 276 322 390
#
# _framework density 23.649719999999999
#
# number of rings (size 3 to 8) (size 9 to 14) (size 15 to 20)
#    0.000    0.857    5.714    2.571    0.000    6.286 
#    2.571    0.000    0.000    0.000    0.000    0.000 
#    0.000    0.000    0.000    0.000    0.000    0.000 
#
# Total GULP energy -173583.250931 kJ/mol
# GULP energy per Si atom -12398.803638 kJ/mol
# Density = 2.359589 g / cm^3
# Si number density = 23.649720 Si / 1000 Ang^3
#
#
#
# Elastic Constant Matrix: (Units=GPa)
#
#
# Indices 1 2 3 4 5 6 
#
# 1 79.4910 59.5274 6.0717 -0.4379 4.3092 10.4316
# 2 59.5274 171.0871 9.6904 -5.6033 -3.2107 19.8113
# 3 6.0717 9.6904 43.5738 -5.5872 3.0048 -8.6527
# 4 -0.4379 -5.6033 -5.5872 30.0152 7.4871 -3.1625
# 5 4.3092 -3.2107 3.0048 7.4871 24.1367 -12.3152
# 6 10.4316 19.8113 -8.6527 -3.1625 -12.3152 43.9971
#
#
#
# Elastic Compliance Matrix: (Units=1/GPa)
#
#
# Indices 1 2 3 4 5 6 
#
# 1 0.017798 -0.005815 -0.001504 -0.000099 -0.005489 -0.003441
# 2 -0.005815 0.008260 -0.001459 0.000713 0.000913 -0.002321
# 3 -0.001504 -0.001459 0.025491 0.005521 -0.001790 0.005923
# 4 -0.000099 0.000713 0.005521 0.037521 -0.012174 0.000078
# 5 -0.005489 0.000913 -0.001790 -0.012174 0.054083 0.014802
# 6 -0.003441 -0.002321 0.005923 0.000078 0.014802 0.029903
#
#
# Mechanical properties :
#
#
# Convention : Reuss Voigt Hill
#
# Bulk Modulus (GPa) = 29.41834 49.41454 39.41644
# Shear Modulus (GPa) = 24.75927 34.22064 29.48996
#
# Velocity S-wave (km/s) = 3.23912 3.80804 3.53505
# Velocity P-wave (km/s) = 5.14348 6.34623 5.77625
#
# Compressibility (1/GPa) = 0.03399240
#
# Stress axis : x y z
#
# Youngs Moduli (GPa) = 56.18523 121.06248 39.22932
#
# Poissons Ratio (x) = 0.70401 0.05901
# Poissons Ratio (y) = 0.32673 0.05724
# Poissons Ratio (z) = 0.08452 0.17663
#
# Static dielectric constant tensor:
#      x y z
#    x 3.851480 0.177790 -0.112870 
#    y 0.177790 4.554460 -0.267530 
#    z -0.112870 -0.267530 4.287640 
# 
# 
# High freq. dielectric constant tensor:
#      x y z
#    x 1.906510 0.012840 -0.006180 
#    y 0.012840 1.960000 -0.023640 
#    z -0.006180 -0.023640 1.949970 
# 
# From -- ./inp_files/403448.got.cif
#   From: 2010.06.25/outbox.cif.g09.slc.cpg/sg2_202_cif.got.tgz:403448.got - 2010.06.27 13:26:56.
