data_PCOD8033285
_publ_section_title
;
Structure prediction by ZEFSAII (Michael W. Deem and Ramdas Pophale) SiO2 
 PCOD8033285
Probable space group: P -1
;
_chemical_formula_sum "Si O2"
_cell_formula_units_Z 14
_cell_length_a 9.326469
_cell_length_b 20.889922
_cell_length_c 7.057537
_cell_angle_alpha 39.174518
_cell_angle_beta 51.825254
_cell_angle_gamma 45.764467
_cell_volume 613.181454
_symmetry_space_group_name_H-M "P -1"
_symmetry_group_IT_number 2
_symmetry_cell_setting 'triclinic'
loop_
_space_group_symop_operation_xyz
x,y,z
-x,-y,-z
loop_
_atom_site_type_symbol
_atom_site_label
_atom_site_fract_x
_atom_site_fract_y
_atom_site_fract_z
Si Si1 0.713309 0.679788 0.125704
Si Si2 0.000105 0.111800 0.831615
Si Si3 0.879148 0.335168 0.207401
Si Si4 0.787110 0.101580 0.384317
Si Si5 0.448565 0.682025 0.693227
Si Si6 0.329227 0.473366 0.789299
Si Si7 0.572196 0.907242 0.494740
O O1 0.579355 0.689576 0.394070
O O2 0.758490 0.571208 0.208087
O O3 0.611224 0.788172 0.826544
O O4 0.929498 0.666426 0.057943
O O5 0.921242 0.208519 0.516780
O O6 0.224251 0.093477 0.762459
O O7 0.837435 0.156046 0.032645
O O8 0.000000 0.000000 0.000000
O O9 0.683249 0.383205 0.119179
O O10 0.843802 0.411063 0.250368
O O11 0.707878 0.191962 0.408836
O O12 0.610334 0.061396 0.579823
O O13 0.000000 0.000000 0.500000
O O14 0.589417 0.618235 0.899144
O O15 0.500000 0.500000 0.500000
O O16 0.500000 0.000000 0.500000
#
# Coordination Sequence:
#
# PCOD8033285 Si02
#       7
#     2   2   2   2   2   2   2
#     4  11  26  48  71 103 145 185 236 296 351 422
#     4  11  23  45  72  99 140 187 233 291 356 420
#     4  11  25  45  75 104 137 192 238 284 357 422
#     4  12  26  42  66 106 141 182 238 293 350 426
#     4  12  26  47  70 105 146 181 236 296 355 415
#     4  12  24  48  75 104 143 187 235 293 353 417
#     4  11  24  44  72  97 137 191 234 288 358 418
#
# _framework density 22.83174
#
# number of rings (size 3 to 8) (size 9 to 14) (size 15 to 20)
#    0.000    0.571    4.286    3.429    4.000    2.286 
#    2.571    0.000    0.000    0.000    0.000    0.000 
#    0.000    0.000    0.000    0.000    0.000    0.000 
#
# Total GULP energy -173614.768915 kJ/mol
# GULP energy per Si atom -12401.054922 kJ/mol
# Density = 2.277977 g / cm^3
# Si number density = 22.831740 Si / 1000 Ang^3
#
#
#
# Elastic Constant Matrix: (Units=GPa)
#
#
# Indices 1 2 3 4 5 6 
#
# 1 132.7153 32.7004 65.7428 19.4875 -30.0192 -9.2729
# 2 32.7004 143.8810 44.2092 13.6322 -13.4354 10.8231
# 3 65.7428 44.2092 87.3475 7.8075 -22.1432 9.3734
# 4 19.4875 13.6322 7.8075 41.0577 -6.3544 1.5952
# 5 -30.0192 -13.4354 -22.1432 -6.3544 32.3674 1.8347
# 6 -9.2729 10.8231 9.3734 1.5952 1.8347 35.2370
#
#
#
# Elastic Compliance Matrix: (Units=1/GPa)
#
#
# Indices 1 2 3 4 5 6 
#
# 1 0.014958 0.000217 -0.010207 -0.004600 0.005709 0.006496
# 2 0.000217 0.008476 -0.003938 -0.002002 0.000714 -0.001445
# 3 -0.010207 -0.003938 0.023200 0.002953 0.005809 -0.008084
# 4 -0.004600 -0.002002 0.002953 0.027120 0.002403 -0.002734
# 5 0.005709 0.000714 0.005809 0.002403 0.041074 -0.002510
# 6 0.006496 -0.001445 -0.008084 -0.002734 -0.002510 0.032938
#
#
# Mechanical properties :
#
#
# Convention : Reuss Voigt Hill
#
# Bulk Modulus (GPa) = 53.25356 72.13875 62.69616
# Shear Modulus (GPa) = 27.49035 36.48517 31.98776
#
# Velocity S-wave (km/s) = 3.47369 4.00184 3.74708
# Velocity P-wave (km/s) = 6.28202 7.28130 6.80004
#
# Compressibility (1/GPa) = 0.01877809
#
# Stress axis : x y z
#
# Youngs Moduli (GPa) = 66.85262 117.98027 43.10348
#
# Poissons Ratio (x) = -0.02558 0.43995
# Poissons Ratio (y) = -0.01450 0.16974
# Poissons Ratio (z) = 0.68235 0.46461
#
# Static dielectric constant tensor:
#      x y z
#    x 4.654030 -0.247300 -0.036370 
#    y -0.247300 4.345160 0.107780 
#    z -0.036370 0.107780 4.160710 
# 
# 
# High freq. dielectric constant tensor:
#      x y z
#    x 1.910420 -0.002440 -0.018800 
#    y -0.002440 1.917290 0.001350 
#    z -0.018800 0.001350 1.895020 
# 
# From -- ./inp_files/46115.got.cif
#   From: 2010.06.25/outbox.cif.g09.slc.cpg/sg2_24_cif.got.tgz:46115.got - 2010.06.27 13:26:56.
