data_PCOD8033273
_publ_section_title
;
Structure prediction by ZEFSAII (Michael W. Deem and Ramdas Pophale) SiO2 
 PCOD8033273
Probable space group: P -1
;
_chemical_formula_sum "Si O2"
_cell_formula_units_Z 16
_cell_length_a 9.539456
_cell_length_b 18.096124
_cell_length_c 11.936536
_cell_angle_alpha 151.513742
_cell_angle_beta 129.609960
_cell_angle_gamma 48.625885
_cell_volume 728.208466
_symmetry_space_group_name_H-M "P -1"
_symmetry_group_IT_number 2
_symmetry_cell_setting 'triclinic'
loop_
_space_group_symop_operation_xyz
x,y,z
-x,-y,-z
loop_
_atom_site_type_symbol
_atom_site_label
_atom_site_fract_x
_atom_site_fract_y
_atom_site_fract_z
Si Si1 0.913074 0.473454 0.090698
Si Si2 0.394665 0.863269 0.765901
Si Si3 0.991482 0.610786 0.538707
Si Si4 0.419314 0.493279 0.570580
Si Si5 0.282337 0.360557 0.995936
Si Si6 0.187008 0.030753 0.088839
Si Si7 0.807316 0.139554 0.575064
Si Si8 0.463900 0.002583 0.617112
O O1 0.888639 0.545855 0.298481
O O2 0.127756 0.448152 0.125075
O O3 0.788583 0.610618 0.129136
O O4 0.846418 0.311671 0.840390
O O5 0.552734 0.692294 0.627164
O O6 0.268410 0.870736 0.602030
O O7 0.500000 0.000000 0.000000
O O8 0.260651 0.898145 0.853147
O O9 0.869648 0.788470 0.748033
O O10 0.000000 0.500000 0.500000
O O11 0.205677 0.602864 0.606377
O O12 0.500000 0.500000 0.500000
O O13 0.534446 0.573654 0.821531
O O14 0.328168 0.176157 0.808795
O O15 0.338756 0.021872 0.251805
O O16 0.000000 0.000000 0.000000
O O17 0.649755 0.122582 0.563689
O O18 0.000000 0.000000 0.500000
O O19 0.500000 0.000000 0.500000
#
# Coordination Sequence:
#
# PCOD8033273 Si02
#       8
#     2   2   2   2   2   2   2   2
#     4  11  25  45  72 104 144 183 244 295 356 435
#     4  12  26  48  76 106 144 188 252 295 355 435
#     4  12  28  45  70 105 147 187 235 297 363 420
#     4  12  24  45  74 104 135 191 243 291 353 429
#     4  11  23  45  72 104 136 187 243 298 351 426
#     4  12  28  46  72 108 146 188 235 302 364 422
#     4  12  27  46  75 108 141 196 243 302 363 429
#     4  12  27  47  71 104 148 188 239 298 371 433
#
# _framework density 21.971730999999998
#
# number of rings (size 3 to 8) (size 9 to 14) (size 15 to 20)
#    0.000    0.250    5.000    3.750    5.250    1.000 
#    0.000    1.875    0.000    0.000    0.000    0.000 
#    0.000    0.000    0.000    0.000    0.000    0.000 
#
# Total GULP energy -198450.272607 kJ/mol
# GULP energy per Si atom -12403.142038 kJ/mol
# Density = 2.192172 g / cm^3
# Si number density = 21.971731 Si / 1000 Ang^3
#
#
#
# Elastic Constant Matrix: (Units=GPa)
#
#
# Indices 1 2 3 4 5 6 
#
# 1 96.6123 15.7915 12.8862 -20.5192 8.2124 9.2700
# 2 15.7915 125.8213 26.3705 1.1963 1.0923 -0.2684
# 3 12.8862 26.3705 95.9954 -4.6137 11.6792 1.4274
# 4 -20.5192 1.1963 -4.6137 41.1082 4.7175 1.2244
# 5 8.2124 1.0923 11.6792 4.7175 42.6942 -3.3159
# 6 9.2700 -0.2684 1.4274 1.2244 -3.3159 38.6970
#
#
#
# Elastic Compliance Matrix: (Units=1/GPa)
#
#
# Indices 1 2 3 4 5 6 
#
# 1 0.012741 -0.001537 -0.000505 0.006832 -0.003303 -0.003543
# 2 -0.001537 0.008641 -0.002357 -0.001408 0.000925 0.000639
# 3 -0.000505 -0.002357 0.011608 0.001510 -0.003235 -0.000649
# 4 0.006832 -0.001408 0.001510 0.028622 -0.005090 -0.003044
# 5 -0.003303 0.000925 -0.003235 -0.005090 0.025737 0.003284
# 6 -0.003543 0.000639 -0.000649 -0.003044 0.003284 0.027097
#
#
# Mechanical properties :
#
#
# Convention : Reuss Voigt Hill
#
# Bulk Modulus (GPa) = 41.33571 47.61392 44.47482
# Shear Modulus (GPa) = 38.07814 42.05861 40.06837
#
# Velocity S-wave (km/s) = 4.16751 4.37992 4.27503
# Velocity P-wave (km/s) = 6.48163 6.87720 6.68234
#
# Compressibility (1/GPa) = 0.02419216
#
# Stress axis : x y z
#
# Youngs Moduli (GPa) = 78.48560 115.72118 86.14498
#
# Poissons Ratio (x) = 0.17787 0.04351
# Poissons Ratio (y) = 0.12064 0.20306
# Poissons Ratio (z) = 0.03964 0.27278
#
# Static dielectric constant tensor:
#      x y z
#    x 3.966790 -0.073620 0.041060 
#    y -0.073620 4.293510 0.136140 
#    z 0.041060 0.136140 3.790120 
# 
# 
# High freq. dielectric constant tensor:
#      x y z
#    x 1.868040 0.001260 0.007730 
#    y 0.001260 1.889800 0.000680 
#    z 0.007730 0.000680 1.869520 
# 
# From -- ./inp_files/299418.got.cif
#   From: 2010.06.25/outbox.cif.g09.slc.cpg/sg2_150_cif.got.tgz:299418.got - 2010.06.27 13:26:56.
