data_PCOD8033065
_publ_section_title
;
Structure prediction by ZEFSAII (Michael W. Deem and Ramdas Pophale) SiO2 
 PCOD8033065
Probable space group: P -1
;
_chemical_formula_sum "Si O2"
_cell_formula_units_Z 14
_cell_length_a 12.784073
_cell_length_b 9.786575
_cell_length_c 9.077045
_cell_angle_alpha 69.549036
_cell_angle_beta 52.536559
_cell_angle_gamma 43.406194
_cell_volume 610.449181
_symmetry_space_group_name_H-M "P -1"
_symmetry_group_IT_number 2
_symmetry_cell_setting 'triclinic'
loop_
_space_group_symop_operation_xyz
x,y,z
-x,-y,-z
loop_
_atom_site_type_symbol
_atom_site_label
_atom_site_fract_x
_atom_site_fract_y
_atom_site_fract_z
Si Si1 0.419099 0.707701 0.057391
Si Si2 0.035700 0.422242 0.790029
Si Si3 0.029418 0.982156 0.158560
Si Si4 0.803329 0.898097 0.462158
Si Si5 0.475240 0.666288 0.368554
Si Si6 0.868298 0.397150 0.190626
Si Si7 0.343706 0.207645 0.141635
O O1 0.229303 0.878996 0.072766
O O2 0.392770 0.714413 0.255669
O O3 0.500000 0.500000 0.000000
O O4 0.548478 0.744597 0.886376
O O5 0.821159 0.586283 0.876552
O O6 0.177323 0.232353 0.635497
O O7 0.116212 0.524554 0.699581
O O8 0.038563 0.325773 0.974416
O O9 0.986488 0.858059 0.316808
O O10 0.890633 0.206276 0.265222
O O11 0.000000 0.000000 0.000000
O O12 0.771526 0.823264 0.658320
O O13 0.636752 0.138714 0.502979
O O14 0.500000 0.500000 0.500000
O O15 0.675514 0.581031 0.209961
O O16 0.500000 0.000000 0.000000
#
# Coordination Sequence:
#
# PCOD8033065 Si02
#       7
#     2   2   2   2   2   2   2
#     4  12  27  47  78 106 150 200 248 305 380 442
#     4  11  24  43  72 108 143 193 240 306 373 439
#     4  12  25  48  76 107 145 198 251 308 370 447
#     4  12  26  45  75 106 152 189 253 308 376 438
#     4  12  26  47  73 111 147 192 251 313 368 444
#     4  11  23  44  73 101 147 190 245 299 374 440
#     4  12  24  49  71 107 152 191 246 307 371 445
#
# _framework density 22.93393
#
# number of rings (size 3 to 8) (size 9 to 14) (size 15 to 20)
#    0.000    0.286    5.714    3.000    0.000    4.571 
#    0.000    0.000    0.000    0.000    0.000    0.000 
#    0.000    0.000    0.000    0.000    0.000    0.000 
#
# Total GULP energy -173433.421296 kJ/mol
# GULP energy per Si atom -12388.101521 kJ/mol
# Density = 2.288173 g / cm^3
# Si number density = 22.933930 Si / 1000 Ang^3
#
#
#
# Elastic Constant Matrix: (Units=GPa)
#
#
# Indices 1 2 3 4 5 6 
#
# 1 164.9305 64.0282 45.5564 5.4080 2.6136 8.1025
# 2 64.0282 144.3878 45.8419 27.4624 15.6044 22.9093
# 3 45.5564 45.8419 115.1472 -1.9569 1.0591 15.9489
# 4 5.4080 27.4624 -1.9569 53.9350 17.1109 -0.1557
# 5 2.6136 15.6044 1.0591 17.1109 27.9497 0.0955
# 6 8.1025 22.9093 15.9489 -0.1557 0.0955 54.1448
#
#
#
# Elastic Compliance Matrix: (Units=1/GPa)
#
#
# Indices 1 2 3 4 5 6 
#
# 1 0.007739 -0.003116 -0.001921 0.000494 0.000784 0.000726
# 2 -0.003116 0.010836 -0.002665 -0.004369 -0.002971 -0.003341
# 3 -0.001921 -0.002665 0.010780 0.001904 0.000099 -0.001755
# 4 0.000494 -0.004369 0.001904 0.024887 -0.012920 0.001308
# 5 0.000784 -0.002971 0.000099 -0.012920 0.045267 0.000994
# 6 0.000726 -0.003341 -0.001755 0.001308 0.000994 0.020293
#
#
# Mechanical properties :
#
#
# Convention : Reuss Voigt Hill
#
# Bulk Modulus (GPa) = 71.67962 81.70205 76.69083
# Shear Modulus (GPa) = 35.75102 45.14185 40.44644
#
# Velocity S-wave (km/s) = 3.95254 4.44141 4.20409
# Velocity P-wave (km/s) = 7.22169 7.87425 7.55502
#
# Compressibility (1/GPa) = 0.01395097
#
# Stress axis : x y z
#
# Youngs Moduli (GPa) = 129.21488 92.28625 92.76384
#
# Poissons Ratio (x) = 0.28756 0.17817
# Poissons Ratio (y) = 0.40263 0.24725
# Poissons Ratio (z) = 0.24818 0.24597
#
# Static dielectric constant tensor:
#      x y z
#    x 4.359770 0.250980 -0.267820 
#    y 0.250980 4.140030 -0.237900 
#    z -0.267820 -0.237900 3.850920 
# 
# 
# High freq. dielectric constant tensor:
#      x y z
#    x 1.902030 0.019420 -0.018840 
#    y 0.019420 1.925340 0.005930 
#    z -0.018840 0.005930 1.904990 
# 
# From -- ./inp_files/242732.got.cif
#   From: 2010.06.25/outbox.cif.g09.slc.cpg/sg2_122_cif.got.tgz:242732.got - 2010.06.27 13:26:56.
