data_PCOD8033233
_publ_section_title
;
Structure prediction by ZEFSAII (Michael W. Deem and Ramdas Pophale) SiO2 
 PCOD8033233
Probable space group: P -1
;
_chemical_formula_sum "Si O2"
_cell_formula_units_Z 16
_cell_length_a 17.305035
_cell_length_b 12.261816
_cell_length_c 8.583098
_cell_angle_alpha 61.360781
_cell_angle_beta 151.327189
_cell_angle_gamma 125.840587
_cell_volume 705.605770
_symmetry_space_group_name_H-M "P -1"
_symmetry_group_IT_number 2
_symmetry_cell_setting 'triclinic'
loop_
_space_group_symop_operation_xyz
x,y,z
-x,-y,-z
loop_
_atom_site_type_symbol
_atom_site_label
_atom_site_fract_x
_atom_site_fract_y
_atom_site_fract_z
Si Si1 0.456637 0.825916 0.693896
Si Si2 0.577976 0.446436 0.317338
Si Si3 0.766793 0.048147 0.959779
Si Si4 0.747608 0.588233 0.050142
Si Si5 0.898249 0.190373 0.394207
Si Si6 0.942264 0.950107 0.759440
Si Si7 0.782535 0.316294 0.377253
Si Si8 0.857190 0.653020 0.861850
O O1 0.396514 0.689385 0.582194
O O2 0.359487 0.920644 0.403493
O O3 0.402082 0.783893 0.806225
O O4 0.662816 0.913952 0.972468
O O5 0.770842 0.553041 0.633920
O O6 0.500000 0.500000 0.000000
O O7 0.442924 0.420323 0.237699
O O8 0.850763 0.176885 0.136510
O O9 0.906103 0.017579 0.123616
O O10 0.790579 0.466759 0.281008
O O11 0.893624 0.728094 0.275513
O O12 0.748746 0.583680 0.869637
O O13 0.798935 0.266833 0.265477
O O14 0.834709 0.037953 0.453564
O O15 0.830852 0.790223 0.679467
O O16 0.000000 0.000000 0.000000
O O17 0.937933 0.316193 0.768153
#
# Coordination Sequence:
#
# PCOD8033233 Si02
#       8
#     2   2   2   2   2   2   2   2
#     4  11  25  45  64  94 141 176 219 278 336 393
#     4  12  27  43  66  99 138 178 220 280 334 394
#     4  11  26  43  67  99 132 175 227 278 331 399
#     4  11  24  45  67 101 137 173 227 276 333 400
#     4  11  24  41  72  97 131 176 224 278 335 392
#     4  12  22  44  69  96 133 172 222 273 333 402
#     4  11  23  45  70  98 137 173 230 271 336 402
#     4  11  25  43  70  99 130 183 222 273 336 399
#
# _framework density 22.675550999999999
#
# number of rings (size 3 to 8) (size 9 to 14) (size 15 to 20)
#    0.000    0.750    5.000    3.000    7.000    1.000 
#    0.000    0.000    0.000    0.000    0.000    0.000 
#    0.000    0.000    0.000    0.000    0.000    0.000 
#
# Total GULP energy -198375.192607 kJ/mol
# GULP energy per Si atom -12398.449538 kJ/mol
# Density = 2.262394 g / cm^3
# Si number density = 22.675551 Si / 1000 Ang^3
#
#
#
# Elastic Constant Matrix: (Units=GPa)
#
#
# Indices 1 2 3 4 5 6 
#
# 1 129.3102 16.8051 21.4139 21.3465 4.7503 2.6538
# 2 16.8051 107.1297 4.4083 7.7245 0.0717 3.0469
# 3 21.4139 4.4083 28.1749 17.1757 -10.2437 0.9310
# 4 21.3465 7.7245 17.1757 39.1130 -6.8509 -6.0415
# 5 4.7503 0.0717 -10.2437 -6.8509 30.6229 1.5095
# 6 2.6538 3.0469 0.9310 -6.0415 1.5095 45.0353
#
#
#
# Elastic Compliance Matrix: (Units=1/GPa)
#
#
# Indices 1 2 3 4 5 6 
#
# 1 0.009682 -0.001002 -0.007067 -0.002858 -0.004474 -0.000590
# 2 -0.001002 0.009621 0.000212 -0.001590 -0.000112 -0.000806
# 3 -0.007067 0.000212 0.059113 -0.019855 0.016627 -0.004041
# 4 -0.002858 -0.001590 -0.019855 0.037360 0.001886 0.005635
# 5 -0.004474 -0.000112 0.016627 0.001886 0.039390 -0.001140
# 6 -0.000590 -0.000806 -0.004041 0.005635 -0.001140 0.023172
#
#
# Mechanical properties :
#
#
# Convention : Reuss Voigt Hill
#
# Bulk Modulus (GPa) = 15.94870 38.87437 27.41154
# Shear Modulus (GPa) = 23.26088 37.75340 30.50714
#
# Velocity S-wave (km/s) = 3.20631 4.08479 3.67192
# Velocity P-wave (km/s) = 4.55587 6.27920 5.48563
#
# Compressibility (1/GPa) = 0.06270102
#
# Stress axis : x y z
#
# Youngs Moduli (GPa) = 103.28365 103.94334 16.91664
#
# Poissons Ratio (x) = 0.10417 0.11955
# Poissons Ratio (y) = 0.10351 -0.00358
# Poissons Ratio (z) = 0.72990 -0.02199
#
# Static dielectric constant tensor:
#      x y z
#    x 4.331620 0.146530 0.017860 
#    y 0.146530 4.325020 -0.038870 
#    z 0.017860 -0.038870 3.865010 
# 
# 
# High freq. dielectric constant tensor:
#      x y z
#    x 1.906650 0.004210 -0.002740 
#    y 0.004210 1.909240 -0.003270 
#    z -0.002740 -0.003270 1.870650 
# 
# From -- ./inp_files/205221.got.cif
#   From: 2010.06.25/outbox.cif.g09.slc.cpg/sg2_103_cif.got.tgz:205221.got - 2010.06.27 13:26:56.
