data_PCOD8033740
_publ_section_title
;
Structure prediction by ZEFSAII (Michael W. Deem and Ramdas Pophale) SiO2 
 PCOD8033740
Probable space group: P -1
;
_chemical_formula_sum "Si O2"
_cell_formula_units_Z 16
_cell_length_a 12.026031
_cell_length_b 9.286491
_cell_length_c 14.168612
_cell_angle_alpha 80.307909
_cell_angle_beta 151.956641
_cell_angle_gamma 93.583775
_cell_volume 720.544070
_symmetry_space_group_name_H-M "P -1"
_symmetry_group_IT_number 2
_symmetry_cell_setting 'triclinic'
loop_
_space_group_symop_operation_xyz
x,y,z
-x,-y,-z
loop_
_atom_site_type_symbol
_atom_site_label
_atom_site_fract_x
_atom_site_fract_y
_atom_site_fract_z
Si Si1 0.548714 0.246958 0.818753
Si Si2 0.185798 0.904362 0.420497
Si Si3 0.292184 0.271045 0.173793
Si Si4 0.292202 0.595096 0.895485
Si Si5 0.074116 0.124805 0.474576
Si Si6 0.973352 0.665819 0.223016
Si Si7 0.968736 0.924834 0.886596
Si Si8 0.515330 0.501521 0.400111
O O1 0.324895 0.170176 0.690761
O O2 0.469594 0.341630 0.653771
O O3 0.604586 0.348995 0.936705
O O4 0.781574 0.127301 0.977348
O O5 0.452349 0.823507 0.657865
O O6 0.972221 0.803428 0.280971
O O7 0.109071 0.054048 0.405664
O O8 0.200136 0.954866 0.317273
O O9 0.169415 0.209013 0.179116
O O10 0.299910 0.438982 0.193916
O O11 0.129224 0.271987 0.960115
O O12 0.124445 0.476427 0.801302
O O13 0.142306 0.731749 0.708049
O O14 0.500000 0.500000 0.000000
O O15 0.000000 0.000000 0.500000
O O16 0.256581 0.622236 0.434133
O O17 0.000000 0.000000 0.000000
O O18 0.500000 0.500000 0.500000
#
# Coordination Sequence:
#
# PCOD8033740 Si02
#       8
#     2   2   2   2   2   2   2   2
#     4  12  27  48  73 110 147 187 247 301 363 444
#     4  11  26  45  71 106 150 194 246 298 359 440
#     4  11  24  41  69 104 148 196 235 289 360 435
#     4  12  29  50  79 104 143 194 249 318 376 428
#     4  12  30  51  76 106 144 193 252 317 373 430
#     4  11  24  47  68 107 144 188 250 297 364 442
#     4  12  24  43  71 107 151 195 235 292 361 445
#     4  11  25  40  70 105 149 192 230 292 364 445
#
# _framework density 22.205442999999999
#
# number of rings (size 3 to 8) (size 9 to 14) (size 15 to 20)
#    0.000    0.500    5.000    1.875    8.750    2.000 
#    0.000    0.000    0.000    0.000    0.000    0.000 
#    0.000    0.000    0.000    0.000    0.000    0.000 
#
# Total GULP energy -198299.711538 kJ/mol
# GULP energy per Si atom -12393.731971 kJ/mol
# Density = 2.215490 g / cm^3
# Si number density = 22.205443 Si / 1000 Ang^3
#
#
#
# Elastic Constant Matrix: (Units=GPa)
#
#
# Indices 1 2 3 4 5 6 
#
# 1 86.8277 37.6847 20.9464 3.9484 5.6580 9.3564
# 2 37.6847 124.8047 38.6560 12.9395 11.5694 16.2464
# 3 20.9464 38.6560 77.8233 11.7521 -0.2621 14.2582
# 4 3.9484 12.9395 11.7521 37.6206 6.3198 -3.9675
# 5 5.6580 11.5694 -0.2621 6.3198 32.5251 -5.5182
# 6 9.3564 16.2464 14.2582 -3.9675 -5.5182 50.7395
#
#
#
# Elastic Compliance Matrix: (Units=1/GPa)
#
#
# Indices 1 2 3 4 5 6 
#
# 1 0.013592 -0.003287 -0.001905 0.000436 -0.001473 -0.001045
# 2 -0.003287 0.011029 -0.003885 -0.001910 -0.003411 -0.002354
# 3 -0.001905 -0.003885 0.016530 -0.004321 0.002151 -0.003154
# 4 0.000436 -0.001910 -0.004321 0.029690 -0.004595 0.003567
# 5 -0.001473 -0.003411 0.002151 -0.004595 0.033817 0.004078
# 6 -0.001045 -0.002354 -0.003154 0.003567 0.004078 0.022263
#
#
# Mechanical properties :
#
#
# Convention : Reuss Voigt Hill
#
# Bulk Modulus (GPa) = 43.48562 53.78108 48.63335
# Shear Modulus (GPa) = 32.73503 36.98829 34.86166
#
# Velocity S-wave (km/s) = 3.84368 4.08576 3.96657
# Velocity P-wave (km/s) = 6.27091 6.82131 6.55190
#
# Compressibility (1/GPa) = 0.02299611
#
# Stress axis : x y z
#
# Youngs Moduli (GPa) = 73.57362 90.67009 60.49625
#
# Poissons Ratio (x) = 0.29800 0.11526
# Poissons Ratio (y) = 0.24181 0.23506
# Poissons Ratio (z) = 0.14017 0.35230
#
# Static dielectric constant tensor:
#      x y z
#    x 4.117930 0.304100 0.062500 
#    y 0.304100 4.743530 0.207580 
#    z 0.062500 0.207580 4.155380 
# 
# 
# High freq. dielectric constant tensor:
#      x y z
#    x 1.859690 0.003860 -0.004330 
#    y 0.003860 1.901330 0.004580 
#    z -0.004330 0.004580 1.887130 
# 
# From -- ./inp_files/85104.got.cif
#   From: 2010.06.25/outbox.cif.g09.slc.cpg/sg2_43_cif.got.tgz:85104.got - 2010.06.27 13:26:56.
