data_PCOD8033868
_publ_section_title
;
Structure prediction by ZEFSAII (Michael W. Deem and Ramdas Pophale) SiO2 
 PCOD8033868
Probable space group: P -1
;
_chemical_formula_sum "Si O2"
_cell_formula_units_Z 16
_cell_length_a 8.938065
_cell_length_b 17.826158
_cell_length_c 11.737583
_cell_angle_alpha 148.857358
_cell_angle_beta 126.824428
_cell_angle_gamma 50.340348
_cell_volume 737.937035
_symmetry_space_group_name_H-M "P -1"
_symmetry_group_IT_number 2
_symmetry_cell_setting 'triclinic'
loop_
_space_group_symop_operation_xyz
x,y,z
-x,-y,-z
loop_
_atom_site_type_symbol
_atom_site_label
_atom_site_fract_x
_atom_site_fract_y
_atom_site_fract_z
Si Si1 0.571731 0.129631 0.353324
Si Si2 0.592069 0.912692 0.540569
Si Si3 0.200836 0.144681 0.051788
Si Si4 0.557692 0.416794 0.299009
Si Si5 0.107384 0.467382 0.390640
Si Si6 0.232535 0.601588 0.238770
Si Si7 0.895976 0.607657 0.252458
Si Si8 0.855049 0.101560 0.977606
O O1 0.559723 0.071736 0.402318
O O2 0.356824 0.155123 0.233956
O O3 0.652836 0.276054 0.577911
O O4 0.727455 0.001936 0.185299
O O5 0.686193 0.733685 0.329376
O O6 0.500000 0.000000 0.500000
O O7 0.767905 0.980315 0.726054
O O8 0.163764 0.292777 0.146967
O O9 0.986994 0.161543 0.028170
O O10 0.500000 0.500000 0.500000
O O11 0.703806 0.500851 0.429795
O O12 0.372808 0.453625 0.177308
O O13 0.673824 0.235894 0.124503
O O14 0.000000 0.500000 0.500000
O O15 0.996053 0.577033 0.382188
O O16 0.041356 0.667848 0.317053
O O17 0.154098 0.541908 0.011076
O O18 0.000000 0.000000 0.000000
#
# Coordination Sequence:
#
# PCOD8033868 Si02
#       8
#     2   2   2   2   2   2   2   2
#     4  11  25  43  70 104 134 182 232 288 339 411
#     4  12  27  46  70  99 141 181 230 280 351 416
#     4  11  24  42  70 103 140 178 231 289 339 407
#     4  12  25  39  71 105 136 183 235 286 340 412
#     4  12  23  43  68 101 137 177 232 282 343 402
#     4  11  25  46  70 100 139 179 231 283 352 407
#     4  11  26  47  69  99 140 184 223 290 349 419
#     4  12  25  43  69 100 141 183 229 282 347 405
#
# _framework density 21.682068000000001
#
# number of rings (size 3 to 8) (size 9 to 14) (size 15 to 20)
#    0.000    0.500    5.000    3.000    3.500    3.500 
#    0.000    1.875    0.000    0.000    0.000    0.000 
#    0.000    0.000    0.000    0.000    0.000    0.000 
#
# Total GULP energy -198221.140471 kJ/mol
# GULP energy per Si atom -12388.821279 kJ/mol
# Density = 2.163272 g / cm^3
# Si number density = 21.682068 Si / 1000 Ang^3
#
#
#
# Elastic Constant Matrix: (Units=GPa)
#
#
# Indices 1 2 3 4 5 6 
#
# 1 101.6903 22.1275 37.4962 -8.7249 -7.7143 3.1754
# 2 22.1275 102.3505 26.2659 2.3597 -10.6229 5.1805
# 3 37.4962 26.2659 99.9584 -0.1771 4.2550 3.1737
# 4 -8.7249 2.3597 -0.1771 40.7045 -4.3399 -4.3635
# 5 -7.7143 -10.6229 4.2550 -4.3399 39.8866 3.4805
# 6 3.1754 5.1805 3.1737 -4.3635 3.4805 33.8125
#
#
#
# Elastic Compliance Matrix: (Units=1/GPa)
#
#
# Indices 1 2 3 4 5 6 
#
# 1 0.012191 -0.001271 -0.004340 0.002922 0.002840 -0.000458
# 2 -0.001271 0.011116 -0.002519 -0.000792 0.003051 -0.001763
# 3 -0.004340 -0.002519 0.012424 -0.001065 -0.002934 -0.000208
# 4 0.002922 -0.000792 -0.001065 0.025876 0.003024 0.002975
# 5 0.002840 0.003051 -0.002934 0.003024 0.027326 -0.002881
# 6 -0.000458 -0.001763 -0.000208 0.002975 -0.002881 0.030588
#
#
# Mechanical properties :
#
#
# Convention : Reuss Voigt Hill
#
# Bulk Modulus (GPa) = 51.36294 52.86426 52.11360
# Shear Modulus (GPa) = 35.14368 37.42135 36.28252
#
# Velocity S-wave (km/s) = 4.03036 4.15892 4.09514
# Velocity P-wave (km/s) = 6.73788 6.89178 6.81526
#
# Compressibility (1/GPa) = 0.01946929
#
# Stress axis : x y z
#
# Youngs Moduli (GPa) = 82.02623 89.96134 80.49011
#
# Poissons Ratio (x) = 0.11436 0.34935
# Poissons Ratio (y) = 0.10427 0.20278
# Poissons Ratio (z) = 0.35602 0.22664
#
# Static dielectric constant tensor:
#      x y z
#    x 5.226100 0.587570 0.397210 
#    y 0.587570 4.123010 0.355360 
#    z 0.397210 0.355360 4.169520 
# 
# 
# High freq. dielectric constant tensor:
#      x y z
#    x 1.866620 -0.008500 0.003350 
#    y -0.008500 1.847820 0.005480 
#    z 0.003350 0.005480 1.861850 
# 
# From -- ./inp_files/403613.got.cif
#   From: 2010.06.25/outbox.cif.g09.slc.cpg/sg2_202_cif.got.tgz:403613.got - 2010.06.27 13:26:56.
