data_PCOD8033921
_publ_section_title
;
Structure prediction by ZEFSAII (Michael W. Deem and Ramdas Pophale) SiO2 
 PCOD8033921
Probable space group: P -1
;
_chemical_formula_sum "Si O2"
_cell_formula_units_Z 12
_cell_length_a 24.365994
_cell_length_b 5.392717
_cell_length_c 11.596828
_cell_angle_alpha 60.964426
_cell_angle_beta 158.271170
_cell_angle_gamma 120.258911
_cell_volume 486.567412
_symmetry_space_group_name_H-M "P -1"
_symmetry_group_IT_number 2
_symmetry_cell_setting 'triclinic'
loop_
_space_group_symop_operation_xyz
x,y,z
-x,-y,-z
loop_
_atom_site_type_symbol
_atom_site_label
_atom_site_fract_x
_atom_site_fract_y
_atom_site_fract_z
Si Si1 0.430672 0.800262 0.806968
Si Si2 0.616678 0.407367 0.662715
Si Si3 0.083221 0.726854 0.201852
Si Si4 0.130473 0.278804 0.560108
Si Si5 0.899918 0.737706 0.234536
Si Si6 0.568640 0.862279 0.833968
O O1 0.252568 0.789371 0.470775
O O2 0.481794 0.971501 0.748560
O O3 0.500000 0.500000 0.000000
O O4 0.500000 0.000000 0.000000
O O5 0.500000 0.500000 0.500000
O O6 0.553536 0.372125 0.417888
O O7 0.645094 0.104470 0.839065
O O8 0.769763 0.637703 0.909777
O O9 0.081582 0.578789 0.359328
O O10 0.000000 0.500000 0.000000
O O11 0.000000 0.000000 0.000000
O O12 0.167839 0.236253 0.776554
O O13 0.290331 0.273550 0.809950
O O14 0.996527 0.031792 0.311350
O O15 0.000000 0.500000 0.500000
#
# Coordination Sequence:
#
# PCOD8033921 Si02
#       6
#     2   2   2   2   2   2
#     4  12  28  51  84 114 149 215 271 321 401 478
#     4  11  24  43  72 113 155 199 256 328 396 472
#     4  12  30  54  78 117 159 209 269 339 398 472
#     4  11  25  47  73 110 153 207 266 323 401 480
#     4  11  24  42  76 110 151 207 254 322 406 478
#     4  11  25  46  75 112 153 202 267 326 392 481
#
# _framework density 24.662565000000001
#
# number of rings (size 3 to 8) (size 9 to 14) (size 15 to 20)
#    0.000    0.667    5.000    1.000    7.000    2.667 
#    0.000    0.000    0.000    0.000    0.000    0.000 
#    0.000    0.000    0.000    0.000    0.000    0.000 
#
# Total GULP energy -148729.119356 kJ/mol
# GULP energy per Si atom -12394.093280 kJ/mol
# Density = 2.460643 g / cm^3
# Si number density = 24.662565 Si / 1000 Ang^3
#
#
#
# Elastic Constant Matrix: (Units=GPa)
#
#
# Indices 1 2 3 4 5 6 
#
# 1 130.3382 52.8387 67.8536 19.1317 3.8365 -17.1235
# 2 52.8387 131.9221 84.8173 8.2996 3.3145 -15.9434
# 3 67.8536 84.8173 190.4235 27.9583 17.9416 -10.7693
# 4 19.1317 8.2996 27.9583 63.5979 -13.3863 -4.6693
# 5 3.8365 3.3145 17.9416 -13.3863 44.5528 -0.3578
# 6 -17.1235 -15.9434 -10.7693 -4.6693 -0.3578 45.9852
#
#
#
# Elastic Compliance Matrix: (Units=1/GPa)
#
#
# Indices 1 2 3 4 5 6 
#
# 1 0.010344 -0.002298 -0.002248 -0.001716 -0.000311 0.002352
# 2 -0.002298 0.011607 -0.004645 0.001754 0.001750 0.002273
# 3 -0.002248 -0.004645 0.009003 -0.003609 -0.004177 -0.000738
# 4 -0.001716 0.001754 -0.003609 0.019207 0.007251 0.001130
# 5 -0.000311 0.001750 -0.004177 0.007251 0.026206 0.000453
# 6 0.002352 0.002273 -0.000738 0.001130 0.000453 0.023355
#
#
# Mechanical properties :
#
#
# Convention : Reuss Voigt Hill
#
# Bulk Modulus (GPa) = 79.53717 95.96701 87.75209
# Shear Modulus (GPa) = 40.88427 47.30545 44.09486
#
# Velocity S-wave (km/s) = 4.07596 4.38437 4.23298
# Velocity P-wave (km/s) = 7.38048 8.03908 7.71681
#
# Compressibility (1/GPa) = 0.01257274
#
# Stress axis : x y z
#
# Youngs Moduli (GPa) = 96.67092 86.15144 111.07126
#
# Poissons Ratio (x) = 0.19795 0.24971
# Poissons Ratio (y) = 0.22212 0.51595
# Poissons Ratio (z) = 0.21734 0.40020
#
# Static dielectric constant tensor:
#      x y z
#    x 5.125020 0.936380 -0.153110 
#    y 0.936380 5.024820 -0.229380 
#    z -0.153110 -0.229380 4.519370 
# 
# 
# High freq. dielectric constant tensor:
#      x y z
#    x 1.981250 -0.004200 0.007630 
#    y -0.004200 1.984530 0.000330 
#    z 0.007630 0.000330 2.000610 
# 
# From -- ./inp_files/26283.got.cif
#   From: 2010.06.25/outbox.cif.g09.slc.cpg/sg2_14_cif.got.tgz:26283.got - 2010.06.27 13:26:56.
