data_PCOD8033427
_publ_section_title
;
Structure prediction by ZEFSAII (Michael W. Deem and Ramdas Pophale) SiO2 
 PCOD8033427
Probable space group: P -1
;
_chemical_formula_sum "Si O2"
_cell_formula_units_Z 16
_cell_length_a 9.257754
_cell_length_b 18.704711
_cell_length_c 11.645599
_cell_angle_alpha 27.185390
_cell_angle_beta 53.659821
_cell_angle_gamma 50.031701
_cell_volume 704.810037
_symmetry_space_group_name_H-M "P -1"
_symmetry_group_IT_number 2
_symmetry_cell_setting 'triclinic'
loop_
_space_group_symop_operation_xyz
x,y,z
-x,-y,-z
loop_
_atom_site_type_symbol
_atom_site_label
_atom_site_fract_x
_atom_site_fract_y
_atom_site_fract_z
Si Si1 0.565421 0.775382 0.408860
Si Si2 0.813627 0.710581 0.602653
Si Si3 0.531364 0.265052 0.873420
Si Si4 0.689099 0.032638 0.330775
Si Si5 0.704630 0.411712 0.163011
Si Si6 0.707083 0.869625 0.979131
Si Si7 0.232511 0.607262 0.584288
Si Si8 0.095125 0.845954 0.751778
O O1 0.705938 0.789740 0.423707
O O2 0.503595 0.611268 0.694140
O O3 0.375575 0.931812 0.261694
O O4 0.671103 0.767177 0.250759
O O5 0.033283 0.605143 0.625401
O O6 0.826684 0.858344 0.468406
O O7 0.698692 0.600019 0.875330
O O8 0.400422 0.437940 0.735079
O O9 0.683476 0.264634 0.702958
O O10 0.658491 0.170212 0.052142
O O11 0.387851 0.173744 0.027468
O O12 0.760686 0.104952 0.304277
O O13 0.500000 0.000000 0.500000
O O14 0.809581 0.349529 0.323092
O O15 0.805418 0.309324 0.152174
O O16 0.932563 0.806285 0.957914
O O17 0.000000 0.000000 0.500000
#
# Coordination Sequence:
#
# PCOD8033427 Si02
#       8
#     2   2   2   2   2   2   2   2
#     4  11  24  43  72 101 142 188 237 291 358 419
#     4  12  26  43  73 107 144 182 245 293 357 421
#     4  11  24  49  73 102 148 186 238 294 363 422
#     4  12  26  46  74 110 143 186 239 297 352 423
#     4  12  24  48  69 104 143 193 229 294 358 426
#     4  11  23  46  71 102 142 189 235 294 353 424
#     4  11  26  46  73 106 142 192 232 299 363 421
#     4  12  25  44  75 106 144 185 243 288 353 429
#
# _framework density 22.701153000000001
#
# number of rings (size 3 to 8) (size 9 to 14) (size 15 to 20)
#    0.000    0.500    3.750    4.500    1.750    1.500 
#    0.000    1.250    0.000    0.000    0.000    0.000 
#    0.000    0.000    0.000    0.000    0.000    0.000 
#
# Total GULP energy -198392.779000 kJ/mol
# GULP energy per Si atom -12399.548688 kJ/mol
# Density = 2.264948 g / cm^3
# Si number density = 22.701153 Si / 1000 Ang^3
#
#
#
# Elastic Constant Matrix: (Units=GPa)
#
#
# Indices 1 2 3 4 5 6 
#
# 1 136.1139 53.2084 43.5512 15.4568 -0.8997 5.9637
# 2 53.2084 102.2893 48.5944 15.6891 1.8070 5.5927
# 3 43.5512 48.5944 108.6517 11.2359 0.4509 -8.6833
# 4 15.4568 15.6891 11.2359 32.4598 -3.1274 -4.5874
# 5 -0.8997 1.8070 0.4509 -3.1274 38.9642 7.3993
# 6 5.9637 5.5927 -8.6833 -4.5874 7.3993 30.0322
#
#
#
# Elastic Compliance Matrix: (Units=1/GPa)
#
#
# Indices 1 2 3 4 5 6 
#
# 1 0.009864 -0.003519 -0.002329 -0.002480 0.000699 -0.002528
# 2 -0.003519 0.014966 -0.005162 -0.004389 -0.000273 -0.004184
# 3 -0.002329 -0.005162 0.012900 -0.000199 -0.000999 0.005369
# 4 -0.002480 -0.004389 -0.000199 0.035227 0.001801 0.006190
# 5 0.000699 -0.000273 -0.000999 0.001801 0.027139 -0.006788
# 6 -0.002528 -0.004184 0.005369 0.006190 -0.006788 0.038749
#
#
# Mechanical properties :
#
#
# Convention : Reuss Voigt Hill
#
# Bulk Modulus (GPa) = 63.65188 70.86256 67.25722
# Shear Modulus (GPa) = 30.10226 33.73798 31.92012
#
# Velocity S-wave (km/s) = 3.64541 3.85928 3.75387
# Velocity P-wave (km/s) = 6.76894 7.15136 6.96278
#
# Compressibility (1/GPa) = 0.01571046
#
# Stress axis : x y z
#
# Youngs Moduli (GPa) = 101.37463 66.81945 77.52035
#
# Poissons Ratio (x) = 0.23511 0.18052
# Poissons Ratio (y) = 0.35670 0.40019
# Poissons Ratio (z) = 0.23607 0.34495
#
# Static dielectric constant tensor:
#      x y z
#    x 1.561910 0.987740 0.081760 
#    y 0.987740 4.167150 0.092160 
#    z 0.081760 0.092160 4.293920 
# 
# 
# High freq. dielectric constant tensor:
#      x y z
#    x 1.901280 0.008330 -0.003280 
#    y 0.008330 1.893200 0.009870 
#    z -0.003280 0.009870 1.905920 
# 
# From -- ./inp_files/402628.got.cif
#   From: 2010.06.25/outbox.cif.g09.slc.cpg/sg2_202_cif.got.tgz:402628.got - 2010.06.27 13:26:56.
