data_PCOD8033614
_publ_section_title
;
Structure prediction by ZEFSAII (Michael W. Deem and Ramdas Pophale) SiO2 
 PCOD8033614
Probable space group: P -1
;
_chemical_formula_sum "Si O2"
_cell_formula_units_Z 16
_cell_length_a 21.015996
_cell_length_b 14.615506
_cell_length_c 17.591381
_cell_angle_alpha 143.602459
_cell_angle_beta 160.999007
_cell_angle_gamma 26.949039
_cell_volume 770.509951
_symmetry_space_group_name_H-M "P -1"
_symmetry_group_IT_number 2
_symmetry_cell_setting 'triclinic'
loop_
_space_group_symop_operation_xyz
x,y,z
-x,-y,-z
loop_
_atom_site_type_symbol
_atom_site_label
_atom_site_fract_x
_atom_site_fract_y
_atom_site_fract_z
Si Si1 0.231672 0.044589 0.237108
Si Si2 0.704484 0.486424 0.904660
Si Si3 0.024220 0.847544 0.819767
Si Si4 0.130840 0.898203 0.700359
Si Si5 0.287653 0.395429 0.841691
Si Si6 0.365531 0.175708 0.031639
Si Si7 0.848155 0.287852 0.555523
Si Si8 0.813021 0.886769 0.454960
O O1 0.177319 0.059450 0.275292
O O2 0.500000 0.000000 0.500000
O O3 0.984378 0.253550 0.052810
O O4 0.243264 0.865574 0.094983
O O5 0.458907 0.493021 0.633123
O O6 0.722488 0.576902 0.061306
O O7 0.625155 0.648510 0.857781
O O8 0.173521 0.607272 0.813799
O O9 0.858114 0.967045 0.634921
O O10 0.171452 0.815758 0.606583
O O11 0.008037 0.836279 0.574956
O O12 0.419315 0.789206 0.984617
O O13 0.944395 0.147541 0.646959
O O14 0.125524 0.324570 0.595378
O O15 0.053527 0.311655 0.782220
O O16 0.500000 0.000000 0.000000
O O17 0.514400 0.064043 0.204617
#
# Coordination Sequence:
#
# PCOD8033614 Si02
#       8
#     2   2   2   2   2   2   2   2
#     4  10  24  49  69  79 106 156 217 265 300 344
#     4  10  20  35  62  89 111 157 206 244 294 350
#     4  10  25  42  61  88 117 155 209 255 296 349
#     4  10  18  29  54  84 127 163 189 223 282 359
#     4  10  20  35  56  90 128 161 190 234 296 363
#     4  12  18  32  57  93 132 161 191 225 297 366
#     4  10  17  31  52  87 127 158 193 230 278 355
#     4  12  21  34  57  93 133 159 186 240 298 366
#
# _framework density 20.765469
#
# number of rings (size 3 to 8) (size 9 to 14) (size 15 to 20)
#    0.000    1.500    5.000    1.125    0.000    7.500 
#    0.000    0.625    0.000    1.500    0.000    0.000 
#    0.000    0.000    0.000    0.000    0.000    0.000 
#
# Total GULP energy -198246.913230 kJ/mol
# GULP energy per Si atom -12390.432077 kJ/mol
# Density = 2.071821 g / cm^3
# Si number density = 20.765469 Si / 1000 Ang^3
#
#
#
# Elastic Constant Matrix: (Units=GPa)
#
#
# Indices 1 2 3 4 5 6 
#
# 1 56.1199 34.0078 59.2969 -0.9764 1.5404 13.5110
# 2 34.0078 66.7990 34.7839 -8.2946 3.6617 12.7866
# 3 59.2969 34.7839 141.4992 -5.6008 19.6655 -0.9924
# 4 -0.9764 -8.2946 -5.6008 30.3462 1.8437 4.1856
# 5 1.5404 3.6617 19.6655 1.8437 45.3094 1.3204
# 6 13.5110 12.7866 -0.9924 4.1856 1.3204 18.4275
#
#
#
# Elastic Compliance Matrix: (Units=1/GPa)
#
#
# Indices 1 2 3 4 5 6 
#
# 1 0.056889 -0.010871 -0.022841 -0.001012 0.009945 -0.035880
# 2 -0.010871 0.023979 -0.000953 0.007526 -0.001160 -0.010346
# 3 -0.022841 -0.000953 0.018062 0.000193 -0.007544 0.018878
# 4 -0.001012 0.007526 0.000193 0.036876 -0.001787 -0.012718
# 5 0.009945 -0.001160 -0.007544 -0.001787 0.025415 -0.008309
# 6 -0.035880 -0.010346 0.018878 -0.012718 -0.008309 0.092254
#
#
# Mechanical properties :
#
#
# Convention : Reuss Voigt Hill
#
# Bulk Modulus (GPa) = 33.78387 57.84392 45.81390
# Shear Modulus (GPa) = 15.02982 27.90524 21.46753
#
# Velocity S-wave (km/s) = 2.69325 3.66980 3.21878
# Velocity P-wave (km/s) = 5.09667 6.77295 5.99370
#
# Compressibility (1/GPa) = 0.02959992
#
# Stress axis : x y z
#
# Youngs Moduli (GPa) = 17.57811 41.70252 55.36545
#
# Poissons Ratio (x) = 0.45335 1.26463
# Poissons Ratio (y) = 0.19109 0.05274
# Poissons Ratio (z) = 0.40151 0.03972
#
# Static dielectric constant tensor:
#      x y z
#    x 3.564520 0.293170 0.021430 
#    y 0.293170 3.627910 -0.182370 
#    z 0.021430 -0.182370 4.007610 
# 
# 
# High freq. dielectric constant tensor:
#      x y z
#    x 1.792900 0.033640 0.008470 
#    y 0.033640 1.781170 -0.008570 
#    z 0.008470 -0.008570 1.825100 
# 
# From -- ./inp_files/578219.got.cif
#   From: 2010.06.25/outbox.cif.g09.slc.cpg/sg2_290_cif.got.tgz:578219.got - 2010.06.27 13:26:56.
