data_PCOD8033596
_publ_section_title
;
Structure prediction by ZEFSAII (Michael W. Deem and Ramdas Pophale) SiO2 
 PCOD8033596
Probable space group: P -1
;
_chemical_formula_sum "Si O2"
_cell_formula_units_Z 16
_cell_length_a 13.753069
_cell_length_b 5.607802
_cell_length_c 15.263965
_cell_angle_alpha 50.673717
_cell_angle_beta 53.035786
_cell_angle_gamma 49.838537
_cell_volume 657.973212
_symmetry_space_group_name_H-M "P -1"
_symmetry_group_IT_number 2
_symmetry_cell_setting 'triclinic'
loop_
_space_group_symop_operation_xyz
x,y,z
-x,-y,-z
loop_
_atom_site_type_symbol
_atom_site_label
_atom_site_fract_x
_atom_site_fract_y
_atom_site_fract_z
Si Si1 0.661983 0.905092 0.631626
Si Si2 0.787229 0.827009 0.994690
Si Si3 0.103226 0.089243 0.727377
Si Si4 0.516554 0.802874 0.196225
Si Si5 0.087368 0.193869 0.380900
Si Si6 0.273527 0.819922 0.225006
Si Si7 0.596711 0.172159 0.425732
Si Si8 0.941133 0.597404 0.127624
O O1 0.781731 0.974581 0.590746
O O2 0.722517 0.520101 0.652850
O O3 0.558737 0.886664 0.767390
O O4 0.595429 0.200528 0.526128
O O5 0.906174 0.494313 0.963498
O O6 0.750109 0.150837 0.874552
O O7 0.655759 0.759224 0.090896
O O8 0.838966 0.883627 0.048639
O O9 0.086021 0.217469 0.807765
O O10 0.994195 0.398008 0.657412
O O11 0.249377 0.053859 0.631193
O O12 0.087046 0.743756 0.792330
O O13 0.415095 0.835843 0.164646
O O14 0.537737 0.507679 0.322739
O O15 0.141124 0.125714 0.267104
O O16 0.000000 0.000000 0.500000
O O17 0.500000 0.000000 0.500000
#
# Coordination Sequence:
#
# PCOD8033596 Si02
#       8
#     2   2   2   2   2   2   2   2
#     4  11  26  45  73 103 148 196 250 310 378 449
#     4  11  24  46  73 107 149 193 253 307 374 451
#     4  12  27  51  78 109 154 195 252 313 381 442
#     4  11  25  46  70 108 143 199 246 309 374 448
#     4  11  26  43  74 107 149 195 254 309 380 445
#     4  11  23  48  67 106 148 191 249 305 380 446
#     4  12  26  46  75 106 148 197 251 312 373 459
#     4  11  27  49  75 112 147 200 248 315 372 451
#
# _framework density 24.317097
#
# number of rings (size 3 to 8) (size 9 to 14) (size 15 to 20)
#    0.000    0.750    3.750    2.250    5.250    3.500 
#    6.750    0.000    0.000    0.000    0.000    0.000 
#    0.000    0.000    0.000    0.000    0.000    0.000 
#
# Total GULP energy -198212.166789 kJ/mol
# GULP energy per Si atom -12388.260424 kJ/mol
# Density = 2.426175 g / cm^3
# Si number density = 24.317097 Si / 1000 Ang^3
#
#
#
# Elastic Constant Matrix: (Units=GPa)
#
#
# Indices 1 2 3 4 5 6 
#
# 1 109.4560 40.9503 66.5470 16.9649 -6.0923 -12.0992
# 2 40.9503 56.9164 18.1207 -6.3862 -7.8275 0.2801
# 3 66.5470 18.1207 111.3119 4.4854 -5.1067 -6.6598
# 4 16.9649 -6.3862 4.4854 34.0936 -21.2680 0.6051
# 5 -6.0923 -7.8275 -5.1067 -21.2680 59.4161 3.1745
# 6 -12.0992 0.2801 -6.6598 0.6051 3.1745 39.5247
#
#
#
# Elastic Compliance Matrix: (Units=1/GPa)
#
#
# Indices 1 2 3 4 5 6 
#
# 1 0.027800 -0.019717 -0.012496 -0.021607 -0.008961 0.007595
# 2 -0.019717 0.034187 0.005434 0.022761 0.011451 -0.006631
# 3 -0.012496 0.005434 0.015331 0.007434 0.003503 -0.001676
# 4 -0.021607 0.022761 0.007434 0.057518 0.022449 -0.008207
# 5 -0.008961 0.011451 0.003503 0.022449 0.026006 -0.004667
# 6 0.007595 -0.006631 -0.001676 -0.008207 -0.004667 0.027891
#
#
# Mechanical properties :
#
#
# Convention : Reuss Voigt Hill
#
# Bulk Modulus (GPa) = 42.08995 58.76892 50.42944
# Shear Modulus (GPa) = 19.98312 36.74464 28.36388
#
# Velocity S-wave (km/s) = 2.86977 3.89146 3.41899
# Velocity P-wave (km/s) = 5.32232 6.66419 6.03069
#
# Compressibility (1/GPa) = 0.02375864
#
# Stress axis : x y z
#
# Youngs Moduli (GPa) = 35.97113 29.25079 65.22797
#
# Poissons Ratio (x) = 0.57675 0.81511
# Poissons Ratio (y) = 0.70926 -0.35445
# Poissons Ratio (z) = 0.44950 -0.15895
#
# Static dielectric constant tensor:
#      x y z
#    x 4.608580 -0.072230 0.079930 
#    y -0.072230 4.570520 0.548200 
#    z 0.079930 0.548200 4.170020 
# 
# 
# High freq. dielectric constant tensor:
#      x y z
#    x 1.981590 -0.025860 0.009950 
#    y -0.025860 1.960250 0.007260 
#    z 0.009950 0.007260 1.975340 
# 
# From -- ./inp_files/525510.got.cif
#   From: 2010.06.25/outbox.cif.g09.slc.cpg/sg2_263_cif.got.tgz:525510.got - 2010.06.27 13:26:56.
