data_PCOD8033095
_publ_section_title
;
Structure prediction by ZEFSAII (Michael W. Deem and Ramdas Pophale) SiO2 
 PCOD8033095
Probable space group: P -1
;
_chemical_formula_sum "Si O2"
_cell_formula_units_Z 12
_cell_length_a 7.629360
_cell_length_b 8.652954
_cell_length_c 15.049700
_cell_angle_alpha 30.645930
_cell_angle_beta 66.154260
_cell_angle_gamma 74.127340
_cell_volume 457.280181
_symmetry_space_group_name_H-M "P -1"
_symmetry_group_IT_number 2
_symmetry_cell_setting 'triclinic'
loop_
_space_group_symop_operation_xyz
x,y,z
-x,-y,-z
loop_
_atom_site_type_symbol
_atom_site_label
_atom_site_fract_x
_atom_site_fract_y
_atom_site_fract_z
Si Si1 0.309527 0.595459 0.034267
Si Si2 0.065276 0.371855 0.350440
Si Si3 0.870306 0.135579 0.767422
Si Si4 0.947594 0.176697 0.255555
Si Si5 0.499558 0.743431 0.303154
Si Si6 0.742358 0.577605 0.190422
O O1 0.267435 0.453642 0.212853
O O2 0.124558 0.468108 0.072070
O O3 0.500000 0.500000 0.000000
O O4 0.334827 0.965391 0.853742
O O5 0.072540 0.529114 0.368905
O O6 0.900633 0.508861 0.263345
O O7 0.021835 0.011315 0.566113
O O8 0.705817 0.139711 0.723191
O O9 0.052351 0.022452 0.735278
O O10 0.794816 0.914473 0.972878
O O11 0.745792 0.318336 0.239936
O O12 0.500000 0.500000 0.500000
O O13 0.541179 0.573174 0.286080
#
# Coordination Sequence:
#
# PCOD8033095 Si02
#       6
#     2   2   2   2   2   2
#     4  11  23  44  73  99 141 185 231 284 349 407
#     4  11  25  46  75 103 143 183 231 287 348 415
#     4  12  24  47  69 107 140 184 230 290 347 415
#     4  11  25  45  74 103 140 183 237 282 344 418
#     4  12  27  45  72 102 143 185 234 288 352 410
#     4  11  24  45  71 101 141 185 230 283 347 411
#
# _framework density 26.242118000000001
#
# number of rings (size 3 to 8) (size 9 to 14) (size 15 to 20)
#    0.000    0.667    3.333    5.000    4.667    0.000 
#    3.000    0.833    0.000    0.000    0.000    0.000 
#    0.000    0.000    0.000    0.000    0.000    0.000 
#
# Total GULP energy -148764.530176 kJ/mol
# GULP energy per Si atom -12397.044181 kJ/mol
# Density = 2.618239 g / cm^3
# Si number density = 26.242118 Si / 1000 Ang^3
#
#
#
# Elastic Constant Matrix: (Units=GPa)
#
#
# Indices 1 2 3 4 5 6 
#
# 1 35.2688 9.9129 10.8365 -15.4907 7.4819 -4.4053
# 2 9.9129 170.2730 16.7411 16.2468 -20.8937 -36.7379
# 3 10.8365 16.7411 148.9180 -13.5043 5.9869 -10.2664
# 4 -15.4907 16.2468 -13.5043 35.9463 -6.2586 -2.0126
# 5 7.4819 -20.8937 5.9869 -6.2586 31.9895 2.2418
# 6 -4.4053 -36.7379 -10.2664 -2.0126 2.2418 36.0860
#
#
#
# Elastic Compliance Matrix: (Units=1/GPa)
#
#
# Indices 1 2 3 4 5 6 
#
# 1 0.039598 -0.004742 -0.000289 0.017621 -0.008960 0.001464
# 2 -0.004742 0.009091 -0.000823 -0.005038 0.005668 0.007809
# 3 -0.000289 -0.000823 0.007237 0.002807 -0.001375 0.001427
# 4 0.017621 -0.005038 0.002807 0.038680 -0.000369 0.000001
# 5 -0.008960 0.005668 -0.001375 -0.000369 0.037106 0.001960
# 6 0.001464 0.007809 0.001427 0.000001 0.001960 0.036125
#
#
# Mechanical properties :
#
#
# Convention : Reuss Voigt Hill
#
# Bulk Modulus (GPa) = 22.61568 47.71567 35.16568
# Shear Modulus (GPa) = 25.73548 41.93563 33.83555
#
# Velocity S-wave (km/s) = 3.13500 4.00187 3.59466
# Velocity P-wave (km/s) = 4.66273 6.29092 5.53700
#
# Compressibility (1/GPa) = 0.04421712
#
# Stress axis : x y z
#
# Youngs Moduli (GPa) = 25.25364 109.99957 138.18029
#
# Poissons Ratio (x) = 0.52160 0.03999
# Poissons Ratio (y) = 0.11975 0.11376
# Poissons Ratio (z) = 0.00731 0.09056
#
# Static dielectric constant tensor:
#      x y z
#    x 4.236230 -0.272370 0.013910 
#    y -0.272370 5.556080 0.088950 
#    z 0.013910 0.088950 4.830770 
# 
# 
# High freq. dielectric constant tensor:
#      x y z
#    x 2.003810 -0.009580 0.020930 
#    y -0.009580 2.090690 0.005230 
#    z 0.020930 0.005230 2.069240 
# 
# From -- ./inp_files/151142.got.cif
#   From: 2010.06.25/outbox.cif.g09.slc.cpg/sg2_76_cif.got.tgz:151142.got - 2010.06.27 13:26:56.
