data_PCOD8033686
_publ_section_title
;
Structure prediction by ZEFSAII (Michael W. Deem and Ramdas Pophale) SiO2 
 PCOD8033686
Probable space group: P -1
;
_chemical_formula_sum "Si O2"
_cell_formula_units_Z 16
_cell_length_a 9.033581
_cell_length_b 11.861551
_cell_length_c 17.853743
_cell_angle_alpha 39.438903
_cell_angle_beta 137.088637
_cell_angle_gamma 143.515765
_cell_volume 690.434170
_symmetry_space_group_name_H-M "P -1"
_symmetry_group_IT_number 2
_symmetry_cell_setting 'triclinic'
loop_
_space_group_symop_operation_xyz
x,y,z
-x,-y,-z
loop_
_atom_site_type_symbol
_atom_site_label
_atom_site_fract_x
_atom_site_fract_y
_atom_site_fract_z
Si Si1 0.237229 0.916823 0.096377
Si Si2 0.246136 0.024495 0.765328
Si Si3 0.283469 0.687492 0.551210
Si Si4 0.603058 0.513104 0.430138
Si Si5 0.985278 0.804849 0.634329
Si Si6 0.309874 0.246049 0.072881
Si Si7 0.754131 0.932019 0.701415
Si Si8 0.052021 0.505958 0.328824
O O1 0.480717 0.945361 0.124201
O O2 0.107204 0.723082 0.206128
O O3 0.343081 0.132506 0.071753
O O4 0.000347 0.850778 0.986054
O O5 0.297032 0.245898 0.645530
O O6 0.149405 0.870792 0.736782
O O7 0.023156 0.938221 0.790495
O O8 0.228199 0.512467 0.558339
O O9 0.583254 0.813643 0.624834
O O10 0.124368 0.564338 0.628381
O O11 0.208581 0.839434 0.405473
O O12 0.310956 0.373742 0.365601
O O13 0.663501 0.446908 0.566750
O O14 0.093335 0.692709 0.680798
O O15 0.000000 0.000000 0.500000
O O16 0.380687 0.185599 0.209602
O O17 0.500000 0.500000 0.000000
#
# Coordination Sequence:
#
# PCOD8033686 Si02
#       8
#     2   2   2   2   2   2   2   2
#     4  11  27  46  74 105 133 184 246 284 352 409
#     4  12  25  44  67 107 143 186 228 290 348 423
#     4  11  24  40  70 111 143 190 225 277 356 426
#     4  12  23  41  61 105 152 182 230 273 357 421
#     4  12  23  39  61 100 151 187 227 276 345 420
#     4  11  27  53  75  99 135 184 241 301 345 417
#     4  11  24  46  70 102 146 186 231 285 355 413
#     4  12  23  41  70 106 142 188 228 289 343 423
#
# _framework density 23.173825000000001
#
# number of rings (size 3 to 8) (size 9 to 14) (size 15 to 20)
#    0.000    0.500    5.000    3.000    7.000    0.500 
#    0.000    0.625    0.000    0.000    0.000    0.000 
#    0.000    0.000    0.000    0.000    0.000    0.000 
#
# Total GULP energy -198332.637279 kJ/mol
# GULP energy per Si atom -12395.789830 kJ/mol
# Density = 2.312108 g / cm^3
# Si number density = 23.173825 Si / 1000 Ang^3
#
#
#
# Elastic Constant Matrix: (Units=GPa)
#
#
# Indices 1 2 3 4 5 6 
#
# 1 89.2476 34.6164 26.7365 0.8673 8.3427 4.8819
# 2 34.6164 131.4270 26.7974 -8.6965 -2.2083 -18.8979
# 3 26.7365 26.7974 75.0924 -0.3432 6.3967 -2.3413
# 4 0.8673 -8.6965 -0.3432 35.8302 4.7296 -2.9070
# 5 8.3427 -2.2083 6.3967 4.7296 33.1176 0.5595
# 6 4.8819 -18.8979 -2.3413 -2.9070 0.5595 37.2857
#
#
#
# Elastic Compliance Matrix: (Units=1/GPa)
#
#
# Indices 1 2 3 4 5 6 
#
# 1 0.014236 -0.003719 -0.003627 -0.001227 -0.002891 -0.004029
# 2 -0.003719 0.010058 -0.002208 0.002764 0.001544 0.005639
# 3 -0.003627 -0.002208 0.015600 0.000029 -0.002257 0.000371
# 4 -0.001227 0.002764 0.000029 0.029427 -0.003781 0.003914
# 5 -0.002891 0.001544 -0.002257 -0.003781 0.031998 0.000244
# 6 -0.004029 0.005639 0.000371 0.003914 0.000244 0.030530
#
#
# Mechanical properties :
#
#
# Convention : Reuss Voigt Hill
#
# Bulk Modulus (GPa) = 48.10811 52.45196 50.28004
# Shear Modulus (GPa) = 31.66814 35.08782 33.37798
#
# Velocity S-wave (km/s) = 3.70069 3.89538 3.79929
# Velocity P-wave (km/s) = 6.25019 6.55098 6.40235
#
# Compressibility (1/GPa) = 0.02078652
#
# Stress axis : x y z
#
# Youngs Moduli (GPa) = 70.24259 99.42052 64.10189
#
# Poissons Ratio (x) = 0.36979 0.23247
# Poissons Ratio (y) = 0.26126 0.14155
# Poissons Ratio (z) = 0.25474 0.21954
#
# Static dielectric constant tensor:
#      x y z
#    x 4.248080 -0.041730 0.310620 
#    y -0.041730 4.412110 0.326390 
#    z 0.310620 0.326390 4.040010 
# 
# 
# High freq. dielectric constant tensor:
#      x y z
#    x 1.924000 0.001200 0.017260 
#    y 0.001200 1.939800 0.013060 
#    z 0.017260 0.013060 1.892870 
# 
# From -- ./inp_files/559726.got.cif
#   From: 2010.06.25/outbox.cif.g09.slc.cpg/sg2_280_cif.got.tgz:559726.got - 2010.06.27 13:26:56.
