data_PCOD8033374
_publ_section_title
;
Structure prediction by ZEFSAII (Michael W. Deem and Ramdas Pophale) SiO2 
 PCOD8033374
Probable space group: P -1
;
_chemical_formula_sum "Si O2"
_cell_formula_units_Z 14
_cell_length_a 11.991909
_cell_length_b 6.633994
_cell_length_c 11.525795
_cell_angle_alpha 48.144893
_cell_angle_beta 75.155924
_cell_angle_gamma 84.713457
_cell_volume 656.199082
_symmetry_space_group_name_H-M "P -1"
_symmetry_group_IT_number 2
_symmetry_cell_setting 'triclinic'
loop_
_space_group_symop_operation_xyz
x,y,z
-x,-y,-z
loop_
_atom_site_type_symbol
_atom_site_label
_atom_site_fract_x
_atom_site_fract_y
_atom_site_fract_z
Si Si1 0.955364 0.219269 0.175130
Si Si2 0.536855 0.613059 0.070867
Si Si3 0.682106 0.145281 0.888280
Si Si4 0.386065 0.894599 0.636034
Si Si5 0.813669 0.310636 0.388796
Si Si6 0.897413 0.252424 0.636680
Si Si7 0.747225 0.914055 0.206213
O O1 0.926265 0.288572 0.288533
O O2 0.847412 0.101717 0.172362
O O3 0.052377 0.013473 0.225970
O O4 0.000000 0.500000 0.000000
O O5 0.418832 0.656534 0.154074
O O6 0.606808 0.406606 0.201984
O O7 0.500000 0.500000 0.000000
O O8 0.626909 0.884438 0.929633
O O9 0.794320 0.306872 0.732742
O O10 0.716774 0.054204 0.041586
O O11 0.288863 0.884585 0.566977
O O12 0.500000 0.000000 0.500000
O O13 0.361952 0.096259 0.671723
O O14 0.838004 0.189037 0.553578
O O15 0.784336 0.618511 0.287819
O O16 0.000000 0.500000 0.500000
#
# Coordination Sequence:
#
# PCOD8033374 Si02
#       7
#     2   2   2   2   2   2   2
#     4  11  26  45  72  97 134 186 228 283 346 412
#     4  11  24  46  67 103 135 182 234 284 348 412
#     4  11  26  43  72  98 139 182 234 285 343 421
#     4  11  26  42  70 101 139 179 227 293 354 408
#     4  11  25  46  66  98 142 175 234 281 352 414
#     4  12  27  46  70 106 142 185 231 292 351 411
#     4  11  23  46  67 101 134 182 233 281 343 424
#
# _framework density 21.334987000000002
#
# number of rings (size 3 to 8) (size 9 to 14) (size 15 to 20)
#    0.000    0.857    4.286    1.286    8.000    1.714 
#    0.000    0.000    0.000    0.000    0.000    0.000 
#    0.000    0.000    0.000    0.000    0.000    0.000 
#
# Total GULP energy -173610.426234 kJ/mol
# GULP energy per Si atom -12400.744731 kJ/mol
# Density = 2.128643 g / cm^3
# Si number density = 21.334987 Si / 1000 Ang^3
#
#
#
# Elastic Constant Matrix: (Units=GPa)
#
#
# Indices 1 2 3 4 5 6 
#
# 1 96.7304 31.4300 40.3544 18.4539 -0.5390 0.0975
# 2 31.4300 102.7624 21.4776 14.3370 -10.4960 4.4449
# 3 40.3544 21.4776 82.0150 16.9344 -14.7183 11.4711
# 4 18.4539 14.3370 16.9344 40.4472 -5.7233 9.5633
# 5 -0.5390 -10.4960 -14.7183 -5.7233 47.7950 10.9084
# 6 0.0975 4.4449 11.4711 9.5633 10.9084 39.8943
#
#
#
# Elastic Compliance Matrix: (Units=1/GPa)
#
#
# Indices 1 2 3 4 5 6 
#
# 1 0.015172 -0.003161 -0.007125 -0.004523 -0.004315 0.004628
# 2 -0.003161 0.011336 -0.000427 -0.001726 0.002431 -0.001384
# 3 -0.007125 -0.000427 0.018313 -0.001738 0.006772 -0.006636
# 4 -0.004523 -0.001726 -0.001738 0.030623 0.004497 -0.007868
# 5 -0.004315 0.002431 0.006772 0.004497 0.026431 -0.010513
# 6 0.004628 -0.001384 -0.006636 -0.007868 -0.010513 0.031878
#
#
# Mechanical properties :
#
#
# Convention : Reuss Voigt Hill
#
# Bulk Modulus (GPa) = 42.74511 52.00352 47.37432
# Shear Modulus (GPa) = 30.67914 38.17702 34.42808
#
# Velocity S-wave (km/s) = 3.79618 4.23473 4.02144
# Velocity P-wave (km/s) = 6.26844 6.95257 6.61935
#
# Compressibility (1/GPa) = 0.02339449
#
# Stress axis : x y z
#
# Youngs Moduli (GPa) = 65.91184 88.21266 54.60706
#
# Poissons Ratio (x) = 0.27884 0.38908
# Poissons Ratio (y) = 0.20835 0.02332
# Poissons Ratio (z) = 0.46962 0.03768
#
# Static dielectric constant tensor:
#      x y z
#    x 4.258970 -0.238920 0.343080 
#    y -0.238920 4.217380 -0.015580 
#    z 0.343080 -0.015580 4.172210 
# 
# 
# High freq. dielectric constant tensor:
#      x y z
#    x 1.855670 -0.004210 0.008680 
#    y -0.004210 1.851000 0.009390 
#    z 0.008680 0.009390 1.830900 
# 
# From -- ./inp_files/24027.got.cif
#   From: 2010.06.25/outbox.cif.g09.slc.cpg/sg2_13_cif.got.tgz:24027.got - 2010.06.27 13:26:56.
