data_PCOD8033735
_publ_section_title
;
Structure prediction by ZEFSAII (Michael W. Deem and Ramdas Pophale) SiO2 
 PCOD8033735
Probable space group: P -1
;
_chemical_formula_sum "Si O2"
_cell_formula_units_Z 14
_cell_length_a 9.885662
_cell_length_b 18.609823
_cell_length_c 13.525191
_cell_angle_alpha 33.213492
_cell_angle_beta 28.107857
_cell_angle_gamma 43.016962
_cell_volume 641.909668
_symmetry_space_group_name_H-M "P -1"
_symmetry_group_IT_number 2
_symmetry_cell_setting 'triclinic'
loop_
_space_group_symop_operation_xyz
x,y,z
-x,-y,-z
loop_
_atom_site_type_symbol
_atom_site_label
_atom_site_fract_x
_atom_site_fract_y
_atom_site_fract_z
Si Si1 0.418008 0.856384 0.257907
Si Si2 0.387231 0.940594 0.741352
Si Si3 0.804252 0.739008 0.790388
Si Si4 0.664215 0.637657 0.211143
Si Si5 0.839232 0.515280 0.876640
Si Si6 0.804964 0.575005 0.614528
Si Si7 0.741884 0.858385 0.249642
O O1 0.525796 0.753777 0.226772
O O2 0.574513 0.829790 0.290056
O O3 0.075345 0.839326 0.517507
O O4 0.500000 0.000000 0.000000
O O5 0.551075 0.809039 0.814013
O O6 0.500000 0.000000 0.500000
O O7 0.435607 0.041235 0.684959
O O8 0.055255 0.916653 0.958707
O O9 0.924984 0.622508 0.780098
O O10 0.663542 0.678379 0.049957
O O11 0.500000 0.500000 0.500000
O O12 0.996868 0.618517 0.049733
O O13 0.945095 0.564246 0.644711
O O14 0.501880 0.495158 0.115305
O O15 0.778507 0.726674 0.437517
O O16 0.000000 0.500000 0.500000
#
# Coordination Sequence:
#
# PCOD8033735 Si02
#       7
#     2   2   2   2   2   2   2
#     4  12  27  46  71 105 142 184 237 294 352 418
#     4  11  25  45  70  98 137 183 230 283 351 420
#     4  12  26  44  72 101 141 182 240 288 351 419
#     4  12  27  44  71 101 142 188 233 289 353 417
#     4  11  25  42  67 102 135 182 231 281 350 418
#     4  11  24  41  68  99 137 176 230 288 344 414
#     4  11  25  43  68  97 137 177 227 287 348 406
#
# _framework density 21.809923000000001
#
# number of rings (size 3 to 8) (size 9 to 14) (size 15 to 20)
#    0.000    0.571    1.429    5.571    6.000   10.286 
#    0.000    0.000    0.000    0.000    0.000    0.000 
#    0.000    0.000    0.000    0.000    0.000    0.000 
#
# Total GULP energy -173663.821049 kJ/mol
# GULP energy per Si atom -12404.558646 kJ/mol
# Density = 2.176028 g / cm^3
# Si number density = 21.809923 Si / 1000 Ang^3
#
#
#
# Elastic Constant Matrix: (Units=GPa)
#
#
# Indices 1 2 3 4 5 6 
#
# 1 108.4791 28.1439 45.9229 14.1775 27.2852 7.4761
# 2 28.1439 122.1915 41.7091 4.7601 12.4845 3.2631
# 3 45.9229 41.7091 123.3437 -0.2818 22.5959 11.1131
# 4 14.1775 4.7601 -0.2818 38.9547 -1.9978 1.4915
# 5 27.2852 12.4845 22.5959 -1.9978 42.3259 -3.8396
# 6 7.4761 3.2631 11.1131 1.4915 -3.8396 42.9184
#
#
#
# Elastic Compliance Matrix: (Units=1/GPa)
#
#
# Indices 1 2 3 4 5 6 
#
# 1 0.013399 -0.001030 -0.003193 -0.005063 -0.007039 -0.001883
# 2 -0.001030 0.009442 -0.002692 -0.000840 -0.000713 0.000124
# 3 -0.003193 -0.002692 0.011010 0.001501 -0.003175 -0.002426
# 4 -0.005063 -0.000840 0.001501 0.027835 0.004020 -0.000051
# 5 -0.007039 -0.000713 -0.003175 0.004020 0.030686 0.004708
# 6 -0.001883 0.000124 -0.002426 -0.000051 0.004708 0.024670
#
#
# Mechanical properties :
#
#
# Convention : Reuss Voigt Hill
#
# Bulk Modulus (GPa) = 49.94460 65.06289 57.50375
# Shear Modulus (GPa) = 36.35166 40.72238 38.53702
#
# Velocity S-wave (km/s) = 4.08701 4.32574 4.20807
# Velocity P-wave (km/s) = 6.72467 7.40580 7.07344
#
# Compressibility (1/GPa) = 0.02002218
#
# Stress axis : x y z
#
# Youngs Moduli (GPa) = 74.63176 105.90800 90.82503
#
# Poissons Ratio (x) = 0.10904 0.29000
# Poissons Ratio (y) = 0.07684 0.24451
# Poissons Ratio (z) = 0.23830 0.28512
#
# Static dielectric constant tensor:
#      x y z
#    x 3.698500 0.259730 0.622150 
#    y 0.259730 3.956980 -0.332840 
#    z 0.622150 -0.332840 3.398090 
# 
# 
# High freq. dielectric constant tensor:
#      x y z
#    x 1.872380 -0.003840 0.003930 
#    y -0.003840 1.870730 0.007220 
#    z 0.003930 0.007220 1.871910 
# 
# From -- ./inp_files/72454.got.cif
#   From: 2010.06.25/outbox.cif.g09.slc.cpg/sg2_37_cif.got.tgz:72454.got - 2010.06.27 13:26:56.
