data_PCOD8033798
_publ_section_title
;
Structure prediction by ZEFSAII (Michael W. Deem and Ramdas Pophale) SiO2 
 PCOD8033798
Probable space group: P -1
;
_chemical_formula_sum "Si O2"
_cell_formula_units_Z 16
_cell_length_a 13.254223
_cell_length_b 14.665214
_cell_length_c 8.465285
_cell_angle_alpha 78.617209
_cell_angle_beta 119.602743
_cell_angle_gamma 50.967992
_cell_volume 731.517860
_symmetry_space_group_name_H-M "P -1"
_symmetry_group_IT_number 2
_symmetry_cell_setting 'triclinic'
loop_
_space_group_symop_operation_xyz
x,y,z
-x,-y,-z
loop_
_atom_site_type_symbol
_atom_site_label
_atom_site_fract_x
_atom_site_fract_y
_atom_site_fract_z
Si Si1 0.891924 0.312739 0.412582
Si Si2 0.039793 0.094935 0.125595
Si Si3 0.216564 0.408240 0.744314
Si Si4 0.697050 0.450759 0.876897
Si Si5 0.410023 0.967621 0.360939
Si Si6 0.798733 0.582344 0.893390
Si Si7 0.396457 0.974475 0.975948
Si Si8 0.191077 0.800325 0.391274
O O1 0.824008 0.457583 0.390900
O O2 0.742670 0.410478 0.109748
O O3 0.817128 0.272227 0.458870
O O4 0.158109 0.125413 0.653434
O O5 0.798273 0.289904 0.931979
O O6 0.196289 0.078976 0.255634
O O7 0.139389 0.941806 0.360988
O O8 0.006083 0.085829 0.922944
O O9 0.000000 0.500000 0.500000
O O10 0.234230 0.384531 0.955134
O O11 0.436746 0.220959 0.887293
O O12 0.819547 0.460041 0.905263
O O13 0.438645 0.631309 0.570512
O O14 0.585179 0.766051 0.577466
O O15 0.500000 0.000000 0.500000
O O16 0.355095 0.011814 0.118364
O O17 0.000000 0.500000 0.000000
O O18 0.500000 0.000000 0.000000
#
# Coordination Sequence:
#
# PCOD8033798 Si02
#       8
#     2   2   2   2   2   2   2   2
#     4  11  26  43  69 100 135 180 226 278 339 406
#     4  11  25  44  71  98 136 178 225 281 339 398
#     4  11  24  43  68  99 140 181 222 279 340 409
#     4  11  25  43  71  97 133 179 227 280 338 403
#     4  12  25  43  70 102 139 179 223 286 343 403
#     4  11  24  42  66 104 140 174 227 280 342 409
#     4  12  25  43  68 100 141 181 225 276 346 412
#     4  11  24  49  65  98 138 175 233 278 331 406
#
# _framework density 21.872330999999999
#
# number of rings (size 3 to 8) (size 9 to 14) (size 15 to 20)
#    0.000    0.750    3.750    3.000    5.250    3.500 
#    0.000    0.000    0.000    0.000    0.000    0.000 
#    0.000    0.000    0.000    0.000    0.000    0.000 
#
# Total GULP energy -198313.018072 kJ/mol
# GULP energy per Si atom -12394.563629 kJ/mol
# Density = 2.182255 g / cm^3
# Si number density = 21.872331 Si / 1000 Ang^3
#
#
#
# Elastic Constant Matrix: (Units=GPa)
#
#
# Indices 1 2 3 4 5 6 
#
# 1 162.1004 36.2357 32.9584 -12.8903 -9.5069 21.3634
# 2 36.2357 91.0844 18.3990 -29.4256 -4.5969 15.5372
# 3 32.9584 18.3990 92.0848 -22.5407 2.0040 11.2686
# 4 -12.8903 -29.4256 -22.5407 46.5575 2.0644 -3.0090
# 5 -9.5069 -4.5969 2.0040 2.0644 42.6100 -5.4343
# 6 21.3634 15.5372 11.2686 -3.0090 -5.4343 25.6330
#
#
#
# Elastic Compliance Matrix: (Units=1/GPa)
#
#
# Indices 1 2 3 4 5 6 
#
# 1 0.007578 -0.002012 -0.001939 -0.000422 0.001067 -0.004067
# 2 -0.002012 0.015881 0.000725 0.009373 -0.000142 -0.007198
# 3 -0.001939 0.000725 0.013525 0.006266 -0.001859 -0.004428
# 4 -0.000422 0.009373 0.006266 0.030069 -0.001455 -0.004862
# 5 0.001067 -0.000142 -0.001859 -0.001455 0.024491 0.005036
# 6 -0.004067 -0.007198 -0.004428 -0.004862 0.005036 0.049208
#
#
# Mechanical properties :
#
#
# Convention : Reuss Voigt Hill
#
# Bulk Modulus (GPa) = 32.75245 57.82842 45.29044
# Shear Modulus (GPa) = 31.76975 40.13853 35.95414
#
# Velocity S-wave (km/s) = 3.81531 4.28849 4.05880
# Velocity P-wave (km/s) = 5.86649 7.14269 6.53581
#
# Compressibility (1/GPa) = 0.03053206
#
# Stress axis : x y z
#
# Youngs Moduli (GPa) = 131.96066 62.96707 73.93882
#
# Poissons Ratio (x) = 0.12668 0.14338
# Poissons Ratio (y) = 0.26549 -0.05361
# Poissons Ratio (z) = 0.25590 -0.04566
#
# Static dielectric constant tensor:
#      x y z
#    x 4.028380 0.444670 -0.146290 
#    y 0.444670 3.886150 -0.232700 
#    z -0.146290 -0.232700 3.771290 
# 
# 
# High freq. dielectric constant tensor:
#      x y z
#    x 1.870480 0.016990 -0.001940 
#    y 0.016990 1.848870 -0.010210 
#    z -0.001940 -0.010210 1.880970 
# 
# From -- ./inp_files/272607.got.cif
#   From: 2010.06.25/outbox.cif.g09.slc.cpg/sg2_137_cif.got.tgz:272607.got - 2010.06.27 13:26:56.
