data_PCOD8033699
_publ_section_title
;
Structure prediction by ZEFSAII (Michael W. Deem and Ramdas Pophale) SiO2 
 PCOD8033699
Probable space group: P -1
;
_chemical_formula_sum "Si O2"
_cell_formula_units_Z 14
_cell_length_a 11.385561
_cell_length_b 12.254517
_cell_length_c 11.039361
_cell_angle_alpha 72.861829
_cell_angle_beta 145.666415
_cell_angle_gamma 84.189337
_cell_volume 638.330274
_symmetry_space_group_name_H-M "P -1"
_symmetry_group_IT_number 2
_symmetry_cell_setting 'triclinic'
loop_
_space_group_symop_operation_xyz
x,y,z
-x,-y,-z
loop_
_atom_site_type_symbol
_atom_site_label
_atom_site_fract_x
_atom_site_fract_y
_atom_site_fract_z
Si Si1 0.992351 0.524103 0.342546
Si Si2 0.592622 0.564926 0.648142
Si Si3 0.858372 0.666226 0.683695
Si Si4 0.550618 0.018691 0.843931
Si Si5 0.901135 0.255366 0.665863
Si Si6 0.309666 0.898889 0.831206
Si Si7 0.560888 0.348013 0.128144
O O1 0.000000 0.500000 0.500000
O O2 0.157994 0.372325 0.456712
O O3 0.099934 0.608336 0.367359
O O4 0.679193 0.620528 0.004751
O O5 0.500000 0.500000 0.500000
O O6 0.705618 0.634697 0.652945
O O7 0.332197 0.703576 0.454944
O O8 0.829715 0.427773 0.978977
O O9 0.700856 0.842937 0.492956
O O10 0.466261 0.931872 0.866212
O O11 0.645876 0.082588 0.998565
O O12 0.802575 0.902732 0.005696
O O13 0.833830 0.243216 0.473658
O O14 0.421786 0.731065 0.955975
O O15 0.000000 0.000000 0.500000
O O16 0.500000 0.500000 0.000000
#
# Coordination Sequence:
#
# PCOD8033699 Si02
#       7
#     2   2   2   2   2   2   2
#     4  12  23  40  68 103 140 176 227 280 344 417
#     4  11  25  48  72  96 132 185 243 293 332 400
#     4  11  26  45  71 100 134 181 238 286 343 412
#     4  11  26  43  66 102 143 182 224 284 354 417
#     4  12  24  43  67  98 138 180 228 287 339 406
#     4  11  24  41  63 100 152 184 214 275 356 424
#     4  12  24  38  65 101 139 184 227 274 338 410
#
# _framework density 21.932220000000001
#
# number of rings (size 3 to 8) (size 9 to 14) (size 15 to 20)
#    0.000    0.571    7.143    0.857    4.000    1.714 
#    0.000    0.714    0.000    0.000    0.000    0.000 
#    0.000    0.000    0.000    0.000    0.000    0.000 
#
# Total GULP energy -173561.590766 kJ/mol
# GULP energy per Si atom -12397.256483 kJ/mol
# Density = 2.188230 g / cm^3
# Si number density = 21.932220 Si / 1000 Ang^3
#
#
#
# Elastic Constant Matrix: (Units=GPa)
#
#
# Indices 1 2 3 4 5 6 
#
# 1 89.0220 28.1914 40.6421 -8.4604 15.7500 -15.1761
# 2 28.1914 119.7357 36.7426 -6.0946 1.6412 -11.7441
# 3 40.6421 36.7426 111.6380 -15.8660 16.3485 -13.3026
# 4 -8.4604 -6.0946 -15.8660 43.1266 -1.1211 6.9312
# 5 15.7500 1.6412 16.3485 -1.1211 39.1200 -2.3302
# 6 -15.1761 -11.7441 -13.3026 6.9312 -2.3302 29.1607
#
#
#
# Elastic Compliance Matrix: (Units=1/GPa)
#
#
# Indices 1 2 3 4 5 6 
#
# 1 0.015115 -0.001879 -0.003608 0.000457 -0.004187 0.005021
# 2 -0.001879 0.009733 -0.002538 -0.000201 0.001519 0.001954
# 3 -0.003608 -0.002538 0.012237 0.003078 -0.003366 0.001682
# 4 0.000457 -0.000201 0.003078 0.025075 -0.001010 -0.004480
# 5 -0.004187 0.001519 -0.003366 -0.001010 0.028527 -0.000583
# 6 0.005021 0.001954 0.001682 -0.004480 -0.000583 0.039478
#
#
# Mechanical properties :
#
#
# Convention : Reuss Voigt Hill
#
# Bulk Modulus (GPa) = 47.53593 59.06088 53.29841
# Shear Modulus (GPa) = 32.63117 36.60278 34.61698
#
# Velocity S-wave (km/s) = 3.86141 4.08965 3.97717
# Velocity P-wave (km/s) = 6.44994 7.02052 6.74127
#
# Compressibility (1/GPa) = 0.02103672
#
# Stress axis : x y z
#
# Youngs Moduli (GPa) = 66.15745 102.73938 81.71822
#
# Poissons Ratio (x) = 0.19300 0.29486
# Poissons Ratio (y) = 0.12428 0.20739
# Poissons Ratio (z) = 0.23871 0.26073
#
# Static dielectric constant tensor:
#      x y z
#    x 3.904110 -0.090890 0.339140 
#    y -0.090890 4.323250 0.133700 
#    z 0.339140 0.133700 4.394480 
# 
# 
# High freq. dielectric constant tensor:
#      x y z
#    x 1.844090 -0.007810 0.027610 
#    y -0.007810 1.866490 0.007730 
#    z 0.027610 0.007730 1.875870 
# 
# From -- ./inp_files/27192.got.cif
#   From: 2010.06.25/outbox.cif.g09.slc.cpg/sg2_14_cif.got.tgz:27192.got - 2010.06.27 13:26:56.
