data_PCOD8033966
_publ_section_title
;
Structure prediction by ZEFSAII (Michael W. Deem and Ramdas Pophale) SiO2 
 PCOD8033966
Probable space group: P -1
;
_chemical_formula_sum "Si O2"
_cell_formula_units_Z 12
_cell_length_a 14.558982
_cell_length_b 7.874177
_cell_length_c 14.899644
_cell_angle_alpha 74.806824
_cell_angle_beta 160.587497
_cell_angle_gamma 95.796278
_cell_volume 487.663036
_symmetry_space_group_name_H-M "P -1"
_symmetry_group_IT_number 2
_symmetry_cell_setting 'triclinic'
loop_
_space_group_symop_operation_xyz
x,y,z
-x,-y,-z
loop_
_atom_site_type_symbol
_atom_site_label
_atom_site_fract_x
_atom_site_fract_y
_atom_site_fract_z
Si Si1 0.726339 0.969906 0.793118
Si Si2 0.068136 0.375281 0.839129
Si Si3 0.170316 0.681591 0.686233
Si Si4 0.507443 0.831984 0.093693
Si Si5 0.668818 0.830350 0.437995
Si Si6 0.744512 0.198445 0.437614
O O1 0.500000 0.000000 0.500000
O O2 0.565146 0.132206 0.700438
O O3 0.838276 0.750125 0.965661
O O4 0.000000 0.000000 0.000000
O O5 0.916204 0.603153 0.695461
O O6 0.838479 0.316205 0.580710
O O7 0.371439 0.326598 0.065022
O O8 0.090819 0.817006 0.504584
O O9 0.866957 0.649420 0.436240
O O10 0.500000 0.500000 0.000000
O O11 0.230774 0.783905 0.815764
O O12 0.461352 0.895128 0.146391
O O13 0.500000 0.000000 0.000000
O O14 0.829668 0.975616 0.578857
#
# Coordination Sequence:
#
# PCOD8033966 Si02
#       6
#     2   2   2   2   2   2
#     4  11  26  48  73 103 134 177 232 293 360 423
#     4  11  25  45  72 107 137 182 238 280 358 424
#     4  12  24  41  65  96 143 189 242 283 331 409
#     4  12  25  42  66 103 140 188 237 275 348 410
#     4  11  26  46  75 100 147 185 229 296 350 412
#     4  11  24  43  68 101 147 186 231 286 337 409
#
# _framework density 24.607154999999999
#
# number of rings (size 3 to 8) (size 9 to 14) (size 15 to 20)
#    0.000    0.667    1.667    6.000    2.333    6.667 
#    0.000    0.000    0.000    0.000    0.000    0.000 
#    0.000    0.000    0.000    0.000    0.000    0.000 
#
# Total GULP energy -148800.282532 kJ/mol
# GULP energy per Si atom -12400.023544 kJ/mol
# Density = 2.455115 g / cm^3
# Si number density = 24.607155 Si / 1000 Ang^3
#
#
#
# Elastic Constant Matrix: (Units=GPa)
#
#
# Indices 1 2 3 4 5 6 
#
# 1 169.8206 32.2865 44.0140 7.9958 2.3889 -17.0915
# 2 32.2865 133.8229 42.4399 -21.1151 4.1267 -11.5267
# 3 44.0140 42.4399 103.0285 12.1461 -9.7183 -7.9794
# 4 7.9958 -21.1151 12.1461 45.5227 -4.6019 7.9383
# 5 2.3889 4.1267 -9.7183 -4.6019 45.8190 4.0531
# 6 -17.0915 -11.5267 -7.9794 7.9383 4.0531 29.6450
#
#
#
# Elastic Compliance Matrix: (Units=1/GPa)
#
#
# Indices 1 2 3 4 5 6 
#
# 1 0.007147 -0.000929 -0.002275 -0.001878 -0.001299 0.003827
# 2 -0.000929 0.010163 -0.004535 0.005811 -0.001318 0.000819
# 3 -0.002275 -0.004535 0.013558 -0.005330 0.002723 0.001629
# 4 -0.001878 0.005811 -0.005330 0.028014 0.001968 -0.008028
# 5 -0.001299 -0.001318 0.002723 0.001968 0.023160 -0.004221
# 6 0.003827 0.000819 0.001629 -0.008028 -0.004221 0.039423
#
#
# Mechanical properties :
#
#
# Convention : Reuss Voigt Hill
#
# Bulk Modulus (GPa) = 64.98537 71.57253 68.27895
# Shear Modulus (GPa) = 35.19318 43.39279 39.29299
#
# Velocity S-wave (km/s) = 3.78590 4.20387 4.00035
# Velocity P-wave (km/s) = 6.75109 7.26034 7.01034
#
# Compressibility (1/GPa) = 0.01538808
#
# Stress axis : x y z
#
# Youngs Moduli (GPa) = 139.92364 98.39354 73.75935
#
# Poissons Ratio (x) = 0.09145 0.16780
# Poissons Ratio (y) = 0.13005 0.33453
# Poissons Ratio (z) = 0.31832 0.44626
#
# Static dielectric constant tensor:
#      x y z
#    x 4.669630 0.000010 0.040570 
#    y 0.000010 4.783000 0.266120 
#    z 0.040570 0.266120 5.098400 
# 
# 
# High freq. dielectric constant tensor:
#      x y z
#    x 1.981030 -0.002250 0.006870 
#    y -0.002250 1.976020 -0.001800 
#    z 0.006870 -0.001800 2.001860 
# 
# From -- ./inp_files/116706.got.cif
#   From: 2010.06.25/outbox.cif.g09.slc.cpg/sg2_59_cif.got.tgz:116706.got - 2010.06.27 13:26:56.
