data_PCOD8033146
_publ_section_title
;
Structure prediction by ZEFSAII (Michael W. Deem and Ramdas Pophale) SiO2 
 PCOD8033146
Probable space group: P -1
;
_chemical_formula_sum "Si O2"
_cell_formula_units_Z 14
_cell_length_a 10.833614
_cell_length_b 12.297536
_cell_length_c 6.103492
_cell_angle_alpha 50.016146
_cell_angle_beta 68.162937
_cell_angle_gamma 68.255417
_cell_volume 568.384359
_symmetry_space_group_name_H-M "P -1"
_symmetry_group_IT_number 2
_symmetry_cell_setting 'triclinic'
loop_
_space_group_symop_operation_xyz
x,y,z
-x,-y,-z
loop_
_atom_site_type_symbol
_atom_site_label
_atom_site_fract_x
_atom_site_fract_y
_atom_site_fract_z
Si Si1 0.698835 0.980228 0.865825
Si Si2 0.148462 0.526394 0.809129
Si Si3 0.201393 0.313528 0.659289
Si Si4 0.893587 0.037387 0.331164
Si Si5 0.019383 0.771522 0.319072
Si Si6 0.600525 0.598522 0.902059
Si Si7 0.485077 0.883787 0.846712
O O1 0.748000 0.063028 0.516660
O O2 0.582451 0.898274 0.966193
O O3 0.660919 0.080547 0.978125
O O4 0.814227 0.846230 0.037995
O O5 0.203785 0.424327 0.706053
O O6 0.128998 0.693299 0.524894
O O7 0.265996 0.500219 0.949085
O O8 0.000000 0.500000 0.000000
O O9 0.342026 0.310389 0.442542
O O10 0.069563 0.348624 0.542721
O O11 0.900518 0.181163 0.003902
O O12 0.000000 0.000000 0.500000
O O13 0.915036 0.903173 0.324125
O O14 0.513917 0.718096 0.963152
O O15 0.500000 0.500000 0.000000
O O16 0.500000 0.000000 0.500000
#
# Coordination Sequence:
#
# PCOD8033146 Si02
#       7
#     2   2   2   2   2   2   2
#     4  11  23  44  78 107 142 197 254 314 381 453
#     4  12  26  48  79 107 148 202 256 309 385 469
#     4  12  23  47  77 105 147 196 260 308 386 464
#     4  11  24  44  70 112 156 181 251 328 382 446
#     4  11  25  43  73 116 146 200 248 317 390 461
#     4  12  28  51  73 114 160 202 255 324 385 461
#     4  11  24  48  75 104 143 207 262 304 379 466
#
# _framework density 24.631218000000001
#
# number of rings (size 3 to 8) (size 9 to 14) (size 15 to 20)
#    0.000    0.571    5.714    2.143    0.000    0.571 
#    7.714    0.000    0.000    0.000    0.000    0.000 
#    0.000    0.000    0.000    0.000    0.000    0.000 
#
# Total GULP energy -173522.233987 kJ/mol
# GULP energy per Si atom -12394.445285 kJ/mol
# Density = 2.457516 g / cm^3
# Si number density = 24.631218 Si / 1000 Ang^3
#
#
#
# Elastic Constant Matrix: (Units=GPa)
#
#
# Indices 1 2 3 4 5 6 
#
# 1 108.7435 36.0750 40.1633 -10.9532 5.3484 9.4687
# 2 36.0750 130.9981 46.2091 13.7471 -16.9882 -6.8458
# 3 40.1633 46.2091 160.9172 8.7379 -12.3633 -16.3008
# 4 -10.9532 13.7471 8.7379 40.1243 -8.1339 -1.4665
# 5 5.3484 -16.9882 -12.3633 -8.1339 39.5239 1.7086
# 6 9.4687 -6.8458 -16.3008 -1.4665 1.7086 41.1545
#
#
#
# Elastic Compliance Matrix: (Units=1/GPa)
#
#
# Indices 1 2 3 4 5 6 
#
# 1 0.012432 -0.003440 -0.003028 0.004464 -0.003002 -0.004348
# 2 -0.003440 0.009961 -0.001384 -0.003267 0.003571 0.001635
# 3 -0.003028 -0.001384 0.007947 -0.001586 0.001824 0.003482
# 4 0.004464 -0.003267 -0.001586 0.028239 0.003365 -0.001332
# 5 -0.003002 0.003571 0.001824 0.003365 0.028464 0.000945
# 6 -0.004348 0.001635 0.003482 -0.001332 0.000945 0.026864
#
#
# Mechanical properties :
#
#
# Convention : Reuss Voigt Hill
#
# Bulk Modulus (GPa) = 68.33752 71.72815 70.03284
# Shear Modulus (GPa) = 37.17755 42.70797 39.94276
#
# Velocity S-wave (km/s) = 3.88927 4.16852 4.03132
# Velocity P-wave (km/s) = 6.92626 7.23553 7.08258
#
# Compressibility (1/GPa) = 0.01463325
#
# Stress axis : x y z
#
# Youngs Moduli (GPa) = 80.43972 100.39416 125.83830
#
# Poissons Ratio (x) = 0.34538 0.38109
# Poissons Ratio (y) = 0.27673 0.17420
# Poissons Ratio (z) = 0.24361 0.13897
#
# Static dielectric constant tensor:
#      x y z
#    x 6.009740 -1.266790 -0.517900 
#    y -1.266790 5.282180 0.690720 
#    z -0.517900 0.690720 4.991310 
# 
# 
# High freq. dielectric constant tensor:
#      x y z
#    x 1.981400 -0.000200 0.012580 
#    y -0.000200 1.976850 0.016280 
#    z 0.012580 0.016280 1.988150 
# 
# From -- ./inp_files/68090.got.cif
#   From: 2010.06.25/outbox.cif.g09.slc.cpg/sg2_35_cif.got.tgz:68090.got - 2010.06.27 13:26:56.
