data_PCOD8033573
_publ_section_title
;
Structure prediction by ZEFSAII (Michael W. Deem and Ramdas Pophale) SiO2 
 PCOD8033573
Probable space group: P -1
;
_chemical_formula_sum "Si O2"
_cell_formula_units_Z 16
_cell_length_a 12.003215
_cell_length_b 26.604968
_cell_length_c 5.617300
_cell_angle_alpha 126.805978
_cell_angle_beta 52.585588
_cell_angle_gamma 152.190462
_cell_volume 655.433175
_symmetry_space_group_name_H-M "P -1"
_symmetry_group_IT_number 2
_symmetry_cell_setting 'triclinic'
loop_
_space_group_symop_operation_xyz
x,y,z
-x,-y,-z
loop_
_atom_site_type_symbol
_atom_site_label
_atom_site_fract_x
_atom_site_fract_y
_atom_site_fract_z
Si Si1 0.874419 0.472796 0.839450
Si Si2 0.463503 0.854740 0.903455
Si Si3 0.595954 0.768495 0.372325
Si Si4 0.260051 0.262666 0.522847
Si Si5 0.085586 0.782276 0.862259
Si Si6 0.586108 0.560504 0.307824
Si Si7 0.979708 0.334915 0.772668
Si Si8 0.915824 0.102378 0.116481
O O1 0.605100 0.343300 0.834359
O O2 0.000000 0.500000 0.500000
O O3 0.000000 0.500000 0.000000
O O4 0.869792 0.545942 0.063825
O O5 0.553889 0.827224 0.559809
O O6 0.312761 0.849670 0.929459
O O7 0.301885 0.765175 0.070154
O O8 0.690230 0.972567 0.062068
O O9 0.586536 0.739520 0.575694
O O10 0.870219 0.852678 0.180655
O O11 0.452469 0.377577 0.453882
O O12 0.021755 0.151071 0.379476
O O13 0.157828 0.273956 0.884042
O O14 0.999527 0.684985 0.577862
O O15 0.180125 0.866696 0.779268
O O16 0.500000 0.500000 0.500000
O O17 0.882344 0.660337 0.205781
O O18 0.500000 0.500000 0.000000
#
# Coordination Sequence:
#
# PCOD8033573 Si02
#       8
#     2   2   2   2   2   2   2   2
#     4  12  28  49  76 113 157 204 253 316 389 465
#     4  12  25  47  74 107 150 198 262 314 389 460
#     4  11  27  48  74 107 153 202 255 317 384 467
#     4  11  25  47  70 108 152 194 260 312 392 453
#     4  11  23  47  73 107 151 193 256 322 384 460
#     4  12  26  44  73 107 149 199 250 313 380 455
#     4  12  26  43  76 108 147 196 253 313 386 453
#     4  11  26  46  74 108 147 204 253 325 380 460
#
# _framework density 24.411335000000001
#
# number of rings (size 3 to 8) (size 9 to 14) (size 15 to 20)
#    0.000    0.500    3.750    3.000    5.250    5.500 
#    0.000    0.000    0.000    0.000    0.000    0.000 
#    0.000    0.000    0.000    0.000    0.000    0.000 
#
# Total GULP energy -198273.762850 kJ/mol
# GULP energy per Si atom -12392.110178 kJ/mol
# Density = 2.435577 g / cm^3
# Si number density = 24.411335 Si / 1000 Ang^3
#
#
#
# Elastic Constant Matrix: (Units=GPa)
#
#
# Indices 1 2 3 4 5 6 
#
# 1 127.8233 32.5677 21.0882 4.9317 9.7243 6.7013
# 2 32.5677 127.1089 21.6228 33.2691 10.3871 5.8930
# 3 21.0882 21.6228 98.1966 17.8406 9.7049 -4.9078
# 4 4.9317 33.2691 17.8406 40.1723 3.4415 -1.6227
# 5 9.7243 10.3871 9.7049 3.4415 45.8861 10.4865
# 6 6.7013 5.8930 -4.9078 -1.6227 10.4865 27.4024
#
#
#
# Elastic Compliance Matrix: (Units=1/GPa)
#
#
# Indices 1 2 3 4 5 6 
#
# 1 0.008745 -0.002215 -0.001668 0.001502 -0.000749 -0.001585
# 2 -0.002215 0.010917 -0.000389 -0.008612 -0.000798 -0.002080
# 3 -0.001668 -0.000389 0.011835 -0.004383 -0.002488 0.003304
# 4 0.001502 -0.008612 -0.004383 0.033964 -0.000667 0.002966
# 5 -0.000749 -0.000798 -0.002488 -0.000667 0.024918 -0.009666
# 6 -0.001585 -0.002080 0.003304 0.002966 -0.009666 0.041795
#
#
# Mechanical properties :
#
#
# Convention : Reuss Voigt Hill
#
# Bulk Modulus (GPa) = 43.56878 55.96514 49.76696
# Shear Modulus (GPa) = 33.70008 41.21550 37.45779
#
# Velocity S-wave (km/s) = 3.71955 4.11344 3.92145
# Velocity P-wave (km/s) = 6.02771 6.74805 6.39803
#
# Compressibility (1/GPa) = 0.02295222
#
# Stress axis : x y z
#
# Youngs Moduli (GPa) = 114.34934 91.60298 84.49706
#
# Poissons Ratio (x) = 0.20293 0.14097
# Poissons Ratio (y) = 0.25332 0.03283
# Poissons Ratio (z) = 0.19077 0.03559
#
# Static dielectric constant tensor:
#      x y z
#    x 4.897190 -0.002750 0.067820 
#    y -0.002750 4.750980 0.155070 
#    z 0.067820 0.155070 4.579300 
# 
# 
# High freq. dielectric constant tensor:
#      x y z
#    x 1.981660 0.000730 -0.001560 
#    y 0.000730 1.973470 0.005580 
#    z -0.001560 0.005580 1.972290 
# 
# From -- ./inp_files/85124.got.cif
#   From: 2010.06.25/outbox.cif.g09.slc.cpg/sg2_43_cif.got.tgz:85124.got - 2010.06.27 13:26:56.
