data_PCOD8033002
_publ_section_title
;
Structure prediction by ZEFSAII (Michael W. Deem and Ramdas Pophale) SiO2 
 PCOD8033002
Probable space group: P -1
;
_chemical_formula_sum "Si O2"
_cell_formula_units_Z 16
_cell_length_a 12.211114
_cell_length_b 11.864408
_cell_length_c 8.468495
_cell_angle_alpha 117.241568
_cell_angle_beta 49.926740
_cell_angle_gamma 133.329458
_cell_volume 682.654399
_symmetry_space_group_name_H-M "P -1"
_symmetry_group_IT_number 2
_symmetry_cell_setting 'triclinic'
loop_
_space_group_symop_operation_xyz
x,y,z
-x,-y,-z
loop_
_atom_site_type_symbol
_atom_site_label
_atom_site_fract_x
_atom_site_fract_y
_atom_site_fract_z
Si Si1 0.708056 0.065203 0.439829
Si Si2 0.533205 0.226958 0.669432
Si Si3 0.741047 0.503662 0.851841
Si Si4 0.698750 0.735914 0.583785
Si Si5 0.409593 0.391445 0.718537
Si Si6 0.863683 0.388649 0.925543
Si Si7 0.506373 0.883639 0.808945
Si Si8 0.028380 0.268157 0.475652
O O1 0.689028 0.202208 0.491194
O O2 0.897403 0.136388 0.385398
O O3 0.657702 0.942930 0.263741
O O4 0.551010 0.955466 0.638850
O O5 0.572909 0.326506 0.857023
O O6 0.528775 0.327443 0.594881
O O7 0.857892 0.497454 0.872198
O O8 0.844158 0.572367 0.635430
O O9 0.689384 0.617774 0.034310
O O10 0.526327 0.572077 0.688050
O O11 0.730115 0.710885 0.355460
O O12 0.658053 0.864444 0.715538
O O13 0.865195 0.788376 0.571037
O O14 0.918256 0.287629 0.720963
O O15 0.681243 0.280182 0.116896
O O16 0.000000 0.500000 0.000000
O O17 0.500000 0.000000 0.000000
#
# Coordination Sequence:
#
# PCOD8033002 Si02
#       8
#     2   2   2   2   2   2   2   2
#     4  11  26  44  69 103 144 194 232 290 363 429
#     4  11  23  44  70  99 140 187 239 285 354 432
#     4  12  24  43  74 105 143 183 246 296 359 420
#     4  11  25  44  76 105 147 186 244 296 355 424
#     4  11  23  44  73 109 135 195 240 297 356 421
#     4  12  27  44  72 109 145 184 245 303 355 420
#     4  12  24  49  72  99 147 196 239 280 364 439
#     4  12  26  45  69 113 144 185 239 308 352 416
#
# _framework density 23.437922
#
# number of rings (size 3 to 8) (size 9 to 14) (size 15 to 20)
#    0.000    0.500    6.250    1.500    3.500    1.500 
#    0.000    0.625    0.000    0.000    0.000    0.000 
#    0.000    0.000    0.000    0.000    0.000    0.000 
#
# Total GULP energy -198322.661485 kJ/mol
# GULP energy per Si atom -12395.166343 kJ/mol
# Density = 2.338458 g / cm^3
# Si number density = 23.437922 Si / 1000 Ang^3
#
#
#
# Elastic Constant Matrix: (Units=GPa)
#
#
# Indices 1 2 3 4 5 6 
#
# 1 196.9593 56.2201 37.8495 22.1405 -1.3447 16.2554
# 2 56.2201 84.0818 36.1201 24.6432 -3.0682 8.4255
# 3 37.8495 36.1201 81.6540 12.1799 -6.4824 2.6392
# 4 22.1405 24.6432 12.1799 39.9902 -0.6874 5.4476
# 5 -1.3447 -3.0682 -6.4824 -0.6874 31.0800 7.6175
# 6 16.2554 8.4255 2.6392 5.4476 7.6175 53.7614
#
#
#
# Elastic Compliance Matrix: (Units=1/GPa)
#
#
# Indices 1 2 3 4 5 6 
#
# 1 0.006509 -0.003371 -0.001347 -0.000944 -0.000041 -0.001272
# 2 -0.003371 0.019006 -0.005569 -0.008007 0.000628 -0.000964
# 3 -0.001347 -0.005569 0.015618 -0.000562 0.002587 0.000204
# 4 -0.000944 -0.008007 -0.000562 0.030851 0.000120 -0.001575
# 5 -0.000041 0.000628 0.002587 0.000120 0.034014 -0.005045
# 6 -0.001272 -0.000964 0.000204 -0.001575 -0.005045 0.020001
#
#
# Mechanical properties :
#
#
# Convention : Reuss Voigt Hill
#
# Bulk Modulus (GPa) = 48.64498 69.23048 58.93773
# Shear Modulus (GPa) = 32.58902 40.46668 36.52785
#
# Velocity S-wave (km/s) = 3.73291 4.15968 3.95206
# Velocity P-wave (km/s) = 6.27529 7.25758 6.78424
#
# Compressibility (1/GPa) = 0.02055711
#
# Stress axis : x y z
#
# Youngs Moduli (GPa) = 153.63123 52.61524 64.02997
#
# Poissons Ratio (x) = 0.17736 0.08628
# Poissons Ratio (y) = 0.51787 0.35661
# Poissons Ratio (z) = 0.20702 0.29304
#
# Static dielectric constant tensor:
#      x y z
#    x 4.499820 0.025680 0.240330 
#    y 0.025680 4.291230 0.193010 
#    z 0.240330 0.193010 4.407550 
# 
# 
# High freq. dielectric constant tensor:
#      x y z
#    x 1.948900 -0.005750 0.010860 
#    y -0.005750 1.919770 0.026600 
#    z 0.010860 0.026600 1.903060 
# 
# From -- ./inp_files/262970.got.cif
#   From: 2010.06.25/outbox.cif.g09.slc.cpg/sg2_132_cif.got.tgz:262970.got - 2010.06.27 13:26:56.
