data_PCOD8033228
_publ_section_title
;
Structure prediction by ZEFSAII (Michael W. Deem and Ramdas Pophale) SiO2 
 PCOD8033228
Probable space group: P -1
;
_chemical_formula_sum "Si O2"
_cell_formula_units_Z 14
_cell_length_a 10.594885
_cell_length_b 8.583794
_cell_length_c 13.732175
_cell_angle_alpha 31.545162
_cell_angle_beta 121.846629
_cell_angle_gamma 113.904296
_cell_volume 552.227519
_symmetry_space_group_name_H-M "P -1"
_symmetry_group_IT_number 2
_symmetry_cell_setting 'triclinic'
loop_
_space_group_symop_operation_xyz
x,y,z
-x,-y,-z
loop_
_atom_site_type_symbol
_atom_site_label
_atom_site_fract_x
_atom_site_fract_y
_atom_site_fract_z
Si Si1 0.110633 0.993419 0.391660
Si Si2 0.589236 0.280341 0.410132
Si Si3 0.086296 0.395558 0.787257
Si Si4 0.611292 0.695553 0.362858
Si Si5 0.579419 0.698065 0.002700
Si Si6 0.795180 0.458404 0.745005
Si Si7 0.158547 0.027103 0.831452
O O1 0.181898 0.243112 0.347950
O O2 0.236151 0.835227 0.455068
O O3 0.061603 0.755751 0.577363
O O4 0.968687 0.124009 0.200261
O O5 0.539255 0.436532 0.409395
O O6 0.500000 0.000000 0.500000
O O7 0.560599 0.545906 0.179563
O O8 0.079103 0.278200 0.736404
O O9 0.951270 0.297773 0.850227
O O10 0.245672 0.292954 0.957862
O O11 0.674299 0.525337 0.575772
O O12 0.738044 0.826499 0.281123
O O13 0.490757 0.961357 0.205312
O O14 0.500000 0.500000 0.000000
O O15 0.744492 0.221911 0.930311
#
# Coordination Sequence:
#
# PCOD8033228 Si02
#       7
#     2   2   2   2   2   2   2
#     4  11  23  45  70 109 144 186 241 307 355 428
#     4  11  26  46  74 105 146 193 247 296 366 434
#     4  11  23  46  69 101 148 189 239 295 366 430
#     4  12  25  50  76 104 151 194 237 311 362 428
#     4  11  26  45  74 105 147 195 237 297 373 428
#     4  12  27  43  75 110 142 191 245 297 364 436
#     4  12  25  44  76 106 145 187 246 296 370 429
#
# _framework density 25.351870000000002
#
# number of rings (size 3 to 8) (size 9 to 14) (size 15 to 20)
#    0.000    0.571    4.286    4.714    4.000    2.286 
#    0.000    2.143    0.000    0.000    0.000    0.000 
#    0.000    0.000    0.000    0.000    0.000    0.000 
#
# Total GULP energy -173646.204076 kJ/mol
# GULP energy per Si atom -12403.300291 kJ/mol
# Density = 2.529417 g / cm^3
# Si number density = 25.351870 Si / 1000 Ang^3
#
#
#
# Elastic Constant Matrix: (Units=GPa)
#
#
# Indices 1 2 3 4 5 6 
#
# 1 67.0019 2.8740 35.0417 12.3794 2.3047 -8.3557
# 2 2.8740 174.5476 56.1807 7.8582 15.6842 -9.4176
# 3 35.0417 56.1807 159.7202 15.1283 2.1442 -7.9943
# 4 12.3794 7.8582 15.1283 43.7860 3.7471 5.7037
# 5 2.3047 15.6842 2.1442 3.7471 44.6486 -4.1122
# 6 -8.3557 -9.4176 -7.9943 5.7037 -4.1122 35.6032
#
#
#
# Elastic Compliance Matrix: (Units=1/GPa)
#
#
# Indices 1 2 3 4 5 6 
#
# 1 0.018314 0.001431 -0.003849 -0.004652 -0.000458 0.004505
# 2 0.001431 0.006830 -0.002544 -0.000755 -0.002155 0.001443
# 3 -0.003849 -0.002544 0.008152 -0.001423 0.000874 0.000583
# 4 -0.004652 -0.000755 -0.001423 0.025743 -0.002138 -0.005982
# 5 -0.000458 -0.002155 0.000874 -0.002138 0.023553 0.002582
# 6 0.004505 0.001443 0.000583 -0.005982 0.002582 0.030914
#
#
# Mechanical properties :
#
#
# Convention : Reuss Voigt Hill
#
# Bulk Modulus (GPa) = 42.78536 65.49582 54.14059
# Shear Modulus (GPa) = 38.10419 45.28579 41.69499
#
# Velocity S-wave (km/s) = 3.88108 4.23104 4.05983
# Velocity P-wave (km/s) = 6.08251 7.05406 6.58622
#
# Compressibility (1/GPa) = 0.02337248
#
# Stress axis : x y z
#
# Youngs Moduli (GPa) = 54.60403 146.41965 122.66498
#
# Poissons Ratio (x) = -0.20952 0.47213
# Poissons Ratio (y) = -0.07814 0.31201
# Poissons Ratio (z) = 0.21017 0.37243
#
# Static dielectric constant tensor:
#      x y z
#    x 4.769110 0.069210 -0.037150 
#    y 0.069210 4.636310 -0.296780 
#    z -0.037150 -0.296780 3.986850 
# 
# 
# High freq. dielectric constant tensor:
#      x y z
#    x 2.020240 0.006010 0.001030 
#    y 0.006010 2.026320 -0.007170 
#    z 0.001030 -0.007170 2.019650 
# 
# From -- ./inp_files/190976.got.cif
#   From: 2010.06.25/outbox.cif.g09.slc.cpg/sg2_96_cif.got.tgz:190976.got - 2010.06.27 13:26:56.
