data_PCOD8033059
_publ_section_title
;
Structure prediction by ZEFSAII (Michael W. Deem and Ramdas Pophale) SiO2 
 PCOD8033059
Probable space group: P -1
;
_chemical_formula_sum "Si O2"
_cell_formula_units_Z 16
_cell_length_a 9.281085
_cell_length_b 15.612243
_cell_length_c 14.529142
_cell_angle_alpha 28.562827
_cell_angle_beta 95.091385
_cell_angle_gamma 113.724526
_cell_volume 734.028721
_symmetry_space_group_name_H-M "P -1"
_symmetry_group_IT_number 2
_symmetry_cell_setting 'triclinic'
loop_
_space_group_symop_operation_xyz
x,y,z
-x,-y,-z
loop_
_atom_site_type_symbol
_atom_site_label
_atom_site_fract_x
_atom_site_fract_y
_atom_site_fract_z
Si Si1 0.271663 0.834954 0.619656
Si Si2 0.280793 0.619276 0.124620
Si Si3 0.056886 0.719283 0.898974
Si Si4 0.427532 0.295454 0.616974
Si Si5 0.920240 0.895202 0.356551
Si Si6 0.780357 0.224030 0.845691
Si Si7 0.219766 0.605329 0.515003
Si Si8 0.287612 0.999523 0.269159
O O1 0.153302 0.830640 0.699542
O O2 0.500000 0.000000 0.500000
O O3 0.263391 0.960237 0.414370
O O4 0.162226 0.551824 0.862190
O O5 0.149251 0.332244 0.370588
O O6 0.277362 0.673284 0.180365
O O7 0.203737 0.717734 0.966456
O O8 0.499580 0.748737 0.984733
O O9 0.042059 0.898993 0.775216
O O10 0.500000 0.500000 0.500000
O O11 0.242803 0.212813 0.628486
O O12 0.610980 0.403297 0.457679
O O13 0.368383 0.066525 0.884148
O O14 0.127681 0.009603 0.214179
O O15 0.763381 0.292859 0.679922
O O16 0.002732 0.338286 0.769298
O O17 0.250946 0.774878 0.436168
#
# Coordination Sequence:
#
# PCOD8033059 Si02
#       8
#     2   2   2   2   2   2   2   2
#     4  11  24  46  79 106 141 187 239 290 370 429
#     4  12  23  48  72 102 146 189 232 294 358 423
#     4  11  24  48  77 104 144 188 230 303 357 421
#     4  12  27  43  67 108 146 186 242 296 349 423
#     4  12  27  46  71 110 145 184 245 293 353 435
#     4  11  23  44  72  98 140 187 238 292 352 417
#     4  11  24  44  74  95 137 195 233 291 358 420
#     4  12  25  44  74 104 138 193 238 290 364 423
#
# _framework density 21.797511
#
# number of rings (size 3 to 8) (size 9 to 14) (size 15 to 20)
#    0.000    0.500    6.250    1.125    3.500    3.000 
#    0.000    1.250    0.000    0.000    0.000    0.000 
#    0.000    0.000    0.000    0.000    0.000    0.000 
#
# Total GULP energy -198446.335588 kJ/mol
# GULP energy per Si atom -12402.895974 kJ/mol
# Density = 2.174790 g / cm^3
# Si number density = 21.797511 Si / 1000 Ang^3
#
#
#
# Elastic Constant Matrix: (Units=GPa)
#
#
# Indices 1 2 3 4 5 6 
#
# 1 164.6256 44.9968 49.1075 -20.6888 -23.5648 -8.5911
# 2 44.9968 99.4516 20.4401 -12.3301 -3.6639 -9.4708
# 3 49.1075 20.4401 101.8678 -22.9646 -21.0965 -14.4049
# 4 -20.6888 -12.3301 -22.9646 45.7352 -2.3229 2.8370
# 5 -23.5648 -3.6639 -21.0965 -2.3229 44.4744 -11.0176
# 6 -8.5911 -9.4708 -14.4049 2.8370 -11.0176 32.3061
#
#
#
# Elastic Compliance Matrix: (Units=1/GPa)
#
#
# Indices 1 2 3 4 5 6 
#
# 1 0.008313 -0.002805 -0.001966 0.002108 0.003748 0.001605
# 2 -0.002805 0.011822 -0.000300 0.001617 0.000039 0.002457
# 3 -0.001966 -0.000300 0.015338 0.006638 0.008688 0.008608
# 4 0.002108 0.001617 0.006638 0.026686 0.006774 0.003961
# 5 0.003748 0.000039 0.008688 0.006774 0.032781 0.015467
# 6 0.001605 0.002457 0.008608 0.003961 0.015467 0.040866
#
#
# Mechanical properties :
#
#
# Convention : Reuss Voigt Hill
#
# Bulk Modulus (GPa) = 39.47774 66.11487 52.79630
# Shear Modulus (GPa) = 32.38543 41.26318 36.82430
#
# Velocity S-wave (km/s) = 3.85871 4.35561 4.11467
# Velocity P-wave (km/s) = 6.16468 7.46273 6.84455
#
# Compressibility (1/GPa) = 0.02533073
#
# Stress axis : x y z
#
# Youngs Moduli (GPa) = 120.29793 84.59003 65.19868
#
# Poissons Ratio (x) = 0.23725 0.12819
# Poissons Ratio (y) = 0.33740 0.01955
# Poissons Ratio (z) = 0.23652 0.02537
#
# Static dielectric constant tensor:
#      x y z
#    x 4.441250 0.083240 -0.258980 
#    y 0.083240 4.105550 -0.069400 
#    z -0.258980 -0.069400 4.242000 
# 
# 
# High freq. dielectric constant tensor:
#      x y z
#    x 1.863310 0.005360 -0.022620 
#    y 0.005360 1.860850 -0.006650 
#    z -0.022620 -0.006650 1.862990 
# 
# From -- ./inp_files/505036.got.cif
#   From: 2010.06.25/outbox.cif.g09.slc.cpg/sg2_253_cif.got.tgz:505036.got - 2010.06.27 13:26:56.
