data_PCOD8033656
_publ_section_title
;
Structure prediction by ZEFSAII (Michael W. Deem and Ramdas Pophale) SiO2 
 PCOD8033656
Probable space group: P -1
;
_chemical_formula_sum "Si O2"
_cell_formula_units_Z 12
_cell_length_a 7.651954
_cell_length_b 5.304412
_cell_length_c 15.677129
_cell_angle_alpha 76.501617
_cell_angle_beta 68.346293
_cell_angle_gamma 62.254208
_cell_volume 521.945045
_symmetry_space_group_name_H-M "P -1"
_symmetry_group_IT_number 2
_symmetry_cell_setting 'triclinic'
loop_
_space_group_symop_operation_xyz
x,y,z
-x,-y,-z
loop_
_atom_site_type_symbol
_atom_site_label
_atom_site_fract_x
_atom_site_fract_y
_atom_site_fract_z
Si Si1 0.083648 0.807318 0.418009
Si Si2 0.157004 0.067228 0.211874
Si Si3 0.512436 0.283040 0.940878
Si Si4 0.691188 0.785561 0.534468
Si Si5 0.524247 0.946604 0.727294
Si Si6 0.286276 0.549778 0.799060
O O1 0.298767 0.529720 0.421904
O O2 0.893378 0.716907 0.445658
O O3 0.096543 0.943051 0.315791
O O4 0.000000 0.000000 0.500000
O O5 0.958902 0.309972 0.184877
O O6 0.271498 0.815087 0.142646
O O7 0.326923 0.182066 0.206127
O O8 0.319931 0.448198 0.899097
O O9 0.500000 0.500000 0.000000
O O10 0.500000 0.000000 0.000000
O O11 0.500000 0.000000 0.500000
O O12 0.673246 0.931420 0.620497
O O13 0.382205 0.280713 0.740271
O O14 0.385223 0.775969 0.746759
#
# Coordination Sequence:
#
# PCOD8033656 Si02
#       6
#     2   2   2   2   2   2
#     4  11  24  42  63 101 137 185 237 284 346 413
#     4  11  25  47  74  98 149 183 232 302 352 419
#     4  11  25  47  72 105 138 177 236 297 357 432
#     4  11  24  39  65  94 141 190 241 288 343 413
#     4  11  24  44  67 104 145 185 239 287 343 422
#     4  11  26  44  75 106 137 191 235 283 371 426
#
# _framework density 22.990925000000001
#
# number of rings (size 3 to 8) (size 9 to 14) (size 15 to 20)
#    0.000    1.000    1.667    5.000    2.333    7.333 
#    0.000    0.000    0.000    0.000    0.000    0.000 
#    0.000    0.000    0.000    0.000    0.000    0.000 
#
# Total GULP energy -148690.383158 kJ/mol
# GULP energy per Si atom -12390.865263 kJ/mol
# Density = 2.293860 g / cm^3
# Si number density = 22.990925 Si / 1000 Ang^3
#
#
#
# Elastic Constant Matrix: (Units=GPa)
#
#
# Indices 1 2 3 4 5 6 
#
# 1 94.9249 70.2242 27.2415 2.4109 13.0235 -23.1052
# 2 70.2242 189.9355 75.0344 9.3958 27.4021 -13.9404
# 3 27.2415 75.0344 149.9890 16.6443 18.1009 -5.4146
# 4 2.4109 9.3958 16.6443 48.3006 -1.8372 10.1227
# 5 13.0235 27.4021 18.1009 -1.8372 30.1201 -10.2219
# 6 -23.1052 -13.9404 -5.4146 10.1227 -10.2219 55.0465
#
#
#
# Elastic Compliance Matrix: (Units=1/GPa)
#
#
# Indices 1 2 3 4 5 6 
#
# 1 0.015913 -0.005476 0.000176 -0.000938 -0.000214 0.005443
# 2 -0.005476 0.009057 -0.002991 -0.000407 -0.004456 -0.001052
# 3 0.000176 -0.002991 0.008751 -0.002577 -0.002721 0.000145
# 4 -0.000938 -0.000407 -0.002577 0.022750 0.002174 -0.004530
# 5 -0.000214 -0.004456 -0.002721 0.002174 0.041063 0.005739
# 6 0.005443 -0.001052 0.000145 -0.004530 0.005739 0.022098
#
#
# Mechanical properties :
#
#
# Convention : Reuss Voigt Hill
#
# Bulk Modulus (GPa) = 58.34889 86.64994 72.49942
# Shear Modulus (GPa) = 35.22888 44.18340 39.70614
#
# Velocity S-wave (km/s) = 3.91870 4.38856 4.16027
# Velocity P-wave (km/s) = 6.77563 7.96554 7.39456
#
# Compressibility (1/GPa) = 0.01713829
#
# Stress axis : x y z
#
# Youngs Moduli (GPa) = 62.83974 110.40858 114.26793
#
# Poissons Ratio (x) = 0.60463 -0.02009
# Poissons Ratio (y) = 0.34413 0.34183
# Poissons Ratio (z) = -0.01105 0.33029
#
# Static dielectric constant tensor:
#      x y z
#    x 5.177940 0.624000 -0.844050 
#    y 0.624000 5.556300 -0.137470 
#    z -0.844050 -0.137470 5.208410 
# 
# 
# High freq. dielectric constant tensor:
#      x y z
#    x 1.897440 0.000380 0.000140 
#    y 0.000380 1.923640 0.006200 
#    z 0.000140 0.006200 1.920720 
# 
# From -- ./inp_files/323262.got.cif
#   From: 2010.06.25/outbox.cif.g09.slc.cpg/sg2_162_cif.got.tgz:323262.got - 2010.06.27 13:26:56.
