data_PCOD8033696
_publ_section_title
;
Structure prediction by ZEFSAII (Michael W. Deem and Ramdas Pophale) SiO2 
 PCOD8033696
Probable space group: P -1
;
_chemical_formula_sum "Si O2"
_cell_formula_units_Z 16
_cell_length_a 5.269289
_cell_length_b 6.456013
_cell_length_c 27.735799
_cell_angle_alpha 106.425671
_cell_angle_beta 102.286567
_cell_angle_gamma 48.482656
_cell_volume 677.219217
_symmetry_space_group_name_H-M "P -1"
_symmetry_group_IT_number 2
_symmetry_cell_setting 'triclinic'
loop_
_space_group_symop_operation_xyz
x,y,z
-x,-y,-z
loop_
_atom_site_type_symbol
_atom_site_label
_atom_site_fract_x
_atom_site_fract_y
_atom_site_fract_z
Si Si1 0.781194 0.511733 0.730533
Si Si2 0.776977 0.154159 0.128469
Si Si3 0.277512 0.794523 0.536152
Si Si4 0.686063 0.603874 0.331891
Si Si5 0.728477 0.935503 0.205468
Si Si6 0.282372 0.223912 0.965061
Si Si7 0.176532 0.175499 0.399223
Si Si8 0.490605 0.718675 0.114603
O O1 0.469728 0.548819 0.695682
O O2 0.099298 0.406947 0.703382
O O3 0.936948 0.268866 0.761619
O O4 0.611777 0.828210 0.762248
O O5 0.736388 0.134346 0.182138
O O6 0.819442 0.909241 0.084471
O O7 0.153752 0.045016 0.129547
O O8 0.492194 0.467307 0.116046
O O9 0.500000 0.500000 0.500000
O O10 0.531275 0.855097 0.562037
O O11 0.077802 0.822051 0.576961
O O12 0.000000 0.000000 0.500000
O O13 0.937087 0.464823 0.378726
O O14 0.360484 0.923012 0.351827
O O15 0.743950 0.705622 0.160060
O O16 0.443884 0.318731 0.942689
O O17 0.000000 0.500000 0.000000
O O18 0.500000 0.000000 0.000000
#
# Coordination Sequence:
#
# PCOD8033696 Si02
#       8
#     2   2   2   2   2   2   2   2
#     4  12  26  44  70  99 136 175 244 284 344 430
#     4  11  24  42  66  93 128 172 218 269 356 402
#     4  12  24  42  70 105 136 185 238 286 344 408
#     4  12  26  45  68 102 134 192 228 283 360 412
#     4  11  26  43  66  97 130 171 218 303 334 409
#     4  11  24  41  62  95 132 165 220 271 326 423
#     4  12  24  45  68  96 148 180 228 295 346 410
#     4  11  24  42  66  93 128 172 218 269 356 402
#
# _framework density 23.62603
#
# number of rings (size 3 to 8) (size 9 to 14) (size 15 to 20)
#    0.000    0.500    0.000    8.250    5.250    7.000 
#    0.000    0.000    0.000    0.000    0.000    0.000 
#    0.000    0.000    0.000    0.000    0.000    0.000 
#
# Total GULP energy -198269.412001 kJ/mol
# GULP energy per Si atom -12391.838250 kJ/mol
# Density = 2.357226 g / cm^3
# Si number density = 23.626030 Si / 1000 Ang^3
#
#
#
# Elastic Constant Matrix: (Units=GPa)
#
#
# Indices 1 2 3 4 5 6 
#
# 1 97.4132 13.2243 29.3676 4.5273 -12.9526 -8.3805
# 2 13.2243 133.4783 37.2855 -7.7822 -8.2282 -15.6859
# 3 29.3676 37.2855 104.0958 -1.6137 -11.2004 -8.2018
# 4 4.5273 -7.7822 -1.6137 50.8733 -5.6538 -2.0448
# 5 -12.9526 -8.2282 -11.2004 -5.6538 39.4198 -0.1807
# 6 -8.3805 -15.6859 -8.2018 -2.0448 -0.1807 39.7882
#
#
#
# Elastic Compliance Matrix: (Units=1/GPa)
#
#
# Indices 1 2 3 4 5 6 
#
# 1 0.011710 -0.000008 -0.002850 -0.000733 0.002940 0.001852
# 2 -0.000008 0.008777 -0.002746 0.001518 0.001281 0.002976
# 3 -0.002850 -0.002746 0.011661 0.000442 0.001871 0.000752
# 4 -0.000733 0.001518 0.000442 0.020380 0.003132 0.001597
# 5 0.002940 0.001281 0.001871 0.003132 0.027590 0.001796
# 6 0.001852 0.002976 0.000752 0.001597 0.001796 0.026942
#
#
# Mechanical properties :
#
#
# Convention : Reuss Voigt Hill
#
# Bulk Modulus (GPa) = 47.75296 54.97135 51.36216
# Shear Modulus (GPa) = 39.92080 43.02360 41.47220
#
# Velocity S-wave (km/s) = 4.11505 4.27198 4.19425
# Velocity P-wave (km/s) = 6.54477 6.90296 6.72625
#
# Compressibility (1/GPa) = 0.02094111
#
# Stress axis : x y z
#
# Youngs Moduli (GPa) = 85.39684 113.93637 85.75301
#
# Poissons Ratio (x) = 0.00091 0.24439
# Poissons Ratio (y) = 0.00068 0.23545
# Poissons Ratio (z) = 0.24338 0.31283
#
# Static dielectric constant tensor:
#      x y z
#    x 4.186200 -0.038330 -0.417830 
#    y -0.038330 4.176340 0.069490 
#    z -0.417830 0.069490 3.800860 
# 
# 
# High freq. dielectric constant tensor:
#      x y z
#    x 1.932610 -0.012320 -0.006130 
#    y -0.012320 1.952050 -0.000590 
#    z -0.006130 -0.000590 1.954030 
# 
# From -- ./inp_files/614932.got.cif
#   From: 2010.06.25/outbox.cif.g09.slc.cpg/sg2_308_cif.got.tgz:614932.got - 2010.06.27 13:26:56.
