data_PCOD8033187
_publ_section_title
;
Structure prediction by ZEFSAII (Michael W. Deem and Ramdas Pophale) SiO2 
 PCOD8033187
Probable space group: P -1
;
_chemical_formula_sum "Si O2"
_cell_formula_units_Z 16
_cell_length_a 19.124264
_cell_length_b 11.698029
_cell_length_c 8.805975
_cell_angle_alpha 125.985508
_cell_angle_beta 86.210602
_cell_angle_gamma 138.782750
_cell_volume 744.906161
_symmetry_space_group_name_H-M "P -1"
_symmetry_group_IT_number 2
_symmetry_cell_setting 'triclinic'
loop_
_space_group_symop_operation_xyz
x,y,z
-x,-y,-z
loop_
_atom_site_type_symbol
_atom_site_label
_atom_site_fract_x
_atom_site_fract_y
_atom_site_fract_z
Si Si1 0.450963 0.266696 0.395735
Si Si2 0.050125 0.730933 0.760428
Si Si3 0.476042 0.100610 0.995387
Si Si4 0.242945 0.383682 0.841323
Si Si5 0.124428 0.704142 0.015971
Si Si6 0.073561 0.304358 0.639100
Si Si7 0.813444 0.528874 0.574010
Si Si8 0.281213 0.368052 0.156706
O O1 0.500000 0.500000 0.500000
O O2 0.422556 0.118262 0.138754
O O3 0.564041 0.399566 0.603808
O O4 0.291080 0.002246 0.296653
O O5 0.000000 0.500000 0.500000
O O6 0.916147 0.601908 0.706710
O O7 0.113053 0.809341 0.978654
O O8 0.180523 0.048020 0.899633
O O9 0.624576 0.421078 0.140615
O O10 0.500000 0.000000 0.000000
O O11 0.345400 0.834680 0.687002
O O12 0.182869 0.435840 0.856985
O O13 0.310789 0.488566 0.081675
O O14 0.100111 0.029487 0.555443
O O15 0.096616 0.510515 0.778660
O O16 0.000000 0.500000 0.000000
O O17 0.118240 0.315048 0.480055
O O18 0.804948 0.666632 0.761176
#
# Coordination Sequence:
#
# PCOD8033187 Si02
#       8
#     2   2   2   2   2   2   2   2
#     4  12  25  47  72  98 142 189 229 283 354 421
#     4  12  24  47  69 102 145 185 230 288 350 415
#     4  12  23  47  70  98 137 190 226 280 355 418
#     4  11  25  41  72 102 138 173 238 291 340 409
#     4  12  27  44  71 102 139 182 237 284 349 417
#     4  11  23  45  68  99 139 191 226 282 352 419
#     4  12  24  44  75 101 142 187 233 281 356 412
#     4  12  26  43  74 110 136 179 241 294 340 410
#
# _framework density 21.479215
#
# number of rings (size 3 to 8) (size 9 to 14) (size 15 to 20)
#    0.000    0.250    7.500    0.375    3.500    2.500 
#    0.000    0.625    0.000    0.000    0.000    0.000 
#    0.000    0.000    0.000    0.000    0.000    0.000 
#
# Total GULP energy -198395.822520 kJ/mol
# GULP energy per Si atom -12399.738908 kJ/mol
# Density = 2.143033 g / cm^3
# Si number density = 21.479215 Si / 1000 Ang^3
#
#
#
# Elastic Constant Matrix: (Units=GPa)
#
#
# Indices 1 2 3 4 5 6 
#
# 1 143.5951 48.6517 51.7788 -2.1725 18.4617 -8.2603
# 2 48.6517 132.9638 39.2693 12.7229 14.6668 7.6016
# 3 51.7788 39.2693 93.1392 12.2804 7.7716 7.0832
# 4 -2.1725 12.7229 12.2804 41.0057 0.2980 12.4765
# 5 18.4617 14.6668 7.7716 0.2980 46.2652 1.7594
# 6 -8.2603 7.6016 7.0832 12.4765 1.7594 35.1416
#
#
#
# Elastic Compliance Matrix: (Units=1/GPa)
#
#
# Indices 1 2 3 4 5 6 
#
# 1 0.010062 -0.002308 -0.004885 0.001704 -0.002602 0.003374
# 2 -0.002308 0.009465 -0.002207 -0.001971 -0.001644 -0.001363
# 3 -0.004885 -0.002207 0.014989 -0.003293 0.000249 -0.002535
# 4 0.001704 -0.001971 -0.003293 0.028730 0.000646 -0.008742
# 5 -0.002602 -0.001644 0.000249 0.000646 0.023193 -0.001696
# 6 0.003374 -0.001363 -0.002535 -0.008742 -0.001696 0.033244
#
#
# Mechanical properties :
#
#
# Convention : Reuss Voigt Hill
#
# Bulk Modulus (GPa) = 63.62636 72.12197 67.87416
# Shear Modulus (GPa) = 34.78978 39.81573 37.30276
#
# Velocity S-wave (km/s) = 4.02891 4.31012 4.17188
# Velocity P-wave (km/s) = 7.16446 7.64329 7.40774
#
# Compressibility (1/GPa) = 0.01571676
#
# Stress axis : x y z
#
# Youngs Moduli (GPa) = 99.38573 105.65225 66.71588
#
# Poissons Ratio (x) = 0.24384 0.32589
# Poissons Ratio (y) = 0.22937 0.14723
# Poissons Ratio (z) = 0.48548 0.23315
#
# Static dielectric constant tensor:
#      x y z
#    x 4.034810 -0.475490 -0.277300 
#    y -0.475490 2.970530 -0.910330 
#    z -0.277300 -0.910330 2.638530 
# 
# 
# High freq. dielectric constant tensor:
#      x y z
#    x 1.858520 -0.006930 0.012430 
#    y -0.006930 1.836350 0.017540 
#    z 0.012430 0.017540 1.846140 
# 
# From -- ./inp_files/244986.got.cif
#   From: 2010.06.25/outbox.cif.g09.slc.cpg/sg2_123_cif.got.tgz:244986.got - 2010.06.27 13:26:56.
