data_PCOD8033795
_publ_section_title
;
Structure prediction by ZEFSAII (Michael W. Deem and Ramdas Pophale) SiO2 
 PCOD8033795
Probable space group: P -1
;
_chemical_formula_sum "Si O2"
_cell_formula_units_Z 14
_cell_length_a 12.030102
_cell_length_b 11.198751
_cell_length_c 14.232134
_cell_angle_alpha 28.091800
_cell_angle_beta 124.531085
_cell_angle_gamma 135.520568
_cell_volume 621.108290
_symmetry_space_group_name_H-M "P -1"
_symmetry_group_IT_number 2
_symmetry_cell_setting 'triclinic'
loop_
_space_group_symop_operation_xyz
x,y,z
-x,-y,-z
loop_
_atom_site_type_symbol
_atom_site_label
_atom_site_fract_x
_atom_site_fract_y
_atom_site_fract_z
Si Si1 0.415141 0.828170 0.404309
Si Si2 0.226904 0.780662 0.669033
Si Si3 0.650852 0.793186 0.201069
Si Si4 0.034989 0.233291 0.096631
Si Si5 0.854255 0.213775 0.579379
Si Si6 0.591069 0.222872 0.778696
Si Si7 0.851532 0.749808 0.660874
O O1 0.391128 0.521033 0.648199
O O2 0.303542 0.914802 0.343116
O O3 0.362770 0.725251 0.343541
O O4 0.592455 0.134415 0.285933
O O5 0.166977 0.667445 0.613297
O O6 0.250152 0.106184 0.463654
O O7 0.102205 0.527913 0.858390
O O8 0.564202 0.757090 0.286530
O O9 0.842172 0.025443 0.141271
O O10 0.559504 0.897052 0.016627
O O11 0.089329 0.341455 0.154909
O O12 0.111091 0.047517 0.229163
O O13 0.000000 0.500000 0.500000
O O14 0.748311 0.457529 0.750696
O O15 0.000000 0.000000 0.500000
#
# Coordination Sequence:
#
# PCOD8033795 Si02
#       7
#     2   2   2   2   2   2   2
#     4  12  25  46  71  95 141 180 222 279 337 395
#     4  11  27  44  69 102 134 180 224 280 342 390
#     4  11  24  43  66 100 138 177 222 269 337 402
#     4  11  26  44  72 102 135 178 225 281 339 392
#     4  11  26  48  71  99 132 176 235 281 333 403
#     4  11  26  40  69 103 134 180 227 266 334 411
#     4  11  24  42  66 102 144 174 225 273 330 410
#
# _framework density 22.540353
#
# number of rings (size 3 to 8) (size 9 to 14) (size 15 to 20)
#    0.000    0.857    2.857    2.571   10.000    3.429 
#    0.000    0.000    0.000    0.000    0.000    0.000 
#    0.000    0.000    0.000    0.000    0.000    0.000 
#
# Total GULP energy -173614.118176 kJ/mol
# GULP energy per Si atom -12401.008441 kJ/mol
# Density = 2.248905 g / cm^3
# Si number density = 22.540353 Si / 1000 Ang^3
#
#
#
# Elastic Constant Matrix: (Units=GPa)
#
#
# Indices 1 2 3 4 5 6 
#
# 1 117.5161 36.4774 27.7198 16.6252 -12.0038 12.9480
# 2 36.4774 129.6353 29.0272 5.2110 -15.4476 1.1654
# 3 27.7198 29.0272 83.6064 0.8306 -8.6072 -3.3266
# 4 16.6252 5.2110 0.8306 26.6705 1.5570 -7.9873
# 5 -12.0038 -15.4476 -8.6072 1.5570 38.2402 -0.5933
# 6 12.9480 1.1654 -3.3266 -7.9873 -0.5933 44.8830
#
#
#
# Elastic Compliance Matrix: (Units=1/GPa)
#
#
# Indices 1 2 3 4 5 6 
#
# 1 0.011891 -0.001955 -0.003123 -0.008610 0.002511 -0.005110
# 2 -0.001955 0.009096 -0.002234 -0.000614 0.002584 0.000087
# 3 -0.003123 -0.002234 0.013967 0.002620 0.001193 0.002476
# 4 -0.008610 -0.000614 0.002620 0.046402 -0.004081 0.010897
# 5 0.002511 0.002584 0.001193 -0.004081 0.028401 -0.001054
# 6 -0.005110 0.000087 0.002476 0.010897 -0.001054 0.025861
#
#
# Mechanical properties :
#
#
# Convention : Reuss Voigt Hill
#
# Bulk Modulus (GPa) = 49.18997 57.46740 53.32869
# Shear Modulus (GPa) = 31.84344 37.79431 34.81888
#
# Velocity S-wave (km/s) = 3.76271 4.09924 3.93458
# Velocity P-wave (km/s) = 6.38340 6.92501 6.65971
#
# Compressibility (1/GPa) = 0.02032935
#
# Stress axis : x y z
#
# Youngs Moduli (GPa) = 84.10061 109.93560 71.59674
#
# Poissons Ratio (x) = 0.21496 0.22358
# Poissons Ratio (y) = 0.16445 0.15996
# Poissons Ratio (z) = 0.26262 0.24562
#
# Static dielectric constant tensor:
#      x y z
#    x 4.090360 0.128250 -0.203790 
#    y 0.128250 4.040480 -0.085540 
#    z -0.203790 -0.085540 4.384800 
# 
# 
# High freq. dielectric constant tensor:
#      x y z
#    x 1.900130 0.011830 0.003600 
#    y 0.011830 1.890430 -0.000290 
#    z 0.003600 -0.000290 1.892820 
# 
# From -- ./inp_files/397076.got.cif
#   From: 2010.06.25/outbox.cif.g09.slc.cpg/sg2_199_cif.got.tgz:397076.got - 2010.06.27 13:26:56.
