data_PCOD8033322
_publ_section_title
;
Structure prediction by ZEFSAII (Michael W. Deem and Ramdas Pophale) SiO2 
 PCOD8033322
Probable space group: P -1
;
_chemical_formula_sum "Si O2"
_cell_formula_units_Z 14
_cell_length_a 8.856773
_cell_length_b 14.674195
_cell_length_c 6.853987
_cell_angle_alpha 46.740048
_cell_angle_beta 95.183720
_cell_angle_gamma 85.409284
_cell_volume 633.567258
_symmetry_space_group_name_H-M "P -1"
_symmetry_group_IT_number 2
_symmetry_cell_setting 'triclinic'
loop_
_space_group_symop_operation_xyz
x,y,z
-x,-y,-z
loop_
_atom_site_type_symbol
_atom_site_label
_atom_site_fract_x
_atom_site_fract_y
_atom_site_fract_z
Si Si1 0.298270 0.162039 0.507096
Si Si2 0.635360 0.428836 0.765220
Si Si3 0.179881 0.451870 0.061945
Si Si4 0.210357 0.656413 0.472636
Si Si5 0.925425 0.875504 0.139876
Si Si6 0.162043 0.009283 0.416058
Si Si7 0.615260 0.225931 0.376110
O O1 0.210457 0.303206 0.234335
O O2 0.230191 0.123100 0.758866
O O3 0.275109 0.050808 0.523197
O O4 0.480484 0.154653 0.530418
O O5 0.500000 0.500000 0.500000
O O6 0.717185 0.520360 0.778598
O O7 0.765522 0.352697 0.744807
O O8 0.569522 0.331118 0.044183
O O9 0.223278 0.517831 0.773193
O O10 0.000000 0.500000 0.000000
O O11 0.346968 0.712176 0.507883
O O12 0.046971 0.744943 0.379531
O O13 0.867144 0.878035 0.909635
O O14 0.000000 0.000000 0.000000
O O15 0.235530 0.873449 0.532103
O O16 0.000000 0.000000 0.500000
#
# Coordination Sequence:
#
# PCOD8033322 Si02
#       7
#     2   2   2   2   2   2   2
#     4  12  26  44  68  99 143 175 229 292 334 412
#     4  11  25  44  73 102 139 184 230 281 352 418
#     4  11  25  45  68 106 141 180 232 286 349 404
#     4  11  23  45  74  97 141 180 225 286 342 416
#     4  12  24  43  68 100 129 182 232 275 339 408
#     4  12  25  44  70  96 137 183 229 278 346 408
#     4  11  25  45  69 104 139 180 225 287 352 404
#
# _framework density 22.097102
#
# number of rings (size 3 to 8) (size 9 to 14) (size 15 to 20)
#    0.000    0.571    4.286    3.000    4.000    6.857 
#    0.000    0.000    0.000    0.000    0.000    0.000 
#    0.000    0.000    0.000    0.000    0.000    0.000 
#
# Total GULP energy -173551.403680 kJ/mol
# GULP energy per Si atom -12396.528834 kJ/mol
# Density = 2.204681 g / cm^3
# Si number density = 22.097102 Si / 1000 Ang^3
#
#
#
# Elastic Constant Matrix: (Units=GPa)
#
#
# Indices 1 2 3 4 5 6 
#
# 1 110.1917 -1.3578 29.1525 0.2275 -19.2802 -1.9287
# 2 -1.3578 54.6833 18.1668 -2.2544 -12.1689 -5.3243
# 3 29.1525 18.1668 119.1903 12.1027 -12.2215 1.9169
# 4 0.2275 -2.2544 12.1027 38.7935 -3.9138 1.1127
# 5 -19.2802 -12.1689 -12.2215 -3.9138 46.0539 -2.5519
# 6 -1.9287 -5.3243 1.9169 1.1127 -2.5519 34.8559
#
#
#
# Elastic Compliance Matrix: (Units=1/GPa)
#
#
# Indices 1 2 3 4 5 6 
#
# 1 0.010622 0.002345 -0.002645 0.001319 0.004553 0.001383
# 2 0.002345 0.021398 -0.003557 0.002847 0.006153 0.003954
# 3 -0.002645 -0.003557 0.009952 -0.003238 0.000257 -0.001115
# 4 0.001319 0.002847 -0.003238 0.027223 0.002759 0.000019
# 5 0.004553 0.006153 0.000257 0.002759 0.025713 0.002972
# 6 0.001383 0.003954 -0.001115 0.000019 0.002972 0.029648
#
#
# Mechanical properties :
#
#
# Convention : Reuss Voigt Hill
#
# Bulk Modulus (GPa) = 29.18972 41.77649 35.48310
# Shear Modulus (GPa) = 34.79718 39.81426 37.30572
#
# Velocity S-wave (km/s) = 3.97260 4.24935 4.11331
# Velocity P-wave (km/s) = 5.85496 6.55918 6.21705
#
# Compressibility (1/GPa) = 0.03425864
#
# Stress axis : x y z
#
# Youngs Moduli (GPa) = 94.14632 46.73235 100.48259
#
# Poissons Ratio (x) = -0.10956 0.26573
# Poissons Ratio (y) = -0.22073 0.35739
# Poissons Ratio (z) = 0.24898 0.16621
#
# Static dielectric constant tensor:
#      x y z
#    x 4.024650 -0.039480 -0.032010 
#    y -0.039480 4.027660 0.121440 
#    z -0.032010 0.121440 4.257490 
# 
# 
# High freq. dielectric constant tensor:
#      x y z
#    x 1.877460 -0.006860 -0.006620 
#    y -0.006860 1.874670 0.001920 
#    z -0.006620 0.001920 1.878230 
# 
# From -- ./inp_files/28374.got.cif
#   From: 2010.06.25/outbox.cif.g09.slc.cpg/sg2_15_cif.got.tgz:28374.got - 2010.06.27 13:26:56.
