data_PCOD8033135
_publ_section_title
;
Structure prediction by ZEFSAII (Michael W. Deem and Ramdas Pophale) SiO2 
 PCOD8033135
Probable space group: P -1
;
_chemical_formula_sum "Si O2"
_cell_formula_units_Z 16
_cell_length_a 15.156486
_cell_length_b 9.115617
_cell_length_c 11.499221
_cell_angle_alpha 53.535905
_cell_angle_beta 71.832454
_cell_angle_gamma 115.464072
_cell_volume 719.984668
_symmetry_space_group_name_H-M "P -1"
_symmetry_group_IT_number 2
_symmetry_cell_setting 'triclinic'
loop_
_space_group_symop_operation_xyz
x,y,z
-x,-y,-z
loop_
_atom_site_type_symbol
_atom_site_label
_atom_site_fract_x
_atom_site_fract_y
_atom_site_fract_z
Si Si1 0.907274 0.146300 0.447618
Si Si2 0.334816 0.741369 0.753040
Si Si3 0.785222 0.584070 0.818726
Si Si4 0.929689 0.517294 0.426299
Si Si5 0.171226 0.848872 0.759157
Si Si6 0.866136 0.836752 0.040759
Si Si7 0.648044 0.615194 0.418060
Si Si8 0.661100 0.332941 0.734294
O O1 0.898712 0.337235 0.413851
O O2 0.806635 0.002297 0.438867
O O3 0.083157 0.362697 0.240645
O O4 0.838655 0.877655 0.685985
O O5 0.300975 0.900128 0.691696
O O6 0.184387 0.400414 0.917372
O O7 0.500000 0.000000 0.500000
O O8 0.350255 0.685449 0.905776
O O9 0.745740 0.528079 0.725241
O O10 0.768814 0.359383 0.607048
O O11 0.000000 0.500000 0.500000
O O12 0.068424 0.882461 0.182038
O O13 0.202737 0.030255 0.769483
O O14 0.000000 0.500000 0.000000
O O15 0.701877 0.604640 0.283053
O O16 0.000000 0.000000 0.000000
O O17 0.500000 0.500000 0.500000
O O18 0.611365 0.416872 0.629683
O O19 0.500000 0.000000 0.000000
#
# Coordination Sequence:
#
# PCOD8033135 Si02
#       8
#     2   2   2   2   2   2   2   2
#     4  11  23  44  76 108 138 187 246 309 352 430
#     4  12  28  47  71 106 150 195 237 303 374 432
#     4  11  25  47  74 104 149 187 244 302 370 432
#     4  12  25  45  74 111 145 188 248 302 367 433
#     4  12  24  43  74 106 136 189 253 291 353 433
#     4  12  26  46  75 106 145 192 251 307 355 434
#     4  12  28  49  72 107 152 195 245 302 375 438
#     4  12  29  48  74 108 153 197 237 306 380 444
#
# _framework density 22.222697
#
# number of rings (size 3 to 8) (size 9 to 14) (size 15 to 20)
#    0.000    0.250    5.000    3.750    7.000    0.000 
#    2.250    1.250    0.000    0.000    0.000    0.000 
#    0.000    0.000    0.000    0.000    0.000    0.000 
#
# Total GULP energy -198312.010764 kJ/mol
# GULP energy per Si atom -12394.500673 kJ/mol
# Density = 2.217212 g / cm^3
# Si number density = 22.222697 Si / 1000 Ang^3
#
#
#
# Elastic Constant Matrix: (Units=GPa)
#
#
# Indices 1 2 3 4 5 6 
#
# 1 120.9225 15.8460 47.8663 10.5963 19.8370 2.3917
# 2 15.8460 91.6401 17.4027 -1.0488 9.3691 -5.8054
# 3 47.8663 17.4027 142.2330 11.6388 11.0534 -8.1543
# 4 10.5963 -1.0488 11.6388 39.2825 0.4242 2.3381
# 5 19.8370 9.3691 11.0534 0.4242 35.7876 3.5250
# 6 2.3917 -5.8054 -8.1543 2.3381 3.5250 33.6845
#
#
#
# Elastic Compliance Matrix: (Units=1/GPa)
#
#
# Indices 1 2 3 4 5 6 
#
# 1 0.010491 -0.000869 -0.002976 -0.001862 -0.004547 -0.001010
# 2 -0.000869 0.011624 -0.000875 0.000708 -0.002503 0.002066
# 3 -0.002976 -0.000875 0.008501 -0.001869 -0.000956 0.002348
# 4 -0.001862 0.000708 -0.001869 0.026647 0.001323 -0.002186
# 5 -0.004547 -0.002503 -0.000956 0.001323 0.031768 -0.003756
# 6 -0.001010 0.002066 0.002348 -0.002186 -0.003756 0.031228
#
#
# Mechanical properties :
#
#
# Convention : Reuss Voigt Hill
#
# Bulk Modulus (GPa) = 47.22539 57.44729 52.33634
# Shear Modulus (GPa) = 36.56097 39.99631 38.27864
#
# Velocity S-wave (km/s) = 4.06052 4.24700 4.15481
# Velocity P-wave (km/s) = 6.57882 7.06797 6.82778
#
# Compressibility (1/GPa) = 0.02117505
#
# Stress axis : x y z
#
# Youngs Moduli (GPa) = 95.32105 86.03240 117.62993
#
# Poissons Ratio (x) = 0.07479 0.35011
# Poissons Ratio (y) = 0.08286 0.10288
# Poissons Ratio (z) = 0.28371 0.07525
#
# Static dielectric constant tensor:
#      x y z
#    x 4.018520 -0.212500 0.232510 
#    y -0.212500 3.332070 0.200920 
#    z 0.232510 0.200920 3.869800 
# 
# 
# High freq. dielectric constant tensor:
#      x y z
#    x 1.884740 -0.000370 0.017170 
#    y -0.000370 1.888170 0.002550 
#    z 0.017170 0.002550 1.878490 
# 
# From -- ./inp_files/298875.got.cif
#   From: 2010.06.25/outbox.cif.g09.slc.cpg/sg2_150_cif.got.tgz:298875.got - 2010.06.27 13:26:56.
