data_PCOD8033329
_publ_section_title
;
Structure prediction by ZEFSAII (Michael W. Deem and Ramdas Pophale) SiO2 
 PCOD8033329
Probable space group: P -1
;
_chemical_formula_sum "Si O2"
_cell_formula_units_Z 16
_cell_length_a 8.772800
_cell_length_b 8.807064
_cell_length_c 12.280618
_cell_angle_alpha 99.260287
_cell_angle_beta 58.026073
_cell_angle_gamma 115.890966
_cell_volume 721.016066
_symmetry_space_group_name_H-M "P -1"
_symmetry_group_IT_number 2
_symmetry_cell_setting 'triclinic'
loop_
_space_group_symop_operation_xyz
x,y,z
-x,-y,-z
loop_
_atom_site_type_symbol
_atom_site_label
_atom_site_fract_x
_atom_site_fract_y
_atom_site_fract_z
Si Si1 0.389076 0.058052 0.457556
Si Si2 0.136471 0.161485 0.035903
Si Si3 0.805045 0.139656 0.698742
Si Si4 0.452294 0.810335 0.029195
Si Si5 0.215510 0.504497 0.923735
Si Si6 0.488274 0.579093 0.628550
Si Si7 0.095967 0.369377 0.463851
Si Si8 0.998028 0.923314 0.691988
O O1 0.510135 0.238768 0.376851
O O2 0.500000 0.000000 0.500000
O O3 0.329701 0.924401 0.365297
O O4 0.204384 0.071529 0.591286
O O5 0.003238 0.128032 0.189403
O O6 0.352374 0.180507 0.986820
O O7 0.177631 0.335771 0.983190
O O8 0.000000 0.000000 0.000000
O O9 0.718655 0.240508 0.820844
O O10 0.022813 0.274321 0.596141
O O11 0.822865 0.980946 0.735338
O O12 0.373104 0.673420 0.945256
O O13 0.500000 0.000000 0.000000
O O14 0.297547 0.491368 0.770123
O O15 0.000000 0.500000 0.000000
O O16 0.500000 0.500000 0.500000
O O17 0.668240 0.564603 0.624875
O O18 0.000000 0.500000 0.500000
O O19 0.013236 0.241640 0.382287
#
# Coordination Sequence:
#
# PCOD8033329 Si02
#       8
#     2   2   2   2   2   2   2   2
#     4  11  25  43  72 105 141 185 246 307 371 449
#     4  12  29  47  76 109 154 200 258 315 382 469
#     4  11  23  45  75 100 142 195 247 308 378 457
#     4  12  25  47  78 106 150 201 252 310 394 457
#     4  12  31  50  74 114 161 202 258 323 385 462
#     4  12  28  45  72 105 151 190 246 312 382 449
#     4  11  25  43  71 105 142 190 249 307 377 451
#     4  11  23  48  73  99 144 194 249 311 375 449
#
# _framework density 22.190908
#
# number of rings (size 3 to 8) (size 9 to 14) (size 15 to 20)
#    0.000    0.500    3.750    3.375   14.000    0.000 
#    0.000    0.000    0.000    0.000    0.000    0.000 
#    0.000    0.000    0.000    0.000    0.000    0.000 
#
# Total GULP energy -198275.418508 kJ/mol
# GULP energy per Si atom -12392.213657 kJ/mol
# Density = 2.214040 g / cm^3
# Si number density = 22.190908 Si / 1000 Ang^3
#
#
#
# Elastic Constant Matrix: (Units=GPa)
#
#
# Indices 1 2 3 4 5 6 
#
# 1 148.0614 49.0799 34.3319 -2.3066 -0.5720 -15.3685
# 2 49.0799 115.8951 37.9661 -1.1986 9.8117 -13.0609
# 3 34.3319 37.9661 172.4848 5.0828 8.2625 4.3924
# 4 -2.3066 -1.1986 5.0828 34.9204 -5.6907 2.4687
# 5 -0.5720 9.8117 8.2625 -5.6907 35.9804 -4.7455
# 6 -15.3685 -13.0609 4.3924 2.4687 -4.7455 40.3152
#
#
#
# Elastic Compliance Matrix: (Units=1/GPa)
#
#
# Indices 1 2 3 4 5 6 
#
# 1 0.008284 -0.002984 -0.001155 0.000707 0.001648 0.002468
# 2 -0.002984 0.010926 -0.001755 -0.000112 -0.002335 0.002325
# 3 -0.001155 -0.001755 0.006567 -0.001204 -0.001479 -0.001825
# 4 0.000707 -0.000112 -0.001204 0.029716 0.004902 -0.000878
# 5 0.001648 -0.002335 -0.001479 0.004902 0.030001 0.003264
# 6 0.002468 0.002325 -0.001825 -0.000878 0.003264 0.027135
#
#
# Mechanical properties :
#
#
# Convention : Reuss Voigt Hill
#
# Bulk Modulus (GPa) = 71.48506 75.46635 73.47571
# Shear Modulus (GPa) = 38.73579 43.24745 40.99162
#
# Velocity S-wave (km/s) = 4.18253 4.41940 4.30260
# Velocity P-wave (km/s) = 7.45710 7.75391 7.60695
#
# Compressibility (1/GPa) = 0.01398894
#
# Stress axis : x y z
#
# Youngs Moduli (GPa) = 120.70823 91.52726 152.28719
#
# Poissons Ratio (x) = 0.27313 0.17585
# Poissons Ratio (y) = 0.36021 0.26726
# Poissons Ratio (z) = 0.13939 0.16063
#
# Static dielectric constant tensor:
#      x y z
#    x 3.132970 0.434500 0.492060 
#    y 0.434500 3.898170 -0.356190 
#    z 0.492060 -0.356190 4.033740 
# 
# 
# High freq. dielectric constant tensor:
#      x y z
#    x 1.878320 -0.005290 -0.001940 
#    y -0.005290 1.872510 -0.003560 
#    z -0.001940 -0.003560 1.896470 
# 
# From -- ./inp_files/382541.got.cif
#   From: 2010.06.25/outbox.cif.g09.slc.cpg/sg2_192_cif.got.tgz:382541.got - 2010.06.27 13:26:56.
