data_PCOD8033823
_publ_section_title
;
Structure prediction by ZEFSAII (Michael W. Deem and Ramdas Pophale) SiO2 
 PCOD8033823
Probable space group: P -1
;
_chemical_formula_sum "Si O2"
_cell_formula_units_Z 14
_cell_length_a 9.205443
_cell_length_b 8.742576
_cell_length_c 24.253081
_cell_angle_alpha 39.685517
_cell_angle_beta 29.223374
_cell_angle_gamma 49.123007
_cell_volume 607.593933
_symmetry_space_group_name_H-M "P -1"
_symmetry_group_IT_number 2
_symmetry_cell_setting 'triclinic'
loop_
_space_group_symop_operation_xyz
x,y,z
-x,-y,-z
loop_
_atom_site_type_symbol
_atom_site_label
_atom_site_fract_x
_atom_site_fract_y
_atom_site_fract_z
Si Si1 0.896763 0.690053 0.938963
Si Si2 0.312438 0.680988 0.069299
Si Si3 0.763897 0.890628 0.231112
Si Si4 0.391430 0.614038 0.715247
Si Si5 0.519784 0.067019 0.803868
Si Si6 0.730187 0.047651 0.538846
Si Si7 0.971299 0.227220 0.300171
O O1 0.062258 0.630662 0.844540
O O2 0.548346 0.690592 0.038568
O O3 0.986677 0.935496 0.870980
O O4 0.000000 0.500000 0.000000
O O5 0.968514 0.674275 0.208180
O O6 0.264926 0.409338 0.137021
O O7 0.352270 0.896391 0.952360
O O8 0.618542 0.989368 0.195456
O O9 0.515893 0.826776 0.377316
O O10 0.494333 0.343329 0.753645
O O11 0.622170 0.784509 0.625219
O O12 0.335520 0.727506 0.642558
O O13 0.875425 0.023162 0.696092
O O14 0.852666 0.227700 0.401590
O O15 0.000000 0.000000 0.500000
#
# Coordination Sequence:
#
# PCOD8033823 Si02
#       7
#     2   2   2   2   2   2   2
#     4  11  24  42  68 107 149 183 231 296 360 425
#     4  12  25  43  75 110 148 186 233 294 366 431
#     4  11  24  44  71 105 142 188 237 295 351 419
#     4  11  26  47  73 105 140 192 238 295 354 427
#     4  12  24  46  74 110 142 186 239 292 363 427
#     4  11  26  51  72 100 144 190 246 294 351 419
#     4  12  25  46  74 104 146 193 236 293 355 425
#
# _framework density 23.041703999999999
#
# number of rings (size 3 to 8) (size 9 to 14) (size 15 to 20)
#    0.000    0.571    4.286    3.429    4.000    1.143 
#    0.000    0.000    0.000    0.000    0.000    0.000 
#    0.000    0.000    0.000    0.000    0.000    0.000 
#
# Total GULP energy -173457.955588 kJ/mol
# GULP energy per Si atom -12389.853971 kJ/mol
# Density = 2.298926 g / cm^3
# Si number density = 23.041704 Si / 1000 Ang^3
#
#
#
# Elastic Constant Matrix: (Units=GPa)
#
#
# Indices 1 2 3 4 5 6 
#
# 1 165.1740 46.5736 56.6311 -2.0818 -0.9726 -16.4338
# 2 46.5736 88.6558 30.8498 -2.7691 -1.1393 -18.7668
# 3 56.6311 30.8498 99.9820 5.0819 7.2779 -12.6467
# 4 -2.0818 -2.7691 5.0819 22.0042 -4.5248 -2.2441
# 5 -0.9726 -1.1393 7.2779 -4.5248 42.4390 1.3839
# 6 -16.4338 -18.7668 -12.6467 -2.2441 1.3839 34.3292
#
#
#
# Elastic Compliance Matrix: (Units=1/GPa)
#
#
# Indices 1 2 3 4 5 6 
#
# 1 0.008279 -0.002702 -0.003862 0.001639 0.000917 0.001133
# 2 -0.002702 0.014985 -0.002537 0.003025 0.000898 0.006125
# 3 -0.003862 -0.002537 0.013613 -0.004280 -0.003000 0.001620
# 4 0.001639 0.003025 -0.004280 0.048572 0.005908 0.003799
# 5 0.000917 0.000898 -0.003000 0.005908 0.024778 -0.000788
# 6 0.001133 0.006125 0.001620 0.003799 -0.000788 0.033898
#
#
# Mechanical properties :
#
#
# Convention : Reuss Voigt Hill
#
# Bulk Modulus (GPa) = 53.55326 69.10233 61.32780
# Shear Modulus (GPa) = 29.66399 34.40497 32.03448
#
# Velocity S-wave (km/s) = 3.59193 3.86834 3.73269
# Velocity P-wave (km/s) = 6.36357 7.07158 6.72690
#
# Compressibility (1/GPa) = 0.01867300
#
# Stress axis : x y z
#
# Youngs Moduli (GPa) = 120.78308 66.73458 73.45743
#
# Poissons Ratio (x) = 0.18035 0.28372
# Poissons Ratio (y) = 0.32641 0.18639
# Poissons Ratio (z) = 0.46651 0.16933
#
# Static dielectric constant tensor:
#      x y z
#    x 4.184270 0.194380 0.023270 
#    y 0.194380 4.597870 0.122990 
#    z 0.023270 0.122990 4.006320 
# 
# 
# High freq. dielectric constant tensor:
#      x y z
#    x 1.927000 -0.001290 0.002650 
#    y -0.001290 1.923620 0.011280 
#    z 0.002650 0.011280 1.902460 
# 
# From -- ./inp_files/201740.got.cif
#   From: 2010.06.25/outbox.cif.g09.slc.cpg/sg2_101_cif.got.tgz:201740.got - 2010.06.27 13:26:56.
