data_PCOD8033132
_publ_section_title
;
Structure prediction by ZEFSAII (Michael W. Deem and Ramdas Pophale) SiO2 
 PCOD8033132
Probable space group: P -1
;
_chemical_formula_sum "Si O2"
_cell_formula_units_Z 14
_cell_length_a 8.432510
_cell_length_b 14.434856
_cell_length_c 15.112634
_cell_angle_alpha 140.170794
_cell_angle_beta 140.526156
_cell_angle_gamma 33.739882
_cell_volume 606.733479
_symmetry_space_group_name_H-M "P -1"
_symmetry_group_IT_number 2
_symmetry_cell_setting 'triclinic'
loop_
_space_group_symop_operation_xyz
x,y,z
-x,-y,-z
loop_
_atom_site_type_symbol
_atom_site_label
_atom_site_fract_x
_atom_site_fract_y
_atom_site_fract_z
Si Si1 0.336601 0.100755 0.094655
Si Si2 0.762100 0.842121 0.441340
Si Si3 0.782817 0.198349 0.592561
Si Si4 0.575900 0.310505 0.408770
Si Si5 0.655858 0.816440 0.179945
Si Si6 0.329248 0.641943 0.953043
Si Si7 0.777896 0.581649 0.379876
O O1 0.374214 0.262545 0.233717
O O2 0.974259 0.185857 0.004517
O O3 0.479167 0.975782 0.150231
O O4 0.500000 0.000000 0.000000
O O5 0.601598 0.879859 0.304607
O O6 0.888859 0.650127 0.399327
O O7 0.060267 0.844801 0.566768
O O8 0.500000 0.000000 0.500000
O O9 0.516513 0.313389 0.489547
O O10 0.571746 0.240950 0.618594
O O11 0.981432 0.278134 0.753059
O O12 0.000000 0.000000 0.500000
O O13 0.500000 0.500000 0.500000
O O14 0.547585 0.687401 0.033655
O O15 0.232148 0.574532 0.780153
O O16 0.500000 0.500000 0.000000
O O17 0.000000 0.500000 0.500000
#
# Coordination Sequence:
#
# PCOD8033132 Si02
#       7
#     2   2   2   2   2   2   2
#     4  12  29  48  75 103 150 199 249 301 373 451
#     4  11  25  41  77 104 143 192 243 296 371 438
#     4  11  23  44  76 104 143 187 243 298 363 443
#     4  11  24  45  69 107 143 181 244 307 363 430
#     4  11  26  47  73 106 148 195 245 300 373 448
#     4  12  28  50  72 107 155 188 246 312 374 440
#     4  12  26  46  75 112 146 194 247 309 365 432
#
# _framework density 23.074379
#
# number of rings (size 3 to 8) (size 9 to 14) (size 15 to 20)
#    0.000    0.571    2.857    4.714    8.000    2.857 
#    0.000    0.000    0.000    0.000    0.000    0.000 
#    0.000    0.000    0.000    0.000    0.000    0.000 
#
# Total GULP energy -173450.819029 kJ/mol
# GULP energy per Si atom -12389.344216 kJ/mol
# Density = 2.302186 g / cm^3
# Si number density = 23.074379 Si / 1000 Ang^3
#
#
#
# Elastic Constant Matrix: (Units=GPa)
#
#
# Indices 1 2 3 4 5 6 
#
# 1 140.9008 43.4476 52.4839 -1.1888 4.1051 4.8658
# 2 43.4476 78.4094 32.9481 -5.8487 -17.3046 10.5458
# 3 52.4839 32.9481 126.0338 -8.7926 11.7318 9.3631
# 4 -1.1888 -5.8487 -8.7926 33.2327 10.5264 -3.0169
# 5 4.1051 -17.3046 11.7318 10.5264 47.1308 -2.1615
# 6 4.8658 10.5458 9.3631 -3.0169 -2.1615 57.3280
#
#
#
# Elastic Compliance Matrix: (Units=1/GPa)
#
#
# Indices 1 2 3 4 5 6 
#
# 1 0.009559 -0.004649 -0.002676 -0.000604 -0.001721 0.000384
# 2 -0.004649 0.018961 -0.003676 -0.000639 0.008323 -0.002213
# 3 -0.002676 -0.003676 0.010744 0.003483 -0.004607 -0.000842
# 4 -0.000604 -0.000639 0.003483 0.033673 -0.008521 0.001051
# 5 -0.001721 0.008323 -0.004607 -0.008521 0.027471 -0.000045
# 6 0.000384 -0.002213 -0.000842 0.001051 -0.000045 0.018009
#
#
# Mechanical properties :
#
#
# Convention : Reuss Voigt Hill
#
# Bulk Modulus (GPa) = 57.92755 67.01148 62.46951
# Shear Modulus (GPa) = 34.20600 41.96926 38.08763
#
# Velocity S-wave (km/s) = 3.85440 4.26945 4.06722
# Velocity P-wave (km/s) = 6.70580 7.30813 7.01343
#
# Compressibility (1/GPa) = 0.01726294
#
# Stress axis : x y z
#
# Youngs Moduli (GPa) = 104.61073 52.73975 93.07488
#
# Poissons Ratio (x) = 0.24519 0.24906
# Poissons Ratio (y) = 0.48634 0.34212
# Poissons Ratio (z) = 0.27993 0.19386
#
# Static dielectric constant tensor:
#      x y z
#    x 4.881300 -0.023360 0.277020 
#    y -0.023360 4.222830 -0.218270 
#    z 0.277020 -0.218270 4.264480 
# 
# 
# High freq. dielectric constant tensor:
#      x y z
#    x 1.940720 0.001550 0.008110 
#    y 0.001550 1.915800 -0.012300 
#    z 0.008110 -0.012300 1.902490 
# 
# From -- ./inp_files/347734.got.cif
#   From: 2010.06.25/outbox.cif.g09.slc.cpg/sg2_174_cif.got.tgz:347734.got - 2010.06.27 13:26:56.
