data_PCOD8033683
_publ_section_title
;
Structure prediction by ZEFSAII (Michael W. Deem and Ramdas Pophale) SiO2 
 PCOD8033683
Probable space group: P -1
;
_chemical_formula_sum "Si O2"
_cell_formula_units_Z 16
_cell_length_a 15.884084
_cell_length_b 11.675225
_cell_length_c 9.139251
_cell_angle_alpha 39.770685
_cell_angle_beta 47.782754
_cell_angle_gamma 43.781978
_cell_volume 723.509748
_symmetry_space_group_name_H-M "P -1"
_symmetry_group_IT_number 2
_symmetry_cell_setting 'triclinic'
loop_
_space_group_symop_operation_xyz
x,y,z
-x,-y,-z
loop_
_atom_site_type_symbol
_atom_site_label
_atom_site_fract_x
_atom_site_fract_y
_atom_site_fract_z
Si Si1 0.438937 0.956533 0.757815
Si Si2 0.007744 0.568182 0.588208
Si Si3 0.112143 0.867506 0.107812
Si Si4 0.586772 0.696818 0.106381
Si Si5 0.384063 0.692801 0.888686
Si Si6 0.828430 0.834716 0.053681
Si Si7 0.371949 0.738373 0.540151
Si Si8 0.209165 0.162150 0.229091
O O1 0.361521 0.844164 0.895865
O O2 0.500000 0.000000 0.500000
O O3 0.318141 0.137152 0.792737
O O4 0.544298 0.816287 0.885651
O O5 0.070783 0.717931 0.385898
O O6 0.087607 0.379844 0.774377
O O7 0.000000 0.500000 0.500000
O O8 0.869827 0.680056 0.710326
O O9 0.240202 0.717285 0.017125
O O10 0.134435 0.007762 0.062403
O O11 0.000000 0.000000 0.000000
O O12 0.467215 0.741506 0.303370
O O13 0.654950 0.457413 0.238786
O O14 0.674753 0.782868 0.994874
O O15 0.427542 0.745881 0.629255
O O16 0.500000 0.500000 0.000000
O O17 0.861743 0.830676 0.846835
O O18 0.246838 0.941048 0.465468
#
# Coordination Sequence:
#
# PCOD8033683 Si02
#       8
#     2   2   2   2   2   2   2   2
#     4  11  24  42  70 105 144 186 237 297 363 433
#     4  12  28  46  75 102 137 196 248 298 367 426
#     4  11  25  48  73 101 145 189 244 307 365 436
#     4  11  25  44  71 109 150 189 233 300 371 440
#     4  11  24  40  69 106 140 181 244 297 361 435
#     4  11  27  48  69 104 142 184 250 296 360 447
#     4  11  24  43  71 106 151 193 236 298 377 438
#     4  12  27  46  72 106 146 192 247 301 365 441
#
# _framework density 22.114422000000001
#
# number of rings (size 3 to 8) (size 9 to 14) (size 15 to 20)
#    0.000    0.750    3.750    2.250    8.750    2.500 
#    0.000    0.000    0.000    0.000    0.000    0.000 
#    0.000    0.000    0.000    0.000    0.000    0.000 
#
# Total GULP energy -198219.452034 kJ/mol
# GULP energy per Si atom -12388.715752 kJ/mol
# Density = 2.206409 g / cm^3
# Si number density = 22.114422 Si / 1000 Ang^3
#
#
#
# Elastic Constant Matrix: (Units=GPa)
#
#
# Indices 1 2 3 4 5 6 
#
# 1 129.0020 56.7083 58.9025 -9.9972 26.1750 3.9339
# 2 56.7083 125.8258 67.5254 -23.9116 18.4534 2.3398
# 3 58.9025 67.5254 116.6200 -11.9325 28.9281 -20.0177
# 4 -9.9972 -23.9116 -11.9325 41.0847 -1.7013 16.1614
# 5 26.1750 18.4534 28.9281 -1.7013 47.8034 2.5967
# 6 3.9339 2.3398 -20.0177 16.1614 2.5967 27.6295
#
#
#
# Elastic Compliance Matrix: (Units=1/GPa)
#
#
# Indices 1 2 3 4 5 6 
#
# 1 0.011774 -0.001149 -0.005729 0.003415 -0.002006 -0.007539
# 2 -0.001149 0.017341 -0.011795 0.013587 0.002536 -0.018037
# 3 -0.005729 -0.011795 0.023834 -0.012366 -0.008647 0.027129
# 4 0.003415 0.013587 -0.012366 0.044114 0.003936 -0.036770
# 5 -0.002006 0.002536 -0.008647 0.003936 0.027010 -0.011035
# 6 -0.007539 -0.018037 0.027129 -0.036770 -0.011035 0.080994
#
#
# Mechanical properties :
#
#
# Convention : Reuss Voigt Hill
#
# Bulk Modulus (GPa) = 64.08834 81.96891 73.02863
# Shear Modulus (GPa) = 20.19265 35.85763 28.02514
#
# Velocity S-wave (km/s) = 3.02503 4.03110 3.56375
# Velocity P-wave (km/s) = 6.42218 7.66894 7.07308
#
# Compressibility (1/GPa) = 0.01560346
#
# Stress axis : x y z
#
# Youngs Moduli (GPa) = 84.93248 57.66740 41.95632
#
# Poissons Ratio (x) = 0.06625 0.24036
# Poissons Ratio (y) = 0.09757 0.49489
# Poissons Ratio (z) = 0.48656 0.68021
#
# Static dielectric constant tensor:
#      x y z
#    x 3.987860 -0.000270 -0.013820 
#    y -0.000270 4.157060 -0.215540 
#    z -0.013820 -0.215540 3.925570 
# 
# 
# High freq. dielectric constant tensor:
#      x y z
#    x 1.872390 0.003960 0.012030 
#    y 0.003960 1.890120 -0.001440 
#    z 0.012030 -0.001440 1.871410 
# 
# From -- ./inp_files/306133.got.cif
#   From: 2010.06.25/outbox.cif.g09.slc.cpg/sg2_154_cif.got.tgz:306133.got - 2010.06.27 13:26:56.
