data_PCOD8033034
_publ_section_title
;
Structure prediction by ZEFSAII (Michael W. Deem and Ramdas Pophale) SiO2 
 PCOD8033034
Probable space group: P -1
;
_chemical_formula_sum "Si O2"
_cell_formula_units_Z 16
_cell_length_a 16.328332
_cell_length_b 8.497798
_cell_length_c 8.578414
_cell_angle_alpha 129.314935
_cell_angle_beta 62.841615
_cell_angle_gamma 89.122157
_cell_volume 734.837064
_symmetry_space_group_name_H-M "P -1"
_symmetry_group_IT_number 2
_symmetry_cell_setting 'triclinic'
loop_
_space_group_symop_operation_xyz
x,y,z
-x,-y,-z
loop_
_atom_site_type_symbol
_atom_site_label
_atom_site_fract_x
_atom_site_fract_y
_atom_site_fract_z
Si Si1 0.232390 0.622677 0.200861
Si Si2 0.272251 0.262035 0.452280
Si Si3 0.397206 0.515149 0.522994
Si Si4 0.885050 0.341589 0.375471
Si Si5 0.886199 0.891442 0.963320
Si Si6 0.720150 0.822975 0.265851
Si Si7 0.772906 0.093172 0.890479
Si Si8 0.600624 0.320608 0.716590
O O1 0.149578 0.606810 0.380964
O O2 0.180268 0.806613 0.222688
O O3 0.302617 0.710084 0.286486
O O4 0.304639 0.374524 0.909068
O O5 0.378789 0.287598 0.396080
O O6 0.187224 0.465337 0.556838
O O7 0.228960 0.255905 0.657971
O O8 0.293059 0.029310 0.200293
O O9 0.500000 0.500000 0.500000
O O10 0.394082 0.578781 0.388582
O O11 0.302337 0.702065 0.811460
O O12 0.000541 0.315602 0.246997
O O13 0.881920 0.112692 0.185564
O O14 0.863204 0.923926 0.817830
O O15 0.803296 0.837015 0.087881
O O16 0.615126 0.061388 0.519099
O O17 0.500000 0.500000 0.000000
#
# Coordination Sequence:
#
# PCOD8033034 Si02
#       8
#     2   2   2   2   2   2   2   2
#     4  12  23  44  70  98 142 183 226 284 339 403
#     4  12  24  44  71  98 138 184 226 281 344 404
#     4  12  26  47  68 102 135 177 233 286 339 410
#     4  11  23  44  72 103 140 182 229 284 344 409
#     4  11  23  44  72 103 140 182 229 284 344 409
#     4  12  24  44  71  98 138 184 226 281 344 404
#     4  12  23  44  70  98 142 183 226 284 339 403
#     4  12  26  47  68 102 135 177 233 286 339 410
#
# _framework density 21.773533
#
# number of rings (size 3 to 8) (size 9 to 14) (size 15 to 20)
#    0.000    0.250    7.500    1.500    0.000    4.000 
#    0.000    0.000    0.000    0.000    0.000    0.000 
#    0.000    0.000    0.000    0.000    0.000    0.000 
#
# Total GULP energy -198336.148239 kJ/mol
# GULP energy per Si atom -12396.009265 kJ/mol
# Density = 2.172398 g / cm^3
# Si number density = 21.773533 Si / 1000 Ang^3
#
#
#
# Elastic Constant Matrix: (Units=GPa)
#
#
# Indices 1 2 3 4 5 6 
#
# 1 72.0932 18.2466 28.6979 2.9337 0.6959 -4.6818
# 2 18.2466 116.2936 49.9591 -11.4524 -6.6902 -16.1035
# 3 28.6979 49.9591 102.7838 -6.2905 13.5177 -2.5933
# 4 2.9337 -11.4524 -6.2905 32.6536 5.2956 21.6737
# 5 0.6959 -6.6902 13.5177 5.2956 39.7022 5.1912
# 6 -4.6818 -16.1035 -2.5933 21.6737 5.1912 24.2945
#
#
#
# Elastic Compliance Matrix: (Units=1/GPa)
#
#
# Indices 1 2 3 4 5 6 
#
# 1 0.017230 0.000426 -0.005574 -0.011032 0.001501 0.012529
# 2 0.000426 0.012787 -0.006838 -0.005249 0.003642 0.011733
# 3 -0.005574 -0.006838 0.015730 0.009480 -0.006229 -0.011055
# 4 -0.011032 -0.005249 0.009480 0.085199 -0.004881 -0.079559
# 5 0.001501 0.003642 -0.006229 -0.004881 0.028508 0.000301
# 6 0.012529 0.011733 -0.011055 -0.079559 0.000301 0.121085
#
#
# Mechanical properties :
#
#
# Convention : Reuss Voigt Hill
#
# Bulk Modulus (GPa) = 45.92651 53.88642 49.90646
# Shear Modulus (GPa) = 16.03747 32.28120 24.15933
#
# Velocity S-wave (km/s) = 2.71690 3.85462 3.33464
# Velocity P-wave (km/s) = 5.56603 6.67930 6.14792
#
# Compressibility (1/GPa) = 0.02177392
#
# Stress axis : x y z
#
# Youngs Moduli (GPa) = 58.03800 78.20415 63.57272
#
# Poissons Ratio (x) = -0.03333 0.35438
# Poissons Ratio (y) = -0.02473 0.43474
# Poissons Ratio (z) = 0.32352 0.53479
#
# Static dielectric constant tensor:
#      x y z
#    x 4.290750 -0.261370 0.582100 
#    y -0.261370 5.058250 -0.719330 
#    z 0.582100 -0.719330 4.975610 
# 
# 
# High freq. dielectric constant tensor:
#      x y z
#    x 1.843700 -0.002780 0.032330 
#    y -0.002780 1.873520 -0.002020 
#    z 0.032330 -0.002020 1.863040 
# 
# From -- ./inp_files/329539.got.cif
#   From: 2010.06.25/outbox.cif.g09.slc.cpg/sg2_165_cif.got.tgz:329539.got - 2010.06.27 13:26:56.
