data_PCOD8033578
_publ_section_title
;
Structure prediction by ZEFSAII (Michael W. Deem and Ramdas Pophale) SiO2 
 PCOD8033578
Probable space group: P -1
;
_chemical_formula_sum "Si O2"
_cell_formula_units_Z 16
_cell_length_a 12.263662
_cell_length_b 16.555806
_cell_length_c 8.641220
_cell_angle_alpha 98.002761
_cell_angle_beta 107.276946
_cell_angle_gamma 144.984946
_cell_volume 688.333183
_symmetry_space_group_name_H-M "P -1"
_symmetry_group_IT_number 2
_symmetry_cell_setting 'triclinic'
loop_
_space_group_symop_operation_xyz
x,y,z
-x,-y,-z
loop_
_atom_site_type_symbol
_atom_site_label
_atom_site_fract_x
_atom_site_fract_y
_atom_site_fract_z
Si Si1 0.700705 0.278531 0.775318
Si Si2 0.545854 0.044873 0.855085
Si Si3 0.082411 0.706658 0.356793
Si Si4 0.548036 0.529739 0.346731
Si Si5 0.635072 0.840106 0.631029
Si Si6 0.014977 0.777964 0.082731
Si Si7 0.984402 0.942573 0.639487
Si Si8 0.475305 0.671180 0.834772
O O1 0.566581 0.153957 0.841954
O O2 0.717322 0.217380 0.642945
O O3 0.534703 0.243425 0.615135
O O4 0.000000 0.500000 0.000000
O O5 0.817209 0.172646 0.947738
O O6 0.253107 0.824082 0.614697
O O7 0.500000 0.000000 0.000000
O O8 0.040071 0.764791 0.266820
O O9 0.789990 0.476954 0.214819
O O10 0.500000 0.500000 0.500000
O O11 0.852013 0.766700 0.504541
O O12 0.528331 0.428124 0.230420
O O13 0.307782 0.431167 0.149857
O O14 0.774867 0.846802 0.646283
O O15 0.455669 0.707387 0.673880
O O16 0.869644 0.056219 0.834697
O O17 0.000000 0.000000 0.500000
O O18 0.275427 0.133826 0.901954
#
# Coordination Sequence:
#
# PCOD8033578 Si02
#       8
#     2   2   2   2   2   2   2   2
#     4  11  26  45  71 101 142 184 232 290 352 416
#     4  11  25  45  71 106 135 183 239 283 351 425
#     4  11  25  48  68 103 140 184 232 286 359 417
#     4  12  26  46  74 103 141 188 235 292 353 411
#     4  12  24  48  70  98 146 186 234 295 347 418
#     4  11  23  47  73  95 143 189 227 295 356 411
#     4  12  28  46  71 109 142 184 244 291 352 422
#     4  12  28  46  72 106 144 188 239 290 352 420
#
# _framework density 23.244558000000001
#
# number of rings (size 3 to 8) (size 9 to 14) (size 15 to 20)
#    0.000    0.500    5.000    2.625   10.500    2.500 
#    0.000    0.000    0.000    0.000    0.000    0.000 
#    0.000    0.000    0.000    0.000    0.000    0.000 
#
# Total GULP energy -198342.947187 kJ/mol
# GULP energy per Si atom -12396.434199 kJ/mol
# Density = 2.319165 g / cm^3
# Si number density = 23.244558 Si / 1000 Ang^3
#
#
#
# Elastic Constant Matrix: (Units=GPa)
#
#
# Indices 1 2 3 4 5 6 
#
# 1 33.9602 10.5502 16.0125 3.9370 4.2167 -6.7231
# 2 10.5502 156.4591 54.8850 -7.9538 -3.9818 -3.3799
# 3 16.0125 54.8850 145.1915 1.7802 1.7361 -9.2781
# 4 3.9370 -7.9538 1.7802 55.6828 0.9035 -6.7224
# 5 4.2167 -3.9818 1.7361 0.9035 32.3964 3.9782
# 6 -6.7231 -3.3799 -9.2781 -6.7224 3.9782 34.3515
#
#
#
# Elastic Compliance Matrix: (Units=1/GPa)
#
#
# Indices 1 2 3 4 5 6 
#
# 1 0.033115 -0.001380 -0.002675 -0.001662 -0.005012 0.005878
# 2 -0.001380 0.007534 -0.002737 0.001220 0.001239 -0.000173
# 3 -0.002675 -0.002737 0.008322 -0.000281 -0.000607 0.001470
# 4 -0.001662 0.001220 -0.000281 0.018684 -0.000562 0.003441
# 5 -0.005012 0.001239 -0.000607 -0.000562 0.032319 -0.004876
# 6 0.005878 -0.000173 0.001470 0.003441 -0.004876 0.031879
#
#
# Mechanical properties :
#
#
# Convention : Reuss Voigt Hill
#
# Bulk Modulus (GPa) = 28.25785 55.38958 41.82371
# Shear Modulus (GPa) = 31.80020 41.43033 36.61526
#
# Velocity S-wave (km/s) = 3.70276 4.22639 3.97321
# Velocity P-wave (km/s) = 5.51939 6.90632 6.25144
#
# Compressibility (1/GPa) = 0.03538840
#
# Stress axis : x y z
#
# Youngs Moduli (GPa) = 30.19814 132.72489 120.16887
#
# Poissons Ratio (x) = 0.18313 0.32140
# Poissons Ratio (y) = 0.04167 0.32888
# Poissons Ratio (z) = 0.08077 0.36324
#
# Static dielectric constant tensor:
#      x y z
#    x 3.964200 -0.009720 0.264850 
#    y -0.009720 4.418300 0.027390 
#    z 0.264850 0.027390 4.122590 
# 
# 
# High freq. dielectric constant tensor:
#      x y z
#    x 1.904240 -0.002110 -0.000600 
#    y -0.002110 1.934980 0.001530 
#    z -0.000600 0.001530 1.936230 
# 
# From -- ./inp_files/317670.got.cif
#   From: 2010.06.25/outbox.cif.g09.slc.cpg/sg2_159_cif.got.tgz:317670.got - 2010.06.27 13:26:56.
