data_PCOD8033618
_publ_section_title
;
Structure prediction by ZEFSAII (Michael W. Deem and Ramdas Pophale) SiO2 
 PCOD8033618
Probable space group: P -1
;
_chemical_formula_sum "Si O2"
_cell_formula_units_Z 12
_cell_length_a 13.637133
_cell_length_b 14.462841
_cell_length_c 9.638614
_cell_angle_alpha 34.647864
_cell_angle_beta 36.555792
_cell_angle_gamma 31.302217
_cell_volume 528.124938
_symmetry_space_group_name_H-M "P -1"
_symmetry_group_IT_number 2
_symmetry_cell_setting 'triclinic'
loop_
_space_group_symop_operation_xyz
x,y,z
-x,-y,-z
loop_
_atom_site_type_symbol
_atom_site_label
_atom_site_fract_x
_atom_site_fract_y
_atom_site_fract_z
Si Si1 0.650473 0.467140 0.987261
Si Si2 0.702322 0.993781 0.979561
Si Si3 0.070656 0.109918 0.877461
Si Si4 0.310943 0.229520 0.296721
Si Si5 0.006380 0.593573 0.017854
Si Si6 0.674159 0.320743 0.435843
O O1 0.879429 0.333496 0.839969
O O2 0.593863 0.684604 0.820161
O O3 0.500000 0.500000 0.000000
O O4 0.622380 0.362974 0.279461
O O5 0.840853 0.992160 0.947281
O O6 0.787736 0.771522 0.103364
O O7 0.475050 0.088154 0.169890
O O8 0.701189 0.118951 0.697653
O O9 0.251520 0.104623 0.604877
O O10 0.000000 0.000000 0.000000
O O11 0.110319 0.416455 0.227725
O O12 0.124114 0.695597 0.738858
O O13 0.000000 0.500000 0.000000
O O14 0.500000 0.500000 0.500000
#
# Coordination Sequence:
#
# PCOD8033618 Si02
#       6
#     2   2   2   2   2   2
#     4  11  24  46  76 106 144 196 238 301 366 433
#     4  12  24  48  74 105 148 188 243 304 362 440
#     4  12  27  45  74 106 144 197 245 302 368 433
#     4  11  25  50  68 107 150 187 246 301 364 433
#     4  11  26  44  72 104 145 193 234 302 363 433
#     4  11  23  48  74 103 148 187 240 299 364 433
#
# _framework density 22.721896000000001
#
# number of rings (size 3 to 8) (size 9 to 14) (size 15 to 20)
#    0.000    0.667    6.667    2.500    2.333    0.667 
#    3.000    0.000    0.000    0.000    0.000    0.000 
#    0.000    0.000    0.000    0.000    0.000    0.000 
#
# Total GULP energy -148837.984622 kJ/mol
# GULP energy per Si atom -12403.165385 kJ/mol
# Density = 2.267018 g / cm^3
# Si number density = 22.721896 Si / 1000 Ang^3
#
#
#
# Elastic Constant Matrix: (Units=GPa)
#
#
# Indices 1 2 3 4 5 6 
#
# 1 158.6235 43.2714 59.3714 -16.8717 12.0288 12.4702
# 2 43.2714 153.1014 38.6856 11.3868 10.8752 8.1024
# 3 59.3714 38.6856 123.2211 2.9264 18.6765 -0.6483
# 4 -16.8717 11.3868 2.9264 35.4117 0.7952 2.3059
# 5 12.0288 10.8752 18.6765 0.7952 20.3198 1.2087
# 6 12.4702 8.1024 -0.6483 2.3059 1.2087 37.5510
#
#
#
# Elastic Compliance Matrix: (Units=1/GPa)
#
#
# Indices 1 2 3 4 5 6 
#
# 1 0.009114 -0.001786 -0.003832 0.005451 -0.000952 -0.003012
# 2 -0.001786 0.007754 -0.001233 -0.003147 -0.001786 -0.000850
# 3 -0.003832 -0.001233 0.011592 -0.002352 -0.007761 0.002133
# 4 0.005451 -0.003147 -0.002352 0.032257 -0.000457 -0.003138
# 5 -0.000952 -0.001786 -0.007761 -0.000457 0.057959 -0.001270
# 6 -0.003012 -0.000850 0.002133 -0.003138 -0.001270 0.028084
#
#
# Mechanical properties :
#
#
# Convention : Reuss Voigt Hill
#
# Bulk Modulus (GPa) = 67.75576 79.73363 73.74469
# Shear Modulus (GPa) = 30.23284 38.23101 34.23192
#
# Velocity S-wave (km/s) = 3.65164 4.10636 3.88566
# Velocity P-wave (km/s) = 6.90389 7.59277 7.25651
#
# Compressibility (1/GPa) = 0.01475889
#
# Stress axis : x y z
#
# Youngs Moduli (GPa) = 109.71558 128.96788 86.26412
#
# Poissons Ratio (x) = 0.23037 0.33055
# Poissons Ratio (y) = 0.19598 0.10634
# Poissons Ratio (z) = 0.42042 0.15899
#
# Static dielectric constant tensor:
#      x y z
#    x 4.266480 0.035950 0.359050 
#    y 0.035950 4.587900 0.363670 
#    z 0.359050 0.363670 4.084950 
# 
# 
# High freq. dielectric constant tensor:
#      x y z
#    x 1.895160 -0.004970 0.012400 
#    y -0.004970 1.918190 0.014040 
#    z 0.012400 0.014040 1.886730 
# 
# From -- ./inp_files/453580.got.cif
#   From: 2010.06.25/outbox.cif.g09.slc.cpg/sg2_227_cif.got.tgz:453580.got - 2010.06.27 13:26:56.
