data_PCOD8033639
_publ_section_title
;
Structure prediction by ZEFSAII (Michael W. Deem and Ramdas Pophale) SiO2 
 PCOD8033639
Probable space group: P -1
;
_chemical_formula_sum "Si O2"
_cell_formula_units_Z 16
_cell_length_a 9.288579
_cell_length_b 11.228322
_cell_length_c 9.083655
_cell_angle_alpha 80.003393
_cell_angle_beta 127.252387
_cell_angle_gamma 85.595458
_cell_volume 722.379254
_symmetry_space_group_name_H-M "P -1"
_symmetry_group_IT_number 2
_symmetry_cell_setting 'triclinic'
loop_
_space_group_symop_operation_xyz
x,y,z
-x,-y,-z
loop_
_atom_site_type_symbol
_atom_site_label
_atom_site_fract_x
_atom_site_fract_y
_atom_site_fract_z
Si Si1 0.853086 0.724809 0.656047
Si Si2 0.301284 0.048686 0.297606
Si Si3 0.036957 0.123666 0.565305
Si Si4 0.280037 0.591506 0.976664
Si Si5 0.482843 0.630849 0.389442
Si Si6 0.288382 0.805854 0.467065
Si Si7 0.469794 0.315133 0.110722
Si Si8 0.346306 0.088169 0.982642
O O1 0.798170 0.811800 0.746601
O O2 0.860461 0.810074 0.502707
O O3 0.689602 0.656618 0.525002
O O4 0.055226 0.636065 0.837856
O O5 0.326340 0.033622 0.142624
O O6 0.500000 0.000000 0.500000
O O7 0.201352 0.947357 0.329444
O O8 0.856550 0.221681 0.495868
O O9 0.155915 0.084804 0.791139
O O10 0.000000 0.000000 0.500000
O O11 0.400058 0.633016 0.173758
O O12 0.319579 0.441833 0.028155
O O13 0.351729 0.649081 0.862895
O O14 0.500000 0.500000 0.500000
O O15 0.321990 0.725559 0.357856
O O16 0.479258 0.767702 0.689921
O O17 0.379483 0.227655 0.969650
O O18 0.500000 0.000000 0.000000
#
# Coordination Sequence:
#
# PCOD8033639 Si02
#       8
#     2   2   2   2   2   2   2   2
#     4  12  26  48  78 109 150 197 253 310 368 449
#     4  12  24  44  73 109 145 192 243 310 379 440
#     4  12  26  46  70 111 149 190 246 307 376 451
#     4  11  27  46  77 102 149 198 253 300 371 444
#     4  12  27  47  71 108 147 197 245 307 369 436
#     4  12  24  46  72 101 154 182 241 311 372 436
#     4  11  23  50  70 107 143 195 246 306 366 443
#     4  12  27  43  75 107 150 198 243 306 385 443
#
# _framework density 22.149028999999999
#
# number of rings (size 3 to 8) (size 9 to 14) (size 15 to 20)
#    0.000    0.250    6.250    2.250    3.500    2.000 
#    0.000    2.500    0.000    0.000    0.000    0.000 
#    0.000    0.000    0.000    0.000    0.000    0.000 
#
# Total GULP energy -198265.228227 kJ/mol
# GULP energy per Si atom -12391.576764 kJ/mol
# Density = 2.209862 g / cm^3
# Si number density = 22.149029 Si / 1000 Ang^3
#
#
#
# Elastic Constant Matrix: (Units=GPa)
#
#
# Indices 1 2 3 4 5 6 
#
# 1 129.8888 63.8757 54.2688 -0.5353 -0.1801 -16.0449
# 2 63.8757 154.3075 67.1373 8.4883 8.9538 -7.1023
# 3 54.2688 67.1373 151.2681 3.2643 -4.6566 -8.8952
# 4 -0.5353 8.4883 3.2643 34.1151 0.0833 -2.0858
# 5 -0.1801 8.9538 -4.6566 0.0833 41.1358 -5.4168
# 6 -16.0449 -7.1023 -8.8952 -2.0858 -5.4168 45.9617
#
#
#
# Elastic Compliance Matrix: (Units=1/GPa)
#
#
# Indices 1 2 3 4 5 6 
#
# 1 0.010671 -0.003500 -0.002102 0.001418 0.000957 0.002954
# 2 -0.003500 0.009476 -0.003024 -0.002162 -0.002513 -0.000737
# 3 -0.002102 -0.003024 0.008804 -0.000084 0.001738 0.000704
# 4 0.001418 -0.002162 -0.000084 0.029976 0.000614 0.001577
# 5 0.000957 -0.002513 0.001738 0.000614 0.025493 0.003314
# 6 0.002954 -0.000737 0.000704 0.001577 0.003314 0.023273
#
#
# Mechanical properties :
#
#
# Convention : Reuss Voigt Hill
#
# Bulk Modulus (GPa) = 85.48576 89.55867 87.52221
# Shear Modulus (GPa) = 38.80669 40.92137 39.86403
#
# Velocity S-wave (km/s) = 4.19032 4.30297 4.24702
# Velocity P-wave (km/s) = 7.87980 8.07526 7.97813
#
# Compressibility (1/GPa) = 0.01169785
#
# Stress axis : x y z
#
# Youngs Moduli (GPa) = 93.71630 105.53023 113.58654
#
# Poissons Ratio (x) = 0.36935 0.23878
# Poissons Ratio (y) = 0.32800 0.34350
# Poissons Ratio (z) = 0.19701 0.31914
#
# Static dielectric constant tensor:
#      x y z
#    x 4.124300 -0.038090 -0.185050 
#    y -0.038090 4.045330 -0.239530 
#    z -0.185050 -0.239530 4.638650 
# 
# 
# High freq. dielectric constant tensor:
#      x y z
#    x 1.890980 -0.002420 -0.011160 
#    y -0.002420 1.875250 -0.003950 
#    z -0.011160 -0.003950 1.877080 
# 
# From -- ./inp_files/187060.got.cif
#   From: 2010.06.25/outbox.cif.g09.slc.cpg/sg2_94_cif.got.tgz:187060.got - 2010.06.27 13:26:56.
