data_PCOD8033163
_publ_section_title
;
Structure prediction by ZEFSAII (Michael W. Deem and Ramdas Pophale) SiO2 
 PCOD8033163
Probable space group: P -1
;
_chemical_formula_sum "Si O2"
_cell_formula_units_Z 14
_cell_length_a 6.720800
_cell_length_b 22.800033
_cell_length_c 9.659794
_cell_angle_alpha 34.355381
_cell_angle_beta 46.720620
_cell_angle_gamma 54.651306
_cell_volume 607.843995
_symmetry_space_group_name_H-M "P -1"
_symmetry_group_IT_number 2
_symmetry_cell_setting 'triclinic'
loop_
_space_group_symop_operation_xyz
x,y,z
-x,-y,-z
loop_
_atom_site_type_symbol
_atom_site_label
_atom_site_fract_x
_atom_site_fract_y
_atom_site_fract_z
Si Si1 0.021182 0.104076 0.699608
Si Si2 0.026843 0.100237 0.384399
Si Si3 0.555383 0.620688 0.226035
Si Si4 0.529922 0.240611 0.251407
Si Si5 0.639870 0.645090 0.618060
Si Si6 0.489249 0.227114 0.809384
Si Si7 0.089264 0.538572 0.031832
O O1 0.315356 0.153483 0.482654
O O2 0.980594 0.073005 0.619663
O O3 0.785752 0.185633 0.700955
O O4 0.000000 0.000000 0.000000
O O5 0.810382 0.187723 0.269994
O O6 0.000000 0.000000 0.500000
O O7 0.332539 0.140317 0.138773
O O8 0.500000 0.500000 0.500000
O O9 0.474036 0.672536 0.308197
O O10 0.878783 0.625586 0.025418
O O11 0.396090 0.684011 0.058032
O O12 0.409006 0.312622 0.288540
O O13 0.697001 0.738649 0.301975
O O14 0.890111 0.560656 0.678675
O O15 0.380196 0.589993 0.782594
O O16 0.000000 0.500000 0.000000
#
# Coordination Sequence:
#
# PCOD8033163 Si02
#       7
#     2   2   2   2   2   2   2
#     4  12  29  52  79 110 151 196 251 322 391 446
#     4  12  29  51  77 114 150 191 257 320 382 461
#     4  12  27  43  72 111 154 201 250 303 368 445
#     4  12  26  49  76 108 155 197 249 314 376 454
#     4  11  25  42  74 101 141 201 244 301 370 437
#     4  12  27  49  75 110 153 196 254 307 381 455
#     4  11  23  45  67 101 151 195 249 302 358 431
#
# _framework density 23.032222999999998
#
# number of rings (size 3 to 8) (size 9 to 14) (size 15 to 20)
#    0.000    0.286    4.286    3.429   10.000    2.857 
#    0.000    0.000    0.000    0.000    0.000    0.000 
#    0.000    0.000    0.000    0.000    0.000    0.000 
#
# Total GULP energy -173652.351327 kJ/mol
# GULP energy per Si atom -12403.739380 kJ/mol
# Density = 2.297980 g / cm^3
# Si number density = 23.032223 Si / 1000 Ang^3
#
#
#
# Elastic Constant Matrix: (Units=GPa)
#
#
# Indices 1 2 3 4 5 6 
#
# 1 98.3230 24.6112 31.8108 3.1993 19.0275 16.3858
# 2 24.6112 117.6863 15.5841 5.6446 3.5803 26.6667
# 3 31.8108 15.5841 124.8812 -3.3959 19.3003 17.5906
# 4 3.1993 5.6446 -3.3959 37.5606 4.8763 -2.0754
# 5 19.0275 3.5803 19.3003 4.8763 46.2049 -5.1248
# 6 16.3858 26.6667 17.5906 -2.0754 -5.1248 37.3978
#
#
#
# Elastic Compliance Matrix: (Units=1/GPa)
#
#
# Indices 1 2 3 4 5 6 
#
# 1 0.012769 -0.001212 -0.001711 -0.000681 -0.004891 -0.004633
# 2 -0.001212 0.010487 0.000125 -0.001733 -0.000985 -0.007236
# 3 -0.001711 0.000125 0.009693 0.001278 -0.003973 -0.004372
# 4 -0.000681 -0.001733 0.001278 0.027535 -0.002794 0.002079
# 5 -0.004891 -0.000985 -0.003973 -0.002794 0.026598 0.008204
# 6 -0.004633 -0.007236 -0.004372 0.002079 0.008204 0.037226
#
#
# Mechanical properties :
#
#
# Convention : Reuss Voigt Hill
#
# Bulk Modulus (GPa) = 36.56256 53.87807 45.22032
# Shear Modulus (GPa) = 35.96564 42.15827 39.06196
#
# Velocity S-wave (km/s) = 3.95591 4.28296 4.12268
# Velocity P-wave (km/s) = 6.06421 6.92110 6.50678
#
# Compressibility (1/GPa) = 0.02735038
#
# Stress axis : x y z
#
# Youngs Moduli (GPa) = 78.31754 95.35598 103.17179
#
# Poissons Ratio (x) = 0.11560 0.17654
# Poissons Ratio (y) = 0.09494 -0.01285
# Poissons Ratio (z) = 0.13401 -0.01188
#
# Static dielectric constant tensor:
#      x y z
#    x 4.237500 -0.214640 0.165960 
#    y -0.214640 4.445960 0.033000 
#    z 0.165960 0.033000 4.319620 
# 
# 
# High freq. dielectric constant tensor:
#      x y z
#    x 1.919790 -0.001210 0.014240 
#    y -0.001210 1.920800 -0.001440 
#    z 0.014240 -0.001440 1.918570 
# 
# From -- ./inp_files/140969.got.cif
#   From: 2010.06.25/outbox.cif.g09.slc.cpg/sg2_71_cif.got.tgz:140969.got - 2010.06.27 13:26:56.
