data_PCOD8033997
_publ_section_title
;
Structure prediction by ZEFSAII (Michael W. Deem and Ramdas Pophale) SiO2 
 PCOD8033997
Probable space group: P -1
;
_chemical_formula_sum "Si O2"
_cell_formula_units_Z 14
_cell_length_a 12.842621
_cell_length_b 23.479629
_cell_length_c 16.318863
_cell_angle_alpha 17.800062
_cell_angle_beta 143.105305
_cell_angle_gamma 152.842584
_cell_volume 645.731555
_symmetry_space_group_name_H-M "P -1"
_symmetry_group_IT_number 2
_symmetry_cell_setting 'triclinic'
loop_
_space_group_symop_operation_xyz
x,y,z
-x,-y,-z
loop_
_atom_site_type_symbol
_atom_site_label
_atom_site_fract_x
_atom_site_fract_y
_atom_site_fract_z
Si Si1 0.454990 0.733445 0.264088
Si Si2 0.136018 0.551622 0.164794
Si Si3 0.381835 0.520499 0.227155
Si Si4 0.337882 0.560079 0.829784
Si Si5 0.371019 0.932751 0.424922
Si Si6 0.097363 0.256334 0.253267
Si Si7 0.100186 0.674182 0.242407
O O1 0.372145 0.724834 0.133030
O O2 0.473759 0.525753 0.568137
O O3 0.258884 0.649807 0.322823
O O4 0.723200 0.020975 0.046206
O O5 0.171147 0.453490 0.240893
O O6 0.917069 0.301107 0.423257
O O7 0.106923 0.744468 0.851889
O O8 0.254985 0.323268 0.340036
O O9 0.574016 0.819082 0.911363
O O10 0.463908 0.858638 0.511905
O O11 0.126143 0.410393 0.834400
O O12 0.500000 0.500000 0.000000
O O13 0.254289 0.481657 0.977650
O O14 0.500000 0.000000 0.500000
O O15 0.000000 0.000000 0.500000
O O16 0.000000 0.500000 0.500000
#
# Coordination Sequence:
#
# PCOD8033997 Si02
#       7
#     2   2   2   2   2   2   2
#     4  11  26  47  69 106 144 183 242 289 352 429
#     4  11  25  47  69 101 145 182 236 293 350 421
#     4  12  26  43  73 101 140 193 227 291 363 416
#     4  11  25  45  69 105 136 179 237 292 345 417
#     4  11  24  45  67 104 141 176 238 289 345 422
#     4  11  24  43  69 103 137 182 235 294 346 417
#     4  11  26  47  73 103 143 186 235 298 353 414
#
# _framework density 21.680835999999999
#
# number of rings (size 3 to 8) (size 9 to 14) (size 15 to 20)
#    0.000    0.857    5.714    1.714    8.000    2.857 
#    0.000    0.000    0.000    0.000    0.000    0.000 
#    0.000    0.000    0.000    0.000    0.000    0.000 
#
# Total GULP energy -173519.925543 kJ/mol
# GULP energy per Si atom -12394.280396 kJ/mol
# Density = 2.163149 g / cm^3
# Si number density = 21.680836 Si / 1000 Ang^3
#
#
#
# Elastic Constant Matrix: (Units=GPa)
#
#
# Indices 1 2 3 4 5 6 
#
# 1 95.1980 31.2808 29.3754 -5.4252 3.2977 3.6520
# 2 31.2808 135.4147 30.1836 -2.5860 9.7927 -1.8888
# 3 29.3754 30.1836 107.8987 -7.8341 14.4125 14.3267
# 4 -5.4252 -2.5860 -7.8341 35.8858 -5.9008 9.3072
# 5 3.2977 9.7927 14.4125 -5.9008 38.8517 5.2613
# 6 3.6520 -1.8888 14.3267 9.3072 5.2613 33.7831
#
#
#
# Elastic Compliance Matrix: (Units=1/GPa)
#
#
# Indices 1 2 3 4 5 6 
#
# 1 0.012130 -0.002278 -0.002550 0.001483 0.000837 -0.000896
# 2 -0.002278 0.008456 -0.001860 -0.000941 -0.001665 0.002026
# 3 -0.002550 -0.001860 0.011729 0.002987 -0.002503 -0.005236
# 4 0.001483 -0.000941 0.002987 0.032501 0.005467 -0.011285
# 5 0.000837 -0.001665 -0.002503 0.005467 0.028533 -0.005072
# 6 -0.000896 0.002026 -0.005236 -0.011285 -0.005072 0.035930
#
#
# Mechanical properties :
#
#
# Convention : Reuss Voigt Hill
#
# Bulk Modulus (GPa) = 52.80456 57.79901 55.30179
# Shear Modulus (GPa) = 33.56396 38.21556 35.88976
#
# Velocity S-wave (km/s) = 3.93885 4.20294 4.07304
# Velocity P-wave (km/s) = 6.71523 7.09012 6.90522
#
# Compressibility (1/GPa) = 0.01893776
#
# Stress axis : x y z
#
# Youngs Moduli (GPa) = 82.44131 118.25385 85.25856
#
# Poissons Ratio (x) = 0.26942 0.21743
# Poissons Ratio (y) = 0.18783 0.15860
# Poissons Ratio (z) = 0.21024 0.21998
#
# Static dielectric constant tensor:
#      x y z
#    x 5.498010 -0.073140 0.375790 
#    y -0.073140 3.889390 0.150110 
#    z 0.375790 0.150110 4.522860 
# 
# 
# High freq. dielectric constant tensor:
#      x y z
#    x 1.857780 -0.011170 0.009150 
#    y -0.011170 1.855760 0.002270 
#    z 0.009150 0.002270 1.862220 
# 
# From -- ./inp_files/243265.got.cif
#   From: 2010.06.25/outbox.cif.g09.slc.cpg/sg2_122_cif.got.tgz:243265.got - 2010.06.27 13:26:56.
