data_PCOD8033577
_publ_section_title
;
Structure prediction by ZEFSAII (Michael W. Deem and Ramdas Pophale) SiO2 
 PCOD8033577
Probable space group: P -1
;
_chemical_formula_sum "Si O2"
_cell_formula_units_Z 14
_cell_length_a 11.649786
_cell_length_b 5.993391
_cell_length_c 16.580128
_cell_angle_alpha 127.820861
_cell_angle_beta 39.426229
_cell_angle_gamma 119.141647
_cell_volume 580.559022
_symmetry_space_group_name_H-M "P -1"
_symmetry_group_IT_number 2
_symmetry_cell_setting 'triclinic'
loop_
_space_group_symop_operation_xyz
x,y,z
-x,-y,-z
loop_
_atom_site_type_symbol
_atom_site_label
_atom_site_fract_x
_atom_site_fract_y
_atom_site_fract_z
Si Si1 0.273792 0.676364 0.436955
Si Si2 0.522095 0.175083 0.394022
Si Si3 0.192718 0.719342 0.020445
Si Si4 0.952456 0.328857 0.600473
Si Si5 0.112150 0.099748 0.880885
Si Si6 0.684607 0.327693 0.874327
Si Si7 0.514388 0.834492 0.773434
O O1 0.186888 0.641450 0.389415
O O2 0.451668 0.491889 0.301072
O O3 0.128476 0.539729 0.548013
O O4 0.360961 0.985869 0.483475
O O5 0.500000 0.500000 0.500000
O O6 0.489492 0.096014 0.302117
O O7 0.731793 0.106603 0.280321
O O8 0.254399 0.740861 0.083932
O O9 0.002403 0.851325 0.128389
O O10 0.205353 0.394401 0.919068
O O11 0.326996 0.908350 0.933903
O O12 0.857303 0.456338 0.760798
O O13 0.000000 0.000000 0.500000
O O14 0.000000 0.000000 0.000000
O O15 0.669559 0.024360 0.772351
O O16 0.500000 0.500000 0.000000
#
# Coordination Sequence:
#
# PCOD8033577 Si02
#       7
#     2   2   2   2   2   2   2
#     4  11  23  47  77 100 154 204 242 313 392 446
#     4  12  26  49  76 111 151 207 265 314 383 459
#     4  11  25  45  79 111 148 204 255 307 393 454
#     4  11  23  47  73 111 152 195 245 316 391 452
#     4  11  24  51  72 105 156 199 254 328 368 453
#     4  12  25  46  78 117 151 194 250 318 390 465
#     4  12  23  49  74 108 155 194 249 318 385 459
#
# _framework density 24.114688000000001
#
# number of rings (size 3 to 8) (size 9 to 14) (size 15 to 20)
#    0.000    0.571    5.714    2.143    0.000    0.571 
#    7.714    0.000    0.000    0.000    0.000    0.000 
#    0.000    0.000    0.000    0.000    0.000    0.000 
#
# Total GULP energy -173451.506015 kJ/mol
# GULP energy per Si atom -12389.393287 kJ/mol
# Density = 2.405980 g / cm^3
# Si number density = 24.114688 Si / 1000 Ang^3
#
#
#
# Elastic Constant Matrix: (Units=GPa)
#
#
# Indices 1 2 3 4 5 6 
#
# 1 138.1284 38.7196 47.3913 3.0148 -1.2259 -4.5378
# 2 38.7196 143.2182 64.5691 -16.9177 -5.8931 10.3477
# 3 47.3913 64.5691 144.1960 -14.5453 -14.4273 1.6977
# 4 3.0148 -16.9177 -14.5453 42.6882 -3.7163 -6.0985
# 5 -1.2259 -5.8931 -14.4273 -3.7163 35.3148 2.4857
# 6 -4.5378 10.3477 1.6977 -6.0985 2.4857 36.0158
#
#
#
# Elastic Compliance Matrix: (Units=1/GPa)
#
#
# Indices 1 2 3 4 5 6 
#
# 1 0.008612 -0.001612 -0.002455 -0.001993 -0.001282 0.001415
# 2 -0.001612 0.009411 -0.003357 0.002409 0.000564 -0.002380
# 3 -0.002455 -0.003357 0.009863 0.002573 0.003628 0.000376
# 4 -0.001993 0.002409 0.002573 0.026182 0.003921 0.003098
# 5 -0.001282 0.000564 0.003628 0.003921 0.030397 -0.001929
# 6 0.001415 -0.002380 0.000376 0.003098 -0.001929 0.029268
#
#
# Mechanical properties :
#
#
# Convention : Reuss Voigt Hill
#
# Bulk Modulus (GPa) = 76.69096 80.76697 78.72896
# Shear Modulus (GPa) = 37.61449 41.12791 39.37120
#
# Velocity S-wave (km/s) = 3.95374 4.13427 4.04501
# Velocity P-wave (km/s) = 7.26046 7.50700 7.38476
#
# Compressibility (1/GPa) = 0.01303935
#
# Stress axis : x y z
#
# Youngs Moduli (GPa) = 116.11272 106.25401 101.38778
#
# Poissons Ratio (x) = 0.17130 0.24887
# Poissons Ratio (y) = 0.18719 0.34036
# Poissons Ratio (z) = 0.28501 0.35670
#
# Static dielectric constant tensor:
#      x y z
#    x 3.970720 0.133990 -0.130830 
#    y 0.133990 4.622940 -0.282900 
#    z -0.130830 -0.282900 4.260740 
# 
# 
# High freq. dielectric constant tensor:
#      x y z
#    x 1.964630 -0.000180 -0.015970 
#    y -0.000180 1.976110 -0.010740 
#    z -0.015970 -0.010740 1.952790 
# 
# From -- ./inp_files/564557.got.cif
#   From: 2010.06.25/outbox.cif.g09.slc.cpg/sg2_283_cif.got.tgz:564557.got - 2010.06.27 13:26:56.
