data_PCOD8033284
_publ_section_title
;
Structure prediction by ZEFSAII (Michael W. Deem and Ramdas Pophale) SiO2 
 PCOD8033284
Probable space group: P -1
;
_chemical_formula_sum "Si O2"
_cell_formula_units_Z 12
_cell_length_a 12.214095
_cell_length_b 8.855922
_cell_length_c 12.128438
_cell_angle_alpha 39.041385
_cell_angle_beta 140.676384
_cell_angle_gamma 122.071814
_cell_volume 515.571258
_symmetry_space_group_name_H-M "P -1"
_symmetry_group_IT_number 2
_symmetry_cell_setting 'triclinic'
loop_
_space_group_symop_operation_xyz
x,y,z
-x,-y,-z
loop_
_atom_site_type_symbol
_atom_site_label
_atom_site_fract_x
_atom_site_fract_y
_atom_site_fract_z
Si Si1 0.193471 0.053304 0.348535
Si Si2 0.359437 0.056378 0.953387
Si Si3 0.412856 0.942980 0.305805
Si Si4 0.215654 0.607342 0.492769
Si Si5 0.870473 0.650641 0.065956
Si Si6 0.069637 0.822588 0.749810
O O1 0.393788 0.092307 0.471490
O O2 0.105571 0.194428 0.306811
O O3 0.190049 0.764402 0.497926
O O4 0.080999 0.157532 0.094251
O O5 0.314671 0.347760 0.757918
O O6 0.193736 0.934422 0.865133
O O7 0.500000 0.000000 0.000000
O O8 0.432656 0.927367 0.197555
O O9 0.320164 0.733961 0.408151
O O10 0.306433 0.217261 0.086831
O O11 0.027801 0.573564 0.317226
O O12 0.833753 0.425056 0.090321
O O13 0.000000 0.000000 0.500000
#
# Coordination Sequence:
#
# PCOD8033284 Si02
#       6
#     2   2   2   2   2   2
#     4  11  25  45  71 101 135 183 224 281 340 401
#     4  12  28  45  70 103 139 179 227 284 340 404
#     4  11  26  46  72 101 138 181 227 280 338 404
#     4  11  24  46  73 100 135 182 231 276 340 403
#     4  11  23  45  72  99 135 180 228 279 337 404
#     4  12  25  44  67 103 139 174 228 281 342 400
#
# _framework density 23.275151999999999
#
# number of rings (size 3 to 8) (size 9 to 14) (size 15 to 20)
#    0.000    0.667    1.667    7.500    7.000    2.667 
#    0.000    0.000    0.000    0.000    0.000    0.000 
#    0.000    0.000    0.000    0.000    0.000    0.000 
#
# Total GULP energy -148739.501611 kJ/mol
# GULP energy per Si atom -12394.958468 kJ/mol
# Density = 2.322218 g / cm^3
# Si number density = 23.275152 Si / 1000 Ang^3
#
#
#
# Elastic Constant Matrix: (Units=GPa)
#
#
# Indices 1 2 3 4 5 6 
#
# 1 100.3753 3.5520 -4.6837 6.7050 9.1700 -6.2490
# 2 3.5520 101.8499 9.5825 -10.0693 7.2396 -5.1217
# 3 -4.6837 9.5825 59.1293 5.0522 2.1469 8.6204
# 4 6.7050 -10.0693 5.0522 36.3664 -7.5401 -1.1433
# 5 9.1700 7.2396 2.1469 -7.5401 34.6337 1.9285
# 6 -6.2490 -5.1217 8.6204 -1.1433 1.9285 29.6462
#
#
#
# Elastic Compliance Matrix: (Units=1/GPa)
#
#
# Indices 1 2 3 4 5 6 
#
# 1 0.010664 -0.000398 0.000991 -0.002885 -0.003542 0.002010
# 2 -0.000398 0.010596 -0.002349 0.003120 -0.001432 0.002643
# 3 0.000991 -0.002349 0.018581 -0.003894 -0.001456 -0.005655
# 4 -0.002885 0.003120 -0.003894 0.030940 0.006989 0.001802
# 5 -0.003542 -0.001432 -0.001456 0.006989 0.031855 -0.002373
# 6 0.002010 0.002643 -0.005655 0.001802 -0.002373 0.036480
#
#
# Mechanical properties :
#
#
# Convention : Reuss Voigt Hill
#
# Bulk Modulus (GPa) = 27.52387 30.91734 29.22060
# Shear Modulus (GPa) = 32.31278 36.98953 34.65115
#
# Velocity S-wave (km/s) = 3.73003 3.99084 3.86263
# Velocity P-wave (km/s) = 5.51379 5.87775 5.69868
#
# Compressibility (1/GPa) = 0.03633210
#
# Stress axis : x y z
#
# Youngs Moduli (GPa) = 93.77001 94.37217 53.81755
#
# Poissons Ratio (x) = 0.03752 -0.05335
# Poissons Ratio (y) = 0.03728 0.12640
# Poissons Ratio (z) = -0.09295 0.22165
#
# Static dielectric constant tensor:
#      x y z
#    x 4.203190 0.006190 0.046680 
#    y 0.006190 3.678740 0.061090 
#    z 0.046680 0.061090 4.271010 
# 
# 
# High freq. dielectric constant tensor:
#      x y z
#    x 1.927000 -0.014050 -0.001060 
#    y -0.014050 1.918600 -0.000750 
#    z -0.001060 -0.000750 1.931850 
# 
# From -- ./inp_files/155712.got.cif
#   From: 2010.06.25/outbox.cif.g09.slc.cpg/sg2_78_cif.got.tgz:155712.got - 2010.06.27 13:26:56.
