data_PCOD8033433
_publ_section_title
;
Structure prediction by ZEFSAII (Michael W. Deem and Ramdas Pophale) SiO2 
 PCOD8033433
Probable space group: P -1
;
_chemical_formula_sum "Si O2"
_cell_formula_units_Z 14
_cell_length_a 14.140991
_cell_length_b 8.579470
_cell_length_c 12.239609
_cell_angle_alpha 53.293154
_cell_angle_beta 150.805373
_cell_angle_gamma 118.702376
_cell_volume 577.405465
_symmetry_space_group_name_H-M "P -1"
_symmetry_group_IT_number 2
_symmetry_cell_setting 'triclinic'
loop_
_space_group_symop_operation_xyz
x,y,z
-x,-y,-z
loop_
_atom_site_type_symbol
_atom_site_label
_atom_site_fract_x
_atom_site_fract_y
_atom_site_fract_z
Si Si1 0.010742 0.515138 0.178335
Si Si2 0.058364 0.808460 0.437434
Si Si3 0.763577 0.551083 0.362405
Si Si4 0.192976 0.114508 0.145269
Si Si5 0.565758 0.135343 0.107772
Si Si6 0.491563 0.937998 0.341080
Si Si7 0.138524 0.774860 0.001695
O O1 0.913253 0.326227 0.120674
O O2 0.194441 0.445735 0.466980
O O3 0.860384 0.658709 0.038747
O O4 0.058264 0.658655 0.068931
O O5 0.195626 0.669101 0.550706
O O6 0.199714 0.862204 0.657177
O O7 0.889302 0.696704 0.363986
O O8 0.958766 0.999131 0.193301
O O9 0.538458 0.642075 0.095267
O O10 0.295818 0.114932 0.369396
O O11 0.347997 0.039808 0.243833
O O12 0.000000 0.000000 0.000000
O O13 0.512670 0.062055 0.203542
O O14 0.500000 0.000000 0.000000
O O15 0.374405 0.757595 0.258590
#
# Coordination Sequence:
#
# PCOD8033433 Si02
#       7
#     2   2   2   2   2   2   2
#     4  11  25  41  74 105 142 190 234 300 365 424
#     4  11  25  48  74  98 146 190 242 302 350 430
#     4  11  26  45  72 107 137 193 243 291 364 425
#     4  11  24  46  73 107 141 188 238 303 364 425
#     4  12  27  45  72 108 147 196 240 294 363 435
#     4  11  25  44  77 104 142 193 243 296 362 434
#     4  11  23  46  71 106 144 185 239 295 367 429
#
# _framework density 24.246396000000001
#
# number of rings (size 3 to 8) (size 9 to 14) (size 15 to 20)
#    0.000    0.857    2.857    3.000    6.000    2.857 
#    2.571    0.000    0.000    0.000    0.000    0.000 
#    0.000    0.000    0.000    0.000    0.000    0.000 
#
# Total GULP energy -173483.396006 kJ/mol
# GULP energy per Si atom -12391.671143 kJ/mol
# Density = 2.419121 g / cm^3
# Si number density = 24.246396 Si / 1000 Ang^3
#
#
#
# Elastic Constant Matrix: (Units=GPa)
#
#
# Indices 1 2 3 4 5 6 
#
# 1 49.7009 11.4210 23.8104 -4.3874 -7.3957 2.4733
# 2 11.4210 119.4473 43.5095 7.9976 -0.7532 -3.8655
# 3 23.8104 43.5095 149.3426 21.5559 -10.5913 4.3079
# 4 -4.3874 7.9976 21.5559 48.5599 -1.6985 1.5840
# 5 -7.3957 -0.7532 -10.5913 -1.6985 38.9095 7.0229
# 6 2.4733 -3.8655 4.3079 1.5840 7.0229 23.0927
#
#
#
# Elastic Compliance Matrix: (Units=1/GPa)
#
#
# Indices 1 2 3 4 5 6 
#
# 1 0.023295 -0.001313 -0.003522 0.004153 0.004283 -0.003645
# 2 -0.001313 0.009588 -0.002660 -0.000650 -0.001301 0.002682
# 3 -0.003522 -0.002660 0.008747 -0.003632 0.001866 -0.002018
# 4 0.004153 -0.000650 -0.003632 0.022784 0.001103 -0.001774
# 5 0.004283 -0.001301 0.001866 0.001103 0.028826 -0.009867
# 6 -0.003645 0.002682 -0.002018 -0.001774 -0.009867 0.047642
#
#
# Mechanical properties :
#
#
# Convention : Reuss Voigt Hill
#
# Bulk Modulus (GPa) = 37.53756 52.88583 45.21170
# Shear Modulus (GPa) = 30.34837 38.09575 34.22206
#
# Velocity S-wave (km/s) = 3.54173 3.96813 3.76097
# Velocity P-wave (km/s) = 5.67806 6.54629 6.12757
#
# Compressibility (1/GPa) = 0.02663998
#
# Stress axis : x y z
#
# Youngs Moduli (GPa) = 42.92812 104.29182 114.32202
#
# Poissons Ratio (x) = 0.13699 0.40263
# Poissons Ratio (y) = 0.05639 0.30408
# Poissons Ratio (z) = 0.15119 0.27740
#
# Static dielectric constant tensor:
#      x y z
#    x 3.901570 -0.421080 0.134990 
#    y -0.421080 4.849900 0.399510 
#    z 0.134990 0.399510 5.213880 
# 
# 
# High freq. dielectric constant tensor:
#      x y z
#    x 1.952650 -0.008190 -0.010350 
#    y -0.008190 1.966930 0.013470 
#    z -0.010350 0.013470 1.986570 
# 
# From -- ./inp_files/446860.got.cif
#   From: 2010.06.25/outbox.cif.g09.slc.cpg/sg2_224_cif.got.tgz:446860.got - 2010.06.27 13:26:56.
