data_PCOD8033928
_publ_section_title
;
Structure prediction by ZEFSAII (Michael W. Deem and Ramdas Pophale) SiO2 
 PCOD8033928
Probable space group: P -1
;
_chemical_formula_sum "Si O2"
_cell_formula_units_Z 16
_cell_length_a 9.830134
_cell_length_b 5.009157
_cell_length_c 18.598817
_cell_angle_alpha 85.339483
_cell_angle_beta 63.823738
_cell_angle_gamma 118.704252
_cell_volume 669.044040
_symmetry_space_group_name_H-M "P -1"
_symmetry_group_IT_number 2
_symmetry_cell_setting 'triclinic'
loop_
_space_group_symop_operation_xyz
x,y,z
-x,-y,-z
loop_
_atom_site_type_symbol
_atom_site_label
_atom_site_fract_x
_atom_site_fract_y
_atom_site_fract_z
Si Si1 0.074478 0.807188 0.424302
Si Si2 0.727156 0.711241 0.458771
Si Si3 0.111185 0.703340 0.900562
Si Si4 0.470305 0.340651 0.369616
Si Si5 0.642113 0.553137 0.180469
Si Si6 0.075769 0.395281 0.197846
Si Si7 0.276950 0.777436 0.631861
Si Si8 0.236883 0.011846 0.229809
O O1 0.000000 0.500000 0.500000
O O2 0.914205 0.867469 0.458351
O O3 0.257205 0.129968 0.404030
O O4 0.129161 0.777530 0.329677
O O5 0.536567 0.479120 0.558596
O O6 0.751772 0.552244 0.386701
O O7 0.713555 0.014860 0.441367
O O8 0.233613 0.584736 0.844812
O O9 0.958026 0.646938 0.879149
O O10 0.244553 0.082937 0.886354
O O11 0.000000 0.500000 0.000000
O O12 0.598102 0.598131 0.272310
O O13 0.532842 0.091807 0.371660
O O14 0.450936 0.304170 0.188216
O O15 0.131171 0.163219 0.220422
O O16 0.880594 0.293271 0.276420
O O17 0.231428 0.773039 0.175763
#
# Coordination Sequence:
#
# PCOD8033928 Si02
#       8
#     2   2   2   2   2   2   2   2
#     4  11  24  43  64  95 142 194 247 292 337 396
#     4  12  25  43  62  96 138 191 243 293 337 399
#     4  12  27  51  81 112 141 178 231 298 374 452
#     4  11  26  41  66  99 139 189 240 298 346 409
#     4  11  26  48  74 107 147 186 236 290 362 431
#     4  12  23  47  74 104 142 191 238 297 364 428
#     4  12  24  43  64  95 139 182 245 293 346 406
#     4  11  25  46  74 104 146 197 243 288 352 423
#
# _framework density 23.914718000000001
#
# number of rings (size 3 to 8) (size 9 to 14) (size 15 to 20)
#    0.000    0.500    3.750    3.750    1.750    6.000 
#    0.000    3.750    0.000    0.000    0.000    0.000 
#    0.000    0.000    0.000    0.000    0.000    0.000 
#
# Total GULP energy -198286.538614 kJ/mol
# GULP energy per Si atom -12392.908663 kJ/mol
# Density = 2.386029 g / cm^3
# Si number density = 23.914718 Si / 1000 Ang^3
#
#
#
# Elastic Constant Matrix: (Units=GPa)
#
#
# Indices 1 2 3 4 5 6 
#
# 1 138.3423 35.3330 47.3610 -13.4028 12.2246 -5.5556
# 2 35.3330 102.4775 32.1368 -13.4472 9.4456 -5.3140
# 3 47.3610 32.1368 106.0983 -14.6464 18.5595 10.0764
# 4 -13.4028 -13.4472 -14.6464 31.1452 0.4816 3.5059
# 5 12.2246 9.4456 18.5595 0.4816 30.7238 1.9154
# 6 -5.5556 -5.3140 10.0764 3.5059 1.9154 29.7355
#
#
#
# Elastic Compliance Matrix: (Units=1/GPa)
#
#
# Indices 1 2 3 4 5 6 
#
# 1 0.009166 -0.001666 -0.003418 0.001356 -0.001246 0.002494
# 2 -0.001666 0.011735 -0.002308 0.003030 -0.001743 0.002323
# 3 -0.003418 -0.002308 0.013947 0.004855 -0.006060 -0.005959
# 4 0.001356 0.003030 0.004855 0.036907 -0.004677 -0.004901
# 5 -0.001246 -0.001743 -0.006060 -0.004677 0.037335 -0.000344
# 6 0.002494 0.002323 -0.005959 -0.004901 -0.000344 0.037130
#
#
# Mechanical properties :
#
#
# Convention : Reuss Voigt Hill
#
# Bulk Modulus (GPa) = 49.84586 64.06440 56.95513
# Shear Modulus (GPa) = 29.81641 33.79340 31.80491
#
# Velocity S-wave (km/s) = 3.53481 3.76317 3.65078
# Velocity P-wave (km/s) = 6.12766 6.76231 6.45279
#
# Compressibility (1/GPa) = 0.02006184
#
# Stress axis : x y z
#
# Youngs Moduli (GPa) = 109.09955 85.21318 71.70207
#
# Poissons Ratio (x) = 0.14198 0.24511
# Poissons Ratio (y) = 0.18177 0.16551
# Poissons Ratio (z) = 0.37295 0.19670
#
# Static dielectric constant tensor:
#      x y z
#    x 5.121670 0.241380 0.067880 
#    y 0.241380 4.277260 0.092570 
#    z 0.067880 0.092570 4.341370 
# 
# 
# High freq. dielectric constant tensor:
#      x y z
#    x 1.986270 0.007760 -0.006280 
#    y 0.007760 1.949310 0.005580 
#    z -0.006280 0.005580 1.926550 
# 
# From -- ./inp_files/585197.got.cif
#   From: 2010.06.25/outbox.cif.g09.slc.cpg/sg2_293_cif.got.tgz:585197.got - 2010.06.27 13:26:56.
