data_PCOD8033968
_publ_section_title
;
Structure prediction by ZEFSAII (Michael W. Deem and Ramdas Pophale) SiO2 
 PCOD8033968
Probable space group: P -1
;
_chemical_formula_sum "Si O2"
_cell_formula_units_Z 16
_cell_length_a 11.174170
_cell_length_b 17.086277
_cell_length_c 8.553846
_cell_angle_alpha 81.723634
_cell_angle_beta 53.966218
_cell_angle_gamma 41.148464
_cell_volume 718.833262
_symmetry_space_group_name_H-M "P -1"
_symmetry_group_IT_number 2
_symmetry_cell_setting 'triclinic'
loop_
_space_group_symop_operation_xyz
x,y,z
-x,-y,-z
loop_
_atom_site_type_symbol
_atom_site_label
_atom_site_fract_x
_atom_site_fract_y
_atom_site_fract_z
Si Si1 0.386997 0.397193 0.797738
Si Si2 0.398366 0.156772 0.425922
Si Si3 0.569596 0.376584 0.995696
Si Si4 0.741770 0.837718 0.807293
Si Si5 0.092399 0.375663 0.075341
Si Si6 0.756718 0.328684 0.355735
Si Si7 0.755219 0.595171 0.547865
Si Si8 0.080481 0.171126 0.834831
O O1 0.632954 0.300490 0.516255
O O2 0.110701 0.570558 0.916597
O O3 0.478154 0.374446 0.909399
O O4 0.300687 0.345340 0.855771
O O5 0.274547 0.178106 0.355187
O O6 0.392674 0.254395 0.409026
O O7 0.225911 0.190657 0.685068
O O8 0.707229 0.993427 0.252978
O O9 0.432124 0.390658 0.241263
O O10 0.500000 0.500000 0.000000
O O11 0.890653 0.229436 0.819532
O O12 0.710054 0.774760 0.956121
O O13 0.036262 0.740769 0.645392
O O14 0.500000 0.000000 0.000000
O O15 0.874178 0.511742 0.319502
O O16 0.500000 0.500000 0.500000
O O17 0.897676 0.259954 0.102176
O O18 0.000000 0.500000 0.500000
#
# Coordination Sequence:
#
# PCOD8033968 Si02
#       8
#     2   2   2   2   2   2   2   2
#     4  11  24  43  68 102 141 180 235 296 350 413
#     4  11  25  47  72 102 144 195 237 290 363 428
#     4  12  25  40  70 103 140 183 234 295 352 422
#     4  12  24  45  73 103 146 189 232 292 363 433
#     4  11  25  44  71 105 139 187 239 290 356 427
#     4  12  24  41  71 106 141 179 236 297 347 413
#     4  12  23  43  72 101 141 184 238 296 349 430
#     4  11  26  45  69 104 141 187 243 294 354 431
#
# _framework density 22.258291
#
# number of rings (size 3 to 8) (size 9 to 14) (size 15 to 20)
#    0.000    0.500    5.000    3.000    3.500    0.500 
#    0.000    0.625    0.000    0.000    0.000    0.000 
#    0.000    0.000    0.000    0.000    0.000    0.000 
#
# Total GULP energy -198302.098165 kJ/mol
# GULP energy per Si atom -12393.881135 kJ/mol
# Density = 2.220763 g / cm^3
# Si number density = 22.258291 Si / 1000 Ang^3
#
#
#
# Elastic Constant Matrix: (Units=GPa)
#
#
# Indices 1 2 3 4 5 6 
#
# 1 102.4972 53.5517 42.8012 6.1313 -20.2990 -15.0168
# 2 53.5517 176.8827 76.2671 11.6653 -9.2388 0.2749
# 3 42.8012 76.2671 144.9411 -12.3172 -21.0119 17.1943
# 4 6.1313 11.6653 -12.3172 42.5911 -3.7623 -8.9083
# 5 -20.2990 -9.2388 -21.0119 -3.7623 35.3608 1.5940
# 6 -15.0168 0.2749 17.1943 -8.9083 1.5940 48.5030
#
#
#
# Elastic Compliance Matrix: (Units=1/GPa)
#
#
# Indices 1 2 3 4 5 6 
#
# 1 0.014190 -0.002919 -0.002466 -0.000407 0.005648 0.005024
# 2 -0.002919 0.008445 -0.004200 -0.003311 -0.002317 0.000005
# 3 -0.002466 -0.004200 0.011415 0.004374 0.004922 -0.004145
# 4 -0.000407 -0.003311 0.004374 0.026732 0.004204 0.003114
# 5 0.005648 -0.002317 0.004922 0.004204 0.034304 -0.000338
# 6 0.005024 0.000005 -0.004145 0.003114 -0.000338 0.024225
#
#
# Mechanical properties :
#
#
# Convention : Reuss Voigt Hill
#
# Bulk Modulus (GPa) = 67.20360 85.50679 76.35519
# Shear Modulus (GPa) = 34.85755 42.07105 38.46430
#
# Velocity S-wave (km/s) = 3.96163 4.35228 4.16154
# Velocity P-wave (km/s) = 7.15431 7.98471 7.58089
#
# Compressibility (1/GPa) = 0.01488016
#
# Stress axis : x y z
#
# Youngs Moduli (GPa) = 70.47150 118.40881 87.60747
#
# Poissons Ratio (x) = 0.34559 0.21607
# Poissons Ratio (y) = 0.20568 0.36794
# Poissons Ratio (z) = 0.17381 0.49731
#
# Static dielectric constant tensor:
#      x y z
#    x 4.374360 -0.218880 -0.405350 
#    y -0.218880 4.475410 -0.275890 
#    z -0.405350 -0.275890 3.937410 
# 
# 
# High freq. dielectric constant tensor:
#      x y z
#    x 1.886840 -0.017450 -0.014080 
#    y -0.017450 1.887980 -0.022260 
#    z -0.014080 -0.022260 1.879130 
# 
# From -- ./inp_files/279371.got.cif
#   From: 2010.06.25/outbox.cif.g09.slc.cpg/sg2_140_cif.got.tgz:279371.got - 2010.06.27 13:26:56.
