data_PCOD8033451
_publ_section_title
;
Structure prediction by ZEFSAII (Michael W. Deem and Ramdas Pophale) SiO2 
 PCOD8033451
Probable space group: P -1
;
_chemical_formula_sum "Si O2"
_cell_formula_units_Z 10
_cell_length_a 6.856017
_cell_length_b 14.043284
_cell_length_c 9.986929
_cell_angle_alpha 139.728138
_cell_angle_beta 48.227211
_cell_angle_gamma 110.407543
_cell_volume 437.419827
_symmetry_space_group_name_H-M "P -1"
_symmetry_group_IT_number 2
_symmetry_cell_setting 'triclinic'
loop_
_space_group_symop_operation_xyz
x,y,z
-x,-y,-z
loop_
_atom_site_type_symbol
_atom_site_label
_atom_site_fract_x
_atom_site_fract_y
_atom_site_fract_z
Si Si1 0.826720 0.419036 0.240493
Si Si2 0.801700 0.377906 0.732191
Si Si3 0.998721 0.826431 0.335475
Si Si4 0.014974 0.778038 0.796421
Si Si5 0.420778 0.957273 0.844879
O O1 0.500000 0.500000 0.500000
O O2 0.982843 0.353966 0.238894
O O3 0.961147 0.545062 0.261706
O O4 0.879898 0.278356 0.961067
O O5 0.817591 0.250545 0.702526
O O6 0.839391 0.296369 0.485500
O O7 0.500000 0.500000 0.000000
O O8 0.681216 0.838374 0.521297
O O9 0.000000 0.000000 0.500000
O O10 0.185997 0.879690 0.892422
O O11 0.701134 0.886536 0.022794
O O12 0.500000 0.000000 0.000000
#
# Coordination Sequence:
#
# PCOD8033451 Si02
#       5
#     2   2   2   2   2
#     4  12  27  47  74 107 151 198 243 301 377 440
#     4  12  26  47  71 107 151 191 248 304 368 441
#     4  12  27  44  76 106 148 193 246 304 361 435
#     4  11  25  43  77 103 140 197 242 298 368 437
#     4  11  23  46  72 107 149 184 246 308 363 424
#
# _framework density 22.861333999999999
#
# number of rings (size 3 to 8) (size 9 to 14) (size 15 to 20)
#    0.000    0.400    2.000    6.000    8.400    0.800 
#    0.000    0.000    0.000    0.000    0.000    0.000 
#    0.000    0.000    0.000    0.000    0.000    0.000 
#
# Total GULP energy -124057.382029 kJ/mol
# GULP energy per Si atom -12405.738203 kJ/mol
# Density = 2.280930 g / cm^3
# Si number density = 22.861334 Si / 1000 Ang^3
#
#
#
# Elastic Constant Matrix: (Units=GPa)
#
#
# Indices 1 2 3 4 5 6 
#
# 1 124.3106 52.2209 68.6645 2.7870 -1.3798 -16.9278
# 2 52.2209 130.4820 36.1040 14.1150 1.3616 -29.1035
# 3 68.6645 36.1040 180.4315 -4.5759 -5.4677 -17.8922
# 4 2.7870 14.1150 -4.5759 34.8266 -1.3195 1.5602
# 5 -1.3798 1.3616 -5.4677 -1.3195 60.1671 1.4061
# 6 -16.9278 -29.1035 -17.8922 1.5602 1.4061 55.5777
#
#
#
# Elastic Compliance Matrix: (Units=1/GPa)
#
#
# Indices 1 2 3 4 5 6 
#
# 1 0.011618 -0.003520 -0.003666 -0.000008 0.000001 0.000516
# 2 -0.003520 0.010685 -0.000479 -0.004335 -0.000566 0.004505
# 3 -0.003666 -0.000479 0.007175 0.001413 0.000589 0.000888
# 4 -0.000008 -0.004335 0.001413 0.030815 0.000965 -0.002707
# 5 0.000001 -0.000566 0.000589 0.000965 0.016721 -0.000557
# 6 0.000516 0.004505 0.000888 -0.002707 -0.000557 0.020885
#
#
# Mechanical properties :
#
#
# Convention : Reuss Voigt Hill
#
# Bulk Modulus (GPa) = 70.67867 83.24477 76.96172
# Shear Modulus (GPa) = 42.39290 48.66324 45.52807
#
# Velocity S-wave (km/s) = 4.31089 4.61871 4.46745
# Velocity P-wave (km/s) = 7.46738 8.05824 7.76843
#
# Compressibility (1/GPa) = 0.01414854
#
# Stress axis : x y z
#
# Youngs Moduli (GPa) = 86.07059 93.59229 139.37180
#
# Poissons Ratio (x) = 0.32940 0.51097
# Poissons Ratio (y) = 0.30293 0.06676
# Poissons Ratio (z) = 0.31556 0.04483
#
# Static dielectric constant tensor:
#      x y z
#    x 4.190500 -0.099060 -0.193760 
#    y -0.099060 4.430400 0.090940 
#    z -0.193760 0.090940 4.363310 
# 
# 
# High freq. dielectric constant tensor:
#      x y z
#    x 1.910460 -0.014200 -0.005210 
#    y -0.014200 1.909090 0.006950 
#    z -0.005210 0.006950 1.920410 
# 
# From -- ./inp_files/15466.got.cif
#   From: 2010.06.25/outbox.cif.g09.slc.cpg/sg2_8_cif.got.tgz:15466.got - 2010.06.27 13:26:56.
