data_PCOD8033388
_publ_section_title
;
Structure prediction by ZEFSAII (Michael W. Deem and Ramdas Pophale) SiO2 
 PCOD8033388
Probable space group: P -1
;
_chemical_formula_sum "Si O2"
_cell_formula_units_Z 14
_cell_length_a 15.698088
_cell_length_b 31.567078
_cell_length_c 13.191563
_cell_angle_alpha 17.687721
_cell_angle_beta 154.122403
_cell_angle_gamma 161.612190
_cell_volume 625.870212
_symmetry_space_group_name_H-M "P -1"
_symmetry_group_IT_number 2
_symmetry_cell_setting 'triclinic'
loop_
_space_group_symop_operation_xyz
x,y,z
-x,-y,-z
loop_
_atom_site_type_symbol
_atom_site_label
_atom_site_fract_x
_atom_site_fract_y
_atom_site_fract_z
Si Si1 0.286237 0.692410 0.835606
Si Si2 0.381571 0.561097 0.041643
Si Si3 0.335073 0.018214 0.079911
Si Si4 0.790855 0.580832 0.149076
Si Si5 0.938623 0.852583 0.852828
Si Si6 0.723233 0.817884 0.171746
Si Si7 0.901166 0.337410 0.890377
O O1 0.220301 0.821126 0.453163
O O2 0.401754 0.664509 0.927624
O O3 0.486095 0.774892 0.955117
O O4 0.000000 0.500000 0.000000
O O5 0.328687 0.373640 0.441982
O O6 0.658062 0.727635 0.898016
O O7 0.133682 0.493568 0.862654
O O8 0.192791 0.977528 0.913883
O O9 0.281181 0.125153 0.848939
O O10 0.653344 0.140866 0.128882
O O11 0.767876 0.404306 0.539791
O O12 0.977867 0.706680 0.964732
O O13 0.500000 0.500000 0.000000
O O14 0.924204 0.702437 0.117190
O O15 0.000000 0.000000 0.500000
O O16 0.000000 0.000000 0.000000
#
# Coordination Sequence:
#
# PCOD8033388 Si02
#       7
#     2   2   2   2   2   2   2
#     4  12  25  46  70 102 141 181 237 302 362 420
#     4  12  25  45  72 105 141 188 238 287 362 430
#     4  12  26  44  70 107 141 185 240 292 359 429
#     4  11  23  46  68  98 143 191 236 284 347 408
#     4  12  27  42  70 102 150 187 235 289 347 425
#     4  12  25  46  75 102 139 186 237 301 365 422
#     4  11  25  42  73  99 138 189 235 287 346 423
#
# _framework density 22.368853999999999
#
# number of rings (size 3 to 8) (size 9 to 14) (size 15 to 20)
#    0.000    0.286    1.429    7.714    6.000    0.571 
#    0.000    0.000    0.000    0.000    0.000    0.000 
#    0.000    0.000    0.000    0.000    0.000    0.000 
#
# Total GULP energy -173641.208543 kJ/mol
# GULP energy per Si atom -12402.943467 kJ/mol
# Density = 2.231794 g / cm^3
# Si number density = 22.368854 Si / 1000 Ang^3
#
#
#
# Elastic Constant Matrix: (Units=GPa)
#
#
# Indices 1 2 3 4 5 6 
#
# 1 135.0607 47.3611 9.7643 -6.0985 0.6906 -2.2041
# 2 47.3611 136.3579 24.0187 2.8766 -9.9700 4.5200
# 3 9.7643 24.0187 101.5302 5.7296 -5.2700 10.3812
# 4 -6.0985 2.8766 5.7296 43.8260 4.2343 -13.5484
# 5 0.6906 -9.9700 -5.2700 4.2343 37.4741 -8.8305
# 6 -2.2041 4.5200 10.3812 -13.5484 -8.8305 53.9469
#
#
#
# Elastic Compliance Matrix: (Units=1/GPa)
#
#
# Indices 1 2 3 4 5 6 
#
# 1 0.008612 -0.003073 -0.000358 0.001846 -0.001005 0.000977
# 2 -0.003073 0.008881 -0.001573 -0.001173 0.002213 -0.000499
# 3 -0.000358 -0.001573 0.010656 -0.002139 0.000776 -0.002344
# 4 0.001846 -0.001173 -0.002139 0.025698 -0.001968 0.006717
# 5 -0.001005 0.002213 0.000776 -0.001968 0.028519 0.003798
# 6 0.000977 -0.000499 -0.002344 0.006717 0.003798 0.021378
#
#
# Mechanical properties :
#
#
# Convention : Reuss Voigt Hill
#
# Bulk Modulus (GPa) = 55.12090 59.47079 57.29584
# Shear Modulus (GPa) = 41.73639 46.50306 44.11973
#
# Velocity S-wave (km/s) = 4.32421 4.56446 4.44596
# Velocity P-wave (km/s) = 7.04464 7.37721 7.21284
#
# Compressibility (1/GPa) = 0.01814194
#
# Stress axis : x y z
#
# Youngs Moduli (GPa) = 116.11751 112.59681 93.83945
#
# Poissons Ratio (x) = 0.34601 0.03355
# Poissons Ratio (y) = 0.35683 0.14764
# Poissons Ratio (z) = 0.04151 0.17715
#
# Static dielectric constant tensor:
#      x y z
#    x 4.755770 -0.101800 0.104380 
#    y -0.101800 4.201390 -0.125840 
#    z 0.104380 -0.125840 4.189890 
# 
# 
# High freq. dielectric constant tensor:
#      x y z
#    x 1.900160 0.000500 -0.007020 
#    y 0.000500 1.897360 -0.000880 
#    z -0.007020 -0.000880 1.888710 
# 
# From -- ./inp_files/135779.got.cif
#   From: 2010.06.25/outbox.cif.g09.slc.cpg/sg2_68_cif.got.tgz:135779.got - 2010.06.27 13:26:56.
