data_PCOD8033467
_publ_section_title
;
Structure prediction by ZEFSAII (Michael W. Deem and Ramdas Pophale) SiO2 
 PCOD8033467
Probable space group: P -1
;
_chemical_formula_sum "Si O2"
_cell_formula_units_Z 16
_cell_length_a 11.153167
_cell_length_b 9.092871
_cell_length_c 9.396550
_cell_angle_alpha 129.559503
_cell_angle_beta 71.723676
_cell_angle_gamma 91.072181
_cell_volume 675.962392
_symmetry_space_group_name_H-M "P -1"
_symmetry_group_IT_number 2
_symmetry_cell_setting 'triclinic'
loop_
_space_group_symop_operation_xyz
x,y,z
-x,-y,-z
loop_
_atom_site_type_symbol
_atom_site_label
_atom_site_fract_x
_atom_site_fract_y
_atom_site_fract_z
Si Si1 0.121105 0.747504 0.693084
Si Si2 0.971962 0.206907 0.559554
Si Si3 0.483557 0.141495 0.461293
Si Si4 0.530703 0.496313 0.149496
Si Si5 0.798658 0.625300 0.395976
Si Si6 0.419701 0.132029 0.996968
Si Si7 0.819742 0.529350 0.026083
Si Si8 0.157050 0.161911 0.018191
O O1 0.114050 0.770819 0.539012
O O2 0.218664 0.546324 0.593167
O O3 0.982569 0.734567 0.801988
O O4 0.168925 0.931228 0.848734
O O5 0.891014 0.352186 0.794131
O O6 0.109463 0.249230 0.489996
O O7 0.000000 0.000000 0.500000
O O8 0.541929 0.322062 0.608413
O O9 0.338990 0.225517 0.500942
O O10 0.500000 0.000000 0.500000
O O11 0.571338 0.996427 0.228007
O O12 0.500000 0.500000 0.000000
O O13 0.486076 0.309654 0.102036
O O14 0.681372 0.492180 0.099924
O O15 0.880110 0.535195 0.165281
O O16 0.263460 0.196091 0.116877
O O17 0.500000 0.000000 0.000000
O O18 0.813422 0.735454 0.076042
#
# Coordination Sequence:
#
# PCOD8033467 Si02
#       8
#     2   2   2   2   2   2   2   2
#     4  11  27  46  73 106 148 186 243 310 364 428
#     4  12  27  41  70 109 141 192 245 295 367 436
#     4  11  25  47  74 106 149 194 245 301 367 444
#     4  11  23  46  73 104 141 193 242 302 360 437
#     4  11  25  46  72 104 145 190 239 305 365 431
#     4  12  28  45  75 109 146 195 250 303 372 439
#     4  11  24  44  72  99 144 186 242 293 367 440
#     4  11  25  48  72 100 149 193 238 302 374 432
#
# _framework density 23.669954000000001
#
# number of rings (size 3 to 8) (size 9 to 14) (size 15 to 20)
#    0.000    0.750    3.750    2.250   10.500    1.500 
#    0.000    0.000    0.000    0.000    0.000    0.000 
#    0.000    0.000    0.000    0.000    0.000    0.000 
#
# Total GULP energy -198210.377099 kJ/mol
# GULP energy per Si atom -12388.148569 kJ/mol
# Density = 2.361608 g / cm^3
# Si number density = 23.669954 Si / 1000 Ang^3
#
#
#
# Elastic Constant Matrix: (Units=GPa)
#
#
# Indices 1 2 3 4 5 6 
#
# 1 78.7078 58.1289 4.1712 8.6277 10.1454 5.8126
# 2 58.1289 181.4846 20.8984 24.4501 12.2283 -11.1501
# 3 4.1712 20.8984 73.9729 17.7678 8.2181 10.5695
# 4 8.6277 24.4501 17.7678 39.0870 -3.2943 10.6521
# 5 10.1454 12.2283 8.2181 -3.2943 28.4052 1.2962
# 6 5.8126 -11.1501 10.5695 10.6521 1.2962 50.5484
#
#
#
# Elastic Compliance Matrix: (Units=1/GPa)
#
#
# Indices 1 2 3 4 5 6 
#
# 1 0.017698 -0.005718 0.001708 -0.000530 -0.004259 -0.003433
# 2 -0.005718 0.008486 -0.001283 -0.004672 -0.001957 0.003832
# 3 0.001708 -0.001283 0.016369 -0.006846 -0.005482 -0.002319
# 4 -0.000530 -0.004672 -0.006846 0.034357 0.008485 -0.006996
# 5 -0.004259 -0.001957 -0.005482 0.008485 0.040212 -0.001615
# 6 -0.003433 0.003832 -0.002319 -0.006996 -0.001615 0.023024
#
#
# Mechanical properties :
#
#
# Convention : Reuss Voigt Hill
#
# Bulk Modulus (GPa) = 31.28122 55.61802 43.44962
# Shear Modulus (GPa) = 30.98138 40.33925 35.66031
#
# Velocity S-wave (km/s) = 3.62178 4.13272 3.88566
# Velocity P-wave (km/s) = 5.54383 6.80594 6.20705
#
# Compressibility (1/GPa) = 0.03196806
#
# Stress axis : x y z
#
# Youngs Moduli (GPa) = 56.50308 117.84068 61.09030
#
# Poissons Ratio (x) = 0.67381 -0.10436
# Poissons Ratio (y) = 0.32308 0.07838
# Poissons Ratio (z) = -0.09652 0.15119
#
# Static dielectric constant tensor:
#      x y z
#    x 4.187430 -0.158210 0.104270 
#    y -0.158210 4.173570 0.268630 
#    z 0.104270 0.268630 4.351200 
# 
# 
# High freq. dielectric constant tensor:
#      x y z
#    x 1.947250 -0.003980 0.012970 
#    y -0.003980 1.949630 0.003610 
#    z 0.012970 0.003610 1.946230 
# 
# From -- ./inp_files/245862.got.cif
#   From: 2010.06.25/outbox.cif.g09.slc.cpg/sg2_123_cif.got.tgz:245862.got - 2010.06.27 13:26:56.
