data_PCOD8033861
_publ_section_title
;
Structure prediction by ZEFSAII (Michael W. Deem and Ramdas Pophale) SiO2 
 PCOD8033861
Probable space group: P -1
;
_chemical_formula_sum "Si O2"
_cell_formula_units_Z 16
_cell_length_a 8.500504
_cell_length_b 9.258439
_cell_length_c 21.076291
_cell_angle_alpha 28.398813
_cell_angle_beta 69.611984
_cell_angle_gamma 66.724359
_cell_volume 724.697126
_symmetry_space_group_name_H-M "P -1"
_symmetry_group_IT_number 2
_symmetry_cell_setting 'triclinic'
loop_
_space_group_symop_operation_xyz
x,y,z
-x,-y,-z
loop_
_atom_site_type_symbol
_atom_site_label
_atom_site_fract_x
_atom_site_fract_y
_atom_site_fract_z
Si Si1 0.108291 0.840497 0.488112
Si Si2 0.510145 0.728667 0.999054
Si Si3 0.011648 0.817886 0.751179
Si Si4 0.495074 0.681025 0.496065
Si Si5 0.993536 0.204885 0.728103
Si Si6 0.394278 0.636077 0.271082
Si Si7 0.209289 0.636580 0.988731
Si Si8 0.595561 0.303540 0.264579
O O1 0.301666 0.779617 0.509000
O O2 0.053766 0.527584 0.595151
O O3 0.000000 0.000000 0.500000
O O4 0.093340 0.061334 0.343642
O O5 0.685102 0.560988 0.005660
O O6 0.510520 0.593826 0.121342
O O7 0.338030 0.673409 0.012186
O O8 0.502100 0.093073 0.860386
O O9 0.207015 0.692477 0.751886
O O10 0.998395 0.087576 0.700691
O O11 0.936290 0.536452 0.899303
O O12 0.500000 0.500000 0.500000
O O13 0.602565 0.456173 0.619822
O O14 0.579415 0.980751 0.358387
O O15 0.802432 0.255430 0.763785
O O16 0.119051 0.968410 0.846635
O O17 0.489243 0.342247 0.330250
#
# Coordination Sequence:
#
# PCOD8033861 Si02
#       8
#     2   2   2   2   2   2   2   2
#     4  12  26  44  66  98 136 172 217 273 328 390
#     4  11  24  43  68  99 133 169 222 269 337 385
#     4  12  23  44  69  99 130 173 223 268 324 387
#     4  12  26  44  68 100 132 177 224 266 327 391
#     4  12  23  44  69  99 130 173 223 268 324 387
#     4  12  25  44  68  99 137 174 215 273 333 390
#     4  11  24  42  70 100 129 170 222 282 315 391
#     4  12  25  44  68  99 137 174 215 273 333 390
#
# _framework density 22.078189999999999
#
# number of rings (size 3 to 8) (size 9 to 14) (size 15 to 20)
#    0.000    0.250    2.500    7.500    3.500    0.000 
#    0.000    1.875    0.000    0.000    0.000    0.000 
#    0.000    0.000    0.000    0.000    0.000    0.000 
#
# Total GULP energy -198547.080486 kJ/mol
# GULP energy per Si atom -12409.192530 kJ/mol
# Density = 2.202794 g / cm^3
# Si number density = 22.078190 Si / 1000 Ang^3
#
#
#
# Elastic Constant Matrix: (Units=GPa)
#
#
# Indices 1 2 3 4 5 6 
#
# 1 99.8701 30.7249 13.9979 0.5897 -1.7201 -21.9522
# 2 30.7249 91.7978 24.5212 5.4606 7.6054 -13.2449
# 3 13.9979 24.5212 101.2852 -1.0354 3.8294 11.4961
# 4 0.5897 5.4606 -1.0354 26.7688 0.5059 -0.1609
# 5 -1.7201 7.6054 3.8294 0.5059 39.0873 1.7684
# 6 -21.9522 -13.2449 11.4961 -0.1609 1.7684 34.1868
#
#
#
# Elastic Compliance Matrix: (Units=1/GPa)
#
#
# Indices 1 2 3 4 5 6 
#
# 1 0.012879 -0.002722 -0.002046 0.000222 0.000938 0.007856
# 2 -0.002722 0.013820 -0.003453 -0.002813 -0.002655 0.004892
# 3 -0.002046 -0.003453 0.011762 0.001170 -0.000288 -0.006587
# 4 0.000222 -0.002813 0.001170 0.037964 0.000004 -0.001163
# 5 0.000938 -0.002655 -0.000288 0.000004 0.026246 -0.001687
# 6 0.007856 0.004892 -0.006587 -0.001163 -0.001687 0.038488
#
#
# Mechanical properties :
#
#
# Convention : Reuss Voigt Hill
#
# Bulk Modulus (GPa) = 45.41402 47.93790 46.67596
# Shear Modulus (GPa) = 30.31402 34.92251 32.61826
#
# Velocity S-wave (km/s) = 3.70946 3.98146 3.84786
# Velocity P-wave (km/s) = 6.24188 6.54950 6.39754
#
# Compressibility (1/GPa) = 0.02201963
#
# Stress axis : x y z
#
# Youngs Moduli (GPa) = 77.64796 72.35858 85.01707
#
# Poissons Ratio (x) = 0.19692 0.17393
# Poissons Ratio (y) = 0.21132 0.29359
# Poissons Ratio (z) = 0.15886 0.24988
#
# Static dielectric constant tensor:
#      x y z
#    x 4.257250 -0.050580 0.019050 
#    y -0.050580 3.968020 -0.021640 
#    z 0.019050 -0.021640 3.975420 
# 
# 
# High freq. dielectric constant tensor:
#      x y z
#    x 1.886610 -0.004290 -0.000080 
#    y -0.004290 1.869350 -0.000160 
#    z -0.000080 -0.000160 1.879610 
# 
# From -- ./inp_files/587702.got.cif
#   From: 2010.06.25/outbox.cif.g09.slc.cpg/sg2_294_cif.got.tgz:587702.got - 2010.06.27 13:26:56.
