data_PCOD8033709
_publ_section_title
;
Structure prediction by ZEFSAII (Michael W. Deem and Ramdas Pophale) SiO2 
 PCOD8033709
Probable space group: P -1
;
_chemical_formula_sum "Si O2"
_cell_formula_units_Z 16
_cell_length_a 14.893409
_cell_length_b 14.411239
_cell_length_c 14.768326
_cell_angle_alpha 19.990234
_cell_angle_beta 137.044509
_cell_angle_gamma 135.930284
_cell_volume 731.964909
_symmetry_space_group_name_H-M "P -1"
_symmetry_group_IT_number 2
_symmetry_cell_setting 'triclinic'
loop_
_space_group_symop_operation_xyz
x,y,z
-x,-y,-z
loop_
_atom_site_type_symbol
_atom_site_label
_atom_site_fract_x
_atom_site_fract_y
_atom_site_fract_z
Si Si1 0.308046 0.484740 0.657668
Si Si2 0.407186 0.725333 0.695620
Si Si3 0.598139 0.424609 0.882534
Si Si4 0.279252 0.972199 0.538316
Si Si5 0.183383 0.601429 0.276555
Si Si6 0.961322 0.779721 0.248906
Si Si7 0.989446 0.940768 0.311332
Si Si8 0.411665 0.706488 0.206131
O O1 0.331499 0.664841 0.600422
O O2 0.439261 0.360312 0.837495
O O3 0.254267 0.655988 0.377271
O O4 0.195509 0.233866 0.830345
O O5 0.302117 0.783254 0.641820
O O6 0.500000 0.000000 0.500000
O O7 0.500000 0.500000 0.000000
O O8 0.636845 0.412388 0.817810
O O9 0.647047 0.716547 0.697958
O O10 0.664167 0.175075 0.200364
O O11 0.123243 0.989045 0.425383
O O12 0.121802 0.279792 0.520510
O O13 0.283994 0.700574 0.180184
O O14 0.063264 0.775048 0.012207
O O15 0.040434 0.839333 0.345790
O O16 0.000000 0.500000 0.500000
O O17 0.000000 0.000000 0.000000
O O18 0.500000 0.500000 0.500000
O O19 0.500000 0.000000 0.000000
#
# Coordination Sequence:
#
# PCOD8033709 Si02
#       8
#     2   2   2   2   2   2   2   2
#     4  11  24  43  71 100 142 170 235 284 346 392
#     4  12  24  40  64  99 138 184 225 273 335 408
#     4  12  26  44  71 105 136 181 226 286 357 401
#     4  12  25  46  66  99 146 184 230 274 332 424
#     4  11  25  45  72 103 133 174 233 290 345 405
#     4  11  24  41  64  95 132 180 233 281 328 397
#     4  11  25  45  69  95 139 189 223 276 343 403
#     4  12  25  45  75 106 138 170 226 296 356 412
#
# _framework density 21.858971
#
# number of rings (size 3 to 8) (size 9 to 14) (size 15 to 20)
#    0.000    0.500    3.750    4.500    1.750    6.000 
#    0.000    3.750    0.000    0.000    0.000    0.000 
#    0.000    0.000    0.000    0.000    0.000    0.000 
#
# Total GULP energy -198365.404093 kJ/mol
# GULP energy per Si atom -12397.837756 kJ/mol
# Density = 2.180922 g / cm^3
# Si number density = 21.858971 Si / 1000 Ang^3
#
#
#
# Elastic Constant Matrix: (Units=GPa)
#
#
# Indices 1 2 3 4 5 6 
#
# 1 131.7757 44.0528 39.2801 10.3497 -16.9355 4.8779
# 2 44.0528 90.4898 44.8132 13.9810 0.1858 17.1018
# 3 39.2801 44.8132 150.5371 5.8488 -1.0593 22.0509
# 4 10.3497 13.9810 5.8488 42.0998 6.9237 3.1447
# 5 -16.9355 0.1858 -1.0593 6.9237 37.9621 -3.1236
# 6 4.8779 17.1018 22.0509 3.1447 -3.1236 37.4569
#
#
#
# Elastic Compliance Matrix: (Units=1/GPa)
#
#
# Indices 1 2 3 4 5 6 
#
# 1 0.010221 -0.004321 -0.001589 -0.001849 0.005051 0.002154
# 2 -0.004321 0.015969 -0.002787 -0.003167 -0.001916 -0.004982
# 3 -0.001589 -0.002787 0.008383 0.000560 -0.000857 -0.003574
# 4 -0.001849 -0.003167 0.000560 0.026215 -0.005683 -0.001318
# 5 0.005051 -0.001916 -0.000857 -0.005683 0.029921 0.003694
# 6 0.002154 -0.004982 -0.003574 -0.001318 0.003694 0.031214
#
#
# Mechanical properties :
#
#
# Convention : Reuss Voigt Hill
#
# Bulk Modulus (GPa) = 58.20780 69.89943 64.05362
# Shear Modulus (GPa) = 34.47217 39.81419 37.14318
#
# Velocity S-wave (km/s) = 3.97549 4.27243 4.12663
# Velocity P-wave (km/s) = 6.91081 7.50900 7.21611
#
# Compressibility (1/GPa) = 0.01717983
#
# Stress axis : x y z
#
# Youngs Moduli (GPa) = 97.83396 62.61937 119.28971
#
# Poissons Ratio (x) = 0.27057 0.18954
# Poissons Ratio (y) = 0.42273 0.33248
# Poissons Ratio (z) = 0.15545 0.17453
#
# Static dielectric constant tensor:
#      x y z
#    x 4.027790 0.161850 -0.060870 
#    y 0.161850 4.253800 -0.100580 
#    z -0.060870 -0.100580 4.024120 
# 
# 
# High freq. dielectric constant tensor:
#      x y z
#    x 1.862500 0.005400 -0.003290 
#    y 0.005400 1.860050 0.004470 
#    z -0.003290 0.004470 1.872970 
# 
# From -- ./inp_files/534027.got.cif
#   From: 2010.06.25/outbox.cif.g09.slc.cpg/sg2_268_cif.got.tgz:534027.got - 2010.06.27 13:26:56.
