data_PCOD8033362
_publ_section_title
;
Structure prediction by ZEFSAII (Michael W. Deem and Ramdas Pophale) SiO2 
 PCOD8033362
Probable space group: P -1
;
_chemical_formula_sum "Si O2"
_cell_formula_units_Z 12
_cell_length_a 8.668200
_cell_length_b 15.113577
_cell_length_c 12.201766
_cell_angle_alpha 151.013543
_cell_angle_beta 103.242816
_cell_angle_gamma 57.095592
_cell_volume 517.896246
_symmetry_space_group_name_H-M "P -1"
_symmetry_group_IT_number 2
_symmetry_cell_setting 'triclinic'
loop_
_space_group_symop_operation_xyz
x,y,z
-x,-y,-z
loop_
_atom_site_type_symbol
_atom_site_label
_atom_site_fract_x
_atom_site_fract_y
_atom_site_fract_z
Si Si1 0.319410 0.299918 0.758213
Si Si2 0.630089 0.630481 0.383604
Si Si3 0.122081 0.558219 0.225826
Si Si4 0.625232 0.236277 0.297704
Si Si5 0.919142 0.055774 0.856568
Si Si6 0.447300 0.905678 0.067216
O O1 0.443705 0.313236 0.696136
O O2 0.087478 0.406614 0.785537
O O3 0.500000 0.000000 0.500000
O O4 0.258322 0.473620 0.041829
O O5 0.437385 0.727544 0.544272
O O6 0.683366 0.798646 0.601544
O O7 0.850951 0.313429 0.080804
O O8 0.031050 0.834249 0.541541
O O9 0.293280 0.327190 0.094822
O O10 0.500000 0.500000 0.500000
O O11 0.894712 0.058917 0.143143
O O12 0.558694 0.107548 0.080920
O O13 0.695414 0.146548 0.967295
#
# Coordination Sequence:
#
# PCOD8033362 Si02
#       6
#     2   2   2   2   2   2
#     4  11  24  47  76 105 142 186 242 298 356 424
#     4  12  27  44  75 109 139 193 244 284 366 425
#     4  11  23  45  78 100 145 188 233 305 354 413
#     4  12  26  46  73 107 151 187 237 295 352 428
#     4  12  25  46  72 109 145 187 239 295 354 425
#     4  12  25  49  71 107 145 192 237 295 355 424
#
# _framework density 23.170666000000001
#
# number of rings (size 3 to 8) (size 9 to 14) (size 15 to 20)
#    0.000    0.333    6.667    1.000    2.333    1.333 
#    0.000    5.833    0.000    0.000    0.000    0.000 
#    0.000    0.000    0.000    0.000    0.000    0.000 
#
# Total GULP energy -148712.906205 kJ/mol
# GULP energy per Si atom -12392.742184 kJ/mol
# Density = 2.311793 g / cm^3
# Si number density = 23.170666 Si / 1000 Ang^3
#
#
#
# Elastic Constant Matrix: (Units=GPa)
#
#
# Indices 1 2 3 4 5 6 
#
# 1 70.0096 52.2013 23.6395 9.7213 -5.5977 6.9125
# 2 52.2013 91.0127 43.1029 9.7362 -11.4352 -2.0864
# 3 23.6395 43.1029 169.7127 2.8566 11.0970 4.0848
# 4 9.7213 9.7362 2.8566 52.9394 8.6542 -7.7831
# 5 -5.5977 -11.4352 11.0970 8.6542 38.8255 -2.6736
# 6 6.9125 -2.0864 4.0848 -7.7831 -2.6736 49.9614
#
#
#
# Elastic Compliance Matrix: (Units=1/GPa)
#
#
# Indices 1 2 3 4 5 6 
#
# 1 0.026212 -0.015099 0.000375 -0.002670 -0.000506 -0.004731
# 2 -0.015099 0.022645 -0.004113 -0.001691 0.006282 0.003444
# 3 0.000375 -0.004113 0.007117 0.000733 -0.003415 -0.000874
# 4 -0.002670 -0.001691 0.000733 0.021033 -0.005559 0.003218
# 5 -0.000506 0.006282 -0.003415 -0.005559 0.029841 0.001342
# 6 -0.004731 0.003444 -0.000874 0.003218 0.001342 0.021458
#
#
# Mechanical properties :
#
#
# Convention : Reuss Voigt Hill
#
# Bulk Modulus (GPa) = 54.64267 63.18026 58.91146
# Shear Modulus (GPa) = 29.05634 42.46466 35.76050
#
# Velocity S-wave (km/s) = 3.54505 4.28564 3.93281
# Velocity P-wave (km/s) = 6.35534 7.19830 6.78991
#
# Compressibility (1/GPa) = 0.01830072
#
# Stress axis : x y z
#
# Youngs Moduli (GPa) = 38.15004 44.16064 140.51460
#
# Poissons Ratio (x) = 0.66676 -0.05275
# Poissons Ratio (y) = 0.57601 0.57798
# Poissons Ratio (z) = -0.01432 0.18165
#
# Static dielectric constant tensor:
#      x y z
#    x 4.231350 1.616750 -0.957350 
#    y 1.616750 14.355410 -5.778780 
#    z -0.957350 -5.778780 7.525110 
# 
# 
# High freq. dielectric constant tensor:
#      x y z
#    x 1.895850 0.003910 -0.005610 
#    y 0.003910 1.922660 -0.011250 
#    z -0.005610 -0.011250 1.939760 
# 
# From -- ./inp_files/26365.got.cif
#   From: 2010.06.25/outbox.cif.g09.slc.cpg/sg2_14_cif.got.tgz:26365.got - 2010.06.27 13:26:56.
