data_PCOD8033155
_publ_section_title
;
Structure prediction by ZEFSAII (Michael W. Deem and Ramdas Pophale) SiO2 
 PCOD8033155
Probable space group: P -1
;
_chemical_formula_sum "Si O2"
_cell_formula_units_Z 16
_cell_length_a 15.319916
_cell_length_b 13.455084
_cell_length_c 10.215867
_cell_angle_alpha 102.314710
_cell_angle_beta 132.994087
_cell_angle_gamma 40.372891
_cell_volume 761.277214
_symmetry_space_group_name_H-M "P -1"
_symmetry_group_IT_number 2
_symmetry_cell_setting 'triclinic'
loop_
_space_group_symop_operation_xyz
x,y,z
-x,-y,-z
loop_
_atom_site_type_symbol
_atom_site_label
_atom_site_fract_x
_atom_site_fract_y
_atom_site_fract_z
Si Si1 0.894729 0.313374 0.692308
Si Si2 0.854120 0.979340 0.372252
Si Si3 0.049774 0.127891 0.077646
Si Si4 0.701841 0.859684 0.559310
Si Si5 0.647428 0.280474 0.785169
Si Si6 0.019001 0.455080 0.856394
Si Si7 0.482046 0.940557 0.841562
Si Si8 0.694011 0.269747 0.121579
O O1 0.614544 0.504730 0.473697
O O2 0.991451 0.178901 0.632117
O O3 0.954029 0.386567 0.749415
O O4 0.024372 0.178500 0.915557
O O5 0.038083 0.885878 0.641330
O O6 0.704843 0.008165 0.305502
O O7 0.675731 0.197640 0.196763
O O8 0.132313 0.164468 0.255093
O O9 0.244571 0.895820 0.229992
O O10 0.799451 0.270989 0.914574
O O11 0.844239 0.650908 0.647999
O O12 0.500000 0.000000 0.500000
O O13 0.594195 0.938294 0.327335
O O14 0.650803 0.248971 0.932438
O O15 0.273569 0.292276 0.011263
O O16 0.000000 0.500000 0.000000
O O17 0.500000 0.000000 0.000000
O O18 0.500000 0.500000 0.000000
#
# Coordination Sequence:
#
# PCOD8033155 Si02
#       8
#     2   2   2   2   2   2   2   2
#     4  12  22  44  68  96 135 178 227 285 344 411
#     4  11  25  43  68  96 139 180 223 286 348 409
#     4  11  24  42  64 101 138 170 232 284 343 406
#     4  12  25  46  74 102 141 186 229 292 351 411
#     4  11  24  40  68  97 131 180 228 281 342 409
#     4  12  25  46  73 104 137 184 236 283 354 414
#     4  12  27  47  70 104 142 181 236 290 340 417
#     4  11  23  45  65  95 134 179 224 276 346 415
#
# _framework density 21.017309999999998
#
# number of rings (size 3 to 8) (size 9 to 14) (size 15 to 20)
#    0.000    0.500    6.250    1.875    0.000    3.500 
#    0.000    0.000    0.000    0.000    0.000    0.000 
#    0.000    0.000    0.000    0.000    0.000    0.000 
#
# Total GULP energy -198467.159806 kJ/mol
# GULP energy per Si atom -12404.197488 kJ/mol
# Density = 2.096947 g / cm^3
# Si number density = 21.017310 Si / 1000 Ang^3
#
#
#
# Elastic Constant Matrix: (Units=GPa)
#
#
# Indices 1 2 3 4 5 6 
#
# 1 102.6815 18.9850 28.4506 -14.4036 -2.8723 4.7205
# 2 18.9850 84.4284 25.8040 -20.2890 -11.2810 2.4847
# 3 28.4506 25.8040 87.3378 -8.0363 -13.5624 -1.1614
# 4 -14.4036 -20.2890 -8.0363 43.7334 1.4803 -1.2300
# 5 -2.8723 -11.2810 -13.5624 1.4803 39.7196 -0.4811
# 6 4.7205 2.4847 -1.1614 -1.2300 -0.4811 40.1464
#
#
#
# Elastic Compliance Matrix: (Units=1/GPa)
#
#
# Indices 1 2 3 4 5 6 
#
# 1 0.011228 -0.000947 -0.003257 0.002647 -0.000683 -0.001283
# 2 -0.000947 0.014817 -0.003094 0.005878 0.002856 -0.000681
# 3 -0.003257 -0.003094 0.014008 -0.000030 0.003682 0.001023
# 4 0.002647 0.005878 -0.000030 0.026434 0.000867 0.000144
# 5 -0.000683 0.002856 0.003682 0.000867 0.027168 0.000362
# 6 -0.001283 -0.000681 0.001023 0.000144 0.000362 0.025140
#
#
# Mechanical properties :
#
#
# Convention : Reuss Voigt Hill
#
# Bulk Modulus (GPa) = 39.28297 46.76965 43.02631
# Shear Modulus (GPa) = 35.24227 38.13377 36.68802
#
# Velocity S-wave (km/s) = 4.09934 4.26420 4.18258
# Velocity P-wave (km/s) = 6.41385 6.82244 6.62130
#
# Compressibility (1/GPa) = 0.02545632
#
# Stress axis : x y z
#
# Youngs Moduli (GPa) = 89.06626 67.49002 71.38951
#
# Poissons Ratio (x) = 0.06388 0.23254
# Poissons Ratio (y) = 0.08431 0.22088
# Poissons Ratio (z) = 0.29012 0.20882
#
# Static dielectric constant tensor:
#      x y z
#    x 4.523900 0.666160 -0.085560 
#    y 0.666160 4.549810 -0.144120 
#    z -0.085560 -0.144120 3.959470 
# 
# 
# High freq. dielectric constant tensor:
#      x y z
#    x 1.831440 0.005380 -0.001590 
#    y 0.005380 1.828110 -0.003510 
#    z -0.001590 -0.003510 1.836100 
# 
# From -- ./inp_files/315508.got.cif
#   From: 2010.06.25/outbox.cif.g09.slc.cpg/sg2_158_cif.got.tgz:315508.got - 2010.06.27 13:26:56.
