data_PCOD8033601
_publ_section_title
;
Structure prediction by ZEFSAII (Michael W. Deem and Ramdas Pophale) SiO2 
 PCOD8033601
Probable space group: P -1
;
_chemical_formula_sum "Si O2"
_cell_formula_units_Z 12
_cell_length_a 16.323501
_cell_length_b 11.254187
_cell_length_c 13.408445
_cell_angle_alpha 144.560548
_cell_angle_beta 33.326319
_cell_angle_gamma 156.226994
_cell_volume 531.416842
_symmetry_space_group_name_H-M "P -1"
_symmetry_group_IT_number 2
_symmetry_cell_setting 'triclinic'
loop_
_space_group_symop_operation_xyz
x,y,z
-x,-y,-z
loop_
_atom_site_type_symbol
_atom_site_label
_atom_site_fract_x
_atom_site_fract_y
_atom_site_fract_z
Si Si1 0.429529 0.159084 0.271693
Si Si2 0.429476 0.800499 0.159116
Si Si3 0.285201 0.209872 0.251507
Si Si4 0.524107 0.879135 0.487188
Si Si5 0.010512 0.859385 0.801261
Si Si6 0.853311 0.814477 0.310678
O O1 0.322066 0.110461 0.243470
O O2 0.693325 0.461237 0.210919
O O3 0.308407 0.160681 0.483837
O O4 0.394637 0.885018 0.146877
O O5 0.197363 0.499105 0.234096
O O6 0.542187 0.062625 0.305743
O O7 0.580843 0.755657 0.953165
O O8 0.362615 0.521122 0.400656
O O9 0.024243 0.940162 0.311387
O O10 0.500000 0.000000 0.500000
O O11 0.774130 0.060303 0.359621
O O12 0.004925 0.990582 0.797566
O O13 0.000000 0.000000 0.000000
#
# Coordination Sequence:
#
# PCOD8033601 Si02
#       6
#     2   2   2   2   2   2
#     4  11  23  48  70 104 142 189 235 285 352 421
#     4  12  26  45  74 103 145 185 233 292 355 415
#     4  12  26  47  73 108 139 188 237 290 348 423
#     4  12  26  44  70 107 143 182 239 286 353 420
#     4  12  24  47  72 104 144 187 230 299 352 411
#     4  11  24  45  75  99 147 185 235 294 347 413
#
# _framework density 22.581144999999999
#
# number of rings (size 3 to 8) (size 9 to 14) (size 15 to 20)
#    0.000    0.333    5.000    3.500    4.667    2.000 
#    0.000    0.000    0.000    0.000    0.000    0.000 
#    0.000    0.000    0.000    0.000    0.000    0.000 
#
# Total GULP energy -148866.801023 kJ/mol
# GULP energy per Si atom -12405.566752 kJ/mol
# Density = 2.252975 g / cm^3
# Si number density = 22.581145 Si / 1000 Ang^3
#
#
#
# Elastic Constant Matrix: (Units=GPa)
#
#
# Indices 1 2 3 4 5 6 
#
# 1 133.3738 60.2385 29.3524 7.3522 12.9379 -3.1922
# 2 60.2385 144.1366 30.1020 -5.8075 0.3598 2.9045
# 3 29.3524 30.1020 98.5300 21.0173 12.7215 1.6663
# 4 7.3522 -5.8075 21.0173 19.5284 6.4125 -0.4908
# 5 12.9379 0.3598 12.7215 6.4125 21.1222 -3.4937
# 6 -3.1922 2.9045 1.6663 -0.4908 -3.4937 45.9791
#
#
#
# Elastic Compliance Matrix: (Units=1/GPa)
#
#
# Indices 1 2 3 4 5 6 
#
# 1 0.010186 -0.004278 -0.000471 -0.002983 -0.004879 0.000592
# 2 -0.004278 0.009802 -0.003640 0.007701 0.002220 -0.000533
# 3 -0.000471 -0.003640 0.015394 -0.016126 -0.004166 -0.000849
# 4 -0.002983 0.007701 -0.016126 0.075792 -0.011631 -0.000184
# 5 -0.004879 0.002220 -0.004166 -0.011631 0.056975 0.003877
# 6 0.000592 -0.000533 -0.000849 -0.000184 0.003877 0.022147
#
#
# Mechanical properties :
#
#
# Convention : Reuss Voigt Hill
#
# Bulk Modulus (GPa) = 53.75868 68.38069 61.06968
# Shear Modulus (GPa) = 23.44390 34.41577 28.92983
#
# Velocity S-wave (km/s) = 3.22562 3.90820 3.58320
# Velocity P-wave (km/s) = 6.14259 7.12133 6.64999
#
# Compressibility (1/GPa) = 0.01860165
#
# Stress axis : x y z
#
# Youngs Moduli (GPa) = 98.17758 102.02323 64.96168
#
# Poissons Ratio (x) = 0.43650 0.03059
# Poissons Ratio (y) = 0.42005 0.23648
# Poissons Ratio (z) = 0.04624 0.37140
#
# Static dielectric constant tensor:
#      x y z
#    x 4.111440 -0.080510 0.103950 
#    y -0.080510 4.201880 -0.034340 
#    z 0.103950 -0.034340 4.265510 
# 
# 
# High freq. dielectric constant tensor:
#      x y z
#    x 1.897880 -0.007450 0.007530 
#    y -0.007450 1.893370 -0.001990 
#    z 0.007530 -0.001990 1.899180 
# 
# From -- ./inp_files/155686.got.cif
#   From: 2010.06.25/outbox.cif.g09.slc.cpg/sg2_78_cif.got.tgz:155686.got - 2010.06.27 13:26:56.
