data_PCOD8033841
_publ_section_title
;
Structure prediction by ZEFSAII (Michael W. Deem and Ramdas Pophale) SiO2 
 PCOD8033841
Probable space group: P -1
;
_chemical_formula_sum "Si O2"
_cell_formula_units_Z 14
_cell_length_a 9.173358
_cell_length_b 13.993441
_cell_length_c 8.158137
_cell_angle_alpha 52.107587
_cell_angle_beta 130.044632
_cell_angle_gamma 107.476272
_cell_volume 624.831652
_symmetry_space_group_name_H-M "P -1"
_symmetry_group_IT_number 2
_symmetry_cell_setting 'triclinic'
loop_
_space_group_symop_operation_xyz
x,y,z
-x,-y,-z
loop_
_atom_site_type_symbol
_atom_site_label
_atom_site_fract_x
_atom_site_fract_y
_atom_site_fract_z
Si Si1 0.667227 0.438179 0.303548
Si Si2 0.963533 0.146663 0.286530
Si Si3 0.412732 0.750606 0.284833
Si Si4 0.610550 0.147351 0.356142
Si Si5 0.950863 0.258340 0.510479
Si Si6 0.634638 0.908871 0.468220
Si Si7 0.649116 0.673697 0.227472
O O1 0.597587 0.329250 0.474101
O O2 0.849224 0.389440 0.368945
O O3 0.730047 0.535206 0.376970
O O4 0.500000 0.500000 0.000000
O O5 0.933914 0.236333 0.327231
O O6 0.156834 0.173608 0.308109
O O7 0.795877 0.195657 0.988872
O O8 0.000000 0.000000 0.500000
O O9 0.500374 0.873275 0.264176
O O10 0.555503 0.671830 0.341751
O O11 0.814221 0.160292 0.582323
O O12 0.449928 0.111022 0.395148
O O13 0.649817 0.054577 0.325847
O O14 0.519569 0.276212 0.074602
O O15 0.176578 0.243303 0.738085
#
# Coordination Sequence:
#
# PCOD8033841 Si02
#       7
#     2   2   2   2   2   2   2
#     4  12  25  50  70  95 141 177 230 289 329 398
#     4  12  25  44  68 103 145 175 224 280 334 409
#     4  12  25  44  72 104 133 182 227 274 347 401
#     4  11  24  44  68 101 139 175 228 275 341 404
#     4  12  24  44  67 101 134 181 227 277 338 403
#     4  11  24  42  69 103 138 180 218 283 339 409
#     4  12  25  44  71  98 134 183 226 280 341 393
#
# _framework density 22.406034999999999
#
# number of rings (size 3 to 8) (size 9 to 14) (size 15 to 20)
#    0.000    0.286    7.143    0.857    4.000    1.143 
#    2.571    5.000    0.000    0.000    0.000    0.000 
#    0.000    0.000    0.000    0.000    0.000    0.000 
#
# Total GULP energy -173444.718479 kJ/mol
# GULP energy per Si atom -12388.908463 kJ/mol
# Density = 2.235504 g / cm^3
# Si number density = 22.406035 Si / 1000 Ang^3
#
#
#
# Elastic Constant Matrix: (Units=GPa)
#
#
# Indices 1 2 3 4 5 6 
#
# 1 146.1947 37.9783 42.9950 3.8303 28.3237 -18.3789
# 2 37.9783 146.8074 25.9215 6.1387 17.4886 -17.0586
# 3 42.9950 25.9215 91.7562 7.1251 10.6877 1.0223
# 4 3.8303 6.1387 7.1251 30.1852 6.4510 7.5075
# 5 28.3237 17.4886 10.6877 6.4510 30.6207 4.4552
# 6 -18.3789 -17.0586 1.0223 7.5075 4.4552 48.8286
#
#
#
# Elastic Compliance Matrix: (Units=1/GPa)
#
#
# Indices 1 2 3 4 5 6 
#
# 1 0.010315 -0.000455 -0.003772 0.000408 -0.008710 0.004535
# 2 -0.000455 0.008092 -0.001565 -0.001193 -0.003872 0.003225
# 3 -0.003772 -0.001565 0.013226 -0.001929 0.000463 -0.001989
# 4 0.000408 -0.001193 -0.001929 0.036350 -0.005913 -0.005272
# 5 -0.008710 -0.003872 0.000463 -0.005913 0.045153 -0.007852
# 6 0.004535 0.003225 -0.001989 -0.005272 -0.007852 0.024882
#
#
# Mechanical properties :
#
#
# Convention : Reuss Voigt Hill
#
# Bulk Modulus (GPa) = 49.88005 66.50530 58.19267
# Shear Modulus (GPa) = 31.99294 40.45115 36.22205
#
# Velocity S-wave (km/s) = 3.78282 4.25357 4.02508
# Velocity P-wave (km/s) = 6.43349 7.33963 6.90145
#
# Compressibility (1/GPa) = 0.02004810
#
# Stress axis : x y z
#
# Youngs Moduli (GPa) = 96.94950 123.58529 75.60691
#
# Poissons Ratio (x) = 0.05621 0.28522
# Poissons Ratio (y) = 0.04409 0.11833
# Poissons Ratio (z) = 0.36573 0.19341
#
# Static dielectric constant tensor:
#      x y z
#    x 4.584570 -0.173510 0.319860 
#    y -0.173510 4.461100 -0.022920 
#    z 0.319860 -0.022920 3.609550 
# 
# 
# High freq. dielectric constant tensor:
#      x y z
#    x 1.913170 -0.016170 0.020600 
#    y -0.016170 1.905570 0.013910 
#    z 0.020600 0.013910 1.840570 
# 
# From -- ./inp_files/199926.got.cif
#   From: 2010.06.25/outbox.cif.g09.slc.cpg/sg2_100_cif.got.tgz:199926.got - 2010.06.27 13:26:56.
