data_PCOD8033720
_publ_section_title
;
Structure prediction by ZEFSAII (Michael W. Deem and Ramdas Pophale) SiO2 
 PCOD8033720
Probable space group: P -1
;
_chemical_formula_sum "Si O2"
_cell_formula_units_Z 12
_cell_length_a 11.584612
_cell_length_b 14.401348
_cell_length_c 15.063301
_cell_angle_alpha 151.372656
_cell_angle_beta 151.638959
_cell_angle_gamma 29.185654
_cell_volume 512.985557
_symmetry_space_group_name_H-M "P -1"
_symmetry_group_IT_number 2
_symmetry_cell_setting 'triclinic'
loop_
_space_group_symop_operation_xyz
x,y,z
-x,-y,-z
loop_
_atom_site_type_symbol
_atom_site_label
_atom_site_fract_x
_atom_site_fract_y
_atom_site_fract_z
Si Si1 0.620946 0.178262 0.292156
Si Si2 0.633098 0.260765 0.846831
Si Si3 0.560224 0.886917 0.574341
Si Si4 0.865190 0.682595 0.780208
Si Si5 0.883717 0.757741 0.335204
Si Si6 0.261190 0.280407 0.979641
O O1 0.379592 0.236776 0.248033
O O2 0.834238 0.268178 0.540570
O O3 0.783409 0.919170 0.178212
O O4 0.509981 0.281145 0.205667
O O5 0.454295 0.253507 0.636029
O O6 0.654019 0.072958 0.771065
O O7 0.500000 0.500000 0.000000
O O8 0.940679 0.200701 0.973939
O O9 0.763880 0.718860 0.641084
O O10 0.262743 0.012409 0.522490
O O11 0.055531 0.427902 0.707408
O O12 0.686337 0.747718 0.114560
O O13 0.000000 0.500000 0.000000
#
# Coordination Sequence:
#
# PCOD8033720 Si02
#       6
#     2   2   2   2   2   2
#     4  11  26  41  65 107 140 184 231 274 343 417
#     4  11  26  52  73 101 137 179 240 295 354 410
#     4  11  27  48  74 102 137 182 232 300 347 408
#     4  12  25  45  73 101 139 188 230 285 351 413
#     4  12  25  43  67 104 144 178 233 281 343 418
#     4  11  24  41  66  96 146 191 224 278 336 411
#
# _framework density 23.392469999999999
#
# number of rings (size 3 to 8) (size 9 to 14) (size 15 to 20)
#    0.000    0.667    5.000    1.500    4.667    2.000 
#    3.000    0.000    0.000    0.000    0.000    0.000 
#    0.000    0.000    0.000    0.000    0.000    0.000 
#
# Total GULP energy -148763.166799 kJ/mol
# GULP energy per Si atom -12396.930567 kJ/mol
# Density = 2.333923 g / cm^3
# Si number density = 23.392470 Si / 1000 Ang^3
#
#
#
# Elastic Constant Matrix: (Units=GPa)
#
#
# Indices 1 2 3 4 5 6 
#
# 1 105.8260 38.6440 52.1949 -13.4846 -4.9345 11.8079
# 2 38.6440 145.7326 45.0741 -2.3733 -20.8588 35.0580
# 3 52.1949 45.0741 104.5633 -3.6764 -10.2365 7.6073
# 4 -13.4846 -2.3733 -3.6764 36.2005 -4.3363 -12.1917
# 5 -4.9345 -20.8588 -10.2365 -4.3363 47.5566 -11.3900
# 6 11.8079 35.0580 7.6073 -12.1917 -11.3900 43.7854
#
#
#
# Elastic Compliance Matrix: (Units=1/GPa)
#
#
# Indices 1 2 3 4 5 6 
#
# 1 0.013515 -0.001697 -0.005880 0.004245 -0.000256 -0.000149
# 2 -0.001697 0.010221 -0.002944 -0.002594 0.001638 -0.007511
# 3 -0.005880 -0.002944 0.013771 -0.000167 0.001501 0.001894
# 4 0.004245 -0.002594 -0.000167 0.033548 0.005112 0.011632
# 5 -0.000256 0.001638 0.001501 0.005112 0.023984 0.006159
# 6 -0.000149 -0.007511 0.001894 0.011632 0.006159 0.033405
#
#
# Mechanical properties :
#
#
# Convention : Reuss Voigt Hill
#
# Bulk Modulus (GPa) = 60.72835 69.77198 65.25017
# Shear Modulus (GPa) = 32.26379 40.18908 36.22644
#
# Velocity S-wave (km/s) = 3.71784 4.14942 3.93954
# Velocity P-wave (km/s) = 6.66684 7.26968 6.97478
#
# Compressibility (1/GPa) = 0.01646677
#
# Stress axis : x y z
#
# Youngs Moduli (GPa) = 73.99407 97.83402 72.61789
#
# Poissons Ratio (x) = 0.16601 0.42697
# Poissons Ratio (y) = 0.12555 0.21375
# Poissons Ratio (z) = 0.43506 0.28798
#
# Static dielectric constant tensor:
#      x y z
#    x 4.405820 0.259360 -0.083030 
#    y 0.259360 4.445000 -0.115140 
#    z -0.083030 -0.115140 4.317720 
# 
# 
# High freq. dielectric constant tensor:
#      x y z
#    x 1.917820 0.012900 -0.006380 
#    y 0.012900 1.940610 -0.002330 
#    z -0.006380 -0.002330 1.922750 
# 
# From -- ./inp_files/521977.got.cif
#   From: 2010.06.25/outbox.cif.g09.slc.cpg/sg2_261_cif.got.tgz:521977.got - 2010.06.27 13:26:56.
