data_PCOD8033447
_publ_section_title
;
Structure prediction by ZEFSAII (Michael W. Deem and Ramdas Pophale) SiO2 
 PCOD8033447
Probable space group: P -1
;
_chemical_formula_sum "Si O2"
_cell_formula_units_Z 16
_cell_length_a 11.470970
_cell_length_b 17.941234
_cell_length_c 21.095139
_cell_angle_alpha 19.376956
_cell_angle_beta 30.969468
_cell_angle_gamma 40.787837
_cell_volume 706.354646
_symmetry_space_group_name_H-M "P -1"
_symmetry_group_IT_number 2
_symmetry_cell_setting 'triclinic'
loop_
_space_group_symop_operation_xyz
x,y,z
-x,-y,-z
loop_
_atom_site_type_symbol
_atom_site_label
_atom_site_fract_x
_atom_site_fract_y
_atom_site_fract_z
Si Si1 0.923177 0.647146 0.590310
Si Si2 0.249036 0.963128 0.398914
Si Si3 0.031596 0.459352 0.944198
Si Si4 0.761570 0.289055 0.723201
Si Si5 0.685200 0.163158 0.122390
Si Si6 0.572837 0.264757 0.233622
Si Si7 0.083842 0.183165 0.756811
Si Si8 0.255070 0.049896 0.183030
O O1 0.652686 0.645794 0.722496
O O2 0.059026 0.761309 0.371673
O O3 0.901792 0.369990 0.823674
O O4 0.083223 0.787737 0.460372
O O5 0.224768 0.686689 0.641110
O O6 0.441506 0.116218 0.235102
O O7 0.327563 0.060008 0.214548
O O8 0.000000 0.000000 0.500000
O O9 0.784168 0.421142 0.053401
O O10 0.000000 0.500000 0.000000
O O11 0.115224 0.229709 0.082512
O O12 0.747625 0.557217 0.510279
O O13 0.852957 0.227841 0.797501
O O14 0.496679 0.113298 0.978427
O O15 0.651165 0.270372 0.119920
O O16 0.768412 0.928245 0.272411
O O17 0.500000 0.000000 0.500000
O O18 0.000000 0.000000 0.000000
#
# Coordination Sequence:
#
# PCOD8033447 Si02
#       8
#     2   2   2   2   2   2   2   2
#     4  12  25  47  69 103 147 184 238 292 358 429
#     4  12  24  44  70 104 144 182 235 295 356 420
#     4  12  25  45  74 104 145 187 234 295 359 424
#     4  11  26  45  74  99 143 189 239 294 349 424
#     4  12  25  45  76 103 143 188 237 300 357 423
#     4  12  24  44  71 107 142 186 234 293 360 425
#     4  11  23  46  72 105 136 187 244 291 351 420
#     4  12  26  46  69 105 142 187 239 289 359 423
#
# _framework density 22.651509999999998
#
# number of rings (size 3 to 8) (size 9 to 14) (size 15 to 20)
#    0.000    0.250    3.750    6.000    1.750    0.000 
#    0.000    0.625    0.000    0.000    0.000    0.000 
#    0.000    0.000    0.000    0.000    0.000    0.000 
#
# Total GULP energy -198415.413547 kJ/mol
# GULP energy per Si atom -12400.963347 kJ/mol
# Density = 2.259995 g / cm^3
# Si number density = 22.651510 Si / 1000 Ang^3
#
#
#
# Elastic Constant Matrix: (Units=GPa)
#
#
# Indices 1 2 3 4 5 6 
#
# 1 140.7062 38.5521 58.0756 6.5653 -16.6692 7.0973
# 2 38.5521 107.3489 33.9354 9.5808 -4.7112 -0.9143
# 3 58.0756 33.9354 132.6673 1.2564 -9.8325 -5.3304
# 4 6.5653 9.5808 1.2564 42.0337 -0.9078 2.2677
# 5 -16.6692 -4.7112 -9.8325 -0.9078 47.9133 -2.2034
# 6 7.0973 -0.9143 -5.3304 2.2677 -2.2034 30.6781
#
#
#
# Elastic Compliance Matrix: (Units=1/GPa)
#
#
# Indices 1 2 3 4 5 6 
#
# 1 0.009623 -0.002182 -0.003589 -0.000704 0.002259 -0.002700
# 2 -0.002182 0.010853 -0.001779 -0.002117 -0.000066 0.000671
# 3 -0.003589 -0.001779 0.009709 0.000557 0.000693 0.002473
# 4 -0.000704 -0.002117 0.000557 0.024454 0.000051 -0.001607
# 5 0.002259 -0.000066 0.000693 0.000051 0.021847 0.001161
# 6 -0.002700 0.000671 0.002473 -0.001607 0.001161 0.033873
#
#
# Mechanical properties :
#
#
# Convention : Reuss Voigt Hill
#
# Bulk Modulus (GPa) = 66.28823 71.31650 68.80236
# Shear Modulus (GPa) = 38.31781 40.80230 39.56005
#
# Velocity S-wave (km/s) = 4.11740 4.24878 4.18361
# Velocity P-wave (km/s) = 7.20637 7.45802 7.33328
#
# Compressibility (1/GPa) = 0.01508564
#
# Stress axis : x y z
#
# Youngs Moduli (GPa) = 103.91945 92.13815 102.99717
#
# Poissons Ratio (x) = 0.20109 0.36961
# Poissons Ratio (y) = 0.22680 0.18320
# Poissons Ratio (z) = 0.37292 0.16389
#
# Static dielectric constant tensor:
#      x y z
#    x 3.891370 -0.117670 0.032900 
#    y -0.117670 3.843380 -0.078610 
#    z 0.032900 -0.078610 4.370420 
# 
# 
# High freq. dielectric constant tensor:
#      x y z
#    x 1.893920 0.000560 -0.000030 
#    y 0.000560 1.895440 -0.005150 
#    z -0.000030 -0.005150 1.912430 
# 
# From -- ./inp_files/405654.got.cif
#   From: 2010.06.25/outbox.cif.g09.slc.cpg/sg2_203_cif.got.tgz:405654.got - 2010.06.27 13:26:56.
