data_PCOD8033206
_publ_section_title
;
Structure prediction by ZEFSAII (Michael W. Deem and Ramdas Pophale) SiO2 
 PCOD8033206
Probable space group: P -1
;
_chemical_formula_sum "Si O2"
_cell_formula_units_Z 16
_cell_length_a 16.704819
_cell_length_b 6.722417
_cell_length_c 9.031140
_cell_angle_alpha 56.878396
_cell_angle_beta 63.313613
_cell_angle_gamma 80.889781
_cell_volume 753.746651
_symmetry_space_group_name_H-M "P -1"
_symmetry_group_IT_number 2
_symmetry_cell_setting 'triclinic'
loop_
_space_group_symop_operation_xyz
x,y,z
-x,-y,-z
loop_
_atom_site_type_symbol
_atom_site_label
_atom_site_fract_x
_atom_site_fract_y
_atom_site_fract_z
Si Si1 0.270344 0.149755 0.592440
Si Si2 0.414863 0.809939 0.612659
Si Si3 0.912744 0.813417 0.120692
Si Si4 0.025435 0.622764 0.583904
Si Si5 0.288056 0.092855 0.263280
Si Si6 0.368925 0.647756 0.396911
Si Si7 0.882065 0.860308 0.781546
Si Si8 0.465929 0.386743 0.924499
O O1 0.170287 0.090602 0.764419
O O2 0.263557 0.192041 0.404461
O O3 0.324772 0.374856 0.537381
O O4 0.322686 0.922696 0.674631
O O5 0.418477 0.715252 0.482029
O O6 0.414376 0.580320 0.806385
O O7 0.500000 0.000000 0.500000
O O8 0.925372 0.551276 0.279399
O O9 0.892596 0.801440 0.968263
O O10 0.000000 0.000000 0.000000
O O11 0.000000 0.500000 0.500000
O O12 0.935725 0.681115 0.716996
O O13 0.088840 0.865777 0.399329
O O14 0.222549 0.189721 0.157186
O O15 0.285397 0.804552 0.378466
O O16 0.392099 0.165086 0.107169
O O17 0.448544 0.699235 0.191916
O O18 0.500000 0.500000 0.000000
#
# Coordination Sequence:
#
# PCOD8033206 Si02
#       8
#     2   2   2   2   2   2   2   2
#     4  11  25  46  67  96 141 177 227 283 342 404
#     4  11  24  43  68  99 135 180 226 280 337 406
#     4  12  26  46  72 102 139 185 231 282 348 413
#     4  11  23  48  73  97 141 178 225 289 347 406
#     4  11  25  43  67 102 135 174 232 282 338 409
#     4  11  23  45  69  93 139 182 217 283 345 396
#     4  11  26  44  72 104 134 182 228 285 348 407
#     4  12  23  43  67  97 135 180 225 275 341 409
#
# _framework density 21.227293
#
# number of rings (size 3 to 8) (size 9 to 14) (size 15 to 20)
#    0.000    0.750    3.750    3.375    3.500    2.000 
#    4.500    0.000    0.000    0.000    0.000    0.000 
#    0.000    0.000    0.000    0.000    0.000    0.000 
#
# Total GULP energy -198430.571109 kJ/mol
# GULP energy per Si atom -12401.910694 kJ/mol
# Density = 2.117898 g / cm^3
# Si number density = 21.227293 Si / 1000 Ang^3
#
#
#
# Elastic Constant Matrix: (Units=GPa)
#
#
# Indices 1 2 3 4 5 6 
#
# 1 137.8179 55.6422 51.6577 27.4050 12.9217 -2.9740
# 2 55.6422 131.0392 49.6806 25.5225 8.3534 -0.4381
# 3 51.6577 49.6806 110.7976 25.2176 7.1052 -4.7531
# 4 27.4050 25.5225 25.2176 31.3232 -5.1574 4.9990
# 5 12.9217 8.3534 7.1052 -5.1574 55.5572 0.4623
# 6 -2.9740 -0.4381 -4.7531 4.9990 0.4623 37.3254
#
#
#
# Elastic Compliance Matrix: (Units=1/GPa)
#
#
# Indices 1 2 3 4 5 6 
#
# 1 0.010486 -0.002238 -0.002278 -0.006129 -0.002391 0.001370
# 2 -0.002238 0.010554 -0.002487 -0.004885 -0.001204 0.000298
# 3 -0.002278 -0.002487 0.013009 -0.007074 -0.001437 0.002411
# 4 -0.006129 -0.004885 -0.007074 0.049541 0.007732 -0.008177
# 5 -0.002391 -0.001204 -0.001437 0.007732 0.019652 -0.001667
# 6 0.001370 0.000298 0.002411 -0.008177 -0.001667 0.028327
#
#
# Mechanical properties :
#
#
# Convention : Reuss Voigt Hill
#
# Bulk Modulus (GPa) = 49.89666 77.06841 63.48254
# Shear Modulus (GPa) = 32.83956 39.68611 36.26283
#
# Velocity S-wave (km/s) = 3.93752 4.32855 4.13766
# Velocity P-wave (km/s) = 6.65049 7.83371 7.26622
#
# Compressibility (1/GPa) = 0.02004142
#
# Stress axis : x y z
#
# Youngs Moduli (GPa) = 95.36525 94.75374 76.87249
#
# Poissons Ratio (x) = 0.21207 0.17515
# Poissons Ratio (y) = 0.21344 0.19117
# Poissons Ratio (z) = 0.21728 0.23564
#
# Static dielectric constant tensor:
#      x y z
#    x 3.948260 -0.085680 0.137670 
#    y -0.085680 4.108400 -0.021200 
#    z 0.137670 -0.021200 3.905150 
# 
# 
# High freq. dielectric constant tensor:
#      x y z
#    x 1.845290 -0.004270 0.005040 
#    y -0.004270 1.850040 0.004330 
#    z 0.005040 0.004330 1.832950 
# 
# From -- ./inp_files/37795.got.cif
#   From: 2010.06.25/outbox.cif.g09.slc.cpg/sg2_19_cif.got.tgz:37795.got - 2010.06.27 13:26:56.
