data_PCOD8033604
_publ_section_title
;
Structure prediction by ZEFSAII (Michael W. Deem and Ramdas Pophale) SiO2 
 PCOD8033604
Probable space group: P -1
;
_chemical_formula_sum "Si O2"
_cell_formula_units_Z 12
_cell_length_a 7.980303
_cell_length_b 15.478565
_cell_length_c 6.142419
_cell_angle_alpha 60.267323
_cell_angle_beta 54.727116
_cell_angle_gamma 61.280487
_cell_volume 517.330427
_symmetry_space_group_name_H-M "P -1"
_symmetry_group_IT_number 2
_symmetry_cell_setting 'triclinic'
loop_
_space_group_symop_operation_xyz
x,y,z
-x,-y,-z
loop_
_atom_site_type_symbol
_atom_site_label
_atom_site_fract_x
_atom_site_fract_y
_atom_site_fract_z
Si Si1 0.982035 0.223159 0.603938
Si Si2 0.564151 0.566506 0.554103
Si Si3 0.773080 0.374866 0.913139
Si Si4 0.093006 0.382298 0.999181
Si Si5 0.396016 0.070013 0.688677
Si Si6 0.215437 0.930646 0.320221
O O1 0.194727 0.159805 0.645460
O O2 0.799333 0.282311 0.836636
O O3 0.856390 0.161376 0.627298
O O4 0.065975 0.305602 0.301616
O O5 0.500000 0.500000 0.500000
O O6 0.715319 0.487323 0.706308
O O7 0.664599 0.640370 0.238452
O O8 0.378315 0.636400 0.756124
O O9 0.998903 0.360792 0.868806
O O10 0.000000 0.500000 0.000000
O O11 0.585926 0.110983 0.607294
O O12 0.500000 0.000000 0.500000
O O13 0.298378 0.000776 0.004147
O O14 0.000000 0.000000 0.500000
#
# Coordination Sequence:
#
# PCOD8033604 Si02
#       6
#     2   2   2   2   2   2
#     4  12  27  48  76 115 153 200 255 310 382 453
#     4  11  23  48  71 100 146 202 251 309 367 433
#     4  11  25  45  71 103 148 201 251 308 371 435
#     4  12  25  48  69 108 154 197 253 309 365 447
#     4  11  26  52  79 111 147 198 251 317 388 453
#     4  11  26  52  79 109 155 193 249 323 383 453
#
# _framework density 23.196007000000002
#
# number of rings (size 3 to 8) (size 9 to 14) (size 15 to 20)
#    0.000    0.667    5.000    1.000    2.333    0.000 
#   18.000    0.000    0.000    0.000    0.000    0.000 
#    0.000    0.000    0.000    0.000    0.000    0.000 
#
# Total GULP energy -148666.278596 kJ/mol
# GULP energy per Si atom -12388.856550 kJ/mol
# Density = 2.314321 g / cm^3
# Si number density = 23.196007 Si / 1000 Ang^3
#
#
#
# Elastic Constant Matrix: (Units=GPa)
#
#
# Indices 1 2 3 4 5 6 
#
# 1 166.7480 60.7960 65.4249 -1.9036 -5.7928 10.4583
# 2 60.7960 116.3234 66.8928 15.8403 -10.4260 27.2042
# 3 65.4249 66.8928 182.1712 22.4368 -17.0907 15.8439
# 4 -1.9036 15.8403 22.4368 49.4729 -5.1009 10.2110
# 5 -5.7928 -10.4260 -17.0907 -5.1009 40.2022 1.0005
# 6 10.4583 27.2042 15.8439 10.2110 1.0005 36.4307
#
#
#
# Elastic Compliance Matrix: (Units=1/GPa)
#
#
# Indices 1 2 3 4 5 6 
#
# 1 0.008023 -0.003545 -0.001927 0.002164 -0.000323 0.000585
# 2 -0.003545 0.014423 -0.002942 -0.001545 0.001984 -0.008094
# 3 -0.001927 -0.002942 0.007744 -0.002447 0.001940 0.000015
# 4 0.002164 -0.001545 -0.002447 0.023118 0.001927 -0.004936
# 5 -0.000323 0.001984 0.001940 0.001927 0.026499 -0.003501
# 6 0.000585 -0.008094 0.000015 -0.004936 -0.003501 0.034799
#
#
# Mechanical properties :
#
#
# Convention : Reuss Voigt Hill
#
# Bulk Modulus (GPa) = 74.84975 94.60778 84.72877
# Shear Modulus (GPa) = 36.79505 43.36308 40.07906
#
# Velocity S-wave (km/s) = 3.98712 4.32837 4.16124
# Velocity P-wave (km/s) = 7.31673 8.11508 7.72622
#
# Compressibility (1/GPa) = 0.01336010
#
# Stress axis : x y z
#
# Youngs Moduli (GPa) = 124.64901 69.33474 129.13169
#
# Poissons Ratio (x) = 0.24580 0.24885
# Poissons Ratio (y) = 0.44189 0.37997
# Poissons Ratio (z) = 0.24021 0.20402
#
# Static dielectric constant tensor:
#      x y z
#    x 4.985610 -1.303840 1.523550 
#    y -1.303840 9.104610 -5.280880 
#    z 1.523550 -5.280880 10.653230 
# 
# 
# High freq. dielectric constant tensor:
#      x y z
#    x 1.937650 0.002040 0.004200 
#    y 0.002040 1.909270 0.015130 
#    z 0.004200 0.015130 1.939260 
# 
# From -- ./inp_files/36780.got.cif
#   From: 2010.06.25/outbox.cif.g09.slc.cpg/sg2_19_cif.got.tgz:36780.got - 2010.06.27 13:26:56.
