data_PCOD8033166
_publ_section_title
;
Structure prediction by ZEFSAII (Michael W. Deem and Ramdas Pophale) SiO2 
 PCOD8033166
Probable space group: P -1
;
_chemical_formula_sum "Si O2"
_cell_formula_units_Z 16
_cell_length_a 11.460869
_cell_length_b 8.876658
_cell_length_c 8.567667
_cell_angle_alpha 52.854437
_cell_angle_beta 80.059986
_cell_angle_gamma 79.134236
_cell_volume 680.392644
_symmetry_space_group_name_H-M "P -1"
_symmetry_group_IT_number 2
_symmetry_cell_setting 'triclinic'
loop_
_space_group_symop_operation_xyz
x,y,z
-x,-y,-z
loop_
_atom_site_type_symbol
_atom_site_label
_atom_site_fract_x
_atom_site_fract_y
_atom_site_fract_z
Si Si1 0.685028 0.904459 0.745342
Si Si2 0.536062 0.286670 0.069071
Si Si3 0.810173 0.574181 0.118729
Si Si4 0.039833 0.503837 0.309370
Si Si5 0.188847 0.744661 0.925522
Si Si6 0.340437 0.371463 0.583532
Si Si7 0.180737 0.128123 0.562464
Si Si8 0.582000 0.250373 0.735248
O O1 0.560754 0.835367 0.755312
O O2 0.741997 0.977528 0.528516
O O3 0.668683 0.066561 0.779627
O O4 0.778582 0.737745 0.897027
O O5 0.672454 0.222731 0.115433
O O6 0.500000 0.500000 0.000000
O O7 0.517662 0.235681 0.924100
O O8 0.829025 0.375994 0.148408
O O9 0.702405 0.585836 0.257247
O O10 0.932888 0.590258 0.170337
O O11 0.083147 0.281757 0.407841
O O12 0.000000 0.500000 0.500000
O O13 0.141809 0.643044 0.155449
O O14 0.124837 0.960547 0.777114
O O15 0.258709 0.242149 0.589925
O O16 0.477586 0.279365 0.611353
O O17 0.337374 0.576100 0.374422
#
# Coordination Sequence:
#
# PCOD8033166 Si02
#       8
#     2   2   2   2   2   2   2   2
#     4  12  25  44  72 111 148 194 240 296 368 437
#     4  12  22  41  72 107 154 190 235 296 367 434
#     4  12  25  47  73 102 148 187 244 303 356 434
#     4  12  27  52  75 102 146 191 246 313 357 422
#     4  12  27  47  75 110 142 194 245 295 368 436
#     4  11  23  45  67 106 146 190 243 299 360 433
#     4  12  27  49  74 107 145 194 246 301 366 432
#     4  11  24  39  71 105 150 194 238 294 366 439
#
# _framework density 23.515832
#
# number of rings (size 3 to 8) (size 9 to 14) (size 15 to 20)
#    0.000    0.250    5.000    3.750    1.750    5.000 
#    2.250    0.000    0.000    0.000    0.000    0.000 
#    0.000    0.000    0.000    0.000    0.000    0.000 
#
# Total GULP energy -198327.216192 kJ/mol
# GULP energy per Si atom -12395.451012 kJ/mol
# Density = 2.346231 g / cm^3
# Si number density = 23.515832 Si / 1000 Ang^3
#
#
#
# Elastic Constant Matrix: (Units=GPa)
#
#
# Indices 1 2 3 4 5 6 
#
# 1 95.1608 24.1726 43.0092 -5.6169 11.6091 1.9019
# 2 24.1726 123.4211 32.0366 -3.2680 -12.0799 -7.5362
# 3 43.0092 32.0366 114.8451 -12.9114 -12.5480 -12.8447
# 4 -5.6169 -3.2680 -12.9114 52.2346 -3.9429 1.2427
# 5 11.6091 -12.0799 -12.5480 -3.9429 24.5609 7.3844
# 6 1.9019 -7.5362 -12.8447 1.2427 7.3844 30.4163
#
#
#
# Elastic Compliance Matrix: (Units=1/GPa)
#
#
# Indices 1 2 3 4 5 6 
#
# 1 0.015595 -0.002590 -0.006686 -0.000988 -0.011755 -0.001546
# 2 -0.002590 0.009427 -0.000950 0.000450 0.005203 0.000815
# 3 -0.006686 -0.000950 0.013179 0.003067 0.008876 0.003468
# 4 -0.000988 0.000450 0.003067 0.020275 0.005736 -0.000753
# 5 -0.011755 0.005203 0.008876 0.005736 0.056764 -0.008243
# 6 -0.001546 0.000815 0.003468 -0.000753 -0.008243 0.036672
#
#
# Mechanical properties :
#
#
# Convention : Reuss Voigt Hill
#
# Bulk Modulus (GPa) = 56.34049 59.09598 57.71824
# Shear Modulus (GPa) = 28.04591 37.05627 32.55109
#
# Velocity S-wave (km/s) = 3.45721 3.97394 3.72455
# Velocity P-wave (km/s) = 6.32036 6.80008 6.56460
#
# Compressibility (1/GPa) = 0.01774923
#
# Stress axis : x y z
#
# Youngs Moduli (GPa) = 64.12367 106.07857 75.88061
#
# Poissons Ratio (x) = 0.27473 0.50735
# Poissons Ratio (y) = 0.16607 0.07206
# Poissons Ratio (z) = 0.42874 0.10073
#
# Static dielectric constant tensor:
#      x y z
#    x 4.294170 -0.152460 -0.030110 
#    y -0.152460 4.331690 0.042350 
#    z -0.030110 0.042350 4.354080 
# 
# 
# High freq. dielectric constant tensor:
#      x y z
#    x 1.925930 -0.007550 0.001160 
#    y -0.007550 1.936090 0.002880 
#    z 0.001160 0.002880 1.936840 
# 
# From -- ./inp_files/241999.got.cif
#   From: 2010.06.25/outbox.cif.g09.slc.cpg/sg2_121_cif.got.tgz:241999.got - 2010.06.27 13:26:56.
