data_PCOD8033520
_publ_section_title
;
Structure prediction by ZEFSAII (Michael W. Deem and Ramdas Pophale) SiO2 
 PCOD8033520
Probable space group: P -1
;
_chemical_formula_sum "Si O2"
_cell_formula_units_Z 16
_cell_length_a 16.019508
_cell_length_b 9.650039
_cell_length_c 8.811985
_cell_angle_alpha 68.161080
_cell_angle_beta 71.712558
_cell_angle_gamma 34.896193
_cell_volume 723.296901
_symmetry_space_group_name_H-M "P -1"
_symmetry_group_IT_number 2
_symmetry_cell_setting 'triclinic'
loop_
_space_group_symop_operation_xyz
x,y,z
-x,-y,-z
loop_
_atom_site_type_symbol
_atom_site_label
_atom_site_fract_x
_atom_site_fract_y
_atom_site_fract_z
Si Si1 0.090487 0.241995 0.613343
Si Si2 0.649341 0.635904 0.346469
Si Si3 0.098470 0.255270 0.949056
Si Si4 0.569092 0.239825 0.370196
Si Si5 0.917109 0.226910 0.560864
Si Si6 0.582547 0.056665 0.137821
Si Si7 0.873045 0.109088 0.922551
Si Si8 0.378454 0.507910 0.857694
O O1 0.044780 0.293224 0.793942
O O2 0.000000 0.500000 0.500000
O O3 0.041500 0.167123 0.574652
O O4 0.263056 0.026219 0.578803
O O5 0.530999 0.686397 0.468660
O O6 0.787890 0.484043 0.436634
O O7 0.706671 0.468365 0.234215
O O8 0.570391 0.895756 0.236627
O O9 0.253074 0.123291 0.915330
O O10 0.000000 0.500000 0.000000
O O11 0.094883 0.095477 0.089789
O O12 0.519164 0.223701 0.253401
O O13 0.543140 0.452204 0.274157
O O14 0.839562 0.259231 0.738004
O O15 0.000000 0.000000 0.500000
O O16 0.491739 0.235493 0.972332
O O17 0.731622 0.282352 0.038285
O O18 0.000000 0.000000 0.000000
#
# Coordination Sequence:
#
# PCOD8033520 Si02
#       8
#     2   2   2   2   2   2   2   2
#     4  11  24  45  69  99 145 181 225 292 355 413
#     4  12  27  44  70 106 143 184 241 288 349 425
#     4  11  26  45  70 104 138 181 237 289 353 420
#     4  11  23  47  68 101 140 186 236 288 352 419
#     4  12  26  43  72 104 140 185 233 289 351 418
#     4  11  25  45  71  99 140 186 234 293 350 416
#     4  12  24  46  73 101 138 188 233 291 350 417
#     4  12  25  46  71 102 143 183 239 291 349 417
#
# _framework density 22.120930999999999
#
# number of rings (size 3 to 8) (size 9 to 14) (size 15 to 20)
#    0.000    0.500    3.750    5.250    7.000    2.000 
#    0.000    0.000    0.000    0.000    0.000    0.000 
#    0.000    0.000    0.000    0.000    0.000    0.000 
#
# Total GULP energy -198426.892845 kJ/mol
# GULP energy per Si atom -12401.680803 kJ/mol
# Density = 2.207058 g / cm^3
# Si number density = 22.120931 Si / 1000 Ang^3
#
#
#
# Elastic Constant Matrix: (Units=GPa)
#
#
# Indices 1 2 3 4 5 6 
#
# 1 107.4477 34.8187 42.7698 1.7380 5.5913 12.5623
# 2 34.8187 99.4147 45.3373 -9.7478 6.7687 6.7260
# 3 42.7698 45.3373 86.3003 -18.1330 0.4550 -4.6826
# 4 1.7380 -9.7478 -18.1330 45.5626 8.0588 1.0078
# 5 5.5913 6.7687 0.4550 8.0588 42.2321 1.9170
# 6 12.5623 6.7260 -4.6826 1.0078 1.9170 35.5267
#
#
#
# Elastic Compliance Matrix: (Units=1/GPa)
#
#
# Indices 1 2 3 4 5 6 
#
# 1 0.013132 -0.001483 -0.006690 -0.003266 -0.000573 -0.005121
# 2 -0.001483 0.014000 -0.006589 0.000849 -0.002006 -0.002910
# 3 -0.006690 -0.006589 0.020095 0.006678 0.000176 0.006063
# 4 -0.003266 0.000849 0.006678 0.025720 -0.004747 0.001401
# 5 -0.000573 -0.002006 0.000176 -0.004747 0.025008 -0.000609
# 6 -0.005121 -0.002910 0.006063 0.001401 -0.000609 0.031302
#
#
# Mechanical properties :
#
#
# Convention : Reuss Voigt Hill
#
# Bulk Modulus (GPa) = 56.48589 59.89050 58.18819
# Shear Modulus (GPa) = 30.36168 36.01341 33.18754
#
# Velocity S-wave (km/s) = 3.70879 4.03926 3.87754
# Velocity P-wave (km/s) = 6.62802 6.99193 6.81240
#
# Compressibility (1/GPa) = 0.01770354
#
# Stress axis : x y z
#
# Youngs Moduli (GPa) = 76.15131 71.42999 49.76265
#
# Poissons Ratio (x) = 0.10594 0.33291
# Poissons Ratio (y) = 0.11294 0.32787
# Poissons Ratio (z) = 0.50945 0.47063
#
# Static dielectric constant tensor:
#      x y z
#    x 3.771630 0.099430 0.286500 
#    y 0.099430 4.051960 -0.144020 
#    z 0.286500 -0.144020 4.123180 
# 
# 
# High freq. dielectric constant tensor:
#      x y z
#    x 1.881050 0.010030 0.002660 
#    y 0.010030 1.872110 -0.006970 
#    z 0.002660 -0.006970 1.881490 
# 
# From -- ./inp_files/297832.got.cif
#   From: 2010.06.25/outbox.cif.g09.slc.cpg/sg2_149_cif.got.tgz:297832.got - 2010.06.27 13:26:56.
