data_PCOD8033261
_publ_section_title
;
Structure prediction by ZEFSAII (Michael W. Deem and Ramdas Pophale) SiO2 
 PCOD8033261
Probable space group: P -1
;
_chemical_formula_sum "Si O2"
_cell_formula_units_Z 16
_cell_length_a 11.834309
_cell_length_b 9.625821
_cell_length_c 14.497406
_cell_angle_alpha 82.590344
_cell_angle_beta 150.392989
_cell_angle_gamma 85.324717
_cell_volume 743.217826
_symmetry_space_group_name_H-M "P -1"
_symmetry_group_IT_number 2
_symmetry_cell_setting 'triclinic'
loop_
_space_group_symop_operation_xyz
x,y,z
-x,-y,-z
loop_
_atom_site_type_symbol
_atom_site_label
_atom_site_fract_x
_atom_site_fract_y
_atom_site_fract_z
Si Si1 0.587325 0.128495 0.962706
Si Si2 0.741699 0.455570 0.610235
Si Si3 0.126114 0.509808 0.996040
Si Si4 0.105648 0.887901 0.288428
Si Si5 0.506764 0.178025 0.282842
Si Si6 0.275671 0.944109 0.739749
Si Si7 0.719088 0.042509 0.772982
Si Si8 0.545981 0.323572 0.755866
O O1 0.683929 0.158274 0.129423
O O2 0.469639 0.281838 0.805196
O O3 0.819321 0.008450 0.078303
O O4 0.352591 0.081828 0.813749
O O5 0.500000 0.500000 0.500000
O O6 0.891373 0.273454 0.730308
O O7 0.658789 0.518936 0.442730
O O8 0.932088 0.528609 0.774413
O O9 0.374661 0.358541 0.179042
O O10 0.196159 0.656696 0.041290
O O11 0.000000 0.500000 0.000000
O O12 0.220904 0.874265 0.473237
O O13 0.284404 0.936140 0.342649
O O14 0.532474 0.143733 0.195878
O O15 0.357400 0.093131 0.237503
O O16 0.000000 0.000000 0.500000
O O17 0.559199 0.198813 0.698854
O O18 0.000000 0.000000 0.000000
#
# Coordination Sequence:
#
# PCOD8033261 Si02
#       8
#     2   2   2   2   2   2   2   2
#     4  11  25  43  71  99 133 174 229 289 336 386
#     4  12  23  39  61  93 140 184 217 263 335 412
#     4  12  24  41  66  96 143 183 216 268 344 415
#     4  12  22  41  66 100 137 178 219 275 341 415
#     4  12  24  42  68 100 132 182 227 273 345 403
#     4  11  23  45  71  98 130 175 235 286 333 389
#     4  12  22  37  62 100 141 167 219 278 336 409
#     4  12  24  41  63 101 136 174 223 272 337 400
#
# _framework density 21.528009000000001
#
# number of rings (size 3 to 8) (size 9 to 14) (size 15 to 20)
#    0.000    0.250    7.500    2.625    0.000    2.000 
#    0.000    0.625    0.000    7.500    0.000    0.000 
#    0.000    0.000    0.000    0.000    0.000    0.000 
#
# Total GULP energy -198348.213265 kJ/mol
# GULP energy per Si atom -12396.763329 kJ/mol
# Density = 2.147901 g / cm^3
# Si number density = 21.528009 Si / 1000 Ang^3
#
#
#
# Elastic Constant Matrix: (Units=GPa)
#
#
# Indices 1 2 3 4 5 6 
#
# 1 116.3082 16.5899 33.1469 -4.5612 -34.3742 10.0321
# 2 16.5899 44.9238 17.6017 4.8912 -7.7702 6.6639
# 3 33.1469 17.6017 108.6590 8.4683 -18.8426 11.4471
# 4 -4.5612 4.8912 8.4683 36.2558 2.5889 -2.3624
# 5 -34.3742 -7.7702 -18.8426 2.5889 40.5741 -0.5155
# 6 10.0321 6.6639 11.4471 -2.3624 -0.5155 28.5608
#
#
#
# Elastic Compliance Matrix: (Units=1/GPa)
#
#
# Indices 1 2 3 4 5 6 
#
# 1 0.012390 -0.002050 -0.001647 0.001371 0.009214 -0.002934
# 2 -0.002050 0.025379 -0.002348 -0.003585 0.002204 -0.004517
# 3 -0.001647 -0.002348 0.011317 -0.003022 0.003558 -0.003595
# 4 0.001371 -0.003585 -0.003022 0.029398 -0.002754 0.003948
# 5 0.009214 0.002204 0.003558 -0.002754 0.034642 -0.004779
# 6 -0.002934 -0.004517 -0.003595 0.003948 -0.004779 0.038778
#
#
# Mechanical properties :
#
#
# Convention : Reuss Voigt Hill
#
# Bulk Modulus (GPa) = 27.03157 44.95199 35.99178
# Shear Modulus (GPa) = 28.35647 34.58166 31.46906
#
# Velocity S-wave (km/s) = 3.63325 4.01229 3.82746
# Velocity P-wave (km/s) = 5.49403 6.51081 6.02391
#
# Compressibility (1/GPa) = 0.03699378
#
# Stress axis : x y z
#
# Youngs Moduli (GPa) = 80.71174 39.40318 88.36094
#
# Poissons Ratio (x) = 0.08079 0.14556
# Poissons Ratio (y) = 0.16549 0.20749
# Poissons Ratio (z) = 0.13296 0.09253
#
# Static dielectric constant tensor:
#      x y z
#    x 4.978800 0.479100 -0.450900 
#    y 0.479100 3.908030 -0.026860 
#    z -0.450900 -0.026860 3.947830 
# 
# 
# High freq. dielectric constant tensor:
#      x y z
#    x 1.836810 0.004450 -0.020190 
#    y 0.004450 1.832150 0.013460 
#    z -0.020190 0.013460 1.856170 
# 
# From -- ./inp_files/315393.got.cif
#   From: 2010.06.25/outbox.cif.g09.slc.cpg/sg2_158_cif.got.tgz:315393.got - 2010.06.27 13:26:56.
