data_PCOD8033112
_publ_section_title
;
Structure prediction by ZEFSAII (Michael W. Deem and Ramdas Pophale) SiO2 
 PCOD8033112
Probable space group: P -1
;
_chemical_formula_sum "Si O2"
_cell_formula_units_Z 14
_cell_length_a 9.028362
_cell_length_b 14.358052
_cell_length_c 11.604900
_cell_angle_alpha 151.806686
_cell_angle_beta 52.599973
_cell_angle_gamma 117.654988
_cell_volume 554.363932
_symmetry_space_group_name_H-M "P -1"
_symmetry_group_IT_number 2
_symmetry_cell_setting 'triclinic'
loop_
_space_group_symop_operation_xyz
x,y,z
-x,-y,-z
loop_
_atom_site_type_symbol
_atom_site_label
_atom_site_fract_x
_atom_site_fract_y
_atom_site_fract_z
Si Si1 0.556775 0.205566 0.745792
Si Si2 0.883994 0.737855 0.669839
Si Si3 0.836087 0.867463 0.580389
Si Si4 0.711079 0.398065 0.301608
Si Si5 0.855601 0.241274 0.839773
Si Si6 0.304505 0.610086 0.340154
Si Si7 0.601126 0.122228 0.228217
O O1 0.692520 0.179986 0.766236
O O2 0.671565 0.302018 0.700851
O O3 0.500000 0.000000 0.500000
O O4 0.363941 0.367111 0.043793
O O5 0.915854 0.797717 0.589836
O O6 0.810952 0.528648 0.484216
O O7 0.091462 0.689507 0.576208
O O8 0.731515 0.918811 0.997633
O O9 0.608431 0.908820 0.735703
O O10 0.957217 0.708765 0.258501
O O11 0.911189 0.065117 0.717302
O O12 0.500000 0.500000 0.500000
O O13 0.710468 0.180527 0.124483
O O14 0.783577 0.419408 0.158971
O O15 0.435018 0.700348 0.467644
#
# Coordination Sequence:
#
# PCOD8033112 Si02
#       7
#     2   2   2   2   2   2   2
#     4  11  25  48  72 102 149 190 242 298 362 435
#     4  12  25  46  71 108 149 190 241 301 360 435
#     4  11  23  44  74 105 142 189 242 298 362 422
#     4  12  25  42  72 107 143 188 245 298 367 426
#     4  11  24  44  75 107 140 189 244 302 360 429
#     4  11  27  46  72 105 144 197 241 291 368 433
#     4  12  25  48  72 107 152 190 239 303 363 431
#
# _framework density 25.254168
#
# number of rings (size 3 to 8) (size 9 to 14) (size 15 to 20)
#    0.000    0.571    4.286    3.429    0.000    8.000 
#    0.000    0.000    0.000    0.000    0.000    0.000 
#    0.000    0.000    0.000    0.000    0.000    0.000 
#
# Total GULP energy -173457.076860 kJ/mol
# GULP energy per Si atom -12389.791204 kJ/mol
# Density = 2.519669 g / cm^3
# Si number density = 25.254168 Si / 1000 Ang^3
#
#
#
# Elastic Constant Matrix: (Units=GPa)
#
#
# Indices 1 2 3 4 5 6 
#
# 1 69.3538 6.0251 34.1733 8.6330 -8.6957 10.9851
# 2 6.0251 79.4968 21.7715 -1.1007 -7.4056 6.0524
# 3 34.1733 21.7715 148.2448 -1.5860 -5.3389 15.2406
# 4 8.6330 -1.1007 -1.5860 45.0048 4.8999 1.1223
# 5 -8.6957 -7.4056 -5.3389 4.8999 49.2000 -6.0556
# 6 10.9851 6.0524 15.2406 1.1223 -6.0556 31.8509
#
#
#
# Elastic Compliance Matrix: (Units=1/GPa)
#
#
# Indices 1 2 3 4 5 6 
#
# 1 0.017577 0.000141 -0.003635 -0.003692 0.002644 -0.003717
# 2 0.000141 0.013320 -0.001783 0.000091 0.001653 -0.001416
# 3 -0.003635 -0.001783 0.008087 0.001045 -0.000432 -0.002396
# 4 -0.003692 0.000091 0.001045 0.023301 -0.002922 -0.000621
# 5 0.002644 0.001653 -0.000432 -0.002922 0.021680 0.003206
# 6 -0.003717 -0.001416 -0.002396 -0.000621 0.003206 0.034725
#
#
# Mechanical properties :
#
#
# Convention : Reuss Voigt Hill
#
# Bulk Modulus (GPa) = 35.17156 46.78170 40.97663
# Shear Modulus (GPa) = 36.04388 40.88617 38.46503
#
# Velocity S-wave (km/s) = 3.78199 4.02803 3.90695
# Velocity P-wave (km/s) = 5.74704 6.34018 6.05089
#
# Compressibility (1/GPa) = 0.02843206
#
# Stress axis : x y z
#
# Youngs Moduli (GPa) = 56.89163 75.07694 123.65089
#
# Poissons Ratio (x) = -0.01062 0.44945
# Poissons Ratio (y) = -0.00805 0.22043
# Poissons Ratio (z) = 0.20679 0.13384
#
# Static dielectric constant tensor:
#      x y z
#    x 4.089980 -0.027300 -0.248580 
#    y -0.027300 2.348450 0.173230 
#    z -0.248580 0.173230 4.996250 
# 
# 
# High freq. dielectric constant tensor:
#      x y z
#    x 1.990830 -0.009220 -0.006030 
#    y -0.009220 2.014010 -0.007250 
#    z -0.006030 -0.007250 2.030370 
# 
# From -- ./inp_files/272243.got.cif
#   From: 2010.06.25/outbox.cif.g09.slc.cpg/sg2_137_cif.got.tgz:272243.got - 2010.06.27 13:26:56.
