data_PCOD8033127
_publ_section_title
;
Structure prediction by ZEFSAII (Michael W. Deem and Ramdas Pophale) SiO2 
 PCOD8033127
Probable space group: P -1
;
_chemical_formula_sum "Si O2"
_cell_formula_units_Z 16
_cell_length_a 14.030280
_cell_length_b 11.623237
_cell_length_c 8.262103
_cell_angle_alpha 113.032432
_cell_angle_beta 77.028283
_cell_angle_gamma 47.996680
_cell_volume 647.858090
_symmetry_space_group_name_H-M "P -1"
_symmetry_group_IT_number 2
_symmetry_cell_setting 'triclinic'
loop_
_space_group_symop_operation_xyz
x,y,z
-x,-y,-z
loop_
_atom_site_type_symbol
_atom_site_label
_atom_site_fract_x
_atom_site_fract_y
_atom_site_fract_z
Si Si1 0.995562 0.788503 0.430373
Si Si2 0.114670 0.354613 0.637468
Si Si3 0.391842 0.246430 0.412822
Si Si4 0.686291 0.248855 0.964760
Si Si5 0.179740 0.639506 0.951353
Si Si6 0.820848 0.075615 0.169528
Si Si7 0.323064 0.542242 0.369607
Si Si8 0.772647 0.858293 0.177546
O O1 0.056877 0.709655 0.177153
O O2 0.142270 0.707748 0.430910
O O3 0.963855 0.681359 0.448915
O O4 0.806275 0.069557 0.669534
O O5 0.269616 0.257293 0.417940
O O6 0.214253 0.199113 0.675135
O O7 0.952618 0.626535 0.882121
O O8 0.395302 0.339741 0.316180
O O9 0.596244 0.982897 0.232377
O O10 0.300935 0.401944 0.695089
O O11 0.689122 0.396136 0.045003
O O12 0.778077 0.097225 0.010374
O O13 0.479351 0.423383 0.122054
O O14 0.040284 0.852702 0.990611
O O15 0.711738 0.314679 0.403839
O O16 0.747608 0.034679 0.273668
#
# Coordination Sequence:
#
# PCOD8033127 Si02
#       8
#     2   2   2   2   2   2   2   2
#     4  12  28  45  63 100 147 183 226 274 344 413
#     4  11  25  46  68 100 139 185 230 280 333 399
#     4  12  24  45  77 102 132 181 236 286 331 399
#     4  12  25  44  70 103 139 178 222 285 348 408
#     4  12  23  43  74 103 137 180 224 284 352 401
#     4  12  21  46  75 101 133 174 229 290 337 404
#     4  12  27  44  70 108 137 178 228 278 351 413
#     4  11  23  44  76 102 133 175 239 287 333 396
#
# _framework density 24.696766
#
# number of rings (size 3 to 8) (size 9 to 14) (size 15 to 20)
#    0.000    0.250    6.250    3.750    0.000    3.000 
#    0.000    1.250    0.000    0.000    0.000    0.000 
#    0.000    0.000    0.000    0.000    0.000    0.000 
#
# Total GULP energy -198512.627600 kJ/mol
# GULP energy per Si atom -12407.039225 kJ/mol
# Density = 2.464055 g / cm^3
# Si number density = 24.696766 Si / 1000 Ang^3
#
#
#
# Elastic Constant Matrix: (Units=GPa)
#
#
# Indices 1 2 3 4 5 6 
#
# 1 136.7140 0.6350 16.4916 8.4139 -32.1320 18.2787
# 2 0.6350 43.8200 -4.8304 16.5632 -7.0445 4.5394
# 3 16.4916 -4.8304 58.3269 3.1556 -27.3631 -7.5634
# 4 8.4139 16.5632 3.1556 25.4402 -6.6206 -6.3312
# 5 -32.1320 -7.0445 -27.3631 -6.6206 44.8619 -0.6594
# 6 18.2787 4.5394 -7.5634 -6.3312 -0.6594 36.5447
#
#
#
# Elastic Compliance Matrix: (Units=1/GPa)
#
#
# Indices 1 2 3 4 5 6 
#
# 1 0.010117 0.003778 0.000257 -0.005566 0.007082 -0.006313
# 2 0.003778 0.035085 0.005667 -0.025064 0.007837 -0.009276
# 3 0.000257 0.005667 0.026132 -0.001477 0.016863 0.004624
# 4 -0.005566 -0.025064 -0.001477 0.061853 0.000545 0.016317
# 5 0.007082 0.007837 0.016863 0.000545 0.038957 -0.000228
# 6 -0.006313 -0.009276 0.004624 0.016317 -0.000228 0.035453
#
#
# Mechanical properties :
#
#
# Convention : Reuss Voigt Hill
#
# Bulk Modulus (GPa) = 11.02063 29.27259 20.14661
# Shear Modulus (GPa) = 22.88980 36.47367 29.68174
#
# Velocity S-wave (km/s) = 3.04770 3.84716 3.47053
# Velocity P-wave (km/s) = 4.10569 5.62252 4.92288
#
# Compressibility (1/GPa) = 0.09073894
#
# Stress axis : x y z
#
# Youngs Moduli (GPa) = 98.84303 28.50212 38.26740
#
# Poissons Ratio (x) = -0.10768 -0.00985
# Poissons Ratio (y) = -0.37343 -0.21686
# Poissons Ratio (z) = -0.02545 -0.16152
#
# Static dielectric constant tensor:
#      x y z
#    x 4.727090 0.077890 -0.324090 
#    y 0.077890 4.266750 0.004250 
#    z -0.324090 0.004250 4.278040 
# 
# 
# High freq. dielectric constant tensor:
#      x y z
#    x 1.999860 0.009670 -0.023190 
#    y 0.009670 1.975910 0.003000 
#    z -0.023190 0.003000 1.968980 
# 
# From -- ./inp_files/306991.got.cif
#   From: 2010.06.25/outbox.cif.g09.slc.cpg/sg2_154_cif.got.tgz:306991.got - 2010.06.27 13:26:56.
