data_PCOD8033358
_publ_section_title
;
Structure prediction by ZEFSAII (Michael W. Deem and Ramdas Pophale) SiO2 
 PCOD8033358
Probable space group: P -1
;
_chemical_formula_sum "Si O2"
_cell_formula_units_Z 12
_cell_length_a 9.930437
_cell_length_b 8.929722
_cell_length_c 13.522493
_cell_angle_alpha 121.017561
_cell_angle_beta 34.459619
_cell_angle_gamma 103.554362
_cell_volume 534.720322
_symmetry_space_group_name_H-M "P -1"
_symmetry_group_IT_number 2
_symmetry_cell_setting 'triclinic'
loop_
_space_group_symop_operation_xyz
x,y,z
-x,-y,-z
loop_
_atom_site_type_symbol
_atom_site_label
_atom_site_fract_x
_atom_site_fract_y
_atom_site_fract_z
Si Si1 0.182455 0.377268 0.430579
Si Si2 0.262137 0.698220 0.987958
Si Si3 0.971188 0.824393 0.010175
Si Si4 0.588647 0.992451 0.554593
Si Si5 0.070557 0.023150 0.353940
Si Si6 0.911500 0.566195 0.270977
O O1 0.043343 0.447531 0.643572
O O2 0.000000 0.500000 0.500000
O O3 0.213743 0.165410 0.314542
O O4 0.458730 0.396516 0.265015
O O5 0.047546 0.818539 0.077708
O O6 0.166688 0.545940 0.045489
O O7 0.275913 0.832590 0.115353
O O8 0.149215 0.616357 0.786411
O O9 0.669977 0.869031 0.186201
O O10 0.000000 0.000000 0.000000
O O11 0.683769 0.772485 0.458639
O O12 0.500000 0.000000 0.500000
O O13 0.804119 0.079927 0.471770
O O14 0.000000 0.000000 0.500000
#
# Coordination Sequence:
#
# PCOD8033358 Si02
#       6
#     2   2   2   2   2   2
#     4  12  28  44  72 109 145 196 245 304 368 442
#     4  11  25  48  73 101 148 197 245 305 366 435
#     4  12  27  44  76 111 145 195 247 307 373 437
#     4  11  23  45  77 104 141 199 241 294 372 428
#     4  11  23  47  73 101 149 192 242 301 365 432
#     4  11  26  50  71 110 151 189 250 309 360 446
#
# _framework density 22.441638000000001
#
# number of rings (size 3 to 8) (size 9 to 14) (size 15 to 20)
#    0.000    0.667    6.667    2.000    4.667    4.667 
#    0.000    0.000    0.000    0.000    0.000    0.000 
#    0.000    0.000    0.000    0.000    0.000    0.000 
#
# Total GULP energy -148699.625955 kJ/mol
# GULP energy per Si atom -12391.635496 kJ/mol
# Density = 2.239056 g / cm^3
# Si number density = 22.441638 Si / 1000 Ang^3
#
#
#
# Elastic Constant Matrix: (Units=GPa)
#
#
# Indices 1 2 3 4 5 6 
#
# 1 122.6389 41.0831 37.7500 -12.3582 11.8898 -12.7839
# 2 41.0831 116.9035 41.6791 -1.2996 16.7159 -13.0247
# 3 37.7500 41.6791 86.6108 -9.2213 -5.5918 -2.6489
# 4 -12.3582 -1.2996 -9.2213 44.8339 7.4446 6.6451
# 5 11.8898 16.7159 -5.5918 7.4446 52.6554 -2.5213
# 6 -12.7839 -13.0247 -2.6489 6.6451 -2.5213 38.8412
#
#
#
# Elastic Compliance Matrix: (Units=1/GPa)
#
#
# Indices 1 2 3 4 5 6 
#
# 1 0.010536 -0.001834 -0.003565 0.002206 -0.002388 0.002077
# 2 -0.001834 0.011879 -0.005173 -0.001066 -0.003613 0.002975
# 3 -0.003565 -0.005173 0.015969 0.001800 0.003799 -0.001880
# 4 0.002206 -0.001066 0.001800 0.024433 -0.003611 -0.003923
# 5 -0.002388 -0.003613 0.003799 -0.003611 0.021605 0.000282
# 6 0.002077 0.002975 -0.001880 -0.003923 0.000282 0.027988
#
#
# Mechanical properties :
#
#
# Convention : Reuss Voigt Hill
#
# Bulk Modulus (GPa) = 58.00776 63.01973 60.51375
# Shear Modulus (GPa) = 35.89335 40.97551 38.43443
#
# Velocity S-wave (km/s) = 4.00360 4.27766 4.14289
# Velocity P-wave (km/s) = 6.87576 7.24847 7.06458
#
# Compressibility (1/GPa) = 0.01723907
#
# Stress axis : x y z
#
# Youngs Moduli (GPa) = 94.90988 84.18132 62.62311
#
# Poissons Ratio (x) = 0.15440 0.22328
# Poissons Ratio (y) = 0.17408 0.32394
# Poissons Ratio (z) = 0.33839 0.43546
#
# Static dielectric constant tensor:
#      x y z
#    x 0.000000 0.000000 0.000000 
#    y 0.000000 0.000000 0.000000 
#    z 0.000000 0.000000 0.000000 
# 
# 
# High freq. dielectric constant tensor:
#      x y z
#    x 1.888210 0.000410 0.012240 
#    y 0.000410 1.884340 -0.007570 
#    z 0.012240 -0.007570 1.887140 
# 
# From -- ./inp_files/183706.got.cif
#   From: 2010.06.25/outbox.cif.g09.slc.cpg/sg2_92_cif.got.tgz:183706.got - 2010.06.27 13:26:56.
