data_PCOD8033736
_publ_section_title
;
Structure prediction by ZEFSAII (Michael W. Deem and Ramdas Pophale) SiO2 
 PCOD8033736
Probable space group: P -1
;
_chemical_formula_sum "Si O2"
_cell_formula_units_Z 16
_cell_length_a 22.656161
_cell_length_b 12.472063
_cell_length_c 8.094743
_cell_angle_alpha 122.809798
_cell_angle_beta 47.404967
_cell_angle_gamma 154.932668
_cell_volume 694.565275
_symmetry_space_group_name_H-M "P -1"
_symmetry_group_IT_number 2
_symmetry_cell_setting 'triclinic'
loop_
_space_group_symop_operation_xyz
x,y,z
-x,-y,-z
loop_
_atom_site_type_symbol
_atom_site_label
_atom_site_fract_x
_atom_site_fract_y
_atom_site_fract_z
Si Si1 0.315658 0.371467 0.455018
Si Si2 0.460502 0.040196 0.754306
Si Si3 0.668086 0.913946 0.172923
Si Si4 0.827370 0.416661 0.850386
Si Si5 0.107570 0.649192 0.631116
Si Si6 0.085766 0.867945 0.330517
Si Si7 0.223603 0.392110 0.313201
Si Si8 0.169556 0.290748 0.974335
O O1 0.510095 0.615658 0.286211
O O2 0.259959 0.361469 0.381889
O O3 0.294955 0.428108 0.706167
O O4 0.205495 0.089737 0.435039
O O5 0.500000 0.000000 0.500000
O O6 0.383745 0.067031 0.863485
O O7 0.632977 0.305899 0.738074
O O8 0.335098 0.798870 0.913219
O O9 0.743395 0.111507 0.332543
O O10 0.800208 0.994159 0.930575
O O11 0.809030 0.276545 0.636550
O O12 0.990757 0.611546 0.808589
O O13 0.849908 0.583915 0.859637
O O14 0.992232 0.374596 0.679198
O O15 0.948590 0.779132 0.467225
O O16 0.215833 0.301767 0.079025
O O17 0.000000 0.000000 0.000000
#
# Coordination Sequence:
#
# PCOD8033736 Si02
#       8
#     2   2   2   2   2   2   2   2
#     4  11  26  46  70 103 139 184 229 283 351 404
#     4  11  24  42  67 100 136 173 226 284 348 406
#     4  11  25  42  69 100 134 178 231 279 345 412
#     4  11  24  42  66  97 140 175 222 289 343 405
#     4  11  24  41  69 101 133 179 227 281 346 410
#     4  12  22  45  70  97 137 180 229 278 343 413
#     4  11  25  43  70 101 138 178 229 288 335 408
#     4  12  25  44  70 101 135 184 236 278 340 417
#
# _framework density 23.035993000000001
#
# number of rings (size 3 to 8) (size 9 to 14) (size 15 to 20)
#    0.000    0.750    3.750    3.375    5.250    0.500 
#    0.000    0.000    0.000    4.500    0.000    0.000 
#    0.000    0.000    0.000    0.000    0.000    0.000 
#
# Total GULP energy -198379.363300 kJ/mol
# GULP energy per Si atom -12398.710206 kJ/mol
# Density = 2.298356 g / cm^3
# Si number density = 23.035993 Si / 1000 Ang^3
#
#
#
# Elastic Constant Matrix: (Units=GPa)
#
#
# Indices 1 2 3 4 5 6 
#
# 1 50.7200 21.5721 35.8280 -0.5061 12.6219 14.8405
# 2 21.5721 145.5388 50.6971 -8.3385 -1.1199 27.8420
# 3 35.8280 50.6971 159.5007 -10.1871 14.1672 23.9723
# 4 -0.5061 -8.3385 -10.1871 41.5016 2.9336 4.3366
# 5 12.6219 -1.1199 14.1672 2.9336 26.0998 5.2804
# 6 14.8405 27.8420 23.9723 4.3366 5.2804 26.8891
#
#
#
# Elastic Compliance Matrix: (Units=1/GPa)
#
#
# Indices 1 2 3 4 5 6 
#
# 1 0.027888 -0.001145 -0.003585 0.000888 -0.009823 -0.009225
# 2 -0.001145 0.009406 -0.001583 0.002161 0.003334 -0.008699
# 3 -0.003585 -0.001583 0.008524 0.002308 -0.002437 -0.003876
# 4 0.000888 0.002161 0.002308 0.026190 -0.002823 -0.008454
# 5 -0.009823 0.003334 -0.002437 -0.002823 0.045735 -0.004384
# 6 -0.009225 -0.008699 -0.003876 -0.008454 -0.004384 0.056968
#
#
# Mechanical properties :
#
#
# Convention : Reuss Voigt Hill
#
# Bulk Modulus (GPa) = 30.12743 63.55045 46.83894
# Shear Modulus (GPa) = 25.20162 35.40891 30.30527
#
# Velocity S-wave (km/s) = 3.31117 3.92486 3.63100
# Velocity P-wave (km/s) = 5.26548 6.94166 6.16084
#
# Compressibility (1/GPa) = 0.03319234
#
# Stress axis : x y z
#
# Youngs Moduli (GPa) = 35.85801 106.31798 117.31161
#
# Poissons Ratio (x) = 0.12172 0.42053
# Poissons Ratio (y) = 0.04105 0.18572
# Poissons Ratio (z) = 0.12854 0.16832
#
# Static dielectric constant tensor:
#      x y z
#    x 3.811130 0.100070 -0.073580 
#    y 0.100070 4.532590 -0.065520 
#    z -0.073580 -0.065520 4.390070 
# 
# 
# High freq. dielectric constant tensor:
#      x y z
#    x 1.885610 0.005040 0.002690 
#    y 0.005040 1.926140 -0.006480 
#    z 0.002690 -0.006480 1.925370 
# 
# From -- ./inp_files/357426.got.cif
#   From: 2010.06.25/outbox.cif.g09.slc.cpg/sg2_179_cif.got.tgz:357426.got - 2010.06.27 13:26:56.
