data_PCOD8033224
_publ_section_title
;
Structure prediction by ZEFSAII (Michael W. Deem and Ramdas Pophale) SiO2 
 PCOD8033224
Probable space group: P -1
;
_chemical_formula_sum "Si O2"
_cell_formula_units_Z 16
_cell_length_a 9.197755
_cell_length_b 12.455772
_cell_length_c 17.776302
_cell_angle_alpha 129.950557
_cell_angle_beta 150.749889
_cell_angle_gamma 49.873636
_cell_volume 743.310609
_symmetry_space_group_name_H-M "P -1"
_symmetry_group_IT_number 2
_symmetry_cell_setting 'triclinic'
loop_
_space_group_symop_operation_xyz
x,y,z
-x,-y,-z
loop_
_atom_site_type_symbol
_atom_site_label
_atom_site_fract_x
_atom_site_fract_y
_atom_site_fract_z
Si Si1 0.341320 0.647316 0.956707
Si Si2 0.714854 0.628651 0.587403
Si Si3 0.676761 0.897712 0.425671
Si Si4 0.294142 0.187050 0.911745
Si Si5 0.847218 0.100471 0.909757
Si Si6 0.372318 0.810102 0.386740
Si Si7 0.574222 0.869703 0.888905
Si Si8 0.301733 0.694543 0.571855
O O1 0.043188 0.638318 0.770965
O O2 0.500000 0.500000 0.000000
O O3 0.568938 0.711054 0.035546
O O4 0.262091 0.741380 0.037116
O O5 0.637169 0.721987 0.519587
O O6 0.446012 0.694256 0.554256
O O7 0.725281 0.466017 0.494668
O O8 0.434365 0.958310 0.277493
O O9 0.524742 0.799576 0.368488
O O10 0.974009 0.803919 0.477065
O O11 0.745300 0.027059 0.563651
O O12 0.930263 0.254880 0.782167
O O13 0.348111 0.021588 0.833589
O O14 0.463337 0.182282 0.066597
O O15 0.085626 0.104165 0.952551
O O16 0.000000 0.000000 0.000000
O O17 0.523290 0.744433 0.754484
#
# Coordination Sequence:
#
# PCOD8033224 Si02
#       8
#     2   2   2   2   2   2   2   2
#     4  12  27  46  69  99 141 182 229 284 345 409
#     4  11  27  45  68  99 138 183 225 283 345 413
#     4  11  25  43  68 102 140 179 228 286 344 415
#     4  11  25  43  72 103 140 180 229 293 342 406
#     4  12  23  42  68 101 133 179 232 278 338 410
#     4  11  25  43  68 103 140 177 230 285 347 408
#     4  11  23  45  70 104 136 178 235 284 347 408
#     4  11  25  46  69  98 138 178 227 282 347 412
#
# _framework density 21.525321000000002
#
# number of rings (size 3 to 8) (size 9 to 14) (size 15 to 20)
#    0.000    0.750    5.000    1.500    7.000    1.000 
#    2.250    1.250    0.000    0.000    0.000    0.000 
#    0.000    0.000    0.000    0.000    0.000    0.000 
#
# Total GULP energy -198425.050335 kJ/mol
# GULP energy per Si atom -12401.565646 kJ/mol
# Density = 2.147633 g / cm^3
# Si number density = 21.525321 Si / 1000 Ang^3
#
#
#
# Elastic Constant Matrix: (Units=GPa)
#
#
# Indices 1 2 3 4 5 6 
#
# 1 79.4557 37.0776 37.1015 -15.0907 -0.4688 10.8757
# 2 37.0776 78.8734 28.9721 -13.9950 -0.9738 9.6292
# 3 37.1015 28.9721 107.1776 -11.8658 16.4133 0.9318
# 4 -15.0907 -13.9950 -11.8658 40.4914 -7.9015 -4.0475
# 5 -0.4688 -0.9738 16.4133 -7.9015 31.7051 -0.0875
# 6 10.8757 9.6292 0.9318 -4.0475 -0.0875 37.4635
#
#
#
# Elastic Compliance Matrix: (Units=1/GPa)
#
#
# Indices 1 2 3 4 5 6 
#
# 1 0.018928 -0.005879 -0.005065 0.003915 0.003688 -0.003426
# 2 -0.005879 0.017322 -0.002667 0.003298 0.002641 -0.002317
# 3 -0.005065 -0.002667 0.012813 -0.000209 -0.006837 0.001798
# 4 0.003915 0.003298 -0.000209 0.028803 0.007449 0.001150
# 5 0.003688 0.002641 -0.006837 0.007449 0.037070 -0.000688
# 6 -0.003426 -0.002317 0.001798 0.001150 -0.000688 0.028361
#
#
# Mechanical properties :
#
#
# Convention : Reuss Voigt Hill
#
# Bulk Modulus (GPa) = 45.78176 52.42325 49.10250
# Shear Modulus (GPa) = 28.12165 32.75570 30.43868
#
# Velocity S-wave (km/s) = 3.61840 3.90517 3.76451
# Velocity P-wave (km/s) = 6.22672 6.68886 6.46192
#
# Compressibility (1/GPa) = 0.02184276
#
# Stress axis : x y z
#
# Youngs Moduli (GPa) = 52.83084 57.72842 78.04831
#
# Poissons Ratio (x) = 0.33939 0.39528
# Poissons Ratio (y) = 0.31060 0.20812
# Poissons Ratio (z) = 0.26757 0.15394
#
# Static dielectric constant tensor:
#      x y z
#    x 3.823210 -0.008660 0.096130 
#    y -0.008660 3.756210 0.027180 
#    z 0.096130 0.027180 3.933910 
# 
# 
# High freq. dielectric constant tensor:
#      x y z
#    x 1.853600 -0.003740 0.002810 
#    y -0.003740 1.836930 -0.005230 
#    z 0.002810 -0.005230 1.858230 
# 
# From -- ./inp_files/208467.got.cif
#   From: 2010.06.25/outbox.cif.g09.slc.cpg/sg2_105_cif.got.tgz:208467.got - 2010.06.27 13:26:56.
