data_PCOD8033953
_publ_section_title
;
Structure prediction by ZEFSAII (Michael W. Deem and Ramdas Pophale) SiO2 
 PCOD8033953
Probable space group: P -1
;
_chemical_formula_sum "Si O2"
_cell_formula_units_Z 14
_cell_length_a 16.482328
_cell_length_b 5.279394
_cell_length_c 26.384748
_cell_angle_alpha 77.839476
_cell_angle_beta 18.180206
_cell_angle_gamma 69.889303
_cell_volume 617.677347
_symmetry_space_group_name_H-M "P -1"
_symmetry_group_IT_number 2
_symmetry_cell_setting 'triclinic'
loop_
_space_group_symop_operation_xyz
x,y,z
-x,-y,-z
loop_
_atom_site_type_symbol
_atom_site_label
_atom_site_fract_x
_atom_site_fract_y
_atom_site_fract_z
Si Si1 0.869150 0.524194 0.895779
Si Si2 0.837167 0.160700 0.230831
Si Si3 0.191440 0.462050 0.605416
Si Si4 0.296027 0.873820 0.798601
Si Si5 0.838837 0.408771 0.557693
Si Si6 0.781752 0.974571 0.475931
Si Si7 0.776851 0.128292 0.700201
O O1 0.015394 0.653423 0.842476
O O2 0.957066 0.550048 0.785496
O O3 0.520225 0.733069 0.096994
O O4 0.954608 0.188552 0.872519
O O5 0.520597 0.264474 0.441561
O O6 0.766026 0.255819 0.210333
O O7 0.162786 0.759709 0.585565
O O8 0.119955 0.272283 0.615456
O O9 0.547486 0.637421 0.693687
O O10 0.433557 0.090941 0.691596
O O11 0.000000 0.000000 0.000000
O O12 0.715747 0.235378 0.673702
O O13 0.000000 0.500000 0.500000
O O14 0.069241 0.224272 0.384126
O O15 0.983201 0.813207 0.412757
#
# Coordination Sequence:
#
# PCOD8033953 Si02
#       7
#     2   2   2   2   2   2   2
#     4  12  26  43  71 104 137 190 235 293 334 430
#     4  11  24  43  67 102 143 179 236 287 357 400
#     4  11  24  45  71  98 143 184 234 291 356 399
#     4  11  24  43  75 103 139 181 236 288 347 420
#     4  11  24  46  69  98 143 184 225 288 357 408
#     4  11  24  45  69 103 140 186 225 295 350 416
#     4  11  26  42  71  99 142 184 240 279 357 417
#
# _framework density 22.665555999999999
#
# number of rings (size 3 to 8) (size 9 to 14) (size 15 to 20)
#    0.000    0.857    1.429    6.000    4.000    1.143 
#    0.000    9.286    0.000    0.000    0.000    0.000 
#    0.000    0.000    0.000    0.000    0.000    0.000 
#
# Total GULP energy -173478.103277 kJ/mol
# GULP energy per Si atom -12391.293091 kJ/mol
# Density = 2.261397 g / cm^3
# Si number density = 22.665556 Si / 1000 Ang^3
#
#
#
# Elastic Constant Matrix: (Units=GPa)
#
#
# Indices 1 2 3 4 5 6 
#
# 1 138.2187 53.2538 67.8253 2.1150 -1.2076 11.3601
# 2 53.2538 104.1006 37.5915 15.6252 3.4350 10.8459
# 3 67.8253 37.5915 191.9601 16.8322 27.5039 0.9247
# 4 2.1150 15.6252 16.8322 29.0449 -4.8349 -0.5385
# 5 -1.2076 3.4350 27.5039 -4.8349 28.6896 2.1464
# 6 11.3601 10.8459 0.9247 -0.5385 2.1464 39.1674
#
#
#
# Elastic Compliance Matrix: (Units=1/GPa)
#
#
# Indices 1 2 3 4 5 6 
#
# 1 0.011554 -0.005119 -0.004488 0.005555 0.006495 -0.002107
# 2 -0.005119 0.013613 0.000297 -0.007707 -0.003263 -0.002219
# 3 -0.004488 0.000297 0.008696 -0.006470 -0.009760 0.001460
# 4 0.005555 -0.007707 -0.006470 0.044394 0.014805 0.000475
# 5 0.006495 -0.003263 -0.009760 0.014805 0.047608 -0.003155
# 6 -0.002107 -0.002219 0.001460 0.000475 -0.003155 0.026902
#
#
# Mechanical properties :
#
#
# Convention : Reuss Voigt Hill
#
# Bulk Modulus (GPa) = 65.60136 83.51341 74.55739
# Shear Modulus (GPa) = 28.33389 37.75430 33.04410
#
# Velocity S-wave (km/s) = 3.53949 4.08574 3.82239
# Velocity P-wave (km/s) = 6.76092 7.69309 7.24202
#
# Compressibility (1/GPa) = 0.01524359
#
# Stress axis : x y z
#
# Youngs Moduli (GPa) = 86.54893 73.45847 114.99992
#
# Poissons Ratio (x) = 0.37601 0.51608
# Poissons Ratio (y) = 0.44302 -0.03412
# Poissons Ratio (z) = 0.38840 -0.02179
#
# Static dielectric constant tensor:
#      x y z
#    x 5.223330 -1.085440 0.288830 
#    y -1.085440 5.698380 -0.309110 
#    z 0.288830 -0.309110 4.280830 
# 
# 
# High freq. dielectric constant tensor:
#      x y z
#    x 1.915380 0.001630 0.000540 
#    y 0.001630 1.898490 0.002370 
#    z 0.000540 0.002370 1.889670 
# 
# From -- ./inp_files/52910.got.cif
#   From: 2010.06.25/outbox.cif.g09.slc.cpg/sg2_27_cif.got.tgz:52910.got - 2010.06.27 13:26:56.
