data_PCOD8033742
_publ_section_title
;
Structure prediction by ZEFSAII (Michael W. Deem and Ramdas Pophale) SiO2 
 PCOD8033742
Probable space group: P -1
;
_chemical_formula_sum "Si O2"
_cell_formula_units_Z 14
_cell_length_a 9.478343
_cell_length_b 10.870809
_cell_length_c 9.297640
_cell_angle_alpha 70.332568
_cell_angle_beta 135.513996
_cell_angle_gamma 116.098018
_cell_volume 602.468885
_symmetry_space_group_name_H-M "P -1"
_symmetry_group_IT_number 2
_symmetry_cell_setting 'triclinic'
loop_
_space_group_symop_operation_xyz
x,y,z
-x,-y,-z
loop_
_atom_site_type_symbol
_atom_site_label
_atom_site_fract_x
_atom_site_fract_y
_atom_site_fract_z
Si Si1 0.361210 0.537478 0.509272
Si Si2 0.307911 0.980011 0.204155
Si Si3 0.733708 0.774408 0.742594
Si Si4 0.249938 0.025604 0.547650
Si Si5 0.958931 0.317147 0.820294
Si Si6 0.784237 0.911571 0.189580
Si Si7 0.686076 0.611522 0.175695
O O1 0.500000 0.500000 0.500000
O O2 0.499410 0.674547 0.635915
O O3 0.288505 0.424671 0.625288
O O4 0.161538 0.570928 0.278647
O O5 0.204739 0.833964 0.261409
O O6 0.227103 0.093060 0.180503
O O7 0.562831 0.014223 0.383731
O O8 0.225673 0.977116 0.981424
O O9 0.765584 0.827489 0.580300
O O10 0.893271 0.689120 0.933743
O O11 0.025083 0.912407 0.398871
O O12 0.311079 0.044561 0.752024
O O13 0.094840 0.368586 0.755472
O O14 0.646797 0.760661 0.093540
O O15 0.500000 0.500000 0.000000
#
# Coordination Sequence:
#
# PCOD8033742 Si02
#       7
#     2   2   2   2   2   2   2
#     4  12  28  49  71 100 142 190 240 286 348 422
#     4  12  23  42  76 106 139 176 236 295 360 418
#     4  12  23  44  71 103 137 181 233 289 350 426
#     4  11  24  41  69 109 143 178 226 295 364 416
#     4  12  25  45  77 100 140 186 233 298 351 409
#     4  11  24  44  68 104 148 179 230 294 360 416
#     4  12  25  49  71 101 145 192 244 285 337 433
#
# _framework density 23.237715000000001
#
# number of rings (size 3 to 8) (size 9 to 14) (size 15 to 20)
#    0.000    0.286    5.714    3.429    2.000    0.571 
#    2.571    0.000    0.000    0.000    0.000    0.000 
#    0.000    0.000    0.000    0.000    0.000    0.000 
#
# Total GULP energy -173596.391938 kJ/mol
# GULP energy per Si atom -12399.742281 kJ/mol
# Density = 2.318482 g / cm^3
# Si number density = 23.237715 Si / 1000 Ang^3
#
#
#
# Elastic Constant Matrix: (Units=GPa)
#
#
# Indices 1 2 3 4 5 6 
#
# 1 136.2574 47.4451 47.3357 -17.6548 -3.9207 12.5496
# 2 47.4451 98.8911 28.8512 -5.1902 -5.4316 15.7191
# 3 47.3357 28.8512 112.2757 -25.5016 1.7156 4.1275
# 4 -17.6548 -5.1902 -25.5016 45.2620 6.7957 0.7911
# 5 -3.9207 -5.4316 1.7156 6.7957 40.4763 -8.5273
# 6 12.5496 15.7191 4.1275 0.7911 -8.5273 31.9588
#
#
#
# Elastic Compliance Matrix: (Units=1/GPa)
#
#
# Indices 1 2 3 4 5 6 
#
# 1 0.009972 -0.003582 -0.002765 0.001973 -0.000125 -0.001879
# 2 -0.003582 0.013107 -0.001928 -0.001006 0.000698 -0.004580
# 3 -0.002765 -0.001928 0.011904 0.005715 -0.002030 -0.000186
# 4 0.001973 -0.001006 0.005715 0.026825 -0.005345 -0.003108
# 5 -0.000125 0.000698 -0.002030 -0.005345 0.027328 0.007392
# 6 -0.001879 -0.004580 -0.000186 -0.003108 0.007392 0.036354
#
#
# Mechanical properties :
#
#
# Convention : Reuss Voigt Hill
#
# Bulk Modulus (GPa) = 54.25353 66.07647 60.16500
# Shear Modulus (GPa) = 33.74179 38.45889 36.10034
#
# Velocity S-wave (km/s) = 3.81468 4.07261 3.94575
# Velocity P-wave (km/s) = 6.54219 7.11418 6.83417
#
# Compressibility (1/GPa) = 0.01843198
#
# Stress axis : x y z
#
# Youngs Moduli (GPa) = 100.28170 76.29520 84.00690
#
# Poissons Ratio (x) = 0.27331 0.23224
# Poissons Ratio (y) = 0.35924 0.16200
# Poissons Ratio (z) = 0.27724 0.14713
#
# Static dielectric constant tensor:
#      x y z
#    x 4.162050 0.384990 -0.069090 
#    y 0.384990 4.233580 -0.157140 
#    z -0.069090 -0.157140 4.351510 
# 
# 
# High freq. dielectric constant tensor:
#      x y z
#    x 1.915630 0.023080 -0.004950 
#    y 0.023080 1.913110 -0.006900 
#    z -0.004950 -0.006900 1.929160 
# 
# From -- ./inp_files/186218.got.cif
#   From: 2010.06.25/outbox.cif.g09.slc.cpg/sg2_94_cif.got.tgz:186218.got - 2010.06.27 13:26:56.
