data_PCOD8033239
_publ_section_title
;
Structure prediction by ZEFSAII (Michael W. Deem and Ramdas Pophale) SiO2 
 PCOD8033239
Probable space group: P -1
;
_chemical_formula_sum "Si O2"
_cell_formula_units_Z 16
_cell_length_a 11.938331
_cell_length_b 9.725807
_cell_length_c 11.559280
_cell_angle_alpha 55.318494
_cell_angle_beta 136.075378
_cell_angle_gamma 133.537472
_cell_volume 667.823577
_symmetry_space_group_name_H-M "P -1"
_symmetry_group_IT_number 2
_symmetry_cell_setting 'triclinic'
loop_
_space_group_symop_operation_xyz
x,y,z
-x,-y,-z
loop_
_atom_site_type_symbol
_atom_site_label
_atom_site_fract_x
_atom_site_fract_y
_atom_site_fract_z
Si Si1 0.545978 0.335205 0.581805
Si Si2 0.783723 0.953488 0.965299
Si Si3 0.868650 0.298384 0.354203
Si Si4 0.949470 0.599631 0.781578
Si Si5 0.841681 0.626981 0.282503
Si Si6 0.462616 0.319527 0.272223
Si Si7 0.882043 0.663806 0.939290
Si Si8 0.496479 0.984509 0.142752
O O1 0.500000 0.500000 0.500000
O O2 0.763000 0.413758 0.694459
O O3 0.470579 0.244902 0.442581
O O4 0.474928 0.189716 0.706606
O O5 0.805167 0.781511 0.118375
O O6 0.639765 0.871144 0.791070
O O7 0.979093 0.138830 0.983278
O O8 0.700686 0.038205 0.957789
O O9 0.888297 0.510591 0.276066
O O10 0.966650 0.264799 0.331722
O O11 0.971314 0.262203 0.555473
O O12 0.651261 0.161744 0.245186
O O13 0.913392 0.717746 0.799181
O O14 0.094079 0.523699 0.951616
O O15 0.662016 0.478627 0.295480
O O16 0.325750 0.410703 0.134888
O O17 0.500000 0.000000 0.000000
#
# Coordination Sequence:
#
# PCOD8033239 Si02
#       8
#     2   2   2   2   2   2   2   2
#     4  12  27  49  74 108 145 190 244 301 368 429
#     4  12  26  46  69 109 145 191 247 298 367 430
#     4  11  25  47  70 105 145 191 243 298 360 433
#     4  11  23  45  71 100 142 190 242 299 364 428
#     4  11  26  45  72 105 146 195 240 302 365 428
#     4  12  25  46  73 104 146 192 241 300 360 437
#     4  11  25  43  70 105 141 186 242 304 362 432
#     4  12  29  48  75 107 149 192 242 300 363 439
#
# _framework density 23.958424000000001
#
# number of rings (size 3 to 8) (size 9 to 14) (size 15 to 20)
#    0.000    0.500    5.000    2.250    7.000    0.500 
#    2.250    1.875    0.000    0.000    0.000    0.000 
#    0.000    0.000    0.000    0.000    0.000    0.000 
#
# Total GULP energy -198317.268920 kJ/mol
# GULP energy per Si atom -12394.829308 kJ/mol
# Density = 2.390389 g / cm^3
# Si number density = 23.958424 Si / 1000 Ang^3
#
#
#
# Elastic Constant Matrix: (Units=GPa)
#
#
# Indices 1 2 3 4 5 6 
#
# 1 86.1229 -0.2761 16.2741 3.3164 -0.7085 -10.4472
# 2 -0.2761 70.5751 41.4593 2.5322 -3.9172 0.5208
# 3 16.2741 41.4593 117.8339 7.1972 -8.2734 -5.6841
# 4 3.3164 2.5322 7.1972 45.0470 5.9677 6.3471
# 5 -0.7085 -3.9172 -8.2734 5.9677 35.6674 3.5499
# 6 -10.4472 0.5208 -5.6841 6.3471 3.5499 37.2886
#
#
#
# Elastic Compliance Matrix: (Units=1/GPa)
#
#
# Indices 1 2 3 4 5 6 
#
# 1 0.012429 0.001176 -0.001914 -0.001124 -0.000217 0.003386
# 2 0.001176 0.018041 -0.006516 -0.000001 0.000590 -0.000972
# 3 -0.001914 -0.006516 0.011362 -0.001775 0.002040 0.001395
# 4 -0.001124 -0.000001 -0.001775 0.023689 -0.003976 -0.004239
# 5 -0.000217 0.000590 0.002040 -0.003976 0.029423 -0.001882
# 6 0.003386 -0.000972 0.001395 -0.004239 -0.001882 0.028893
#
#
# Mechanical properties :
#
#
# Convention : Reuss Voigt Hill
#
# Bulk Modulus (GPa) = 36.59471 43.27183 39.93327
# Shear Modulus (GPa) = 33.90896 38.07224 35.99060
#
# Velocity S-wave (km/s) = 3.76616 3.99067 3.88004
# Velocity P-wave (km/s) = 5.84973 6.27171 6.06439
#
# Compressibility (1/GPa) = 0.02732635
#
# Stress axis : x y z
#
# Youngs Moduli (GPa) = 80.45755 55.42785 88.01089
#
# Poissons Ratio (x) = -0.06519 0.16842
# Poissons Ratio (y) = -0.09462 0.57344
# Poissons Ratio (z) = 0.15396 0.36115
#
# Static dielectric constant tensor:
#      x y z
#    x 4.600830 -0.117230 -0.030330 
#    y -0.117230 4.320100 0.389210 
#    z -0.030330 0.389210 4.573490 
# 
# 
# High freq. dielectric constant tensor:
#      x y z
#    x 1.968310 -0.005210 0.001890 
#    y -0.005210 1.933320 0.024870 
#    z 0.001890 0.024870 1.958160 
# 
# From -- ./inp_files/419236.got.cif
#   From: 2010.06.25/outbox.cif.g09.slc.cpg/sg2_210_cif.got.tgz:419236.got - 2010.06.27 13:26:56.
