data_PCOD8033237
_publ_section_title
;
Structure prediction by ZEFSAII (Michael W. Deem and Ramdas Pophale) SiO2 
 PCOD8033237
Probable space group: P -1
;
_chemical_formula_sum "Si O2"
_cell_formula_units_Z 14
_cell_length_a 23.685217
_cell_length_b 14.931495
_cell_length_c 5.331782
_cell_angle_alpha 59.101918
_cell_angle_beta 59.196444
_cell_angle_gamma 19.797133
_cell_volume 545.283515
_symmetry_space_group_name_H-M "P -1"
_symmetry_group_IT_number 2
_symmetry_cell_setting 'triclinic'
loop_
_space_group_symop_operation_xyz
x,y,z
-x,-y,-z
loop_
_atom_site_type_symbol
_atom_site_label
_atom_site_fract_x
_atom_site_fract_y
_atom_site_fract_z
Si Si1 0.506635 0.370110 0.736409
Si Si2 0.577831 0.808314 0.903508
Si Si3 0.142088 0.910898 0.668650
Si Si4 0.724399 0.779677 0.328829
Si Si5 0.691139 0.035869 0.301993
Si Si6 0.969590 0.754945 0.855034
Si Si7 0.112227 0.742614 0.811387
O O1 0.500000 0.500000 0.500000
O O2 0.311526 0.621742 0.828097
O O3 0.607029 0.165250 0.578752
O O4 0.577490 0.243188 0.033672
O O5 0.694627 0.706830 0.601729
O O6 0.431227 0.960954 0.869438
O O7 0.689862 0.559857 0.145236
O O8 0.500000 0.000000 0.000000
O O9 0.097228 0.890353 0.575325
O O10 0.162224 0.001925 0.394815
O O11 0.991846 0.129632 0.888572
O O12 0.901376 0.518426 0.154925
O O13 0.736838 0.847637 0.421984
O O14 0.863252 0.853290 0.172729
O O15 0.068063 0.717859 0.748856
#
# Coordination Sequence:
#
# PCOD8033237 Si02
#       7
#     2   2   2   2   2   2   2
#     4  12  26  50  73 105 145 192 236 297 349 425
#     4  11  23  45  70  99 144 181 238 296 355 422
#     4  11  25  42  70 102 142 183 242 287 367 415
#     4  11  26  44  71 105 138 188 236 296 360 425
#     4  12  29  46  77 106 145 190 243 289 357 426
#     4  12  24  46  67 101 144 184 234 300 353 427
#     4  11  24  43  70 102 136 189 234 301 354 430
#
# _framework density 25.674717000000001
#
# number of rings (size 3 to 8) (size 9 to 14) (size 15 to 20)
#    0.000    0.571    4.286    3.000    6.000    0.000 
#    0.000    2.143    0.000    0.000    0.000    0.000 
#    0.000    0.000    0.000    0.000    0.000    0.000 
#
# Total GULP energy -173521.231980 kJ/mol
# GULP energy per Si atom -12394.373713 kJ/mol
# Density = 2.561628 g / cm^3
# Si number density = 25.674717 Si / 1000 Ang^3
#
#
#
# Elastic Constant Matrix: (Units=GPa)
#
#
# Indices 1 2 3 4 5 6 
#
# 1 90.6120 19.5924 -2.5183 -3.0808 -4.8819 19.2741
# 2 19.5924 133.3612 3.9937 16.2714 -1.6200 11.3617
# 3 -2.5183 3.9937 41.7118 7.2290 -1.3441 2.1299
# 4 -3.0808 16.2714 7.2290 26.6960 8.9140 2.6373
# 5 -4.8819 -1.6200 -1.3441 8.9140 35.5866 1.4818
# 6 19.2741 11.3617 2.1299 2.6373 1.4818 40.3698
#
#
#
# Elastic Compliance Matrix: (Units=1/GPa)
#
#
# Indices 1 2 3 4 5 6 
#
# 1 0.012836 -0.001685 0.000865 0.002403 0.001361 -0.005907
# 2 -0.001685 0.008595 0.000226 -0.005937 0.001710 -0.001301
# 3 0.000865 0.000226 0.025539 -0.007855 0.003120 -0.001425
# 4 0.002403 -0.005937 -0.007855 0.047697 -0.012113 -0.001734
# 5 0.001361 0.001710 0.003120 -0.012113 0.031586 -0.001664
# 6 -0.005907 -0.001301 -0.001425 -0.001734 -0.001664 0.028207
#
#
# Mechanical properties :
#
#
# Convention : Reuss Voigt Hill
#
# Bulk Modulus (GPa) = 21.84257 34.20229 28.02243
# Shear Modulus (GPa) = 29.25519 36.83830 33.04674
#
# Velocity S-wave (km/s) = 3.37924 3.79200 3.59155
# Velocity P-wave (km/s) = 4.87356 5.70286 5.30444
#
# Compressibility (1/GPa) = 0.04578216
#
# Stress axis : x y z
#
# Youngs Moduli (GPa) = 77.90636 116.34361 39.15544
#
# Poissons Ratio (x) = 0.19605 -0.03388
# Poissons Ratio (y) = 0.13128 -0.00884
# Poissons Ratio (z) = -0.06741 -0.02627
#
# Static dielectric constant tensor:
#      x y z
#    x 5.074630 -0.205790 -0.366780 
#    y -0.205790 4.965230 -0.098870 
#    z -0.366780 -0.098870 4.729160 
# 
# 
# High freq. dielectric constant tensor:
#      x y z
#    x 2.040750 0.003050 -0.014120 
#    y 0.003050 2.046270 -0.005880 
#    z -0.014120 -0.005880 2.009470 
# 
# From -- ./inp_files/53464.got.cif
#   From: 2010.06.25/outbox.cif.g09.slc.cpg/sg2_27_cif.got.tgz:53464.got - 2010.06.27 13:26:56.
