data_PCOD8033289
_publ_section_title
;
Structure prediction by ZEFSAII (Michael W. Deem and Ramdas Pophale) SiO2 
 PCOD8033289
Probable space group: P -1
;
_chemical_formula_sum "Si O2"
_cell_formula_units_Z 16
_cell_length_a 11.136175
_cell_length_b 7.970074
_cell_length_c 12.049979
_cell_angle_alpha 127.911389
_cell_angle_beta 99.903287
_cell_angle_gamma 58.036000
_cell_volume 696.839525
_symmetry_space_group_name_H-M "P -1"
_symmetry_group_IT_number 2
_symmetry_cell_setting 'triclinic'
loop_
_space_group_symop_operation_xyz
x,y,z
-x,-y,-z
loop_
_atom_site_type_symbol
_atom_site_label
_atom_site_fract_x
_atom_site_fract_y
_atom_site_fract_z
Si Si1 0.277301 0.320327 0.805877
Si Si2 0.016573 0.833261 0.584654
Si Si3 0.612463 0.760814 0.852425
Si Si4 0.378929 0.966791 0.240637
Si Si5 0.251920 0.388462 0.572474
Si Si6 0.216246 0.684296 0.131337
Si Si7 0.504835 0.455921 0.609926
Si Si8 0.800928 0.996951 0.431805
O O1 0.446647 0.197012 0.804330
O O2 0.229084 0.356819 0.683951
O O3 0.223264 0.126549 0.734151
O O4 0.189156 0.574300 0.968978
O O5 0.096771 0.586446 0.573521
O O6 0.907867 0.813649 0.474680
O O7 0.138445 0.835916 0.532384
O O8 0.933611 0.077032 0.751188
O O9 0.732599 0.535942 0.858063
O O10 0.508750 0.679518 0.756475
O O11 0.682113 0.843291 0.799249
O O12 0.500000 0.000000 0.000000
O O13 0.328479 0.768708 0.154596
O O14 0.327577 0.128267 0.409985
O O15 0.358077 0.487698 0.638707
O O16 0.500000 0.500000 0.500000
O O17 0.648675 0.180678 0.547232
#
# Coordination Sequence:
#
# PCOD8033289 Si02
#       8
#     2   2   2   2   2   2   2   2
#     4  12  26  45  71 109 143 190 245 304 358 426
#     4  11  26  47  71 105 147 196 234 298 367 441
#     4  12  25  43  73 107 145 193 235 296 372 426
#     4  12  25  47  74 110 146 190 246 308 359 421
#     4  12  26  43  77 108 139 191 246 304 360 425
#     4  12  28  48  69 108 158 193 234 298 372 440
#     4  12  21  43  72 107 137 178 253 303 344 423
#     4  11  23  45  73 101 144 182 245 300 352 424
#
# _framework density 22.960811
#
# number of rings (size 3 to 8) (size 9 to 14) (size 15 to 20)
#    0.000    0.250    6.250    2.250    3.500    3.000 
#    0.000    0.000    0.000    0.000    0.000    0.000 
#    0.000    0.000    0.000    0.000    0.000    0.000 
#
# Total GULP energy -198304.844350 kJ/mol
# GULP energy per Si atom -12394.052772 kJ/mol
# Density = 2.290855 g / cm^3
# Si number density = 22.960811 Si / 1000 Ang^3
#
#
#
# Elastic Constant Matrix: (Units=GPa)
#
#
# Indices 1 2 3 4 5 6 
#
# 1 66.1222 34.6948 23.7628 -4.8515 10.1482 -3.6035
# 2 34.6948 90.7556 15.9917 -10.7801 0.5542 3.1980
# 3 23.7628 15.9917 163.2093 1.7420 16.7059 -0.3973
# 4 -4.8515 -10.7801 1.7420 37.0515 2.5295 -8.0823
# 5 10.1482 0.5542 16.7059 2.5295 36.4143 -0.1434
# 6 -3.6035 3.1980 -0.3973 -8.0823 -0.1434 38.9595
#
#
#
# Elastic Compliance Matrix: (Units=1/GPa)
#
#
# Indices 1 2 3 4 5 6 
#
# 1 0.020723 -0.007490 -0.001788 0.001571 -0.004939 0.002821
# 2 -0.007490 0.014345 -0.000545 0.002807 0.001919 -0.001286
# 3 -0.001788 -0.000545 0.006705 -0.000574 -0.002531 -0.000181
# 4 0.001571 0.002807 -0.000574 0.029506 -0.002243 0.006022
# 5 -0.004939 0.001919 -0.002531 -0.002243 0.030122 -0.000995
# 6 0.002821 -0.001286 -0.000181 0.006022 -0.000995 0.027278
#
#
# Mechanical properties :
#
#
# Convention : Reuss Voigt Hill
#
# Bulk Modulus (GPa) = 45.18909 52.10950 48.64929
# Shear Modulus (GPa) = 32.11327 38.86092 35.48710
#
# Velocity S-wave (km/s) = 3.74386 4.11845 3.93561
# Velocity P-wave (km/s) = 6.19777 6.73497 6.47194
#
# Compressibility (1/GPa) = 0.02212924
#
# Stress axis : x y z
#
# Youngs Moduli (GPa) = 48.25574 69.71157 149.13223
#
# Poissons Ratio (x) = 0.52212 0.26660
# Poissons Ratio (y) = 0.36142 0.08121
# Poissons Ratio (z) = 0.08627 0.03796
#
# Static dielectric constant tensor:
#      x y z
#    x 4.167160 0.345670 0.091840 
#    y 0.345670 3.719400 -0.495860 
#    z 0.091840 -0.495860 4.116880 
# 
# 
# High freq. dielectric constant tensor:
#      x y z
#    x 1.912070 0.014340 0.012930 
#    y 0.014340 1.913630 -0.003230 
#    z 0.012930 -0.003230 1.912170 
# 
# From -- ./inp_files/243956.got.cif
#   From: 2010.06.25/outbox.cif.g09.slc.cpg/sg2_122_cif.got.tgz:243956.got - 2010.06.27 13:26:56.
