data_PCOD8033434
_publ_section_title
;
Structure prediction by ZEFSAII (Michael W. Deem and Ramdas Pophale) SiO2 
 PCOD8033434
Probable space group: P -1
;
_chemical_formula_sum "Si O2"
_cell_formula_units_Z 16
_cell_length_a 23.668719
_cell_length_b 14.438114
_cell_length_c 18.024362
_cell_angle_alpha 151.086007
_cell_angle_beta 20.360134
_cell_angle_gamma 159.439222
_cell_volume 752.474672
_symmetry_space_group_name_H-M "P -1"
_symmetry_group_IT_number 2
_symmetry_cell_setting 'triclinic'
loop_
_space_group_symop_operation_xyz
x,y,z
-x,-y,-z
loop_
_atom_site_type_symbol
_atom_site_label
_atom_site_fract_x
_atom_site_fract_y
_atom_site_fract_z
Si Si1 0.772544 0.332509 0.208900
Si Si2 0.813530 0.397595 0.717103
Si Si3 0.210211 0.386580 0.331820
Si Si4 0.929738 0.748178 0.947983
Si Si5 0.255188 0.057689 0.477060
Si Si6 0.515657 0.539986 0.392819
Si Si7 0.530394 0.757915 0.071924
Si Si8 0.239533 0.747513 0.658809
O O1 0.652110 0.439002 0.419577
O O2 0.814658 0.332776 0.244528
O O3 0.612307 0.041395 0.169536
O O4 0.000000 0.500000 0.000000
O O5 0.946501 0.591944 0.758521
O O6 0.645342 0.412912 0.898212
O O7 0.000000 0.500000 0.500000
O O8 0.663882 0.093029 0.712901
O O9 0.421965 0.635508 0.200002
O O10 0.156434 0.491708 0.537433
O O11 0.272002 0.230422 0.180767
O O12 0.008110 0.181430 0.380692
O O13 0.093709 0.814739 0.859616
O O14 0.670771 0.565432 0.159194
O O15 0.000000 0.000000 0.000000
O O16 0.371778 0.247700 0.396412
O O17 0.309118 0.231330 0.603509
O O18 0.500000 0.000000 0.500000
#
# Coordination Sequence:
#
# PCOD8033434 Si02
#       8
#     2   2   2   2   2   2   2   2
#     4  12  27  48  71 103 148 192 237 290 367 432
#     4  12  23  44  71 102 137 181 236 295 354 422
#     4  11  24  44  69 104 134 183 232 301 347 431
#     4  12  28  43  74 109 140 186 239 298 357 422
#     4  11  23  46  71  93 143 180 235 291 360 416
#     4  11  27  45  71 103 141 187 238 294 358 433
#     4  11  24  40  73  98 137 183 236 285 364 417
#     4  12  26  46  72 104 146 184 238 298 353 423
#
# _framework density 21.263173999999999
#
# number of rings (size 3 to 8) (size 9 to 14) (size 15 to 20)
#    0.000    0.500    5.000    2.250    8.750    0.500 
#    2.250    1.250    0.000    0.000    0.000    0.000 
#    0.000    0.000    0.000    0.000    0.000    0.000 
#
# Total GULP energy -198389.583782 kJ/mol
# GULP energy per Si atom -12399.348986 kJ/mol
# Density = 2.121478 g / cm^3
# Si number density = 21.263174 Si / 1000 Ang^3
#
#
#
# Elastic Constant Matrix: (Units=GPa)
#
#
# Indices 1 2 3 4 5 6 
#
# 1 144.4033 38.6598 62.2826 -0.7287 -9.8547 -11.3906
# 2 38.6598 106.7098 31.1298 5.4036 8.2917 -14.4988
# 3 62.2826 31.1298 127.6148 -6.3335 -9.5941 -11.0770
# 4 -0.7287 5.4036 -6.3335 29.6528 -3.2007 -4.0991
# 5 -9.8547 8.2917 -9.5941 -3.2007 40.0397 -0.7874
# 6 -11.3906 -14.4988 -11.0770 -4.0991 -0.7874 41.6075
#
#
#
# Elastic Compliance Matrix: (Units=1/GPa)
#
#
# Indices 1 2 3 4 5 6 
#
# 1 0.009379 -0.002343 -0.003785 0.000166 0.001916 0.000796
# 2 -0.002343 0.011511 -0.001838 -0.002578 -0.003556 0.002559
# 3 -0.003785 -0.001838 0.010574 0.002946 0.002247 0.001472
# 4 0.000166 -0.002578 0.002946 0.035770 0.004210 0.003535
# 5 0.001916 -0.003556 0.002247 0.004210 0.027074 0.000810
# 6 0.000796 0.002559 0.001472 0.003535 0.000810 0.025899
#
#
# Mechanical properties :
#
#
# Convention : Reuss Voigt Hill
#
# Bulk Modulus (GPa) = 64.37531 71.43027 67.90279
# Shear Modulus (GPa) = 35.38189 38.70371 37.04280
#
# Velocity S-wave (km/s) = 4.08364 4.27104 4.17839
# Velocity P-wave (km/s) = 7.25093 7.61503 7.43521
#
# Compressibility (1/GPa) = 0.01553391
#
# Stress axis : x y z
#
# Youngs Moduli (GPa) = 106.62130 86.87573 94.56903
#
# Poissons Ratio (x) = 0.20354 0.35790
# Poissons Ratio (y) = 0.24981 0.17378
# Poissons Ratio (z) = 0.40351 0.15964
#
# Static dielectric constant tensor:
#      x y z
#    x 5.522410 -0.567300 1.294940 
#    y -0.567300 4.099480 -0.379080 
#    z 1.294940 -0.379080 5.508390 
# 
# 
# High freq. dielectric constant tensor:
#      x y z
#    x 1.848320 -0.004000 -0.016880 
#    y -0.004000 1.839010 0.005770 
#    z -0.016880 0.005770 1.829990 
# 
# From -- ./inp_files/392003.got.cif
#   From: 2010.06.25/outbox.cif.g09.slc.cpg/sg2_197_cif.got.tgz:392003.got - 2010.06.27 13:26:56.
