data_PCOD8033348
_publ_section_title
;
Structure prediction by ZEFSAII (Michael W. Deem and Ramdas Pophale) SiO2 
 PCOD8033348
Probable space group: P -1
;
_chemical_formula_sum "Si O2"
_cell_formula_units_Z 12
_cell_length_a 13.080631
_cell_length_b 8.159792
_cell_length_c 7.948946
_cell_angle_alpha 58.163807
_cell_angle_beta 54.504572
_cell_angle_gamma 94.533209
_cell_volume 487.349813
_symmetry_space_group_name_H-M "P -1"
_symmetry_group_IT_number 2
_symmetry_cell_setting 'triclinic'
loop_
_space_group_symop_operation_xyz
x,y,z
-x,-y,-z
loop_
_atom_site_type_symbol
_atom_site_label
_atom_site_fract_x
_atom_site_fract_y
_atom_site_fract_z
Si Si1 0.539823 0.015109 0.649603
Si Si2 0.223585 0.814254 0.207870
Si Si3 0.055676 0.614167 0.160650
Si Si4 0.744612 0.531732 0.103643
Si Si5 0.725270 0.847686 0.735933
Si Si6 0.997716 0.908532 0.867455
O O1 0.641215 0.293162 0.437971
O O2 0.500000 0.000000 0.500000
O O3 0.621152 0.881639 0.688776
O O4 0.394741 0.891257 0.975155
O O5 0.116073 0.550073 0.519184
O O6 0.150061 0.820394 0.098106
O O7 0.216781 0.972671 0.265190
O O8 0.137574 0.482754 0.118506
O O9 0.053214 0.732824 0.927305
O O10 0.648697 0.590734 0.035248
O O11 0.831784 0.753041 0.026423
O O12 0.874369 0.886818 0.482111
O O13 0.000000 0.000000 0.000000
#
# Coordination Sequence:
#
# PCOD8033348 Si02
#       6
#     2   2   2   2   2   2
#     4  12  26  49  71 103 149 187 231 294 359 418
#     4  11  24  44  74 104 141 189 235 291 352 420
#     4  11  23  45  76 103 140 188 241 290 354 416
#     4  12  25  46  75 106 141 188 238 290 355 421
#     4  12  26  45  71 105 142 185 240 293 349 424
#     4  12  25  43  72 110 144 184 242 296 345 416
#
# _framework density 24.622969000000001
#
# number of rings (size 3 to 8) (size 9 to 14) (size 15 to 20)
#    0.000    0.333    5.000    3.500    4.667    1.333 
#    0.000    1.667    0.000    0.000    0.000    0.000 
#    0.000    0.000    0.000    0.000    0.000    0.000 
#
# Total GULP energy -148699.427087 kJ/mol
# GULP energy per Si atom -12391.618924 kJ/mol
# Density = 2.456693 g / cm^3
# Si number density = 24.622969 Si / 1000 Ang^3
#
#
#
# Elastic Constant Matrix: (Units=GPa)
#
#
# Indices 1 2 3 4 5 6 
#
# 1 141.6119 21.2346 30.9763 -16.0615 20.5414 -9.1614
# 2 21.2346 100.7134 23.3038 16.3937 -5.6732 19.7749
# 3 30.9763 23.3038 133.2453 5.9692 -24.8954 -10.3757
# 4 -16.0615 16.3937 5.9692 30.5637 -4.0823 4.5177
# 5 20.5414 -5.6732 -24.8954 -4.0823 39.2058 -8.5451
# 6 -9.1614 19.7749 -10.3757 4.5177 -8.5451 31.9441
#
#
#
# Elastic Compliance Matrix: (Units=1/GPa)
#
#
# Indices 1 2 3 4 5 6 
#
# 1 0.010027 -0.002950 -0.003335 0.006450 -0.006941 0.000850
# 2 -0.002950 0.014110 -0.002326 -0.007358 -0.000724 -0.009489
# 3 -0.003335 -0.002326 0.011178 -0.002425 0.009798 0.007078
# 4 0.006450 -0.007358 -0.002425 0.040362 -0.001913 -0.000603
# 5 -0.006941 -0.000724 0.009798 -0.001913 0.037674 0.011989
# 6 0.000850 -0.009489 0.007078 -0.000603 0.011989 0.043014
#
#
# Mechanical properties :
#
#
# Convention : Reuss Voigt Hill
#
# Bulk Modulus (GPa) = 55.27475 58.51111 56.89293
# Shear Modulus (GPa) = 27.83696 40.34645 34.09171
#
# Velocity S-wave (km/s) = 3.36598 4.05232 3.72499
# Velocity P-wave (km/s) = 6.13218 6.76088 6.45419
#
# Compressibility (1/GPa) = 0.01809144
#
# Stress axis : x y z
#
# Youngs Moduli (GPa) = 99.73367 70.87328 89.46466
#
# Poissons Ratio (x) = 0.20910 0.29833
# Poissons Ratio (y) = 0.29424 0.20813
# Poissons Ratio (z) = 0.33257 0.16488
#
# Static dielectric constant tensor:
#      x y z
#    x 4.759330 0.055590 0.252000 
#    y 0.055590 4.303440 -0.184490 
#    z 0.252000 -0.184490 4.684020 
# 
# 
# High freq. dielectric constant tensor:
#      x y z
#    x 1.990150 0.005680 0.017280 
#    y 0.005680 1.976500 0.000100 
#    z 0.017280 0.000100 1.976230 
# 
# From -- ./inp_files/230355.got.cif
#   From: 2010.06.25/outbox.cif.g09.slc.cpg/sg2_116_cif.got.tgz:230355.got - 2010.06.27 13:26:56.
