data_PCOD8033197
_publ_section_title
;
Structure prediction by ZEFSAII (Michael W. Deem and Ramdas Pophale) SiO2 
 PCOD8033197
Probable space group: P -1
;
_chemical_formula_sum "Si O2"
_cell_formula_units_Z 14
_cell_length_a 15.094163
_cell_length_b 9.425011
_cell_length_c 8.786142
_cell_angle_alpha 69.714373
_cell_angle_beta 67.868642
_cell_angle_gamma 28.979580
_cell_volume 560.565486
_symmetry_space_group_name_H-M "P -1"
_symmetry_group_IT_number 2
_symmetry_cell_setting 'triclinic'
loop_
_space_group_symop_operation_xyz
x,y,z
-x,-y,-z
loop_
_atom_site_type_symbol
_atom_site_label
_atom_site_fract_x
_atom_site_fract_y
_atom_site_fract_z
Si Si1 0.205107 0.355006 0.133653
Si Si2 0.327646 0.340295 0.518809
Si Si3 0.863142 0.170666 0.747747
Si Si4 0.364138 0.615442 0.919379
Si Si5 0.931022 0.773458 0.674444
Si Si6 0.880942 0.924434 0.331011
Si Si7 0.407211 0.279183 0.816125
O O1 0.129836 0.289577 0.164378
O O2 0.068661 0.607714 0.252846
O O3 0.411643 0.072820 0.175498
O O4 0.226711 0.430784 0.941208
O O5 0.292216 0.511808 0.347205
O O6 0.360716 0.389549 0.634022
O O7 0.149197 0.474117 0.608330
O O8 0.500000 0.000000 0.500000
O O9 0.065615 0.975721 0.687920
O O10 0.869546 0.005155 0.716895
O O11 0.809846 0.217838 0.940264
O O12 0.459454 0.354651 0.856071
O O13 0.288555 0.845464 0.764841
O O14 0.500000 0.500000 0.000000
O O15 0.827217 0.906189 0.525961
#
# Coordination Sequence:
#
# PCOD8033197 Si02
#       7
#     2   2   2   2   2   2   2
#     4  11  25  43  71 102 141 186 233 284 357 415
#     4  11  25  44  75 107 141 182 232 293 360 416
#     4  11  23  45  69 102 138 183 235 279 354 428
#     4  12  26  43  71 104 138 185 242 291 345 416
#     4  11  24  44  72 106 137 184 239 283 350 431
#     4  11  23  46  71  97 140 184 232 291 352 415
#     4  11  24  47  69 101 150 183 228 296 359 405
#
# _framework density 24.974779000000002
#
# number of rings (size 3 to 8) (size 9 to 14) (size 15 to 20)
#    0.000    0.857    1.429    6.857    4.000    2.857 
#    0.000    2.857    0.000    0.000    0.000    0.000 
#    0.000    0.000    0.000    0.000    0.000    0.000 
#
# Total GULP energy -173601.789339 kJ/mol
# GULP energy per Si atom -12400.127810 kJ/mol
# Density = 2.491794 g / cm^3
# Si number density = 24.974779 Si / 1000 Ang^3
#
#
#
# Elastic Constant Matrix: (Units=GPa)
#
#
# Indices 1 2 3 4 5 6 
#
# 1 121.6454 31.3979 25.9777 -9.0271 10.6694 12.2890
# 2 31.3979 106.7454 24.8770 1.5113 14.4605 13.8468
# 3 25.9777 24.8770 75.4244 -1.8615 30.1680 7.1628
# 4 -9.0271 1.5113 -1.8615 26.5089 -4.9960 7.2542
# 5 10.6694 14.4605 30.1680 -4.9960 45.2248 -4.1587
# 6 12.2890 13.8468 7.1628 7.2542 -4.1587 34.6167
#
#
#
# Elastic Compliance Matrix: (Units=1/GPa)
#
#
# Indices 1 2 3 4 5 6 
#
# 1 0.009859 -0.002020 -0.002366 0.004159 0.000076 -0.003065
# 2 -0.002020 0.011149 -0.001733 -0.000939 -0.002355 -0.003470
# 3 -0.002366 -0.001733 0.020108 -0.000592 -0.012737 -0.004034
# 4 0.004159 -0.000939 -0.000592 0.042400 0.003530 -0.009440
# 5 0.000076 -0.002355 -0.012737 0.003530 0.032349 0.006697
# 6 -0.003065 -0.003470 -0.004034 -0.009440 0.006697 0.034981
#
#
# Mechanical properties :
#
#
# Convention : Reuss Voigt Hill
#
# Bulk Modulus (GPa) = 34.62965 52.03560 43.33263
# Shear Modulus (GPa) = 28.95031 36.04091 32.49561
#
# Velocity S-wave (km/s) = 3.40837 3.80293 3.61104
# Velocity P-wave (km/s) = 5.42082 6.33747 5.89698
#
# Compressibility (1/GPa) = 0.02887699
#
# Stress axis : x y z
#
# Youngs Moduli (GPa) = 101.43119 89.69750 49.73173
#
# Poissons Ratio (x) = 0.18120 0.11766
# Poissons Ratio (y) = 0.20490 0.08619
# Poissons Ratio (z) = 0.23999 0.15546
#
# Static dielectric constant tensor:
#      x y z
#    x 4.384770 0.008770 -0.042610 
#    y 0.008770 4.450180 0.014980 
#    z -0.042610 0.014980 4.862320 
# 
# 
# High freq. dielectric constant tensor:
#      x y z
#    x 1.982010 0.006340 0.008350 
#    y 0.006340 2.000450 0.003580 
#    z 0.008350 0.003580 2.003990 
# 
# From -- ./inp_files/294781.got.cif
#   From: 2010.06.25/outbox.cif.g09.slc.cpg/sg2_148_cif.got.tgz:294781.got - 2010.06.27 13:26:56.
