data_PCOD8033659
_publ_section_title
;
Structure prediction by ZEFSAII (Michael W. Deem and Ramdas Pophale) SiO2 
 PCOD8033659
Probable space group: P -1
;
_chemical_formula_sum "Si O2"
_cell_formula_units_Z 16
_cell_length_a 9.298578
_cell_length_b 8.607364
_cell_length_c 14.844839
_cell_angle_alpha 112.118036
_cell_angle_beta 140.343177
_cell_angle_gamma 71.441010
_cell_volume 701.636361
_symmetry_space_group_name_H-M "P -1"
_symmetry_group_IT_number 2
_symmetry_cell_setting 'triclinic'
loop_
_space_group_symop_operation_xyz
x,y,z
-x,-y,-z
loop_
_atom_site_type_symbol
_atom_site_label
_atom_site_fract_x
_atom_site_fract_y
_atom_site_fract_z
Si Si1 0.263894 0.579697 0.696360
Si Si2 0.760318 0.688467 0.688352
Si Si3 0.871932 0.874045 0.301345
Si Si4 0.120169 0.173185 0.400933
Si Si5 0.713620 0.351503 0.484284
Si Si6 0.417307 0.208852 0.706350
Si Si7 0.473247 0.820866 0.989162
Si Si8 0.864247 0.165929 0.004296
O O1 0.329980 0.593108 0.626983
O O2 0.298302 0.391684 0.709044
O O3 0.420757 0.690360 0.858119
O O4 0.001738 0.642958 0.596150
O O5 0.821285 0.834035 0.677812
O O6 0.762341 0.506752 0.605538
O O7 0.513040 0.737974 0.616584
O O8 0.948468 0.694589 0.859652
O O9 0.699861 0.923846 0.311961
O O10 0.083109 0.781699 0.430440
O O11 0.717423 0.761994 0.137541
O O12 0.944949 0.035690 0.316040
O O13 0.357764 0.155290 0.564390
O O14 0.686499 0.215270 0.849672
O O15 0.274812 0.842851 0.971882
O O16 0.500000 0.000000 0.000000
O O17 0.000000 0.000000 0.000000
#
# Coordination Sequence:
#
# PCOD8033659 Si02
#       8
#     2   2   2   2   2   2   2   2
#     4  12  23  44  74 100 138 180 226 296 333 403
#     4  11  25  48  65  97 141 184 226 276 352 406
#     4  11  24  39  70 103 135 177 230 286 341 398
#     4  12  22  43  68 103 139 174 232 283 335 412
#     4  11  26  44  70  99 138 182 228 289 337 411
#     4  11  25  42  72 107 132 180 234 279 349 401
#     4  11  24  44  68 104 137 178 229 281 348 403
#     4  11  27  45  68  97 144 183 220 281 343 411
#
# _framework density 22.803836
#
# number of rings (size 3 to 8) (size 9 to 14) (size 15 to 20)
#    0.000    0.750    5.000    1.500    5.250    1.500 
#    2.250    0.625    0.000    0.000    0.000    0.000 
#    0.000    0.000    0.000    0.000    0.000    0.000 
#
# Total GULP energy -198310.997830 kJ/mol
# GULP energy per Si atom -12394.437364 kJ/mol
# Density = 2.275193 g / cm^3
# Si number density = 22.803836 Si / 1000 Ang^3
#
#
#
# Elastic Constant Matrix: (Units=GPa)
#
#
# Indices 1 2 3 4 5 6 
#
# 1 86.0230 26.1412 45.2414 0.3668 15.9425 5.7517
# 2 26.1412 51.7446 23.8529 -4.2176 12.3498 5.3063
# 3 45.2414 23.8529 206.1616 -4.2741 23.3618 -6.0395
# 4 0.3668 -4.2176 -4.2741 32.7513 -2.2929 -0.5601
# 5 15.9425 12.3498 23.3618 -2.2929 30.8302 1.8439
# 6 5.7517 5.3063 -6.0395 -0.5601 1.8439 31.5768
#
#
#
# Elastic Compliance Matrix: (Units=1/GPa)
#
#
# Indices 1 2 3 4 5 6 
#
# 1 0.015484 -0.005697 -0.002391 -0.001528 -0.003900 -0.002120
# 2 -0.005697 0.024540 -0.000963 0.002644 -0.005785 -0.002886
# 3 -0.002391 -0.000963 0.005883 0.000499 -0.002912 0.001901
# 4 -0.001528 0.002644 0.000499 0.031077 0.001641 0.000385
# 5 -0.003900 -0.005785 -0.002912 0.001641 0.039166 -0.001132
# 6 -0.002120 -0.002886 0.001901 0.000385 -0.001132 0.032976
#
#
# Mechanical properties :
#
#
# Convention : Reuss Voigt Hill
#
# Bulk Modulus (GPa) = 35.96441 59.37780 47.67111
# Shear Modulus (GPa) = 28.32900 35.61124 31.97012
#
# Velocity S-wave (km/s) = 3.52844 3.95604 3.74834
# Velocity P-wave (km/s) = 5.69256 6.85288 6.29950
#
# Compressibility (1/GPa) = 0.02780527
#
# Stress axis : x y z
#
# Youngs Moduli (GPa) = 64.58102 40.74988 169.99038
#
# Poissons Ratio (x) = 0.23215 0.40639
# Poissons Ratio (y) = 0.36792 0.16375
# Poissons Ratio (z) = 0.15439 0.03925
#
# Static dielectric constant tensor:
#      x y z
#    x 4.128940 0.179730 0.064450 
#    y 0.179730 4.033970 0.070610 
#    z 0.064450 0.070610 4.937600 
# 
# 
# High freq. dielectric constant tensor:
#      x y z
#    x 1.889960 0.010050 0.003280 
#    y 0.010050 1.878280 0.004340 
#    z 0.003280 0.004340 1.938460 
# 
# From -- ./inp_files/495534.got.cif
#   From: 2010.06.25/outbox.cif.g09.slc.cpg/sg2_248_cif.got.tgz:495534.got - 2010.06.27 13:26:56.
