data_PCOD8033465
_publ_section_title
;
Structure prediction by ZEFSAII (Michael W. Deem and Ramdas Pophale) SiO2 
 PCOD8033465
Probable space group: P -1
;
_chemical_formula_sum "Si O2"
_cell_formula_units_Z 16
_cell_length_a 8.473758
_cell_length_b 8.850360
_cell_length_c 18.248123
_cell_angle_alpha 43.715486
_cell_angle_beta 117.018050
_cell_angle_gamma 130.269458
_cell_volume 721.412434
_symmetry_space_group_name_H-M "P -1"
_symmetry_group_IT_number 2
_symmetry_cell_setting 'triclinic'
loop_
_space_group_symop_operation_xyz
x,y,z
-x,-y,-z
loop_
_atom_site_type_symbol
_atom_site_label
_atom_site_fract_x
_atom_site_fract_y
_atom_site_fract_z
Si Si1 0.613532 0.177035 0.783449
Si Si2 0.800134 0.821641 0.972548
Si Si3 0.133446 0.179859 0.173229
Si Si4 0.701440 0.722874 0.249999
Si Si5 0.593362 0.424826 0.188205
Si Si6 0.103371 0.284867 0.282785
Si Si7 0.438820 0.199035 0.444737
Si Si8 0.663676 0.993470 0.351006
O O1 0.422173 0.129596 0.811706
O O2 0.815034 0.456240 0.743945
O O3 0.673002 0.963465 0.882094
O O4 0.533962 0.161910 0.689055
O O5 0.876261 0.749422 0.938699
O O6 0.649420 0.555165 0.074473
O O7 0.000000 0.000000 0.000000
O O8 0.353869 0.203540 0.219354
O O9 0.113993 0.350568 0.174130
O O10 0.947566 0.893734 0.250120
O O11 0.651842 0.641959 0.183674
O O12 0.630497 0.485787 0.372987
O O13 0.712933 0.277529 0.280846
O O14 0.248629 0.166943 0.367887
O O15 0.875925 0.053285 0.336614
O O16 0.500000 0.000000 0.500000
O O17 0.379023 0.169430 0.527692
#
# Coordination Sequence:
#
# PCOD8033465 Si02
#       8
#     2   2   2   2   2   2   2   2
#     4  11  25  45  69 102 138 179 230 288 336 404
#     4  12  26  45  73 103 135 185 233 283 350 408
#     4  12  23  46  69  97 139 183 223 282 345 405
#     4  11  24  46  70 101 141 174 230 285 338 413
#     4  12  24  47  69  98 143 178 232 285 338 414
#     4  11  25  45  70 103 143 178 229 286 338 411
#     4  11  23  46  73 103 138 185 223 282 348 407
#     4  12  24  45  72 101 140 184 227 280 346 403
#
# _framework density 22.178715
#
# number of rings (size 3 to 8) (size 9 to 14) (size 15 to 20)
#    0.000    0.500    7.500    1.500    0.000    2.500 
#    2.250    4.375    0.000    0.000    0.000    0.000 
#    0.000    0.000    0.000    0.000    0.000    0.000 
#
# Total GULP energy -198311.051843 kJ/mol
# GULP energy per Si atom -12394.440740 kJ/mol
# Density = 2.212823 g / cm^3
# Si number density = 22.178715 Si / 1000 Ang^3
#
#
#
# Elastic Constant Matrix: (Units=GPa)
#
#
# Indices 1 2 3 4 5 6 
#
# 1 94.6997 44.8301 50.2937 -4.3239 -24.0001 10.3860
# 2 44.8301 117.7367 42.0058 13.4236 -19.2142 12.2560
# 3 50.2937 42.0058 126.2968 4.3221 -31.9915 1.2739
# 4 -4.3239 13.4236 4.3221 39.3178 -5.7197 -15.0083
# 5 -24.0001 -19.2142 -31.9915 -5.7197 44.9604 3.4799
# 6 10.3860 12.2560 1.2739 -15.0083 3.4799 43.7506
#
#
#
# Elastic Compliance Matrix: (Units=1/GPa)
#
#
# Indices 1 2 3 4 5 6 
#
# 1 0.016202 -0.004252 -0.003984 0.003718 0.004595 -0.001629
# 2 -0.004252 0.012081 -0.001767 -0.005919 0.001228 -0.004452
# 3 -0.003984 -0.001767 0.011396 -0.000081 0.005165 0.000670
# 4 0.003718 -0.005919 -0.000081 0.032765 0.002652 0.011806
# 5 0.004595 0.001228 0.005165 0.002652 0.029466 -0.003019
# 6 -0.001629 -0.004452 0.000670 0.011806 -0.003019 0.028761
#
#
# Mechanical properties :
#
#
# Convention : Reuss Voigt Hill
#
# Bulk Modulus (GPa) = 50.82892 68.11030 59.46961
# Shear Modulus (GPa) = 31.79954 39.04600 35.42277
#
# Velocity S-wave (km/s) = 3.79065 4.20040 4.00077
# Velocity P-wave (km/s) = 6.49048 7.36892 6.94360
#
# Compressibility (1/GPa) = 0.01967384
#
# Stress axis : x y z
#
# Youngs Moduli (GPa) = 61.72228 82.77205 87.74707
#
# Poissons Ratio (x) = 0.35193 0.34962
# Poissons Ratio (y) = 0.26243 0.15501
# Poissons Ratio (z) = 0.24593 0.14622
#
# Static dielectric constant tensor:
#      x y z
#    x 4.219490 -0.045120 -0.282900 
#    y -0.045120 4.222550 0.275790 
#    z -0.282900 0.275790 3.987050 
# 
# 
# High freq. dielectric constant tensor:
#      x y z
#    x 1.883710 0.001360 -0.020990 
#    y 0.001360 1.889330 0.017000 
#    z -0.020990 0.017000 1.852750 
# 
# From -- ./inp_files/556401.got.cif
#   From: 2010.06.25/outbox.cif.g09.slc.cpg/sg2_279_cif.got.tgz:556401.got - 2010.06.27 13:26:56.
