data_PCOD8033548
_publ_section_title
;
Structure prediction by ZEFSAII (Michael W. Deem and Ramdas Pophale) SiO2 
 PCOD8033548
Probable space group: P -1
;
_chemical_formula_sum "Si O2"
_cell_formula_units_Z 16
_cell_length_a 11.911447
_cell_length_b 6.558192
_cell_length_c 17.449315
_cell_angle_alpha 61.105636
_cell_angle_beta 50.171608
_cell_angle_gamma 93.287026
_cell_volume 768.085582
_symmetry_space_group_name_H-M "P -1"
_symmetry_group_IT_number 2
_symmetry_cell_setting 'triclinic'
loop_
_space_group_symop_operation_xyz
x,y,z
-x,-y,-z
loop_
_atom_site_type_symbol
_atom_site_label
_atom_site_fract_x
_atom_site_fract_y
_atom_site_fract_z
Si Si1 0.740648 0.256088 0.527303
Si Si2 0.586242 0.985017 0.389421
Si Si3 0.149290 0.814299 0.358730
Si Si4 0.706562 0.155798 0.878451
Si Si5 0.847478 0.844138 0.329999
Si Si6 0.901267 0.032377 0.933585
Si Si7 0.093004 0.433558 0.907129
Si Si8 0.027456 0.214189 0.320799
O O1 0.705588 0.124323 0.651644
O O2 0.839372 0.592047 0.424849
O O3 0.861983 0.180105 0.442472
O O4 0.552184 0.131272 0.596764
O O5 0.744323 0.289302 0.246324
O O6 0.500000 0.000000 0.500000
O O7 0.655916 0.784481 0.410740
O O8 0.230830 0.862763 0.230125
O O9 0.000000 0.500000 0.500000
O O10 0.079249 0.011629 0.371059
O O11 0.753007 0.993752 0.947824
O O12 0.802701 0.474684 0.805117
O O13 0.500000 0.000000 0.000000
O O14 0.924746 0.875149 0.206569
O O15 0.969594 0.126321 0.273814
O O16 0.953358 0.271379 0.929840
O O17 0.833480 0.744643 0.058792
O O18 0.000000 0.500000 0.000000
#
# Coordination Sequence:
#
# PCOD8033548 Si02
#       8
#     2   2   2   2   2   2   2   2
#     4  12  25  41  69 107 138 177 231 294 338 409
#     4  12  25  43  70 108 139 179 230 282 350 407
#     4  12  24  46  69 101 135 184 235 280 347 410
#     4  12  28  46  69 102 137 181 236 289 341 415
#     4  12  22  45  74  98 141 186 227 282 346 422
#     4  11  23  47  71  96 138 186 229 276 347 416
#     4  11  25  44  73 100 137 182 226 280 347 416
#     4  12  22  44  77  93 138 191 225 281 357 410
#
# _framework density 20.831009999999999
#
# number of rings (size 3 to 8) (size 9 to 14) (size 15 to 20)
#    0.000    0.250    7.500    2.250    0.000    2.500 
#    2.250    0.000    0.000    0.000    0.000    0.000 
#    0.000    0.000    0.000    0.000    0.000    0.000 
#
# Total GULP energy -198427.859386 kJ/mol
# GULP energy per Si atom -12401.741212 kJ/mol
# Density = 2.078360 g / cm^3
# Si number density = 20.831010 Si / 1000 Ang^3
#
#
#
# Elastic Constant Matrix: (Units=GPa)
#
#
# Indices 1 2 3 4 5 6 
#
# 1 161.4802 62.7944 47.4879 13.2503 2.6319 -0.8301
# 2 62.7944 132.4725 47.1236 8.4669 -0.5184 -0.6063
# 3 47.4879 47.1236 101.5748 8.6513 0.5652 -4.7048
# 4 13.2503 8.4669 8.6513 36.3676 0.0154 4.9072
# 5 2.6319 -0.5184 0.5652 0.0154 36.9443 2.6363
# 6 -0.8301 -0.6063 -4.7048 4.9072 2.6363 43.1245
#
#
#
# Elastic Compliance Matrix: (Units=1/GPa)
#
#
# Indices 1 2 3 4 5 6 
#
# 1 0.008167 -0.002945 -0.002294 -0.001758 -0.000595 0.000102
# 2 -0.002945 0.010151 -0.003307 -0.000471 0.000421 -0.000247
# 3 -0.002294 -0.003307 0.012658 -0.001606 -0.000182 0.001484
# 4 -0.001758 -0.000471 -0.001606 0.029108 0.000384 -0.003551
# 5 -0.000595 0.000421 -0.000182 0.000384 0.027242 -0.001735
# 6 0.000102 -0.000247 0.001484 -0.003551 -0.001735 0.023859
#
#
# Mechanical properties :
#
#
# Convention : Reuss Voigt Hill
#
# Bulk Modulus (GPa) = 72.01812 78.92661 75.47237
# Shear Modulus (GPa) = 37.62069 39.16206 38.39137
#
# Velocity S-wave (km/s) = 4.25431 4.34059 4.29766
# Velocity P-wave (km/s) = 7.66680 7.94306 7.80615
#
# Compressibility (1/GPa) = 0.01388539
#
# Stress axis : x y z
#
# Youngs Moduli (GPa) = 122.44476 98.50889 79.00078
#
# Poissons Ratio (x) = 0.29007 0.18125
# Poissons Ratio (y) = 0.36056 0.26122
# Poissons Ratio (z) = 0.28093 0.32572
#
# Static dielectric constant tensor:
#      x y z
#    x 4.062590 0.043430 0.318890 
#    y 0.043430 4.069080 -0.017780 
#    z 0.318890 -0.017780 3.663330 
# 
# 
# High freq. dielectric constant tensor:
#      x y z
#    x 1.837210 -0.001040 0.016490 
#    y -0.001040 1.832350 -0.000690 
#    z 0.016490 -0.000690 1.799220 
# 
# From -- ./inp_files/118487.got.cif
#   From: 2010.06.25/outbox.cif.g09.slc.cpg/sg2_60_cif.got.tgz:118487.got - 2010.06.27 13:26:56.
