data_PCOD8033581
_publ_section_title
;
Structure prediction by ZEFSAII (Michael W. Deem and Ramdas Pophale) SiO2 
 PCOD8033581
Probable space group: P -1
;
_chemical_formula_sum "Si O2"
_cell_formula_units_Z 14
_cell_length_a 8.850072
_cell_length_b 23.754363
_cell_length_c 17.559012
_cell_angle_alpha 19.633634
_cell_angle_beta 30.420925
_cell_angle_gamma 31.698501
_cell_volume 611.632504
_symmetry_space_group_name_H-M "P -1"
_symmetry_group_IT_number 2
_symmetry_cell_setting 'triclinic'
loop_
_space_group_symop_operation_xyz
x,y,z
-x,-y,-z
loop_
_atom_site_type_symbol
_atom_site_label
_atom_site_fract_x
_atom_site_fract_y
_atom_site_fract_z
Si Si1 0.561073 0.063520 0.501360
Si Si2 0.606475 0.808467 0.224141
Si Si3 0.399085 0.335476 0.104428
Si Si4 0.438722 0.351109 0.310382
Si Si5 0.878506 0.217645 0.422157
Si Si6 0.261110 0.524180 0.504679
Si Si7 0.239961 0.763151 0.068673
O O1 0.435840 0.146701 0.367891
O O2 0.557700 0.224519 0.351408
O O3 0.912536 0.964813 0.462817
O O4 0.364853 0.938523 0.784748
O O5 0.287084 0.777915 0.431357
O O6 0.732543 0.666231 0.286499
O O7 0.871498 0.803545 0.178401
O O8 0.500000 0.000000 0.000000
O O9 0.082845 0.359522 0.163338
O O10 0.424561 0.476552 0.977683
O O11 0.653740 0.344406 0.917904
O O12 0.597953 0.266457 0.424879
O O13 0.072660 0.391955 0.423456
O O14 0.500000 0.500000 0.500000
O O15 0.353281 0.649528 0.239644
#
# Coordination Sequence:
#
# PCOD8033581 Si02
#       7
#     2   2   2   2   2   2   2
#     4  11  26  46  72 110 148 187 235 296 364 425
#     4  12  24  45  77 104 142 189 247 299 355 430
#     4  11  23  47  74 105 142 190 242 290 355 435
#     4  12  25  47  70 106 150 187 238 300 360 424
#     4  11  24  44  72 105 140 192 243 283 360 429
#     4  12  29  48  72 108 146 193 243 302 368 416
#     4  11  23  50  75  99 147 192 245 294 348 440
#
# _framework density 22.889561
#
# number of rings (size 3 to 8) (size 9 to 14) (size 15 to 20)
#    0.000    0.571    2.857    6.000    4.000    2.857 
#    5.143    0.000    0.000    0.000    0.000    0.000 
#    0.000    0.000    0.000    0.000    0.000    0.000 
#
# Total GULP energy -173474.595507 kJ/mol
# GULP energy per Si atom -12391.042536 kJ/mol
# Density = 2.283746 g / cm^3
# Si number density = 22.889561 Si / 1000 Ang^3
#
#
#
# Elastic Constant Matrix: (Units=GPa)
#
#
# Indices 1 2 3 4 5 6 
#
# 1 128.1698 48.6774 50.2208 -5.3011 -0.4663 -26.4796
# 2 48.6774 149.5031 21.8612 4.1418 -7.4815 -7.4313
# 3 50.2208 21.8612 124.2903 -20.5012 -0.7658 -22.1880
# 4 -5.3011 4.1418 -20.5012 43.5461 0.6377 -1.4512
# 5 -0.4663 -7.4815 -0.7658 0.6377 45.4783 3.8494
# 6 -26.4796 -7.4313 -22.1880 -1.4512 3.8494 38.9339
#
#
#
# Elastic Compliance Matrix: (Units=1/GPa)
#
#
# Indices 1 2 3 4 5 6 
#
# 1 0.011263 -0.003018 -0.002969 0.000457 -0.000903 0.005499
# 2 -0.003018 0.007810 -0.000575 -0.001437 0.001355 -0.001077
# 3 -0.002969 -0.000575 0.010941 0.004994 -0.000377 0.004330
# 4 0.000457 -0.001437 0.004994 0.025651 -0.000839 0.003922
# 5 -0.000903 0.001355 -0.000377 -0.000839 0.022446 -0.002821
# 6 0.005499 -0.001077 0.004330 0.003922 -0.002821 0.032111
#
#
# Mechanical properties :
#
#
# Convention : Reuss Voigt Hill
#
# Bulk Modulus (GPa) = 59.20622 71.49802 65.35212
# Shear Modulus (GPa) = 38.76730 44.33858 41.55294
#
# Velocity S-wave (km/s) = 4.11988 4.40599 4.26533
# Velocity P-wave (km/s) = 6.96803 7.56224 7.27121
#
# Compressibility (1/GPa) = 0.01689012
#
# Stress axis : x y z
#
# Youngs Moduli (GPa) = 88.78559 128.04848 91.40157
#
# Poissons Ratio (x) = 0.38640 0.27135
# Poissons Ratio (y) = 0.26792 0.05258
# Poissons Ratio (z) = 0.26359 0.07366
#
# Static dielectric constant tensor:
#      x y z
#    x 4.089540 -0.096730 0.077870 
#    y -0.096730 4.153840 -0.263750 
#    z 0.077870 -0.263750 4.013470 
# 
# 
# High freq. dielectric constant tensor:
#      x y z
#    x 1.904730 -0.010430 0.001000 
#    y -0.010430 1.916410 -0.007510 
#    z 0.001000 -0.007510 1.912220 
# 
# From -- ./inp_files/190043.got.cif
#   From: 2010.06.25/outbox.cif.g09.slc.cpg/sg2_96_cif.got.tgz:190043.got - 2010.06.27 13:26:56.
