data_PCOD8033470
_publ_section_title
;
Structure prediction by ZEFSAII (Michael W. Deem and Ramdas Pophale) SiO2 
 PCOD8033470
Probable space group: P -1
;
_chemical_formula_sum "Si O2"
_cell_formula_units_Z 16
_cell_length_a 17.567336
_cell_length_b 20.963483
_cell_length_c 11.573460
_cell_angle_alpha 41.246498
_cell_angle_beta 149.967677
_cell_angle_gamma 159.326124
_cell_volume 711.217167
_symmetry_space_group_name_H-M "P -1"
_symmetry_group_IT_number 2
_symmetry_cell_setting 'triclinic'
loop_
_space_group_symop_operation_xyz
x,y,z
-x,-y,-z
loop_
_atom_site_type_symbol
_atom_site_label
_atom_site_fract_x
_atom_site_fract_y
_atom_site_fract_z
Si Si1 0.741098 0.826710 0.310574
Si Si2 0.197514 0.094369 0.974947
Si Si3 0.482637 0.246876 0.464208
Si Si4 0.041479 0.795372 0.706952
Si Si5 0.242174 0.899176 0.375127
Si Si6 0.481926 0.037637 0.746697
Si Si7 0.266686 0.573747 0.218101
Si Si8 0.633561 0.473099 0.170152
O O1 0.420628 0.674100 0.158603
O O2 0.793749 0.741286 0.477219
O O3 0.748787 0.887388 0.116610
O O4 0.000000 0.000000 0.500000
O O5 0.430579 0.303202 0.042944
O O6 0.229786 0.007933 0.195355
O O7 0.862946 0.945805 0.770119
O O8 0.638412 0.228006 0.671447
O O9 0.479259 0.274165 0.557300
O O10 0.678721 0.430752 0.399273
O O11 0.856957 0.600585 0.698137
O O12 0.245620 0.933736 0.677965
O O13 0.264995 0.901203 0.966287
O O14 0.949867 0.678525 0.250288
O O15 0.500000 0.000000 0.500000
O O16 0.308369 0.906272 0.584863
O O17 0.000000 0.500000 0.000000
O O18 0.500000 0.500000 0.000000
#
# Coordination Sequence:
#
# PCOD8033470 Si02
#       8
#     2   2   2   2   2   2   2   2
#     4  12  27  47  72 106 147 194 238 306 372 432
#     4  12  26  47  75 108 151 189 251 309 364 441
#     4  12  22  46  75 105 147 190 246 310 367 435
#     4  11  25  43  75 107 145 194 246 300 366 445
#     4  12  29  48  73 108 151 195 243 310 373 438
#     4  11  23  46  73 105 146 194 243 304 371 430
#     4  12  26  45  71 110 143 193 248 303 366 443
#     4  12  26  46  79 106 139 195 248 300 372 443
#
# _framework density 22.496642999999999
#
# number of rings (size 3 to 8) (size 9 to 14) (size 15 to 20)
#    0.000    0.250    6.250    2.250    5.250    2.500 
#    0.000    0.000    0.000    0.000    0.000    0.000 
#    0.000    0.000    0.000    0.000    0.000    0.000 
#
# Total GULP energy -198399.266411 kJ/mol
# GULP energy per Si atom -12399.954151 kJ/mol
# Density = 2.244544 g / cm^3
# Si number density = 22.496643 Si / 1000 Ang^3
#
#
#
# Elastic Constant Matrix: (Units=GPa)
#
#
# Indices 1 2 3 4 5 6 
#
# 1 105.4631 39.6484 51.9033 6.1577 -0.7847 7.7754
# 2 39.6484 137.5652 34.8671 9.1362 1.0616 -4.5161
# 3 51.9033 34.8671 96.6382 4.0495 -8.1208 13.6222
# 4 6.1577 9.1362 4.0495 37.5301 2.2809 -7.4041
# 5 -0.7847 1.0616 -8.1208 2.2809 44.5735 12.8110
# 6 7.7754 -4.5161 13.6222 -7.4041 12.8110 37.5869
#
#
#
# Elastic Compliance Matrix: (Units=1/GPa)
#
#
# Indices 1 2 3 4 5 6 
#
# 1 0.013583 -0.002246 -0.006376 -0.001114 -0.000585 -0.000789
# 2 -0.002246 0.008678 -0.002384 -0.000873 -0.001406 0.002678
# 3 -0.006376 -0.002384 0.016081 -0.001753 0.004924 -0.006819
# 4 -0.001114 -0.000873 -0.001753 0.029028 -0.004064 0.007864
# 5 -0.000585 -0.001406 0.004924 -0.004064 0.026961 -0.011822
# 6 -0.000789 0.002678 -0.006819 0.007864 -0.011822 0.035140
#
#
# Mechanical properties :
#
#
# Convention : Reuss Voigt Hill
#
# Bulk Modulus (GPa) = 61.23802 65.83381 63.53591
# Shear Modulus (GPa) = 31.86209 38.15461 35.00835
#
# Velocity S-wave (km/s) = 3.76746 4.12274 3.94910
# Velocity P-wave (km/s) = 6.79743 7.21041 7.00696
#
# Compressibility (1/GPa) = 0.01632973
#
# Stress axis : x y z
#
# Youngs Moduli (GPa) = 73.61931 115.24009 62.18526
#
# Poissons Ratio (x) = 0.25885 0.39652
# Poissons Ratio (y) = 0.16536 0.14822
# Poissons Ratio (z) = 0.46943 0.27468
#
# Static dielectric constant tensor:
#      x y z
#    x 3.634720 0.040410 -0.422220 
#    y 0.040410 4.029120 -0.124390 
#    z -0.422220 -0.124390 3.991490 
# 
# 
# High freq. dielectric constant tensor:
#      x y z
#    x 1.887490 -0.006250 -0.008570 
#    y -0.006250 1.899680 -0.008370 
#    z -0.008570 -0.008370 1.890200 
# 
# From -- ./inp_files/402990.got.cif
#   From: 2010.06.25/outbox.cif.g09.slc.cpg/sg2_202_cif.got.tgz:402990.got - 2010.06.27 13:26:56.
