data_PCOD8033759
_publ_section_title
;
Structure prediction by ZEFSAII (Michael W. Deem and Ramdas Pophale) SiO2 
 PCOD8033759
Probable space group: P -1
;
_chemical_formula_sum "Si O2"
_cell_formula_units_Z 14
_cell_length_a 8.383599
_cell_length_b 15.086459
_cell_length_c 6.620979
_cell_angle_alpha 129.771593
_cell_angle_beta 86.865015
_cell_angle_gamma 94.669043
_cell_volume 641.497142
_symmetry_space_group_name_H-M "P -1"
_symmetry_group_IT_number 2
_symmetry_cell_setting 'triclinic'
loop_
_space_group_symop_operation_xyz
x,y,z
-x,-y,-z
loop_
_atom_site_type_symbol
_atom_site_label
_atom_site_fract_x
_atom_site_fract_y
_atom_site_fract_z
Si Si1 0.378091 0.082589 0.233424
Si Si2 0.559400 0.525504 0.752184
Si Si3 0.126065 0.935413 0.268805
Si Si4 0.087637 0.187825 0.216442
Si Si5 0.087504 0.402787 0.237738
Si Si6 0.899927 0.262936 0.719691
Si Si7 0.437819 0.687406 0.291951
O O1 0.253867 0.125587 0.137738
O O2 0.474701 0.190339 0.485601
O O3 0.284603 0.014350 0.321678
O O4 0.500000 0.000000 0.000000
O O5 0.500000 0.500000 0.500000
O O6 0.748749 0.541727 0.778966
O O7 0.498807 0.411352 0.712293
O O8 0.481469 0.643238 0.001085
O O9 0.175585 0.830390 0.251615
O O10 0.000000 0.000000 0.500000
O O11 0.045672 0.896195 0.004979
O O12 0.120075 0.300359 0.241003
O O13 0.027399 0.214567 0.485055
O O14 0.000000 0.500000 0.500000
O O15 0.986318 0.364529 0.992231
O O16 0.753142 0.306832 0.665116
#
# Coordination Sequence:
#
# PCOD8033759 Si02
#       7
#     2   2   2   2   2   2   2
#     4  12  26  44  69 102 141 183 227 282 348 406
#     4  11  24  45  68  96 139 175 225 285 344 399
#     4  11  25  44  70  95 133 181 228 276 335 404
#     4  11  24  44  68  97 136 177 229 284 334 409
#     4  11  24  41  71 100 130 179 229 280 342 412
#     4  11  24  44  68  99 136 176 232 280 338 409
#     4  11  26  43  67 100 135 178 224 283 343 405
#
# _framework density 21.823948999999999
#
# number of rings (size 3 to 8) (size 9 to 14) (size 15 to 20)
#    0.000    0.857    1.429    4.714    4.000    9.714 
#    0.000    0.000    0.000    0.000    0.000    0.000 
#    0.000    0.000    0.000    0.000    0.000    0.000 
#
# Total GULP energy -173656.981603 kJ/mol
# GULP energy per Si atom -12404.070114 kJ/mol
# Density = 2.177428 g / cm^3
# Si number density = 21.823949 Si / 1000 Ang^3
#
#
#
# Elastic Constant Matrix: (Units=GPa)
#
#
# Indices 1 2 3 4 5 6 
#
# 1 118.0924 35.1991 56.9539 14.2828 -8.7480 5.2649
# 2 35.1991 81.3511 51.0977 7.6527 6.2754 4.9788
# 3 56.9539 51.0977 178.0243 15.2921 -0.4343 7.9548
# 4 14.2828 7.6527 15.2921 36.5333 -1.5606 1.9746
# 5 -8.7480 6.2754 -0.4343 -1.5606 47.1686 2.7177
# 6 5.2649 4.9788 7.9548 1.9746 2.7177 44.3175
#
#
#
# Elastic Compliance Matrix: (Units=1/GPa)
#
#
# Indices 1 2 3 4 5 6 
#
# 1 0.011081 -0.003217 -0.002373 -0.002532 0.002410 -0.000564
# 2 -0.003217 0.016233 -0.003546 -0.000744 -0.002779 -0.000601
# 3 -0.002373 -0.003546 0.007547 -0.001451 0.000089 -0.000615
# 4 -0.002532 -0.000744 -0.001451 0.029189 0.000622 -0.000694
# 5 0.002410 -0.002779 0.000089 0.000622 0.022118 -0.001374
# 6 -0.000564 -0.000601 -0.000615 -0.000694 -0.001374 0.022925
#
#
# Mechanical properties :
#
#
# Convention : Reuss Voigt Hill
#
# Bulk Modulus (GPa) = 60.28464 73.77433 67.02949
# Shear Modulus (GPa) = 37.62372 41.21835 39.42104
#
# Velocity S-wave (km/s) = 4.15657 4.35060 4.25469
# Velocity P-wave (km/s) = 7.12174 7.68861 7.41060
#
# Compressibility (1/GPa) = 0.01658797
#
# Stress axis : x y z
#
# Youngs Moduli (GPa) = 90.24209 61.60315 132.51036
#
# Poissons Ratio (x) = 0.19820 0.31447
# Poissons Ratio (y) = 0.29034 0.46988
# Poissons Ratio (z) = 0.21416 0.21844
#
# Static dielectric constant tensor:
#      x y z
#    x 4.015850 -0.134310 -0.195900 
#    y -0.134310 4.286600 0.186990 
#    z -0.195900 0.186990 4.243150 
# 
# 
# High freq. dielectric constant tensor:
#      x y z
#    x 1.861950 0.001550 -0.000630 
#    y 0.001550 1.868410 0.005800 
#    z -0.000630 0.005800 1.873650 
# 
# From -- ./inp_files/26866.got.cif
#   From: 2010.06.25/outbox.cif.g09.slc.cpg/sg2_14_cif.got.tgz:26866.got - 2010.06.27 13:26:56.
