data_PCOD8033506
_publ_section_title
;
Structure prediction by ZEFSAII (Michael W. Deem and Ramdas Pophale) SiO2 
 PCOD8033506
Probable space group: P -1
;
_chemical_formula_sum "Si O2"
_cell_formula_units_Z 16
_cell_length_a 9.428614
_cell_length_b 17.178068
_cell_length_c 5.406212
_cell_angle_alpha 65.190692
_cell_angle_beta 82.871740
_cell_angle_gamma 57.181012
_cell_volume 661.790196
_symmetry_space_group_name_H-M "P -1"
_symmetry_group_IT_number 2
_symmetry_cell_setting 'triclinic'
loop_
_space_group_symop_operation_xyz
x,y,z
-x,-y,-z
loop_
_atom_site_type_symbol
_atom_site_label
_atom_site_fract_x
_atom_site_fract_y
_atom_site_fract_z
Si Si1 0.603630 0.475745 0.258144
Si Si2 0.188014 0.979864 0.482720
Si Si3 0.285305 0.257937 0.600778
Si Si4 0.138851 0.172228 0.436414
Si Si5 0.959787 0.343952 0.879624
Si Si6 0.820019 0.261337 0.669514
Si Si7 0.190402 0.456354 0.100618
Si Si8 0.643600 0.143110 0.891219
O O1 0.500000 0.500000 0.500000
O O2 0.740374 0.354522 0.369594
O O3 0.500000 0.500000 0.000000
O O4 0.701062 0.535867 0.156204
O O5 0.278118 0.923082 0.286302
O O6 0.191086 0.083102 0.344302
O O7 0.292939 0.921609 0.784676
O O8 0.000000 0.000000 0.500000
O O9 0.293172 0.165040 0.568872
O O10 0.101730 0.325872 0.676449
O O11 0.298797 0.338604 0.320891
O O12 0.438993 0.203908 0.836541
O O13 0.001704 0.169578 0.647843
O O14 0.056438 0.283694 0.185298
O O15 0.847971 0.300032 0.871641
O O16 0.829260 0.465264 0.784514
O O17 0.693122 0.225546 0.790923
O O18 0.000000 0.500000 0.000000
#
# Coordination Sequence:
#
# PCOD8033506 Si02
#       8
#     2   2   2   2   2   2   2   2
#     4  12  27  45  69 109 152 196 246 312 375 438
#     4  12  27  49  79 108 143 197 256 311 380 459
#     4  11  27  45  72 115 152 197 246 316 383 442
#     4  11  24  46  75 102 146 191 255 306 368 453
#     4  11  23  46  76 105 148 204 253 301 365 460
#     4  11  24  45  71 103 141 197 247 307 370 446
#     4  12  23  47  76 109 153 207 260 296 372 465
#     4  12  29  47  76 112 149 188 251 321 384 444
#
# _framework density 24.176846999999999
#
# number of rings (size 3 to 8) (size 9 to 14) (size 15 to 20)
#    0.000    0.500    3.750    3.750    5.250    4.000 
#    0.000    0.000    0.000    0.000    0.000    0.000 
#    0.000    0.000    0.000    0.000    0.000    0.000 
#
# Total GULP energy -198364.842628 kJ/mol
# GULP energy per Si atom -12397.802664 kJ/mol
# Density = 2.412182 g / cm^3
# Si number density = 24.176847 Si / 1000 Ang^3
#
#
#
# Elastic Constant Matrix: (Units=GPa)
#
#
# Indices 1 2 3 4 5 6 
#
# 1 151.0137 44.6243 44.8732 1.0199 7.5036 13.4853
# 2 44.6243 106.5846 28.7856 6.0251 -1.1117 18.7046
# 3 44.8732 28.7856 113.7110 4.0220 12.1216 -3.0765
# 4 1.0199 6.0251 4.0220 43.4028 -2.1340 0.2230
# 5 7.5036 -1.1117 12.1216 -2.1340 48.2265 -3.7600
# 6 13.4853 18.7046 -3.0765 0.2230 -3.7600 35.2781
#
#
#
# Elastic Compliance Matrix: (Units=1/GPa)
#
#
# Indices 1 2 3 4 5 6 
#
# 1 0.008371 -0.002418 -0.002675 0.000357 -0.000845 -0.002244
# 2 -0.002418 0.012076 -0.002285 -0.001343 0.000734 -0.005591
# 3 -0.002675 -0.002285 0.010763 -0.000738 -0.002144 0.002949
# 4 0.000357 -0.001343 -0.000738 0.023341 0.001170 0.000489
# 5 -0.000845 0.000734 -0.002144 0.001170 0.021634 0.002046
# 6 -0.002244 -0.005591 0.002949 0.000489 0.002046 0.032640
#
#
# Mechanical properties :
#
#
# Convention : Reuss Voigt Hill
#
# Bulk Modulus (GPa) = 60.77018 67.54174 64.15596
# Shear Modulus (GPa) = 38.73999 42.24992 40.49496
#
# Velocity S-wave (km/s) = 4.00729 4.18489 4.09705
# Velocity P-wave (km/s) = 6.82652 7.16577 6.99820
#
# Compressibility (1/GPa) = 0.01645544
#
# Stress axis : x y z
#
# Youngs Moduli (GPa) = 119.45988 82.80658 92.91418
#
# Poissons Ratio (x) = 0.20020 0.24851
# Poissons Ratio (y) = 0.28881 0.21231
# Poissons Ratio (z) = 0.31951 0.18921
#
# Static dielectric constant tensor:
#      x y z
#    x 4.651480 0.146760 -0.042340 
#    y 0.146760 4.553970 -0.083270 
#    z -0.042340 -0.083270 4.438480 
# 
# 
# High freq. dielectric constant tensor:
#      x y z
#    x 1.977070 0.010410 0.003780 
#    y 0.010410 1.956240 0.002400 
#    z 0.003780 0.002400 1.959940 
# 
# From -- ./inp_files/46657.got.cif
#   From: 2010.06.25/outbox.cif.g09.slc.cpg/sg2_24_cif.got.tgz:46657.got - 2010.06.27 13:26:56.
