data_PCOD8033937
_publ_section_title
;
Structure prediction by ZEFSAII (Michael W. Deem and Ramdas Pophale) SiO2 
 PCOD8033937
Probable space group: P -1
;
_chemical_formula_sum "Si O2"
_cell_formula_units_Z 16
_cell_length_a 5.415817
_cell_length_b 18.681368
_cell_length_c 9.154816
_cell_angle_alpha 101.255163
_cell_angle_beta 53.082723
_cell_angle_gamma 102.329813
_cell_volume 720.789661
_symmetry_space_group_name_H-M "P -1"
_symmetry_group_IT_number 2
_symmetry_cell_setting 'triclinic'
loop_
_space_group_symop_operation_xyz
x,y,z
-x,-y,-z
loop_
_atom_site_type_symbol
_atom_site_label
_atom_site_fract_x
_atom_site_fract_y
_atom_site_fract_z
Si Si1 0.215981 0.027002 0.689750
Si Si2 0.510512 0.148474 0.816945
Si Si3 0.545909 0.307088 0.813910
Si Si4 0.830797 0.861682 0.495876
Si Si5 0.641785 0.926110 0.880992
Si Si6 0.719225 0.697418 0.405483
Si Si7 0.669632 0.566939 0.877522
Si Si8 0.597173 0.432007 0.350340
O O1 0.280122 0.075983 0.830294
O O2 0.082169 0.080439 0.642081
O O3 0.500000 0.000000 0.500000
O O4 0.007618 0.952299 0.782323
O O5 0.373899 0.224589 0.867302
O O6 0.813128 0.152053 0.604026
O O7 0.526053 0.139385 0.984412
O O8 0.445665 0.332203 0.698987
O O9 0.914530 0.310687 0.717116
O O10 0.405572 0.356405 0.002084
O O11 0.627799 0.895794 0.706901
O O12 0.651952 0.782273 0.482231
O O13 0.500000 0.000000 0.000000
O O14 0.552506 0.647180 0.570634
O O15 0.534660 0.559900 0.760616
O O16 0.034284 0.563566 0.763022
O O17 0.500000 0.500000 0.000000
O O18 0.500000 0.500000 0.500000
#
# Coordination Sequence:
#
# PCOD8033937 Si02
#       8
#     2   2   2   2   2   2   2   2
#     4  12  22  43  65  91 127 177 227 289 354 411
#     4  11  24  43  65  96 132 180 229 290 354 419
#     4  11  24  46  70 100 141 183 230 285 353 408
#     4  11  24  44  64  93 138 176 227 291 359 410
#     4  12  24  41  67  93 129 175 235 294 349 423
#     4  11  24  46  71  98 140 187 227 284 350 416
#     4  12  25  45  74 109 146 183 229 286 336 406
#     4  12  25  45  74 109 144 186 234 275 339 416
#
# _framework density 22.197879
#
# number of rings (size 3 to 8) (size 9 to 14) (size 15 to 20)
#    0.000    0.500    3.750    5.250    1.750    0.000 
#    4.500    0.000    0.000    0.000    0.000    0.000 
#    0.000    0.000    0.000    0.000    0.000    0.000 
#
# Total GULP energy -198216.642923 kJ/mol
# GULP energy per Si atom -12388.540183 kJ/mol
# Density = 2.214736 g / cm^3
# Si number density = 22.197879 Si / 1000 Ang^3
#
#
#
# Elastic Constant Matrix: (Units=GPa)
#
#
# Indices 1 2 3 4 5 6 
#
# 1 134.7975 27.5498 54.4719 6.8798 5.1409 -3.8993
# 2 27.5498 119.0642 52.0394 4.2364 -1.9853 -0.4720
# 3 54.4719 52.0394 145.6546 10.9160 4.1367 -3.1853
# 4 6.8798 4.2364 10.9160 50.1939 -2.6809 5.2803
# 5 5.1409 -1.9853 4.1367 -2.6809 49.5319 -2.1196
# 6 -3.8993 -0.4720 -3.1853 5.2803 -2.1196 32.7681
#
#
#
# Elastic Compliance Matrix: (Units=1/GPa)
#
#
# Indices 1 2 3 4 5 6 
#
# 1 0.008848 -0.000740 -0.002960 -0.000629 -0.000700 0.000811
# 2 -0.000740 0.010040 -0.003340 0.000044 0.000751 -0.000227
# 3 -0.002960 -0.003340 0.009308 -0.001445 -0.000652 0.000695
# 4 -0.000629 0.000044 -0.001445 0.020748 0.001162 -0.003483
# 5 -0.000700 0.000751 -0.000652 0.001162 0.020452 0.001000
# 6 0.000811 -0.000227 0.000695 -0.003483 0.001000 0.031304
#
#
# Mechanical properties :
#
#
# Convention : Reuss Voigt Hill
#
# Bulk Modulus (GPa) = 70.83924 74.18205 72.51064
# Shear Modulus (GPa) = 41.84642 44.19580 43.02111
#
# Velocity S-wave (km/s) = 4.34655 4.46689 4.40713
# Velocity P-wave (km/s) = 7.56121 7.75211 7.65726
#
# Compressibility (1/GPa) = 0.01411647
#
# Stress axis : x y z
#
# Youngs Moduli (GPa) = 113.01852 99.60311 107.43635
#
# Poissons Ratio (x) = 0.07367 0.31801
# Poissons Ratio (y) = 0.08360 0.35884
# Poissons Ratio (z) = 0.33453 0.33268
#
# Static dielectric constant tensor:
#      x y z
#    x 4.173270 -0.093460 -0.154700 
#    y -0.093460 3.573840 0.960680 
#    z -0.154700 0.960680 3.637170 
# 
# 
# High freq. dielectric constant tensor:
#      x y z
#    x 1.873920 -0.001030 0.001590 
#    y -0.001030 1.889600 0.003290 
#    z 0.001590 0.003290 1.882310 
# 
# From -- ./inp_files/51229.got.cif
#   From: 2010.06.25/outbox.cif.g09.slc.cpg/sg2_26_cif.got.tgz:51229.got - 2010.06.27 13:26:56.
