data_PCOD8033987
_publ_section_title
;
Structure prediction by ZEFSAII (Michael W. Deem and Ramdas Pophale) SiO2 
 PCOD8033987
Probable space group: P -1
;
_chemical_formula_sum "Si O2"
_cell_formula_units_Z 16
_cell_length_a 26.271044
_cell_length_b 8.541011
_cell_length_c 26.730453
_cell_angle_alpha 42.468598
_cell_angle_beta 169.211827
_cell_angle_gamma 138.666462
_cell_volume 741.452283
_symmetry_space_group_name_H-M "P -1"
_symmetry_group_IT_number 2
_symmetry_cell_setting 'triclinic'
loop_
_space_group_symop_operation_xyz
x,y,z
-x,-y,-z
loop_
_atom_site_type_symbol
_atom_site_label
_atom_site_fract_x
_atom_site_fract_y
_atom_site_fract_z
Si Si1 0.792418 0.535329 0.748641
Si Si2 0.496412 0.259323 0.196294
Si Si3 0.582060 0.606368 0.108207
Si Si4 0.605554 0.620852 0.307438
Si Si5 0.862986 0.094230 0.393085
Si Si6 0.919646 0.940514 0.699545
Si Si7 0.976061 0.427970 0.195173
Si Si8 0.794221 0.166466 0.750766
O O1 0.500000 0.500000 0.500000
O O2 0.788404 0.339373 0.749786
O O3 0.872786 0.793620 0.740398
O O4 0.000000 0.500000 0.000000
O O5 0.610154 0.402484 0.222631
O O6 0.546990 0.427520 0.253228
O O7 0.645595 0.038173 0.398643
O O8 0.169375 0.162244 0.897241
O O9 0.887319 0.777648 0.359773
O O10 0.500000 0.500000 0.000000
O O11 0.337794 0.735734 0.859912
O O12 0.880348 0.590080 0.608937
O O13 0.661841 0.883687 0.277486
O O14 0.350734 0.590599 0.107234
O O15 0.000000 0.000000 0.500000
O O16 0.984457 0.781942 0.753746
O O17 0.110667 0.684269 0.242402
O O18 0.500000 0.000000 0.500000
O O19 0.000000 0.000000 0.000000
#
# Coordination Sequence:
#
# PCOD8033987 Si02
#       8
#     2   2   2   2   2   2   2   2
#     4  11  24  43  69 100 133 177 222 267 334 396
#     4  12  26  44  68  99 136 173 225 277 331 395
#     4  12  28  46  70 102 132 175 231 276 335 399
#     4  12  26  43  70  98 132 179 220 276 338 395
#     4  12  26  48  70  97 137 175 224 282 337 392
#     4  11  26  45  67  97 139 176 217 277 331 396
#     4  11  26  45  67 100 135 176 224 266 340 399
#     4  11  24  43  69 100 135 174 220 278 324 393
#
# _framework density 21.579270999999999
#
# number of rings (size 3 to 8) (size 9 to 14) (size 15 to 20)
#    0.000    0.500    1.250    6.000    7.000   10.000 
#    0.000    0.000    0.000    0.000    0.000    0.000 
#    0.000    0.000    0.000    0.000    0.000    0.000 
#
# Total GULP energy -198524.211793 kJ/mol
# GULP energy per Si atom -12407.763237 kJ/mol
# Density = 2.153016 g / cm^3
# Si number density = 21.579271 Si / 1000 Ang^3
#
#
#
# Elastic Constant Matrix: (Units=GPa)
#
#
# Indices 1 2 3 4 5 6 
#
# 1 110.2263 48.1836 20.9668 -1.8372 -3.4376 13.7552
# 2 48.1836 123.4411 36.7069 3.4622 -0.3156 13.0336
# 3 20.9668 36.7069 120.0961 -2.4642 1.2980 6.8539
# 4 -1.8372 3.4622 -2.4642 52.4263 1.2333 -2.0296
# 5 -3.4376 -0.3156 1.2980 1.2333 44.3084 4.2415
# 6 13.7552 13.0336 6.8539 -2.0296 4.2415 29.1175
#
#
#
# Elastic Compliance Matrix: (Units=1/GPa)
#
#
# Indices 1 2 3 4 5 6 
#
# 1 0.011387 -0.003894 -0.000594 0.000459 0.001209 -0.003641
# 2 -0.003894 0.010638 -0.002455 -0.001051 0.000108 -0.002433
# 3 -0.000594 -0.002455 0.009236 0.000554 -0.000281 -0.000715
# 4 0.000459 -0.001051 0.000554 0.019262 -0.000674 0.001564
# 5 0.001209 0.000108 -0.000281 -0.000674 0.023070 -0.003961
# 6 -0.003641 -0.002433 -0.000715 0.001564 -0.003961 0.038007
#
#
# Mechanical properties :
#
#
# Convention : Reuss Voigt Hill
#
# Bulk Modulus (GPa) = 57.55400 62.83093 60.19247
# Shear Modulus (GPa) = 38.08746 41.69753 39.89249
#
# Velocity S-wave (km/s) = 4.20575 4.40056 4.30426
# Velocity P-wave (km/s) = 7.09319 7.41616 7.25647
#
# Compressibility (1/GPa) = 0.01737499
#
# Stress axis : x y z
#
# Youngs Moduli (GPa) = 87.82063 94.00568 108.27146
#
# Poissons Ratio (x) = 0.36601 0.06429
# Poissons Ratio (y) = 0.34193 0.26586
# Poissons Ratio (z) = 0.05215 0.23083
#
# Static dielectric constant tensor:
#      x y z
#    x 4.006420 0.123530 -0.006520 
#    y 0.123530 4.288870 0.014860 
#    z -0.006520 0.014860 4.202050 
# 
# 
# High freq. dielectric constant tensor:
#      x y z
#    x 1.857410 0.000730 -0.001210 
#    y 0.000730 1.864630 0.002050 
#    z -0.001210 0.002050 1.868730 
# 
# From -- ./inp_files/352525.got.cif
#   From: 2010.06.25/outbox.cif.g09.slc.cpg/sg2_177_cif.got.tgz:352525.got - 2010.06.27 13:26:56.
