data_PCOD8033111
_publ_section_title
;
Structure prediction by ZEFSAII (Michael W. Deem and Ramdas Pophale) SiO2 
 PCOD8033111
Probable space group: P -1
;
_chemical_formula_sum "Si O2"
_cell_formula_units_Z 14
_cell_length_a 12.499835
_cell_length_b 18.207051
_cell_length_c 11.932194
_cell_angle_alpha 29.293127
_cell_angle_beta 141.937686
_cell_angle_gamma 153.537582
_cell_volume 591.802752
_symmetry_space_group_name_H-M "P -1"
_symmetry_group_IT_number 2
_symmetry_cell_setting 'triclinic'
loop_
_space_group_symop_operation_xyz
x,y,z
-x,-y,-z
loop_
_atom_site_type_symbol
_atom_site_label
_atom_site_fract_x
_atom_site_fract_y
_atom_site_fract_z
Si Si1 0.310896 0.355496 0.238907
Si Si2 0.464311 0.197989 0.160559
Si Si3 0.088985 0.979284 0.983947
Si Si4 0.407790 0.759762 0.468574
Si Si5 0.045326 0.353633 0.832932
Si Si6 0.767201 0.694250 0.503307
Si Si7 0.234724 0.867225 0.587467
O O1 0.439122 0.280396 0.407980
O O2 0.212739 0.268032 0.398403
O O3 0.502222 0.604532 0.064951
O O4 0.091785 0.278285 0.080785
O O5 0.705852 0.241478 0.297599
O O6 0.276682 0.041038 0.313082
O O7 0.358222 0.094087 0.088592
O O8 0.116125 0.094187 0.742277
O O9 0.000000 0.000000 0.000000
O O10 0.945071 0.744452 0.140753
O O11 0.261805 0.603845 0.663294
O O12 0.212838 0.715975 0.279871
O O13 0.591483 0.999070 0.340817
O O14 0.500000 0.500000 0.500000
O O15 0.957791 0.677091 0.649648
#
# Coordination Sequence:
#
# PCOD8033111 Si02
#       7
#     2   2   2   2   2   2   2
#     4  12  26  47  71 108 151 193 234 305 369 425
#     4  11  23  44  74 105 140 186 246 301 358 417
#     4  12  23  45  75 105 141 191 244 301 355 429
#     4  11  24  44  74 112 141 187 247 300 357 436
#     4  11  25  44  76 110 145 187 244 302 367 423
#     4  12  28  45  70 107 148 193 243 295 369 445
#     4  11  24  45  73 106 145 186 247 300 354 438
#
# _framework density 23.65653
#
# number of rings (size 3 to 8) (size 9 to 14) (size 15 to 20)
#    0.000    0.571    5.714    2.143    0.000    4.000 
#    2.571    1.429    0.000    0.000    0.000    0.000 
#    0.000    0.000    0.000    0.000    0.000    0.000 
#
# Total GULP energy -173469.713127 kJ/mol
# GULP energy per Si atom -12390.693795 kJ/mol
# Density = 2.360269 g / cm^3
# Si number density = 23.656530 Si / 1000 Ang^3
#
#
#
# Elastic Constant Matrix: (Units=GPa)
#
#
# Indices 1 2 3 4 5 6 
#
# 1 147.5834 46.3264 68.3380 20.4125 7.1233 15.5811
# 2 46.3264 111.1110 30.2223 20.3519 13.0371 8.2893
# 3 68.3380 30.2223 94.2248 24.7098 -0.1295 9.5332
# 4 20.4125 20.3519 24.7098 43.4929 -11.0043 2.6289
# 5 7.1233 13.0371 -0.1295 -11.0043 35.8557 3.4063
# 6 15.5811 8.2893 9.5332 2.6289 3.4063 38.5013
#
#
#
# Elastic Compliance Matrix: (Units=1/GPa)
#
#
# Indices 1 2 3 4 5 6 
#
# 1 0.011076 -0.002353 -0.006982 -0.000324 -0.001269 -0.002113
# 2 -0.002353 0.011823 -0.000611 -0.005422 -0.005441 -0.000590
# 3 -0.006982 -0.000611 0.017666 -0.006473 -0.000223 -0.000956
# 4 -0.000324 -0.005422 -0.006473 0.032417 0.011997 -0.000374
# 5 -0.001269 -0.005441 -0.000223 0.011997 0.033999 -0.002087
# 6 -0.002113 -0.000590 -0.000956 -0.000374 -0.002087 0.027402
#
#
# Mechanical properties :
#
#
# Convention : Reuss Voigt Hill
#
# Bulk Modulus (GPa) = 48.37158 71.41028 59.89093
# Shear Modulus (GPa) = 31.02364 37.43881 34.23122
#
# Velocity S-wave (km/s) = 3.62528 3.98251 3.80808
# Velocity P-wave (km/s) = 6.16566 7.16931 6.68634
#
# Compressibility (1/GPa) = 0.02067330
#
# Stress axis : x y z
#
# Youngs Moduli (GPa) = 90.28172 84.58039 56.60506
#
# Poissons Ratio (x) = 0.19905 0.39519
# Poissons Ratio (y) = 0.21246 0.03461
# Poissons Ratio (z) = 0.63030 0.05171
#
# Static dielectric constant tensor:
#      x y z
#    x 4.195920 0.042840 0.109080 
#    y 0.042840 4.656430 0.539240 
#    z 0.109080 0.539240 4.407100 
# 
# 
# High freq. dielectric constant tensor:
#      x y z
#    x 1.929770 -0.002740 0.018210 
#    y -0.002740 1.948830 0.024590 
#    z 0.018210 0.024590 1.932100 
# 
# From -- ./inp_files/237396.got.cif
#   From: 2010.06.25/outbox.cif.g09.slc.cpg/sg2_119_cif.got.tgz:237396.got - 2010.06.27 13:26:56.
