data_PCOD8033802
_publ_section_title
;
Structure prediction by ZEFSAII (Michael W. Deem and Ramdas Pophale) SiO2 
 PCOD8033802
Probable space group: P -1
;
_chemical_formula_sum "Si O2"
_cell_formula_units_Z 12
_cell_length_a 8.968785
_cell_length_b 24.148452
_cell_length_c 10.115693
_cell_angle_alpha 38.428946
_cell_angle_beta 112.527482
_cell_angle_gamma 144.240305
_cell_volume 571.901035
_symmetry_space_group_name_H-M "P -1"
_symmetry_group_IT_number 2
_symmetry_cell_setting 'triclinic'
loop_
_space_group_symop_operation_xyz
x,y,z
-x,-y,-z
loop_
_atom_site_type_symbol
_atom_site_label
_atom_site_fract_x
_atom_site_fract_y
_atom_site_fract_z
Si Si1 0.966862 0.691234 0.418160
Si Si2 0.038299 0.044582 0.709697
Si Si3 0.262237 0.251646 0.654667
Si Si4 0.201929 0.350172 0.835519
Si Si5 0.314711 0.721266 0.656815
Si Si6 0.342142 0.007872 0.501694
O O1 0.017700 0.803828 0.317955
O O2 0.544150 0.459449 0.701526
O O3 0.071046 0.766710 0.160697
O O4 0.198680 0.724035 0.487398
O O5 0.240758 0.201122 0.596427
O O6 0.325643 0.151686 0.500852
O O7 0.748528 0.961907 0.692668
O O8 0.816443 0.857505 0.052915
O O9 0.662418 0.487480 0.365417
O O10 0.019159 0.200864 0.162445
O O11 0.381187 0.815692 0.629722
O O12 0.000000 0.500000 0.000000
O O13 0.500000 0.000000 0.500000
#
# Coordination Sequence:
#
# PCOD8033802 Si02
#       6
#     2   2   2   2   2   2
#     4   9  20  42  68  90 126 170 214 251 326 378
#     4  11  24  42  66  96 132 163 218 269 317 375
#     4   9  21  41  70  91 124 174 209 266 315 374
#     4   9  21  41  71  88 125 172 211 262 310 382
#     4  12  27  39  65 100 133 168 210 270 320 376
#     4  12  27  43  66  94 130 175 215 258 324 386
#
# _framework density 20.98265
#
# number of rings (size 3 to 8) (size 9 to 14) (size 15 to 20)
#    1.000    0.667    0.000    3.500    4.667    6.000 
#    0.000    1.667    0.000    0.000    0.000    0.000 
#    0.000    0.000    0.000    0.000    0.000    0.000 
#
# Total GULP energy -148758.315497 kJ/mol
# GULP energy per Si atom -12396.526291 kJ/mol
# Density = 2.093489 g / cm^3
# Si number density = 20.982650 Si / 1000 Ang^3
#
#
#
# Elastic Constant Matrix: (Units=GPa)
#
#
# Indices 1 2 3 4 5 6 
#
# 1 90.4633 45.6494 5.7963 1.3029 14.3268 5.0981
# 2 45.6494 100.6900 30.3288 5.4851 11.6739 -4.3740
# 3 5.7963 30.3288 84.6945 -4.5583 14.8548 -0.8968
# 4 1.3029 5.4851 -4.5583 31.8037 -2.1751 12.0708
# 5 14.3268 11.6739 14.8548 -2.1751 28.8091 2.3028
# 6 5.0981 -4.3740 -0.8968 12.0708 2.3028 47.4960
#
#
#
# Elastic Compliance Matrix: (Units=1/GPa)
#
#
# Indices 1 2 3 4 5 6 
#
# 1 0.015667 -0.007417 0.002667 0.001539 -0.005851 -0.002422
# 2 -0.007417 0.015249 -0.005070 -0.004307 -0.000459 0.003222
# 3 0.002667 -0.005070 0.014736 0.002750 -0.006594 -0.000854
# 4 0.001539 -0.004307 0.002750 0.036501 0.003112 -0.009937
# 5 -0.005851 -0.000459 -0.006594 0.003112 0.041630 -0.002348
# 6 -0.002422 0.003222 -0.000854 -0.009937 -0.002348 0.024234
#
#
# Mechanical properties :
#
#
# Convention : Reuss Voigt Hill
#
# Bulk Modulus (GPa) = 38.44376 48.82187 43.63281
# Shear Modulus (GPa) = 28.35629 34.55998 31.45813
#
# Velocity S-wave (km/s) = 3.68015 4.06282 3.87621
# Velocity P-wave (km/s) = 6.03485 6.73253 6.39321
#
# Compressibility (1/GPa) = 0.02601203
#
# Stress axis : x y z
#
# Youngs Moduli (GPa) = 63.82834 65.57801 67.86208
#
# Poissons Ratio (x) = 0.48638 -0.18100
# Poissons Ratio (y) = 0.47341 0.34407
# Poissons Ratio (z) = -0.17024 0.33249
#
# Static dielectric constant tensor:
#      x y z
#    x 3.655580 -0.135350 0.192930 
#    y -0.135350 3.730580 0.016990 
#    z 0.192930 0.016990 3.634600 
# 
# 
# High freq. dielectric constant tensor:
#      x y z
#    x 1.810990 -0.009580 0.013730 
#    y -0.009580 1.826800 0.007210 
#    z 0.013730 0.007210 1.825930 
# 
# From -- ./inp_files/223243.got.cif
#   From: 2010.06.25/outbox.cif.g09.slc.cpg/sg2_112_cif.got.tgz:223243.got - 2010.06.27 13:26:56.
