data_PCOD8033351
_publ_section_title
;
Structure prediction by ZEFSAII (Michael W. Deem and Ramdas Pophale) SiO2 
 PCOD8033351
Probable space group: P -1
;
_chemical_formula_sum "Si O2"
_cell_formula_units_Z 16
_cell_length_a 8.704358
_cell_length_b 8.497491
_cell_length_c 11.681861
_cell_angle_alpha 66.007114
_cell_angle_beta 58.627290
_cell_angle_gamma 59.023583
_cell_volume 621.057435
_symmetry_space_group_name_H-M "P -1"
_symmetry_group_IT_number 2
_symmetry_cell_setting 'triclinic'
loop_
_space_group_symop_operation_xyz
x,y,z
-x,-y,-z
loop_
_atom_site_type_symbol
_atom_site_label
_atom_site_fract_x
_atom_site_fract_y
_atom_site_fract_z
Si Si1 0.547289 0.576187 0.205918
Si Si2 0.130681 0.866975 0.586112
Si Si3 0.822702 0.551000 0.301763
Si Si4 0.781072 0.077331 0.020134
Si Si5 0.458332 0.249458 0.452747
Si Si6 0.231197 0.966784 0.205940
Si Si7 0.243637 0.521931 0.088278
Si Si8 0.582101 0.847787 0.739828
O O1 0.668357 0.633407 0.237238
O O2 0.520459 0.391537 0.311886
O O3 0.335655 0.744198 0.241755
O O4 0.672513 0.550815 0.048593
O O5 0.132948 0.662819 0.623500
O O6 0.349971 0.862544 0.510211
O O7 0.000000 0.000000 0.500000
O O8 0.005395 0.961122 0.720049
O O9 0.731609 0.663965 0.420080
O O10 0.013147 0.578072 0.174369
O O11 0.737839 0.977851 0.952573
O O12 0.709672 0.297830 0.953454
O O13 0.647768 0.041274 0.179440
O O14 0.000000 0.000000 0.000000
O O15 0.403708 0.127869 0.411279
O O16 0.292142 0.073359 0.252219
O O17 0.353392 0.370595 0.187615
#
# Coordination Sequence:
#
# PCOD8033351 Si02
#       8
#     2   2   2   2   2   2   2   2
#     4  11  23  45  76 106 146 195 241 301 370 435
#     4  11  23  47  72 108 144 195 244 308 367 435
#     4  11  25  44  75 111 142 199 247 300 367 439
#     4  12  27  45  72 108 146 191 242 300 375 432
#     4  11  24  48  76 103 150 197 248 292 371 449
#     4  12  25  43  73 106 144 186 246 308 364 427
#     4  12  25  46  74 107 152 189 248 301 367 442
#     4  12  25  47  72 108 147 192 246 303 363 439
#
# _framework density 25.762512000000001
#
# number of rings (size 3 to 8) (size 9 to 14) (size 15 to 20)
#    0.000    0.500    3.750    5.625    3.500    0.500 
#    2.250    1.250    0.000    0.000    0.000    0.000 
#    0.000    0.000    0.000    0.000    0.000    0.000 
#
# Total GULP energy -198294.023162 kJ/mol
# GULP energy per Si atom -12393.376448 kJ/mol
# Density = 2.570388 g / cm^3
# Si number density = 25.762512 Si / 1000 Ang^3
#
#
#
# Elastic Constant Matrix: (Units=GPa)
#
#
# Indices 1 2 3 4 5 6 
#
# 1 107.4576 40.4644 41.3643 24.9451 15.5916 2.8555
# 2 40.4644 93.3644 40.5393 33.3938 -0.0745 -7.7488
# 3 41.3643 40.5393 118.3655 42.3611 7.7547 9.8242
# 4 24.9451 33.3938 42.3611 49.8260 -2.5613 -1.2654
# 5 15.5916 -0.0745 7.7547 -2.5613 62.7480 6.7595
# 6 2.8555 -7.7488 9.8242 -1.2654 6.7595 41.1970
#
#
#
# Elastic Compliance Matrix: (Units=1/GPa)
#
#
# Indices 1 2 3 4 5 6 
#
# 1 0.012452 -0.003815 -0.002049 -0.002099 -0.002857 -0.000688
# 2 -0.003815 0.016019 -0.001950 -0.007052 0.000550 0.003436
# 3 -0.002049 -0.001950 0.013543 -0.009331 -0.001165 -0.003550
# 4 -0.002099 -0.007052 -0.009331 0.033969 0.002879 0.001615
# 5 -0.002857 0.000550 -0.001165 0.002879 0.017140 -0.002144
# 6 -0.000688 0.003436 -0.003550 0.001615 -0.002144 0.026215
#
#
# Mechanical properties :
#
#
# Convention : Reuss Voigt Hill
#
# Bulk Modulus (GPa) = 37.90255 62.65816 50.28036
# Shear Modulus (GPa) = 34.77958 43.87553 39.32756
#
# Velocity S-wave (km/s) = 3.67823 4.13131 3.91134
# Velocity P-wave (km/s) = 5.72568 6.86522 6.32118
#
# Compressibility (1/GPa) = 0.02638345
#
# Stress axis : x y z
#
# Youngs Moduli (GPa) = 80.31126 62.42496 73.83970
#
# Poissons Ratio (x) = 0.23818 0.15131
# Poissons Ratio (y) = 0.30642 0.14402
# Poissons Ratio (z) = 0.16458 0.12175
#
# Static dielectric constant tensor:
#      x y z
#    x 5.033100 -0.298750 -0.325800 
#    y -0.298750 5.035000 0.401110 
#    z -0.325800 0.401110 5.371860 
# 
# 
# High freq. dielectric constant tensor:
#      x y z
#    x 2.036870 -0.008620 0.004430 
#    y -0.008620 2.042330 0.006580 
#    z 0.004430 0.006580 2.045450 
# 
# From -- ./inp_files/381608.got.cif
#   From: 2010.06.25/outbox.cif.g09.slc.cpg/sg2_191_cif.got.tgz:381608.got - 2010.06.27 13:26:56.
