data_PCOD8033598
_publ_section_title
;
Structure prediction by ZEFSAII (Michael W. Deem and Ramdas Pophale) SiO2 
 PCOD8033598
Probable space group: P -1
;
_chemical_formula_sum "Si O2"
_cell_formula_units_Z 14
_cell_length_a 19.725575
_cell_length_b 11.130368
_cell_length_c 9.716278
_cell_angle_alpha 60.374474
_cell_angle_beta 42.418621
_cell_angle_gamma 28.685673
_cell_volume 608.382183
_symmetry_space_group_name_H-M "P -1"
_symmetry_group_IT_number 2
_symmetry_cell_setting 'triclinic'
loop_
_space_group_symop_operation_xyz
x,y,z
-x,-y,-z
loop_
_atom_site_type_symbol
_atom_site_label
_atom_site_fract_x
_atom_site_fract_y
_atom_site_fract_z
Si Si1 0.142148 0.120707 0.534652
Si Si2 0.248067 0.200074 0.941565
Si Si3 0.055544 0.659786 0.791123
Si Si4 0.503609 0.549038 0.172908
Si Si5 0.619722 0.569356 0.723497
Si Si6 0.148196 0.931613 0.888033
Si Si7 0.258136 0.269647 0.194384
O O1 0.205309 0.204443 0.407577
O O2 0.891207 0.421370 0.710663
O O3 0.276172 0.889342 0.343153
O O4 0.203916 0.979537 0.666081
O O5 0.216663 0.360176 0.788519
O O6 0.484652 0.870080 0.766386
O O7 0.193468 0.321065 0.105125
O O8 0.114187 0.224351 0.100139
O O9 0.158557 0.641012 0.538359
O O10 0.955897 0.875744 0.933133
O O11 0.473616 0.424517 0.251767
O O12 0.639555 0.396210 0.194633
O O13 0.628964 0.480155 0.906099
O O14 0.000000 0.000000 0.000000
O O15 0.500000 0.000000 0.000000
#
# Coordination Sequence:
#
# PCOD8033598 Si02
#       7
#     2   2   2   2   2   2   2
#     4  11  25  47  70 103 145 182 232 295 349 414
#     4  11  23  48  69 105 140 177 242 294 344 422
#     4  11  25  45  73 101 139 187 237 292 351 408
#     4  11  25  46  69 105 143 185 237 286 348 430
#     4  11  24  46  72 101 140 185 236 289 352 414
#     4  12  26  44  71 105 145 191 235 283 355 422
#     4  11  26  46  75 105 138 185 237 294 356 414
#
# _framework density 23.011852000000001
#
# number of rings (size 3 to 8) (size 9 to 14) (size 15 to 20)
#    0.000    0.857    4.286    1.714    2.000    5.143 
#    0.000    0.000    0.000    0.000    0.000    0.000 
#    0.000    0.000    0.000    0.000    0.000    0.000 
#
# Total GULP energy -173602.117106 kJ/mol
# GULP energy per Si atom -12400.151222 kJ/mol
# Density = 2.295948 g / cm^3
# Si number density = 23.011852 Si / 1000 Ang^3
#
#
#
# Elastic Constant Matrix: (Units=GPa)
#
#
# Indices 1 2 3 4 5 6 
#
# 1 94.0652 27.6972 36.8903 0.1891 1.4985 -6.3496
# 2 27.6972 98.2957 35.6346 1.5772 -5.0871 -1.7919
# 3 36.8903 35.6346 153.0987 -10.6059 0.2182 -0.6155
# 4 0.1891 1.5772 -10.6059 38.5366 0.7827 5.8527
# 5 1.4985 -5.0871 0.2182 0.7827 27.4661 5.1151
# 6 -6.3496 -1.7919 -0.6155 5.8527 5.1151 35.9553
#
#
#
# Elastic Compliance Matrix: (Units=1/GPa)
#
#
# Indices 1 2 3 4 5 6 
#
# 1 0.012575 -0.002673 -0.002463 -0.000967 -0.001586 0.002428
# 2 -0.002673 0.011865 -0.002198 -0.001114 0.002407 -0.000079
# 3 -0.002463 -0.002198 0.007798 0.002369 -0.000261 -0.000760
# 4 -0.000967 -0.001114 0.002369 0.027356 -0.000091 -0.004626
# 5 -0.001586 0.002407 -0.000261 -0.000091 0.037980 -0.005553
# 6 0.002428 -0.000079 -0.000760 -0.004626 -0.005553 0.029767
#
#
# Mechanical properties :
#
#
# Convention : Reuss Voigt Hill
#
# Bulk Modulus (GPa) = 56.91657 60.65600 58.78628
# Shear Modulus (GPa) = 33.81453 36.74075 35.27764
#
# Velocity S-wave (km/s) = 3.83749 4.00008 3.91963
# Velocity P-wave (km/s) = 6.66501 6.91014 6.78868
#
# Compressibility (1/GPa) = 0.01756958
#
# Stress axis : x y z
#
# Youngs Moduli (GPa) = 79.52334 84.28491 128.23287
#
# Poissons Ratio (x) = 0.22527 0.31582
# Poissons Ratio (y) = 0.21255 0.28192
# Poissons Ratio (z) = 0.19586 0.18530
#
# Static dielectric constant tensor:
#      x y z
#    x 4.343070 0.057190 0.181640 
#    y 0.057190 4.471550 0.046580 
#    z 0.181640 0.046580 4.270570 
# 
# 
# High freq. dielectric constant tensor:
#      x y z
#    x 1.891550 0.005600 0.006730 
#    y 0.005600 1.928260 0.001240 
#    z 0.006730 0.001240 1.920060 
# 
# From -- ./inp_files/346022.got.cif
#   From: 2010.06.25/outbox.cif.g09.slc.cpg/sg2_174_cif.got.tgz:346022.got - 2010.06.27 13:26:56.
