data_PCOD8033629
_publ_section_title
;
Structure prediction by ZEFSAII (Michael W. Deem and Ramdas Pophale) SiO2 
 PCOD8033629
Probable space group: P -1
;
_chemical_formula_sum "Si O2"
_cell_formula_units_Z 16
_cell_length_a 9.645497
_cell_length_b 15.443336
_cell_length_c 9.058061
_cell_angle_alpha 117.296080
_cell_angle_beta 74.191752
_cell_angle_gamma 143.992770
_cell_volume 692.239885
_symmetry_space_group_name_H-M "P -1"
_symmetry_group_IT_number 2
_symmetry_cell_setting 'triclinic'
loop_
_space_group_symop_operation_xyz
x,y,z
-x,-y,-z
loop_
_atom_site_type_symbol
_atom_site_label
_atom_site_fract_x
_atom_site_fract_y
_atom_site_fract_z
Si Si1 0.665430 0.671828 0.160681
Si Si2 0.158311 0.849810 0.102176
Si Si3 0.619794 0.330747 0.226176
Si Si4 0.160654 0.862709 0.581665
Si Si5 0.686691 0.173658 0.236551
Si Si6 0.075563 0.668307 0.224421
Si Si7 0.345891 0.333464 0.487551
Si Si8 0.493295 0.216448 0.854437
O O1 0.635055 0.651689 0.329621
O O2 0.593398 0.738457 0.175748
O O3 0.944231 0.812466 0.143893
O O4 0.500000 0.500000 0.000000
O O5 0.054772 0.693621 0.081416
O O6 0.403286 0.020975 0.241089
O O7 0.236647 0.872261 0.930019
O O8 0.752605 0.313657 0.256723
O O9 0.442238 0.282855 0.359059
O O10 0.817712 0.514340 0.254142
O O11 0.464118 0.212632 0.036696
O O12 0.154340 0.765991 0.619099
O O13 0.201955 0.831425 0.389667
O O14 0.922525 0.798809 0.596526
O O15 0.369882 0.049766 0.710086
O O16 0.226386 0.649693 0.163989
O O17 0.500000 0.500000 0.500000
#
# Coordination Sequence:
#
# PCOD8033629 Si02
#       8
#     2   2   2   2   2   2   2   2
#     4  12  29  47  78 107 149 198 245 305 373 448
#     4  11  23  49  70 105 147 191 245 306 363 436
#     4  12  27  47  74 110 151 196 248 309 365 442
#     4  12  27  47  76 106 151 196 244 312 364 446
#     4  11  26  44  75 108 146 191 245 309 367 431
#     4  12  24  48  75 103 152 194 249 308 363 435
#     4  12  27  50  69 109 153 193 241 309 375 436
#     4  12  27  46  75 112 141 202 251 297 374 439
#
# _framework density 23.113377
#
# number of rings (size 3 to 8) (size 9 to 14) (size 15 to 20)
#    0.000    0.250    5.000    3.000    8.750    1.500 
#    0.000    0.000    0.000    0.000    0.000    0.000 
#    0.000    0.000    0.000    0.000    0.000    0.000 
#
# Total GULP energy -198378.810357 kJ/mol
# GULP energy per Si atom -12398.675647 kJ/mol
# Density = 2.306077 g / cm^3
# Si number density = 23.113377 Si / 1000 Ang^3
#
#
#
# Elastic Constant Matrix: (Units=GPa)
#
#
# Indices 1 2 3 4 5 6 
#
# 1 155.3645 25.5430 33.7908 -14.7216 4.5700 5.7527
# 2 25.5430 72.2167 25.4862 -11.8184 3.4491 0.6497
# 3 33.7908 25.4862 82.1216 -1.3827 -4.4598 15.2654
# 4 -14.7216 -11.8184 -1.3827 29.4557 0.1056 -7.9051
# 5 4.5700 3.4491 -4.4598 0.1056 40.1037 -9.3522
# 6 5.7527 0.6497 15.2654 -7.9051 -9.3522 45.9529
#
#
#
# Elastic Compliance Matrix: (Units=1/GPa)
#
#
# Indices 1 2 3 4 5 6 
#
# 1 0.007563 -0.001084 -0.002845 0.003317 -0.001005 0.000380
# 2 -0.001084 0.017281 -0.005354 0.006834 -0.001378 0.002565
# 3 -0.002845 -0.005354 0.016004 -0.004258 0.001329 -0.005347
# 4 0.003317 0.006834 -0.004258 0.040266 0.000294 0.007889
# 5 -0.001005 -0.001378 0.001329 0.000294 0.026517 0.005151
# 6 0.000380 0.002565 -0.005347 0.007889 0.005151 0.025859
#
#
# Mechanical properties :
#
#
# Convention : Reuss Voigt Hill
#
# Bulk Modulus (GPa) = 44.87750 53.26029 49.06890
# Shear Modulus (GPa) = 31.35150 38.09465 34.72308
#
# Velocity S-wave (km/s) = 3.68696 4.06416 3.88015
# Velocity P-wave (km/s) = 6.13052 6.71687 6.43038
#
# Compressibility (1/GPa) = 0.02228288
#
# Stress axis : x y z
#
# Youngs Moduli (GPa) = 132.21825 57.86693 62.48585
#
# Poissons Ratio (x) = 0.06270 0.17778
# Poissons Ratio (y) = 0.14327 0.33454
# Poissons Ratio (z) = 0.37618 0.30981
#
# Static dielectric constant tensor:
#      x y z
#    x 4.953870 0.533230 0.018600 
#    y 0.533230 4.410340 -0.166580 
#    z 0.018600 -0.166580 4.367770 
# 
# 
# High freq. dielectric constant tensor:
#      x y z
#    x 1.929110 0.001820 -0.002410 
#    y 0.001820 1.909390 -0.010890 
#    z -0.002410 -0.010890 1.920140 
# 
# From -- ./inp_files/208323.got.cif
#   From: 2010.06.25/outbox.cif.g09.slc.cpg/sg2_105_cif.got.tgz:208323.got - 2010.06.27 13:26:56.
