data_PCOD8033840
_publ_section_title
;
Structure prediction by ZEFSAII (Michael W. Deem and Ramdas Pophale) SiO2 
 PCOD8033840
Probable space group: P -1
;
_chemical_formula_sum "Si O2"
_cell_formula_units_Z 14
_cell_length_a 4.759239
_cell_length_b 12.269680
_cell_length_c 14.156155
_cell_angle_alpha 56.594993
_cell_angle_beta 100.837768
_cell_angle_gamma 68.633326
_cell_volume 556.595219
_symmetry_space_group_name_H-M "P -1"
_symmetry_group_IT_number 2
_symmetry_cell_setting 'triclinic'
loop_
_space_group_symop_operation_xyz
x,y,z
-x,-y,-z
loop_
_atom_site_type_symbol
_atom_site_label
_atom_site_fract_x
_atom_site_fract_y
_atom_site_fract_z
Si Si1 0.957830 0.616334 0.360152
Si Si2 0.464365 0.355695 0.073128
Si Si3 0.272557 0.062312 0.710255
Si Si4 0.737210 0.252249 0.337307
Si Si5 0.288457 0.951346 0.418172
Si Si6 0.563022 0.424171 0.746464
Si Si7 0.953098 0.754912 0.970796
O O1 0.888456 0.776416 0.320393
O O2 0.641748 0.653698 0.255481
O O3 0.000000 0.500000 0.500000
O O4 0.308239 0.534372 0.359148
O O5 0.503702 0.289237 0.212321
O O6 0.105099 0.383271 0.999301
O O7 0.787843 0.229598 0.086464
O O8 0.500000 0.500000 0.000000
O O9 0.981794 0.029411 0.687558
O O10 0.577713 0.921359 0.860813
O O11 0.588803 0.199413 0.435820
O O12 0.701012 0.412503 0.290423
O O13 0.131931 0.108450 0.400253
O O14 0.615136 0.921436 0.395515
O O15 0.895438 0.291330 0.892032
#
# Coordination Sequence:
#
# PCOD8033840 Si02
#       7
#     2   2   2   2   2   2   2
#     4  12  27  48  71  96 133 181 227 278 334 394
#     4  12  24  42  66  99 143 181 216 272 337 408
#     4  12  24  47  69  95 139 178 227 276 334 398
#     4  11  24  42  69 102 139 172 226 275 340 402
#     4  11  25  41  69 103 134 178 220 280 336 399
#     4  12  27  43  70 101 134 174 228 278 332 401
#     4  12  25  43  67 102 133 177 226 273 342 393
#
# _framework density 25.152929
#
# number of rings (size 3 to 8) (size 9 to 14) (size 15 to 20)
#    0.000    0.286    4.286    4.286    0.000    5.714 
#    0.000    0.000    0.000    0.000    0.000    0.000 
#    0.000    0.000    0.000    0.000    0.000    0.000 
#
# Total GULP energy -173624.207903 kJ/mol
# GULP energy per Si atom -12401.729136 kJ/mol
# Density = 2.509568 g / cm^3
# Si number density = 25.152929 Si / 1000 Ang^3
#
#
#
# Elastic Constant Matrix: (Units=GPa)
#
#
# Indices 1 2 3 4 5 6 
#
# 1 79.7721 11.7707 -8.5722 15.6292 -11.7963 6.4950
# 2 11.7707 117.9330 28.5171 14.3071 -7.4569 0.3527
# 3 -8.5722 28.5171 99.3655 -7.0829 -6.7218 -3.9360
# 4 15.6292 14.3071 -7.0829 29.5525 3.6485 0.0935
# 5 -11.7963 -7.4569 -6.7218 3.6485 25.4128 1.7697
# 6 6.4950 0.3527 -3.9360 0.0935 1.7697 32.7051
#
#
#
# Elastic Compliance Matrix: (Units=1/GPa)
#
#
# Indices 1 2 3 4 5 6 
#
# 1 0.016204 -0.000193 0.001284 -0.009316 0.009389 -0.003543
# 2 -0.000193 0.010180 -0.003186 -0.005952 0.002951 -0.000598
# 3 0.001284 -0.003186 0.011515 0.003354 0.002153 0.001039
# 4 -0.009316 -0.005952 0.003354 0.043884 -0.011681 0.002825
# 5 0.009389 0.002951 0.002153 -0.011681 0.047110 -0.004153
# 6 -0.003543 -0.000598 0.001039 0.002825 -0.004153 0.031628
#
#
# Mechanical properties :
#
#
# Convention : Reuss Voigt Hill
#
# Bulk Modulus (GPa) = 29.66681 40.05575 34.86128
# Shear Modulus (GPa) = 28.41744 35.22441 31.82093
#
# Velocity S-wave (km/s) = 3.36488 3.74627 3.56068
# Velocity P-wave (km/s) = 5.18813 5.88830 5.54927
#
# Compressibility (1/GPa) = 0.03370771
#
# Stress axis : x y z
#
# Youngs Moduli (GPa) = 61.71154 98.23531 86.84306
#
# Poissons Ratio (x) = 0.01899 -0.11152
# Poissons Ratio (y) = 0.01193 0.27672
# Poissons Ratio (z) = -0.07925 0.31303
#
# Static dielectric constant tensor:
#      x y z
#    x 4.756810 0.060740 -0.077510 
#    y 0.060740 4.641870 0.048330 
#    z -0.077510 0.048330 4.598870 
# 
# 
# High freq. dielectric constant tensor:
#      x y z
#    x 2.007670 0.008690 -0.000440 
#    y 0.008690 1.998420 0.002090 
#    z -0.000440 0.002090 2.015200 
# 
# From -- ./inp_files/481047.got.cif
#   From: 2010.06.25/outbox.cif.g09.slc.cpg/sg2_241_cif.got.tgz:481047.got - 2010.06.27 13:26:56.
