data_PCOD8033461
_publ_section_title
;
Structure prediction by ZEFSAII (Michael W. Deem and Ramdas Pophale) SiO2 
 PCOD8033461
Probable space group: P -1
;
_chemical_formula_sum "Si O2"
_cell_formula_units_Z 16
_cell_length_a 8.944935
_cell_length_b 11.399124
_cell_length_c 11.616943
_cell_angle_alpha 90.221494
_cell_angle_beta 53.306164
_cell_angle_gamma 69.647830
_cell_volume 854.468063
_symmetry_space_group_name_H-M "P -1"
_symmetry_group_IT_number 2
_symmetry_cell_setting 'triclinic'
loop_
_space_group_symop_operation_xyz
x,y,z
-x,-y,-z
loop_
_atom_site_type_symbol
_atom_site_label
_atom_site_fract_x
_atom_site_fract_y
_atom_site_fract_z
Si Si1 0.910428 0.294765 0.199374
Si Si2 0.364448 0.174139 0.949319
Si Si3 0.430282 0.120652 0.178944
Si Si4 0.020481 0.103740 0.351821
Si Si5 0.158934 0.497153 0.582239
Si Si6 0.177649 0.574673 0.330715
Si Si7 0.756930 0.181407 0.692022
Si Si8 0.491879 0.669373 0.727872
O O1 0.827112 0.428178 0.310716
O O2 0.742962 0.308417 0.180084
O O3 0.947730 0.171208 0.262392
O O4 0.123935 0.270447 0.036561
O O5 0.512047 0.219172 0.807885
O O6 0.400749 0.028930 0.897999
O O7 0.415543 0.181476 0.059821
O O8 0.205238 0.132780 0.319233
O O9 0.504478 0.196795 0.235594
O O10 0.826643 0.154629 0.527166
O O11 0.111654 0.947008 0.292211
O O12 0.089843 0.596438 0.503799
O O13 0.383341 0.377458 0.451436
O O14 0.986200 0.443471 0.678270
O O15 0.208262 0.698332 0.273203
O O16 0.396298 0.443584 0.228005
#
# Coordination Sequence:
#
# PCOD8033461 Si02
#       8
#     2   2   2   2   2   2   2   2
#     4  11  19  34  51  81 103 136 170 205 258 306
#     4   9  20  31  53  73 109 132 167 214 252 303
#     4   9  17  36  52  79  95 136 181 209 245 293
#     4   9  17  30  57  74 102 129 172 219 246 295
#     4   9  18  32  54  80  96 127 174 223 239 287
#     4   9  17  31  54  77  95 127 170 218 245 289
#     4  10  17  31  52  80  99 133 170 212 258 293
#     4  10  19  30  57  76 102 132 176 214 242 299
#
# _framework density 18.725100000000001
#
# number of rings (size 3 to 8) (size 9 to 14) (size 15 to 20)
#    0.750    1.750    1.250    3.375    0.000    0.500 
#    0.000    3.125    0.000   18.000    0.000    0.000 
#    0.000    0.000    0.000    0.000    0.000    0.000 
#
# Total GULP energy -198337.691834 kJ/mol
# GULP energy per Si atom -12396.105740 kJ/mol
# Density = 1.868248 g / cm^3
# Si number density = 18.725100 Si / 1000 Ang^3
#
#
#
# Elastic Constant Matrix: (Units=GPa)
#
#
# Indices 1 2 3 4 5 6 
#
# 1 104.1327 37.7673 40.1114 11.2574 -18.8532 23.7339
# 2 37.7673 79.9823 25.6364 9.5166 -3.8542 29.3132
# 3 40.1114 25.6364 92.2009 8.3690 -23.7452 11.3579
# 4 11.2574 9.5166 8.3690 27.3166 5.1209 -0.2275
# 5 -18.8532 -3.8542 -23.7452 5.1209 25.6322 2.8961
# 6 23.7339 29.3132 11.3579 -0.2275 2.8961 25.6405
#
#
#
# Elastic Compliance Matrix: (Units=1/GPa)
#
#
# Indices 1 2 3 4 5 6 
#
# 1 0.018467 0.001044 -0.000035 -0.011569 0.018328 -0.020444
# 2 0.001044 0.025288 0.000105 -0.011499 0.010491 -0.031210
# 3 -0.000035 0.000105 0.018046 -0.009339 0.019748 -0.010394
# 4 -0.011569 -0.011499 -0.009339 0.054788 -0.033481 0.032260
# 5 0.018328 0.010491 0.019748 -0.033481 0.084426 -0.047539
# 6 -0.020444 -0.031210 -0.010394 0.032260 -0.047539 0.103866
#
#
# Mechanical properties :
#
#
# Convention : Reuss Voigt Hill
#
# Bulk Modulus (GPa) = 15.61824 53.70514 34.66169
# Shear Modulus (GPa) = 15.43225 27.23791 21.33508
#
# Velocity S-wave (km/s) = 2.87391 3.81809 3.37914
# Velocity P-wave (km/s) = 4.40130 6.94119 5.81169
#
# Compressibility (1/GPa) = 0.06402769
#
# Stress axis : x y z
#
# Youngs Moduli (GPa) = 54.15116 39.54375 55.41395
#
# Poissons Ratio (x) = -0.04128 0.00195
# Poissons Ratio (y) = -0.05652 -0.00580
# Poissons Ratio (z) = 0.00191 -0.00414
#
# Static dielectric constant tensor:
#      x y z
#    x 3.068270 0.170390 -0.290570 
#    y 0.170390 3.350580 0.159790 
#    z -0.290570 0.159790 3.367190 
# 
# 
# High freq. dielectric constant tensor:
#      x y z
#    x 1.696860 0.022560 -0.026400 
#    y 0.022560 1.714290 0.023730 
#    z -0.026400 0.023730 1.715740 
# 
# From -- ./inp_files/390363.got.cif
#   From: 2010.06.25/outbox.cif.g09.slc.cpg/sg2_196_cif.got.tgz:390363.got - 2010.06.27 13:26:56.
