data_PCOD8033885
_publ_section_title
;
Structure prediction by ZEFSAII (Michael W. Deem and Ramdas Pophale) SiO2 
 PCOD8033885
Probable space group: P -1
;
_chemical_formula_sum "Si O2"
_cell_formula_units_Z 14
_cell_length_a 15.804871
_cell_length_b 9.238073
_cell_length_c 10.807429
_cell_angle_alpha 75.482590
_cell_angle_beta 157.894479
_cell_angle_gamma 108.217190
_cell_volume 560.682115
_symmetry_space_group_name_H-M "P -1"
_symmetry_group_IT_number 2
_symmetry_cell_setting 'triclinic'
loop_
_space_group_symop_operation_xyz
x,y,z
-x,-y,-z
loop_
_atom_site_type_symbol
_atom_site_label
_atom_site_fract_x
_atom_site_fract_y
_atom_site_fract_z
Si Si1 0.175364 0.888876 0.737378
Si Si2 0.187699 0.298505 0.568922
Si Si3 0.010428 0.183447 0.753823
Si Si4 0.680596 0.894914 0.428059
Si Si5 0.078910 0.584240 0.228597
Si Si6 0.392925 0.423387 0.495428
Si Si7 0.431948 0.322627 0.154275
O O1 0.161142 0.820821 0.593988
O O2 0.078627 0.754760 0.734177
O O3 0.447225 0.961347 0.108469
O O4 0.000000 0.000000 0.500000
O O5 0.278997 0.172297 0.638151
O O6 0.186467 0.444565 0.452426
O O7 0.355099 0.330692 0.907053
O O8 0.035035 0.338553 0.831061
O O9 0.906229 0.031881 0.728345
O O10 0.262628 0.190229 0.033077
O O11 0.648334 0.761318 0.516915
O O12 0.309967 0.709395 0.473693
O O13 0.866445 0.540312 0.850403
O O14 0.500000 0.500000 0.500000
O O15 0.556803 0.506620 0.809687
#
# Coordination Sequence:
#
# PCOD8033885 Si02
#       7
#     2   2   2   2   2   2   2
#     4  11  24  42  71 108 148 181 235 296 367 421
#     4  11  25  43  77 113 136 190 242 299 356 423
#     4  11  26  42  72 108 145 185 235 306 351 427
#     4  12  26  46  74 105 150 188 238 294 367 424
#     4  12  25  45  75 103 148 191 242 291 361 419
#     4  12  26  50  71 104 147 197 237 294 354 434
#     4  11  25  44  72 106 144 183 245 293 351 419
#
# _framework density 24.969584999999999
#
# number of rings (size 3 to 8) (size 9 to 14) (size 15 to 20)
#    0.000    0.571    4.286    3.000    6.000    1.714 
#    0.000    0.714    0.000    0.000    0.000    0.000 
#    0.000    0.000    0.000    0.000    0.000    0.000 
#
# Total GULP energy -173459.718376 kJ/mol
# GULP energy per Si atom -12389.979884 kJ/mol
# Density = 2.491275 g / cm^3
# Si number density = 24.969585 Si / 1000 Ang^3
#
#
#
# Elastic Constant Matrix: (Units=GPa)
#
#
# Indices 1 2 3 4 5 6 
#
# 1 98.0758 34.1866 42.6489 4.0011 13.4230 21.5680
# 2 34.1866 95.6321 42.2584 8.9887 4.6667 14.7952
# 3 42.6489 42.2584 138.9127 20.2894 24.4580 14.5666
# 4 4.0011 8.9887 20.2894 38.8472 0.3806 8.9431
# 5 13.4230 4.6667 24.4580 0.3806 44.4708 10.3863
# 6 21.5680 14.7952 14.5666 8.9431 10.3863 46.6535
#
#
#
# Elastic Compliance Matrix: (Units=1/GPa)
#
#
# Indices 1 2 3 4 5 6 
#
# 1 0.013557 -0.003011 -0.002833 0.001831 -0.001179 -0.004517
# 2 -0.003011 0.013193 -0.003073 -0.000675 0.001706 -0.002083
# 3 -0.002833 -0.003073 0.010408 -0.004611 -0.004734 0.000972
# 4 0.001831 -0.000675 -0.004611 0.029355 0.003089 -0.005508
# 5 -0.001179 0.001706 -0.004734 0.003089 0.026406 -0.004989
# 6 -0.004517 -0.002083 0.000972 -0.005508 -0.004989 0.026046
#
#
# Mechanical properties :
#
#
# Convention : Reuss Voigt Hill
#
# Bulk Modulus (GPa) = 51.74086 63.42317 57.58202
# Shear Modulus (GPa) = 34.90627 40.22941 37.56784
#
# Velocity S-wave (km/s) = 3.74298 4.01825 3.88305
# Velocity P-wave (km/s) = 6.28063 6.85447 6.57382
#
# Compressibility (1/GPa) = 0.01932708
#
# Stress axis : x y z
#
# Youngs Moduli (GPa) = 73.76027 75.79692 96.07737
#
# Poissons Ratio (x) = 0.22819 0.27217
# Poissons Ratio (y) = 0.22206 0.29520
# Poissons Ratio (z) = 0.20895 0.23289
#
# Static dielectric constant tensor:
#      x y z
#    x 4.987250 0.201330 0.319260 
#    y 0.201330 4.634610 0.519260 
#    z 0.319260 0.519260 4.620660 
# 
# 
# High freq. dielectric constant tensor:
#      x y z
#    x 2.031320 0.001310 0.022700 
#    y 0.001310 1.981070 0.032940 
#    z 0.022700 0.032940 1.984160 
# 
# From -- ./inp_files/462075.got.cif
#   From: 2010.06.25/outbox.cif.g09.slc.cpg/sg2_232_cif.got.tgz:462075.got - 2010.06.27 13:26:56.
