data_PCOD8033747
_publ_section_title
;
Structure prediction by ZEFSAII (Michael W. Deem and Ramdas Pophale) SiO2 
 PCOD8033747
Probable space group: P -1
;
_chemical_formula_sum "Si O2"
_cell_formula_units_Z 12
_cell_length_a 10.944900
_cell_length_b 8.785510
_cell_length_c 12.851033
_cell_angle_alpha 32.838327
_cell_angle_beta 125.391703
_cell_angle_gamma 119.308633
_cell_volume 546.252885
_symmetry_space_group_name_H-M "P -1"
_symmetry_group_IT_number 2
_symmetry_cell_setting 'triclinic'
loop_
_space_group_symop_operation_xyz
x,y,z
-x,-y,-z
loop_
_atom_site_type_symbol
_atom_site_label
_atom_site_fract_x
_atom_site_fract_y
_atom_site_fract_z
Si Si1 0.668016 0.174866 0.743483
Si Si2 0.835644 0.743006 0.745816
Si Si3 0.327896 0.185467 0.567119
Si Si4 0.861167 0.337076 0.168093
Si Si5 0.838371 0.242666 0.600087
Si Si6 0.858992 0.665602 0.194271
O O1 0.496558 0.101262 0.728956
O O2 0.709536 0.496368 0.603790
O O3 0.692725 0.140523 0.650991
O O4 0.775288 0.963550 0.980385
O O5 0.690299 0.833964 0.556104
O O6 0.961633 0.669885 0.763765
O O7 0.901458 0.998375 0.698707
O O8 0.787926 0.493104 0.943283
O O9 0.212660 0.971620 0.688765
O O10 0.831593 0.498839 0.168853
O O11 0.793412 0.503588 0.355623
O O12 0.963956 0.302206 0.716094
#
# Coordination Sequence:
#
# PCOD8033747 Si02
#       6
#     2   2   2   2   2   2
#     4  11  26  45  65  94 136 175 212 264 325 390
#     4  11  24  41  70 100 127 168 219 274 317 380
#     4  11  26  45  65  94 136 175 212 264 325 390
#     4  11  24  43  68  98 129 172 216 268 326 377
#     4  11  24  41  70 100 127 168 219 274 317 380
#     4  11  24  43  68  98 129 172 216 268 326 377
#
# _framework density 21.967848
#
# number of rings (size 3 to 8) (size 9 to 14) (size 15 to 20)
#    0.000    1.000    3.333    2.000    9.333    2.667 
#    0.000    3.333    0.000    0.000    0.000    0.000 
#    0.000    0.000    0.000    0.000    0.000    0.000 
#
# Total GULP energy -148767.684839 kJ/mol
# GULP energy per Si atom -12397.307070 kJ/mol
# Density = 2.191785 g / cm^3
# Si number density = 21.967848 Si / 1000 Ang^3
#
#
#
# Elastic Constant Matrix: (Units=GPa)
#
#
# Indices 1 2 3 4 5 6 
#
# 1 65.3233 30.2603 73.2088 4.3913 0.2910 -9.0943
# 2 30.2603 91.5589 53.5468 -7.4151 -3.2185 4.3873
# 3 73.2088 53.5468 177.7085 -18.6026 -26.7817 8.3004
# 4 4.3913 -7.4151 -18.6026 31.1608 -8.3781 0.1075
# 5 0.2910 -3.2185 -26.7817 -8.3781 18.8198 -4.4475
# 6 -9.0943 4.3873 8.3004 0.1075 -4.4475 20.8881
#
#
#
# Elastic Compliance Matrix: (Units=1/GPa)
#
#
# Indices 1 2 3 4 5 6 
#
# 1 0.498082 -0.027087 -0.360617 -0.476938 -0.685281 0.222393
# 2 -0.027087 0.015136 0.014549 0.024566 0.031287 -0.014219
# 3 -0.360617 0.014549 0.272435 0.356356 0.516545 -0.160174
# 4 -0.476938 0.024566 0.356356 0.505252 0.694177 -0.209216
# 5 -0.685281 0.031287 0.516545 0.694177 1.044324 -0.291412
# 6 0.222393 -0.014219 -0.160174 -0.209216 -0.291412 0.150366
#
#
# Mechanical properties :
#
#
# Convention : Reuss Voigt Hill
#
# Bulk Modulus (GPa) = 25.41870 72.06916 48.74393
# Shear Modulus (GPa) = 1.54082 26.01206 13.77644
#
# Velocity S-wave (km/s) = 0.83840 3.44480 2.50695
# Velocity P-wave (km/s) = 3.54023 6.97855 5.53323
#
# Compressibility (1/GPa) = 0.03934112
#
# Stress axis : x y z
#
# Youngs Moduli (GPa) = 2.00770 66.06651 3.67060
#
# Poissons Ratio (x) = 1.78955 1.32368
# Poissons Ratio (y) = 0.05438 -0.05340
# Poissons Ratio (z) = 0.72401 -0.96119
#
# Static dielectric constant tensor:
#      x y z
#    x 3.732450 -0.090220 -0.207240 
#    y -0.090220 3.904110 -0.078170 
#    z -0.207240 -0.078170 4.211110 
# 
# 
# High freq. dielectric constant tensor:
#      x y z
#    x 1.847850 -0.009510 -0.015890 
#    y -0.009510 1.863520 -0.007090 
#    z -0.015890 -0.007090 1.880650 
# 
# From -- ./inp_files/418786.got.cif
#   From: 2010.06.25/outbox.cif.g09.slc.cpg/sg2_210_cif.got.tgz:418786.got - 2010.06.27 13:26:56.
