data_PCOD8033463
_publ_section_title
;
Structure prediction by ZEFSAII (Michael W. Deem and Ramdas Pophale) SiO2 
 PCOD8033463
Probable space group: P -1
;
_chemical_formula_sum "Si O2"
_cell_formula_units_Z 16
_cell_length_a 12.115787
_cell_length_b 17.703210
_cell_length_c 8.475918
_cell_angle_alpha 140.956758
_cell_angle_beta 81.178676
_cell_angle_gamma 127.565702
_cell_volume 696.544017
_symmetry_space_group_name_H-M "P -1"
_symmetry_group_IT_number 2
_symmetry_cell_setting 'triclinic'
loop_
_space_group_symop_operation_xyz
x,y,z
-x,-y,-z
loop_
_atom_site_type_symbol
_atom_site_label
_atom_site_fract_x
_atom_site_fract_y
_atom_site_fract_z
Si Si1 0.312388 0.592081 0.379962
Si Si2 0.035338 0.605897 0.011190
Si Si3 0.701869 0.019602 0.941205
Si Si4 0.322523 0.338447 0.877230
Si Si5 0.662145 0.992676 0.258604
Si Si6 0.719001 0.257954 0.093367
Si Si7 0.962034 0.017767 0.863227
Si Si8 0.654722 0.714290 0.885962
O O1 0.274003 0.616797 0.598806
O O2 0.507410 0.792277 0.588018
O O3 0.293454 0.434035 0.140314
O O4 0.159995 0.505685 0.154352
O O5 0.179108 0.834490 0.378165
O O6 0.114733 0.596220 0.830691
O O7 0.000000 0.500000 0.000000
O O8 0.864000 0.062514 0.958094
O O9 0.733418 0.151516 0.023789
O O10 0.705041 0.077947 0.211100
O O11 0.155140 0.171379 0.526790
O O12 0.500000 0.500000 0.000000
O O13 0.360275 0.272657 0.900639
O O14 0.475634 0.897250 0.204011
O O15 0.648770 0.837132 0.998627
O O16 0.000000 0.000000 0.000000
O O17 0.157154 0.196582 0.032976
O O18 0.500000 0.500000 0.500000
#
# Coordination Sequence:
#
# PCOD8033463 Si02
#       8
#     2   2   2   2   2   2   2   2
#     4  11  24  46  70 103 146 188 244 299 365 446
#     4  12  26  44  70 111 146 186 246 301 367 442
#     4  11  23  46  73 102 145 194 239 302 371 443
#     4  12  26  46  74 108 148 197 247 304 372 446
#     4  11  24  47  72 105 149 188 242 306 368 443
#     4  11  25  45  74 102 145 198 239 295 373 438
#     4  12  25  47  74 106 148 194 252 310 377 438
#     4  12  26  47  72 110 149 197 252 308 375 445
#
# _framework density 22.970552000000001
#
# number of rings (size 3 to 8) (size 9 to 14) (size 15 to 20)
#    0.000    0.500    2.500    7.125    3.500    1.000 
#    4.500    0.000    0.000    0.000    0.000    0.000 
#    0.000    0.000    0.000    0.000    0.000    0.000 
#
# Total GULP energy -198412.694386 kJ/mol
# GULP energy per Si atom -12400.793399 kJ/mol
# Density = 2.291827 g / cm^3
# Si number density = 22.970552 Si / 1000 Ang^3
#
#
#
# Elastic Constant Matrix: (Units=GPa)
#
#
# Indices 1 2 3 4 5 6 
#
# 1 137.0070 42.6085 38.6079 6.4900 14.2127 12.9577
# 2 42.6085 134.4186 24.3574 0.7367 7.9709 -6.3177
# 3 38.6079 24.3574 136.6536 -10.2488 15.6310 -2.1674
# 4 6.4900 0.7367 -10.2488 29.9149 4.5548 10.7239
# 5 14.2127 7.9709 15.6310 4.5548 51.0558 0.7765
# 6 12.9577 -6.3177 -2.1674 10.7239 0.7765 31.3434
#
#
#
# Elastic Compliance Matrix: (Units=1/GPa)
#
#
# Indices 1 2 3 4 5 6 
#
# 1 0.009316 -0.002675 -0.002139 -0.000985 -0.001370 -0.004167
# 2 -0.002675 0.008597 -0.000762 -0.000962 -0.000326 0.003123
# 3 -0.002139 -0.000762 0.008597 0.003734 -0.002252 0.000103
# 4 -0.000985 -0.000962 0.003734 0.040310 -0.004114 -0.013218
# 5 -0.001370 -0.000326 -0.002252 -0.004114 0.021056 0.001231
# 6 -0.004167 0.003123 0.000103 -0.013218 0.001231 0.038756
#
#
# Mechanical properties :
#
#
# Convention : Reuss Voigt Hill
#
# Bulk Modulus (GPa) = 65.10690 68.80298 66.95494
# Shear Modulus (GPa) = 34.98872 42.62985 38.80928
#
# Velocity S-wave (km/s) = 3.90705 4.31263 4.11484
# Velocity P-wave (km/s) = 6.98273 7.40379 7.19634
#
# Compressibility (1/GPa) = 0.01535936
#
# Stress axis : x y z
#
# Youngs Moduli (GPa) = 107.33833 116.32247 116.31790
#
# Poissons Ratio (x) = 0.31114 0.24876
# Poissons Ratio (y) = 0.28711 0.08863
# Poissons Ratio (z) = 0.22956 0.08863
#
# Static dielectric constant tensor:
#      x y z
#    x 5.500550 -0.244320 0.317540 
#    y -0.244320 4.276880 -0.020280 
#    z 0.317540 -0.020280 4.351720 
# 
# 
# High freq. dielectric constant tensor:
#      x y z
#    x 1.919090 0.002660 0.015290 
#    y 0.002660 1.911700 -0.002250 
#    z 0.015290 -0.002250 1.917330 
# 
# From -- ./inp_files/271402.got.cif
#   From: 2010.06.25/outbox.cif.g09.slc.cpg/sg2_136_cif.got.tgz:271402.got - 2010.06.27 13:26:56.
