data_PCOD8033188
_publ_section_title
;
Structure prediction by ZEFSAII (Michael W. Deem and Ramdas Pophale) SiO2 
 PCOD8033188
Probable space group: P -1
;
_chemical_formula_sum "Si O2"
_cell_formula_units_Z 16
_cell_length_a 26.151364
_cell_length_b 9.194078
_cell_length_c 9.048757
_cell_angle_alpha 77.285433
_cell_angle_beta 40.166037
_cell_angle_gamma 46.317097
_cell_volume 762.716334
_symmetry_space_group_name_H-M "P -1"
_symmetry_group_IT_number 2
_symmetry_cell_setting 'triclinic'
loop_
_space_group_symop_operation_xyz
x,y,z
-x,-y,-z
loop_
_atom_site_type_symbol
_atom_site_label
_atom_site_fract_x
_atom_site_fract_y
_atom_site_fract_z
Si Si1 0.630699 0.231907 0.680621
Si Si2 0.145208 0.179474 0.275625
Si Si3 0.172340 0.622440 0.722118
Si Si4 0.330602 0.418546 0.714524
Si Si5 0.136239 0.979645 0.604671
Si Si6 0.348888 0.703670 0.712862
Si Si7 0.656144 0.875565 0.044726
Si Si8 0.638179 0.875583 0.755945
O O1 0.635217 0.292445 0.495483
O O2 0.776595 0.039084 0.485863
O O3 0.606401 0.096076 0.748870
O O4 0.500000 0.500000 0.000000
O O5 0.115118 0.081169 0.465490
O O6 0.000000 0.500000 0.500000
O O7 0.259452 0.104446 0.120104
O O8 0.219190 0.003336 0.001231
O O9 0.220643 0.601143 0.782023
O O10 0.247833 0.354456 0.563830
O O11 0.208351 0.701698 0.509255
O O12 0.010434 0.824000 0.033235
O O13 0.311519 0.586159 0.832959
O O14 0.295295 0.322340 0.900302
O O15 0.489352 0.170460 0.354901
O O16 0.500000 0.500000 0.500000
O O17 0.693062 0.759069 0.826378
O O18 0.500000 0.000000 0.000000
#
# Coordination Sequence:
#
# PCOD8033188 Si02
#       8
#     2   2   2   2   2   2   2   2
#     4  12  25  45  73 103 142 180 240 295 342 419
#     4  12  27  47  69 103 145 185 234 291 355 424
#     4  11  25  45  70  99 138 182 233 291 355 416
#     4  11  23  45  68  99 142 174 234 289 351 416
#     4  11  25  48  68  94 143 184 227 296 348 417
#     4  12  26  43  74 104 135 189 235 282 354 414
#     4  11  24  43  67 101 141 181 225 295 346 419
#     4  12  25  40  71 103 133 179 229 284 356 409
#
# _framework density 20.977651999999999
#
# number of rings (size 3 to 8) (size 9 to 14) (size 15 to 20)
#    0.000    0.500    5.000    3.000    7.000    1.500 
#    0.000    1.250    0.000    0.000    0.000    0.000 
#    0.000    0.000    0.000    0.000    0.000    0.000 
#
# Total GULP energy -198416.624570 kJ/mol
# GULP energy per Si atom -12401.039036 kJ/mol
# Density = 2.092991 g / cm^3
# Si number density = 20.977652 Si / 1000 Ang^3
#
#
#
# Elastic Constant Matrix: (Units=GPa)
#
#
# Indices 1 2 3 4 5 6 
#
# 1 106.3933 28.3906 30.3785 6.3894 2.8811 14.6339
# 2 28.3906 116.9493 30.3691 -7.0789 0.8903 10.5702
# 3 30.3785 30.3691 72.6410 0.6055 0.1552 10.3312
# 4 6.3894 -7.0789 0.6055 39.8803 3.7193 3.3692
# 5 2.8811 0.8903 0.1552 3.7193 40.4428 -2.1756
# 6 14.6339 10.5702 10.3312 3.3692 -2.1756 46.6045
#
#
#
# Elastic Compliance Matrix: (Units=1/GPa)
#
#
# Indices 1 2 3 4 5 6 
#
# 1 0.011346 -0.001693 -0.003699 -0.001805 -0.000712 -0.002261
# 2 -0.001693 0.010079 -0.003354 0.002245 -0.000359 -0.001190
# 3 -0.003699 -0.003354 0.016975 -0.000124 0.000185 -0.001823
# 4 -0.001805 0.002245 -0.000124 0.026153 -0.002429 -0.001919
# 5 -0.000712 -0.000359 0.000185 -0.002429 0.025094 0.001611
# 6 -0.002261 -0.001190 -0.001823 -0.001919 0.001611 0.023055
#
#
# Mechanical properties :
#
#
# Convention : Reuss Voigt Hill
#
# Bulk Modulus (GPa) = 47.82958 52.69556 50.26257
# Shear Modulus (GPa) = 36.45254 39.17522 37.81388
#
# Velocity S-wave (km/s) = 4.17308 4.32612 4.25029
# Velocity P-wave (km/s) = 6.78743 7.08012 6.93532
#
# Compressibility (1/GPa) = 0.02090756
#
# Stress axis : x y z
#
# Youngs Moduli (GPa) = 88.13883 99.21634 58.90859
#
# Poissons Ratio (x) = 0.16800 0.21789
# Poissons Ratio (y) = 0.14924 0.19760
# Poissons Ratio (z) = 0.32600 0.33281
#
# Static dielectric constant tensor:
#      x y z
#    x 3.864670 -0.181710 -0.289520 
#    y -0.181710 2.130850 -1.914760 
#    z -0.289520 -1.914760 2.231300 
# 
# 
# High freq. dielectric constant tensor:
#      x y z
#    x 1.830300 0.004860 -0.008670 
#    y 0.004860 1.837280 -0.008190 
#    z -0.008670 -0.008190 1.821410 
# 
# From -- ./inp_files/217113.got.cif
#   From: 2010.06.25/outbox.cif.g09.slc.cpg/sg2_109_cif.got.tgz:217113.got - 2010.06.27 13:26:56.
