data_PCOD8033611
_publ_section_title
;
Structure prediction by ZEFSAII (Michael W. Deem and Ramdas Pophale) SiO2 
 PCOD8033611
Probable space group: P -1
;
_chemical_formula_sum "Si O2"
_cell_formula_units_Z 16
_cell_length_a 5.524377
_cell_length_b 8.883057
_cell_length_c 18.388873
_cell_angle_alpha 70.039985
_cell_angle_beta 119.887909
_cell_angle_gamma 116.328933
_cell_volume 692.761194
_symmetry_space_group_name_H-M "P -1"
_symmetry_group_IT_number 2
_symmetry_cell_setting 'triclinic'
loop_
_space_group_symop_operation_xyz
x,y,z
-x,-y,-z
loop_
_atom_site_type_symbol
_atom_site_label
_atom_site_fract_x
_atom_site_fract_y
_atom_site_fract_z
Si Si1 0.787829 0.431610 0.679804
Si Si2 0.202599 0.356801 0.160422
Si Si3 0.207735 0.722831 0.149928
Si Si4 0.287524 0.754231 0.701480
Si Si5 0.794187 0.097263 0.485503
Si Si6 0.705836 0.686922 0.978649
Si Si7 0.638479 0.081574 0.169598
Si Si8 0.902786 0.619683 0.412953
O O1 0.850316 0.304088 0.768616
O O2 0.449774 0.426759 0.636624
O O3 0.955274 0.630366 0.690166
O O4 0.913456 0.377752 0.633651
O O5 0.190311 0.541719 0.145024
O O6 0.523453 0.369189 0.235405
O O7 0.137398 0.330061 0.069843
O O8 0.982856 0.183633 0.191888
O O9 0.516234 0.883102 0.159434
O O10 0.945384 0.770348 0.063732
O O11 0.302429 0.806007 0.610902
O O12 0.402183 0.910837 0.749736
O O13 0.995475 0.200524 0.563022
O O14 0.500000 0.000000 0.500000
O O15 0.000000 0.000000 0.500000
O O16 0.524945 0.814231 0.918969
O O17 0.500000 0.500000 0.000000
O O18 0.000000 0.500000 0.500000
#
# Coordination Sequence:
#
# PCOD8033611 Si02
#       8
#     2   2   2   2   2   2   2   2
#     4  12  26  48  77 109 146 200 253 314 381 449
#     4  11  24  49  73 106 145 201 247 312 381 454
#     4  12  25  44  76 109 148 191 258 308 381 453
#     4  11  26  49  72 100 156 194 245 312 387 447
#     4  12  30  47  76 111 154 199 251 320 385 447
#     4  11  23  48  72 104 149 199 245 313 382 455
#     4  11  26  45  72 107 150 192 250 312 376 453
#     4  12  27  48  77 108 144 197 259 305 375 458
#
# _framework density 23.095984000000001
#
# number of rings (size 3 to 8) (size 9 to 14) (size 15 to 20)
#    0.000    0.500    3.750    3.375    7.000    0.500 
#   11.250    0.000    0.000    0.000    0.000    0.000 
#    0.000    0.000    0.000    0.000    0.000    0.000 
#
# Total GULP energy -198216.094187 kJ/mol
# GULP energy per Si atom -12388.505887 kJ/mol
# Density = 2.304342 g / cm^3
# Si number density = 23.095984 Si / 1000 Ang^3
#
#
#
# Elastic Constant Matrix: (Units=GPa)
#
#
# Indices 1 2 3 4 5 6 
#
# 1 131.5635 34.2789 52.7666 3.2802 -6.5696 5.5546
# 2 34.2789 130.1439 27.8874 6.7495 -5.9216 24.0723
# 3 52.7666 27.8874 162.9112 0.5320 -4.9471 6.5418
# 4 3.2802 6.7495 0.5320 33.5491 11.2123 -2.6097
# 5 -6.5696 -5.9216 -4.9471 11.2123 28.1545 1.2652
# 6 5.5546 24.0723 6.5418 -2.6097 1.2652 34.4335
#
#
#
# Elastic Compliance Matrix: (Units=1/GPa)
#
#
# Indices 1 2 3 4 5 6 
#
# 1 0.009223 -0.001744 -0.002636 -0.001088 0.001752 0.000086
# 2 -0.001744 0.009898 -0.000745 -0.003418 0.003214 -0.006874
# 3 -0.002636 -0.000745 0.007150 0.000107 0.000461 -0.000422
# 4 -0.001088 -0.003418 0.000107 0.036293 -0.015671 0.005871
# 5 0.001752 0.003214 0.000461 -0.015671 0.043167 -0.005391
# 6 0.000086 -0.006874 -0.000422 0.005871 -0.005391 0.034556
#
#
# Mechanical properties :
#
#
# Convention : Reuss Voigt Hill
#
# Bulk Modulus (GPa) = 62.41326 72.72050 67.56688
# Shear Modulus (GPa) = 32.07652 39.87313 35.97482
#
# Velocity S-wave (km/s) = 3.73075 4.15952 3.95095
# Velocity P-wave (km/s) = 6.75575 7.39076 7.08038
#
# Compressibility (1/GPa) = 0.01602224
#
# Stress axis : x y z
#
# Youngs Moduli (GPa) = 108.41996 101.03392 139.86043
#
# Poissons Ratio (x) = 0.17624 0.36861
# Poissons Ratio (y) = 0.18912 0.10413
# Poissons Ratio (z) = 0.28574 0.07522
#
# Static dielectric constant tensor:
#      x y z
#    x 4.147580 0.123130 -0.020060 
#    y 0.123130 4.264730 -0.081950 
#    z -0.020060 -0.081950 4.630110 
# 
# 
# High freq. dielectric constant tensor:
#      x y z
#    x 1.909540 0.010070 -0.001710 
#    y 0.010070 1.915230 0.008100 
#    z -0.001710 0.008100 1.940480 
# 
# From -- ./inp_files/49183.got.cif
#   From: 2010.06.25/outbox.cif.g09.slc.cpg/sg2_25_cif.got.tgz:49183.got - 2010.06.27 13:26:56.
