data_PCOD8033419
_publ_section_title
;
Structure prediction by ZEFSAII (Michael W. Deem and Ramdas Pophale) SiO2 
 PCOD8033419
Probable space group: P -1
;
_chemical_formula_sum "Si O2"
_cell_formula_units_Z 16
_cell_length_a 18.492053
_cell_length_b 9.452646
_cell_length_c 17.777989
_cell_angle_alpha 39.574569
_cell_angle_beta 28.697148
_cell_angle_gamma 30.197055
_cell_volume 749.505280
_symmetry_space_group_name_H-M "P -1"
_symmetry_group_IT_number 2
_symmetry_cell_setting 'triclinic'
loop_
_space_group_symop_operation_xyz
x,y,z
-x,-y,-z
loop_
_atom_site_type_symbol
_atom_site_label
_atom_site_fract_x
_atom_site_fract_y
_atom_site_fract_z
Si Si1 0.308750 0.834032 0.305509
Si Si2 0.943878 0.860901 0.335502
Si Si3 0.949316 0.743267 0.891271
Si Si4 0.431480 0.777008 0.906091
Si Si5 0.745192 0.778262 0.676506
Si Si6 0.698083 0.289222 0.107919
Si Si7 0.956420 0.297298 0.344262
Si Si8 0.906192 0.814661 0.230904
O O1 0.515127 0.589233 0.183099
O O2 0.218394 0.716882 0.485052
O O3 0.335615 0.026079 0.255627
O O4 0.159652 0.008451 0.301846
O O5 0.860792 0.856138 0.492172
O O6 0.818339 0.948337 0.338744
O O7 0.133710 0.544269 0.274983
O O8 0.974533 0.093274 0.215188
O O9 0.030125 0.619818 0.786068
O O10 0.000000 0.500000 0.000000
O O11 0.722945 0.968037 0.003869
O O12 0.592421 0.820739 0.739296
O O13 0.356048 0.786805 0.888331
O O14 0.500000 0.500000 0.000000
O O15 0.758113 0.044366 0.211754
O O16 0.877775 0.289374 0.933705
O O17 0.908078 0.547866 0.337878
#
# Coordination Sequence:
#
# PCOD8033419 Si02
#       8
#     2   2   2   2   2   2   2   2
#     4  11  25  44  67 106 133 173 234 289 338 398
#     4  11  23  46  70  97 136 186 225 278 343 407
#     4  12  25  44  67  98 139 179 225 278 338 411
#     4  12  24  44  69 100 131 179 231 279 337 402
#     4  11  24  43  72 101 136 173 236 286 335 401
#     4  11  26  43  68  98 137 174 228 278 342 409
#     4  11  25  43  69  99 139 176 225 286 348 398
#     4  11  24  46  67  95 137 184 218 273 348 413
#
# _framework density 21.347415000000002
#
# number of rings (size 3 to 8) (size 9 to 14) (size 15 to 20)
#    0.000    0.750    5.000    1.500    5.250    1.000 
#    2.250    1.250    0.000    0.000    0.000    0.000 
#    0.000    0.000    0.000    0.000    0.000    0.000 
#
# Total GULP energy -198351.206993 kJ/mol
# GULP energy per Si atom -12396.950437 kJ/mol
# Density = 2.129883 g / cm^3
# Si number density = 21.347415 Si / 1000 Ang^3
#
#
#
# Elastic Constant Matrix: (Units=GPa)
#
#
# Indices 1 2 3 4 5 6 
#
# 1 118.7883 18.5335 30.7263 -6.7952 0.3704 2.0592
# 2 18.5335 81.5885 31.1887 -10.7838 -6.9800 3.0706
# 3 30.7263 31.1887 57.8490 -15.6040 0.8839 2.4996
# 4 -6.7952 -10.7838 -15.6040 38.9365 2.5305 3.2969
# 5 0.3704 -6.9800 0.8839 2.5305 40.4036 -6.6954
# 6 2.0592 3.0706 2.4996 3.2969 -6.6954 37.4913
#
#
#
# Elastic Compliance Matrix: (Units=1/GPa)
#
#
# Indices 1 2 3 4 5 6 
#
# 1 0.009772 -0.000312 -0.005130 -0.000424 -0.000027 -0.000137
# 2 -0.000312 0.015812 -0.008144 0.000905 0.002804 -0.000314
# 3 -0.005130 -0.008144 0.026658 0.007883 -0.002771 -0.002017
# 4 -0.000424 0.000905 0.007883 0.029484 -0.002457 -0.003608
# 5 -0.000027 0.002804 -0.002771 -0.002457 0.026255 0.004861
# 6 -0.000137 -0.000314 -0.002017 -0.003608 0.004861 0.028026
#
#
# Mechanical properties :
#
#
# Convention : Reuss Voigt Hill
#
# Bulk Modulus (GPa) = 39.88914 46.56920 43.22917
# Shear Modulus (GPa) = 29.14820 35.21810 32.18315
#
# Velocity S-wave (km/s) = 3.69917 4.06613 3.88698
# Velocity P-wave (km/s) = 6.08041 6.62622 6.35918
#
# Compressibility (1/GPa) = 0.02506948
#
# Stress axis : x y z
#
# Youngs Moduli (GPa) = 102.33067 63.24239 37.51195
#
# Poissons Ratio (x) = 0.01972 0.19245
# Poissons Ratio (y) = 0.03192 0.30551
# Poissons Ratio (z) = 0.52498 0.51507
#
# Static dielectric constant tensor:
#      x y z
#    x 3.988680 0.031600 0.019840 
#    y 0.031600 3.877730 -0.003340 
#    z 0.019840 -0.003340 3.862090 
# 
# 
# High freq. dielectric constant tensor:
#      x y z
#    x 1.851890 0.007830 0.005560 
#    y 0.007830 1.837110 -0.012980 
#    z 0.005560 -0.012980 1.838120 
# 
# From -- ./inp_files/207400.got.cif
#   From: 2010.06.25/outbox.cif.g09.slc.cpg/sg2_104_cif.got.tgz:207400.got - 2010.06.27 13:26:56.
