data_PCOD8033817
_publ_section_title
;
Structure prediction by ZEFSAII (Michael W. Deem and Ramdas Pophale) SiO2 
 PCOD8033817
Probable space group: P -1
;
_chemical_formula_sum "Si O2"
_cell_formula_units_Z 12
_cell_length_a 22.060575
_cell_length_b 12.163361
_cell_length_c 19.122787
_cell_angle_alpha 29.770307
_cell_angle_beta 161.594279
_cell_angle_gamma 159.280708
_cell_volume 564.434046
_symmetry_space_group_name_H-M "P -1"
_symmetry_group_IT_number 2
_symmetry_cell_setting 'triclinic'
loop_
_space_group_symop_operation_xyz
x,y,z
-x,-y,-z
loop_
_atom_site_type_symbol
_atom_site_label
_atom_site_fract_x
_atom_site_fract_y
_atom_site_fract_z
Si Si1 0.699479 0.306384 0.095592
Si Si2 0.835768 0.178914 0.456957
Si Si3 0.050486 0.894323 0.807184
Si Si4 0.407247 0.819678 0.300947
Si Si5 0.252325 0.233822 0.700068
Si Si6 0.295128 0.777799 0.461029
O O1 0.769370 0.209366 0.290898
O O2 0.981807 0.600867 0.201381
O O3 0.540130 0.399772 0.888999
O O4 0.500000 0.000000 0.000000
O O5 0.000000 0.500000 0.500000
O O6 0.012403 0.100345 0.688086
O O7 0.562380 0.900329 0.354025
O O8 0.763418 0.541149 0.670285
O O9 0.208352 0.043167 0.824498
O O10 0.217894 0.880849 0.052134
O O11 0.611756 0.025397 0.475207
O O12 0.285976 0.509322 0.611082
O O13 0.000000 0.000000 0.500000
O O14 0.500000 0.000000 0.500000
#
# Coordination Sequence:
#
# PCOD8033817 Si02
#       6
#     2   2   2   2   2   2
#     4  12  25  43  71 102 136 186 230 283 351 415
#     4  12  23  43  69 102 137 177 239 287 342 416
#     4  11  24  42  68 102 137 187 225 288 351 411
#     4  11  25  42  68 102 141 178 236 288 346 413
#     4  12  23  44  70  97 138 186 229 284 349 420
#     4  12  27  45  69 103 140 181 235 293 348 415
#
# _framework density 21.260234000000001
#
# number of rings (size 3 to 8) (size 9 to 14) (size 15 to 20)
#    0.000    0.333    6.667    1.500    2.333    2.000 
#    0.000    1.667    0.000    0.000    0.000    0.000 
#    0.000    0.000    0.000    0.000    0.000    0.000 
#
# Total GULP energy -148850.585488 kJ/mol
# GULP energy per Si atom -12404.215457 kJ/mol
# Density = 2.121184 g / cm^3
# Si number density = 21.260234 Si / 1000 Ang^3
#
#
#
# Elastic Constant Matrix: (Units=GPa)
#
#
# Indices 1 2 3 4 5 6 
#
# 1 107.0665 49.4879 41.0811 13.4873 10.8511 3.4155
# 2 49.4879 115.9853 37.8523 19.6549 4.1920 3.9926
# 3 41.0811 37.8523 105.0811 15.0072 22.6968 -3.5834
# 4 13.4873 19.6549 15.0072 40.5196 -0.1204 6.4824
# 5 10.8511 4.1920 22.6968 -0.1204 50.7342 5.6958
# 6 3.4155 3.9926 -3.5834 6.4824 5.6958 49.4870
#
#
#
# Elastic Compliance Matrix: (Units=1/GPa)
#
#
# Indices 1 2 3 4 5 6 
#
# 1 0.012711 -0.004183 -0.003149 -0.000952 -0.000906 -0.000539
# 2 -0.004183 0.011719 -0.002348 -0.003338 0.001026 -0.000508
# 3 -0.003149 -0.002348 0.013277 -0.003129 -0.005348 0.002394
# 4 -0.000952 -0.003338 -0.003129 0.028403 0.002383 -0.003886
# 5 -0.000906 0.001026 -0.005348 0.002383 0.022591 -0.003320
# 6 -0.000539 -0.000508 0.002394 -0.003886 -0.003320 0.021350
#
#
# Mechanical properties :
#
#
# Convention : Reuss Voigt Hill
#
# Bulk Modulus (GPa) = 54.50748 64.99730 59.75239
# Shear Modulus (GPa) = 36.89303 41.46225 39.17764
#
# Velocity S-wave (km/s) = 4.17022 4.42093 4.29740
# Velocity P-wave (km/s) = 6.99153 7.52981 7.26566
#
# Compressibility (1/GPa) = 0.01834611
#
# Stress axis : x y z
#
# Youngs Moduli (GPa) = 78.67406 85.33145 75.31694
#
# Poissons Ratio (x) = 0.35694 0.23719
# Poissons Ratio (y) = 0.32909 0.17686
# Poissons Ratio (z) = 0.24776 0.20038
#
# Static dielectric constant tensor:
#      x y z
#    x 4.071780 0.224000 0.365140 
#    y 0.224000 4.083180 0.206850 
#    z 0.365140 0.206850 3.961530 
# 
# 
# High freq. dielectric constant tensor:
#      x y z
#    x 1.847400 0.000470 0.011200 
#    y 0.000470 1.840750 0.009060 
#    z 0.011200 0.009060 1.836150 
# 
# From -- ./inp_files/173735.got.cif
#   From: 2010.06.25/outbox.cif.g09.slc.cpg/sg2_87_cif.got.tgz:173735.got - 2010.06.27 13:26:56.
