data_PCOD8033964
_publ_section_title
;
Structure prediction by ZEFSAII (Michael W. Deem and Ramdas Pophale) SiO2 
 PCOD8033964
Probable space group: P -1
;
_chemical_formula_sum "Si O2"
_cell_formula_units_Z 16
_cell_length_a 18.612209
_cell_length_b 17.266022
_cell_length_c 6.555227
_cell_angle_alpha 49.483220
_cell_angle_beta 134.936469
_cell_angle_gamma 149.346154
_cell_volume 755.125321
_symmetry_space_group_name_H-M "P -1"
_symmetry_group_IT_number 2
_symmetry_cell_setting 'triclinic'
loop_
_space_group_symop_operation_xyz
x,y,z
-x,-y,-z
loop_
_atom_site_type_symbol
_atom_site_label
_atom_site_fract_x
_atom_site_fract_y
_atom_site_fract_z
Si Si1 0.597388 0.606812 0.824596
Si Si2 0.941142 0.429193 0.222850
Si Si3 0.901429 0.584698 0.149091
Si Si4 0.571052 0.397638 0.845417
Si Si5 0.604980 0.097811 0.232628
Si Si6 0.597519 0.919588 0.846659
Si Si7 0.103461 0.101473 0.846858
Si Si8 0.920748 0.094388 0.186226
O O1 0.626706 0.533757 0.859748
O O2 0.523577 0.640257 0.480409
O O3 0.500000 0.500000 0.000000
O O4 0.744767 0.755460 0.979171
O O5 0.974829 0.558984 0.185791
O O6 0.766935 0.261427 0.196546
O O7 0.057502 0.427046 0.525088
O O8 0.000000 0.500000 0.000000
O O9 0.722136 0.455399 0.970649
O O10 0.979046 0.751455 0.000634
O O11 0.473211 0.246180 0.047624
O O12 0.517354 0.112684 0.172759
O O13 0.619675 0.001111 0.545233
O O14 0.500000 0.000000 0.000000
O O15 0.768560 0.031073 0.086390
O O16 0.027391 0.136694 0.510495
O O17 0.130239 0.030381 0.862638
O O18 0.000000 0.000000 0.000000
#
# Coordination Sequence:
#
# PCOD8033964 Si02
#       8
#     2   2   2   2   2   2   2   2
#     4  11  24  43  67  99 137 172 225 280 334 400
#     4  11  26  44  69  99 135 175 225 278 335 403
#     4  11  24  45  66  94 136 177 222 273 340 396
#     4  11  24  43  68  99 134 180 221 279 336 400
#     4  11  26  44  67 101 135 175 225 280 334 402
#     4  11  24  45  68  94 140 177 222 275 340 400
#     4  11  24  43  67  99 137 172 225 280 334 400
#     4  11  24  43  68  99 134 180 221 279 336 400
#
# _framework density 21.188537
#
# number of rings (size 3 to 8) (size 9 to 14) (size 15 to 20)
#    0.000    1.000    2.500    3.000    3.500   10.000 
#    0.000    0.000    0.000    0.000    0.000    0.000 
#    0.000    0.000    0.000    0.000    0.000    0.000 
#
# Total GULP energy -198311.187998 kJ/mol
# GULP energy per Si atom -12394.449250 kJ/mol
# Density = 2.114031 g / cm^3
# Si number density = 21.188537 Si / 1000 Ang^3
#
#
#
# Elastic Constant Matrix: (Units=GPa)
#
#
# Indices 1 2 3 4 5 6 
#
# 1 60.6687 39.7351 72.5704 1.3079 -1.3472 17.6760
# 2 39.7351 161.1022 93.6602 6.0634 0.6960 12.9451
# 3 72.5704 93.6602 191.6612 2.6096 4.6781 2.3596
# 4 1.3079 6.0634 2.6096 47.5678 3.8395 -4.7563
# 5 -1.3472 0.6960 4.6781 3.8395 37.6834 1.6953
# 6 17.6760 12.9451 2.3596 -4.7563 1.6953 39.1687
#
#
#
# Elastic Compliance Matrix: (Units=1/GPa)
#
#
# Indices 1 2 3 4 5 6 
#
# 1 0.039336 0.000491 -0.014990 -0.002417 0.004291 -0.017490
# 2 0.000491 0.009034 -0.004561 -0.001282 0.000688 -0.003118
# 3 -0.014990 -0.004561 0.013072 0.001257 -0.002551 0.007748
# 4 -0.002417 -0.001282 0.001257 0.021816 -0.002631 0.004202
# 5 0.004291 0.000688 -0.002551 -0.002631 0.027421 -0.003516
# 6 -0.017490 -0.003118 0.007748 0.004202 -0.003516 0.034649
#
#
# Mechanical properties :
#
#
# Convention : Reuss Voigt Hill
#
# Bulk Modulus (GPa) = 42.88189 91.70704 67.29447
# Shear Modulus (GPa) = 26.14748 38.71510 32.43129
#
# Velocity S-wave (km/s) = 3.51670 4.27918 3.91654
# Velocity P-wave (km/s) = 6.06397 8.23350 7.23057
#
# Compressibility (1/GPa) = 0.02331987
#
# Stress axis : x y z
#
# Youngs Moduli (GPa) = 25.42221 110.69451 76.49766
#
# Poissons Ratio (x) = -0.05433 1.14673
# Poissons Ratio (y) = -0.01248 0.34894
# Poissons Ratio (z) = 0.38109 0.50492
#
# Static dielectric constant tensor:
#      x y z
#    x 4.180410 -0.084100 0.049420 
#    y -0.084100 3.943950 -0.072130 
#    z 0.049420 -0.072130 4.178050 
# 
# 
# High freq. dielectric constant tensor:
#      x y z
#    x 1.828760 0.007830 0.011520 
#    y 0.007830 1.849380 -0.005040 
#    z 0.011520 -0.005040 1.848750 
# 
# From -- ./inp_files/111606.got.cif
#   From: 2010.06.25/outbox.cif.g09.slc.cpg/sg2_56_cif.got.tgz:111606.got - 2010.06.27 13:26:56.
