data_PCOD8033640
_publ_section_title
;
Structure prediction by ZEFSAII (Michael W. Deem and Ramdas Pophale) SiO2 
 PCOD8033640
Probable space group: P -1
;
_chemical_formula_sum "Si O2"
_cell_formula_units_Z 16
_cell_length_a 14.068804
_cell_length_b 14.177531
_cell_length_c 8.108082
_cell_angle_alpha 54.525912
_cell_angle_beta 95.857474
_cell_angle_gamma 50.589940
_cell_volume 675.654111
_symmetry_space_group_name_H-M "P -1"
_symmetry_group_IT_number 2
_symmetry_cell_setting 'triclinic'
loop_
_space_group_symop_operation_xyz
x,y,z
-x,-y,-z
loop_
_atom_site_type_symbol
_atom_site_label
_atom_site_fract_x
_atom_site_fract_y
_atom_site_fract_z
Si Si1 0.126910 0.583335 0.179612
Si Si2 0.266001 0.949627 0.242658
Si Si3 0.551069 0.652388 0.315404
Si Si4 0.334013 0.092999 0.318177
Si Si5 0.012282 0.464639 0.347950
Si Si6 0.251004 0.042051 0.660227
Si Si7 0.971173 0.156447 0.404565
Si Si8 0.180278 0.789914 0.361205
O O1 0.310497 0.414489 0.487386
O O2 0.124701 0.448040 0.282765
O O3 0.130567 0.655443 0.939101
O O4 0.948409 0.788011 0.059193
O O5 0.359773 0.830813 0.201844
O O6 0.251864 0.831642 0.426953
O O7 0.385828 0.922263 0.392557
O O8 0.654337 0.428555 0.504401
O O9 0.468142 0.807152 0.985820
O O10 0.500000 0.000000 0.500000
O O11 0.224880 0.155890 0.389410
O O12 0.198991 0.321481 0.968579
O O13 0.000000 0.500000 0.500000
O O14 0.118404 0.232981 0.583969
O O15 0.174191 0.996293 0.641197
O O16 0.858883 0.264187 0.447758
O O17 0.000000 0.000000 0.500000
O O18 0.000000 0.000000 0.000000
#
# Coordination Sequence:
#
# PCOD8033640 Si02
#       8
#     2   2   2   2   2   2   2   2
#     4  11  25  49  74 109 150 205 242 308 383 444
#     4  11  23  50  71 106 153 189 251 307 369 452
#     4  12  28  43  77 111 149 193 252 307 380 450
#     4  11  26  46  73 109 146 197 256 309 374 445
#     4  11  26  48  76 103 152 198 250 310 375 442
#     4  12  26  46  71 113 148 193 257 308 371 453
#     4  12  24  48  78 106 152 199 245 311 382 446
#     4  12  24  46  79 109 148 199 251 308 383 452
#
# _framework density 23.680757
#
# number of rings (size 3 to 8) (size 9 to 14) (size 15 to 20)
#    0.000    0.500    5.000    3.000    5.250    2.500 
#    0.000    1.875    0.000    0.000    0.000    0.000 
#    0.000    0.000    0.000    0.000    0.000    0.000 
#
# Total GULP energy -198248.773102 kJ/mol
# GULP energy per Si atom -12390.548319 kJ/mol
# Density = 2.362686 g / cm^3
# Si number density = 23.680757 Si / 1000 Ang^3
#
#
#
# Elastic Constant Matrix: (Units=GPa)
#
#
# Indices 1 2 3 4 5 6 
#
# 1 149.6316 35.7489 58.1974 -0.5064 5.4851 21.8596
# 2 35.7489 113.8068 52.1716 -11.4640 4.7226 5.1399
# 3 58.1974 52.1716 159.1588 2.6130 17.4107 14.9993
# 4 -0.5064 -11.4640 2.6130 36.7409 1.0928 -3.5169
# 5 5.4851 4.7226 17.4107 1.0928 34.6762 3.7369
# 6 21.8596 5.1399 14.9993 -3.5169 3.7369 43.9973
#
#
#
# Elastic Compliance Matrix: (Units=1/GPa)
#
#
# Indices 1 2 3 4 5 6 
#
# 1 0.008403 -0.001503 -0.002306 -0.000516 0.000404 -0.003289
# 2 -0.001503 0.011076 -0.003238 0.003742 0.000146 0.000843
# 3 -0.002306 -0.003238 0.008706 -0.001685 -0.003373 -0.001292
# 4 -0.000516 0.003742 -0.001685 0.028786 -0.000787 0.002761
# 5 0.000404 0.000146 -0.003373 -0.000787 0.030660 -0.001735
# 6 -0.003289 0.000843 -0.001292 0.002761 -0.001735 0.025073
#
#
# Mechanical properties :
#
#
# Convention : Reuss Voigt Hill
#
# Bulk Modulus (GPa) = 70.96328 79.42591 75.19459
# Shear Modulus (GPa) = 38.02474 41.51484 39.76979
#
# Velocity S-wave (km/s) = 4.01149 4.19155 4.10251
# Velocity P-wave (km/s) = 7.17550 7.55239 7.36636
#
# Compressibility (1/GPa) = 0.01409180
#
# Stress axis : x y z
#
# Youngs Moduli (GPa) = 119.00829 90.28494 114.86299
#
# Poissons Ratio (x) = 0.13567 0.26484
# Poissons Ratio (y) = 0.17883 0.37194
# Poissons Ratio (z) = 0.27440 0.29235
#
# Static dielectric constant tensor:
#      x y z
#    x 4.672740 0.139140 -0.272500 
#    y 0.139140 4.489290 0.067870 
#    z -0.272500 0.067870 4.251390 
# 
# 
# High freq. dielectric constant tensor:
#      x y z
#    x 1.945070 0.007940 -0.005680 
#    y 0.007940 1.946340 0.006340 
#    z -0.005680 0.006340 1.929900 
# 
# From -- ./inp_files/312525.got.cif
#   From: 2010.06.25/outbox.cif.g09.slc.cpg/sg2_157_cif.got.tgz:312525.got - 2010.06.27 13:26:56.
