data_PCOD8033042
_publ_section_title
;
Structure prediction by ZEFSAII (Michael W. Deem and Ramdas Pophale) SiO2 
 PCOD8033042
Probable space group: P -1
;
_chemical_formula_sum "Si O2"
_cell_formula_units_Z 14
_cell_length_a 15.212756
_cell_length_b 8.965366
_cell_length_c 14.534381
_cell_angle_alpha 31.119945
_cell_angle_beta 138.896861
_cell_angle_gamma 139.000224
_cell_volume 637.516475
_symmetry_space_group_name_H-M "P -1"
_symmetry_group_IT_number 2
_symmetry_cell_setting 'triclinic'
loop_
_space_group_symop_operation_xyz
x,y,z
-x,-y,-z
loop_
_atom_site_type_symbol
_atom_site_label
_atom_site_fract_x
_atom_site_fract_y
_atom_site_fract_z
Si Si1 0.597906 0.756564 0.377379
Si Si2 0.440727 0.199799 0.052456
Si Si3 0.155441 0.876190 0.086878
Si Si4 0.919153 0.818854 0.619343
Si Si5 0.433668 0.507652 0.704479
Si Si6 0.273544 0.980851 0.317857
Si Si7 0.030056 0.856570 0.323442
O O1 0.500000 0.500000 0.500000
O O2 0.759476 0.810007 0.495942
O O3 0.558084 0.672195 0.285495
O O4 0.570644 0.072666 0.209196
O O5 0.314289 0.945205 0.138024
O O6 0.500000 0.500000 0.000000
O O7 0.381167 0.269102 0.871567
O O8 0.069004 0.519953 0.191870
O O9 0.167757 0.960570 0.159968
O O10 0.080122 0.088324 0.865042
O O11 0.989238 0.989637 0.677146
O O12 0.000000 0.000000 0.500000
O O13 0.319499 0.679804 0.512104
O O14 0.589274 0.726579 0.736866
O O15 0.189361 0.001786 0.333328
O O16 0.000000 0.500000 0.500000
#
# Coordination Sequence:
#
# PCOD8033042 Si02
#       7
#     2   2   2   2   2   2   2
#     4  12  25  48  75 103 145 190 242 294 363 427
#     4  12  26  44  73 111 143 184 240 303 360 428
#     4  12  25  49  70 103 148 189 241 300 359 432
#     4  12  28  49  73 104 146 193 244 300 357 432
#     4  11  24  43  72 106 143 182 238 299 356 425
#     4  11  23  44  72 105 139 185 238 295 357 423
#     4  12  28  45  73 103 143 192 240 294 369 432
#
# _framework density 21.960217
#
# number of rings (size 3 to 8) (size 9 to 14) (size 15 to 20)
#    0.000    0.286    4.286    3.857    8.000    1.143 
#    0.000    0.000    0.000    0.000    0.000    0.000 
#    0.000    0.000    0.000    0.000    0.000    0.000 
#
# Total GULP energy -173714.869372 kJ/mol
# GULP energy per Si atom -12408.204955 kJ/mol
# Density = 2.191023 g / cm^3
# Si number density = 21.960217 Si / 1000 Ang^3
#
#
#
# Elastic Constant Matrix: (Units=GPa)
#
#
# Indices 1 2 3 4 5 6 
#
# 1 116.4053 22.3952 25.7780 5.7101 -12.7690 -7.7008
# 2 22.3952 85.0545 37.8179 5.5000 -2.3916 -17.4670
# 3 25.7780 37.8179 132.9055 4.9947 0.6470 -9.3052
# 4 5.7101 5.5000 4.9947 35.4896 -2.5898 -0.2227
# 5 -12.7690 -2.3916 0.6470 -2.5898 45.1214 2.5642
# 6 -7.7008 -17.4670 -9.3052 -0.2227 2.5642 49.3843
#
#
#
# Elastic Compliance Matrix: (Units=1/GPa)
#
#
# Indices 1 2 3 4 5 6 
#
# 1 0.009567 -0.001700 -0.001315 -0.000901 0.002556 0.000506
# 2 -0.001700 0.014741 -0.003509 -0.001489 0.000022 0.004280
# 3 -0.001315 -0.003509 0.008819 -0.000537 -0.000730 0.000251
# 4 -0.000901 -0.001489 -0.000537 0.028724 0.001363 -0.000710
# 5 0.002556 0.000022 -0.000730 0.001363 0.023028 -0.000921
# 6 0.000506 0.004280 0.000251 -0.000710 -0.000921 0.021934
#
#
# Mechanical properties :
#
#
# Convention : Reuss Voigt Hill
#
# Bulk Modulus (GPa) = 49.80584 56.26084 53.03334
# Shear Modulus (GPa) = 39.50887 42.55732 41.03309
#
# Velocity S-wave (km/s) = 4.24619 4.40697 4.32733
# Velocity P-wave (km/s) = 6.83882 7.18124 7.01212
#
# Compressibility (1/GPa) = 0.02007797
#
# Stress axis : x y z
#
# Youngs Moduli (GPa) = 104.52586 67.83833 113.39102
#
# Poissons Ratio (x) = 0.11535 0.14910
# Poissons Ratio (y) = 0.17773 0.39791
# Poissons Ratio (z) = 0.13744 0.23806
#
# Static dielectric constant tensor:
#      x y z
#    x 4.107530 -0.146270 -0.117570 
#    y -0.146270 3.890300 -0.056510 
#    z -0.117570 -0.056510 4.043720 
# 
# 
# High freq. dielectric constant tensor:
#      x y z
#    x 1.882290 -0.003980 -0.006970 
#    y -0.003980 1.862600 0.001420 
#    z -0.006970 0.001420 1.875450 
# 
# From -- ./inp_files/157393.got.cif
#   From: 2010.06.25/outbox.cif.g09.slc.cpg/sg2_79_cif.got.tgz:157393.got - 2010.06.27 13:26:56.
