data_PCOD8033308
_publ_section_title
;
Structure prediction by ZEFSAII (Michael W. Deem and Ramdas Pophale) SiO2 
 PCOD8033308
Probable space group: P -1
;
_chemical_formula_sum "Si O2"
_cell_formula_units_Z 16
_cell_length_a 19.340428
_cell_length_b 13.349745
_cell_length_c 8.946893
_cell_angle_alpha 109.978575
_cell_angle_beta 116.541778
_cell_angle_gamma 20.161953
_cell_volume 689.240653
_symmetry_space_group_name_H-M "P -1"
_symmetry_group_IT_number 2
_symmetry_cell_setting 'triclinic'
loop_
_space_group_symop_operation_xyz
x,y,z
-x,-y,-z
loop_
_atom_site_type_symbol
_atom_site_label
_atom_site_fract_x
_atom_site_fract_y
_atom_site_fract_z
Si Si1 0.737642 0.715423 0.142935
Si Si2 0.282546 0.757466 0.833498
Si Si3 0.981647 0.450275 0.698337
Si Si4 0.996770 0.967094 0.808760
Si Si5 0.602037 0.463802 0.487282
Si Si6 0.832606 0.458076 0.375126
Si Si7 0.078659 0.225955 0.978665
Si Si8 0.416299 0.887615 0.336115
O O1 0.723602 0.682810 0.275112
O O2 0.808156 0.748881 0.244724
O O3 0.911813 0.433293 0.060254
O O4 0.500000 0.000000 0.000000
O O5 0.299798 0.723485 0.656056
O O6 0.206931 0.742750 0.817192
O O7 0.102034 0.079420 0.855842
O O8 0.500000 0.500000 0.000000
O O9 0.994863 0.318302 0.564675
O O10 0.987889 0.425204 0.869877
O O11 0.756018 0.801239 0.616192
O O12 0.021043 0.809366 0.722265
O O13 0.781923 0.285525 0.678093
O O14 0.000000 0.000000 0.000000
O O15 0.500000 0.500000 0.500000
O O16 0.445386 0.761653 0.431867
O O17 0.648441 0.639797 0.391978
O O18 0.315087 0.959727 0.130030
#
# Coordination Sequence:
#
# PCOD8033308 Si02
#       8
#     2   2   2   2   2   2   2   2
#     4  11  24  44  72 108 146 188 245 295 363 435
#     4  12  23  46  75 108 146 192 242 305 373 439
#     4  11  25  44  74 105 144 193 241 297 368 429
#     4  12  27  46  71 105 141 195 251 303 369 437
#     4  12  27  46  73 106 148 189 249 306 374 439
#     4  12  24  46  69 102 146 183 245 305 361 435
#     4  11  23  45  74 103 146 190 241 295 366 444
#     4  11  24  46  73 104 145 191 237 298 370 444
#
# _framework density 23.213953
#
# number of rings (size 3 to 8) (size 9 to 14) (size 15 to 20)
#    0.000    0.500    2.500    6.375    5.250    0.000 
#    4.500    0.000    0.000    0.000    0.000    0.000 
#    0.000    0.000    0.000    0.000    0.000    0.000 
#
# Total GULP energy -198356.877505 kJ/mol
# GULP energy per Si atom -12397.304844 kJ/mol
# Density = 2.316112 g / cm^3
# Si number density = 23.213953 Si / 1000 Ang^3
#
#
#
# Elastic Constant Matrix: (Units=GPa)
#
#
# Indices 1 2 3 4 5 6 
#
# 1 155.7231 45.4070 62.8476 -1.9155 -5.6256 -7.4249
# 2 45.4070 81.3072 55.0470 2.1840 15.6567 3.5691
# 3 62.8476 55.0470 175.6788 3.2126 1.6716 3.7482
# 4 -1.9155 2.1840 3.2126 49.2678 5.0601 2.1424
# 5 -5.6256 15.6567 1.6716 5.0601 49.0921 1.8257
# 6 -7.4249 3.5691 3.7482 2.1424 1.8257 39.1787
#
#
#
# Elastic Compliance Matrix: (Units=1/GPa)
#
#
# Indices 1 2 3 4 5 6 
#
# 1 0.008528 -0.004029 -0.001859 0.000315 0.002217 0.002040
# 2 -0.004029 0.018767 -0.004342 0.000012 -0.006234 -0.001768
# 3 -0.001859 -0.004342 0.007732 -0.000454 0.000982 -0.000717
# 4 0.000315 0.000012 -0.000454 0.020588 -0.002040 -0.000929
# 5 0.002217 -0.006234 0.000982 -0.002040 0.022791 -0.000056
# 6 0.002040 -0.001768 -0.000717 -0.000929 -0.000056 0.026194
#
#
# Mechanical properties :
#
#
# Convention : Reuss Voigt Hill
#
# Bulk Modulus (GPa) = 68.64984 82.14583 75.39784
# Shear Modulus (GPa) = 38.48659 44.13490 41.31075
#
# Velocity S-wave (km/s) = 4.07616 4.36503 4.22307
# Velocity P-wave (km/s) = 7.19655 7.80179 7.50527
#
# Compressibility (1/GPa) = 0.01456668
#
# Stress axis : x y z
#
# Youngs Moduli (GPa) = 117.26221 53.28596 129.33333
#
# Poissons Ratio (x) = 0.21469 0.24039
# Poissons Ratio (y) = 0.47246 0.56158
# Poissons Ratio (z) = 0.21796 0.23137
#
# Static dielectric constant tensor:
#      x y z
#    x 4.421700 0.068090 0.072090 
#    y 0.068090 4.105980 0.038460 
#    z 0.072090 0.038460 4.443870 
# 
# 
# High freq. dielectric constant tensor:
#      x y z
#    x 1.933440 0.007140 0.002420 
#    y 0.007140 1.907060 0.000360 
#    z 0.002420 0.000360 1.933920 
# 
# From -- ./inp_files/347623.got.cif
#   From: 2010.06.25/outbox.cif.g09.slc.cpg/sg2_174_cif.got.tgz:347623.got - 2010.06.27 13:26:56.
