data_PCOD8033814
_publ_section_title
;
Structure prediction by ZEFSAII (Michael W. Deem and Ramdas Pophale) SiO2 
 PCOD8033814
Probable space group: P -1
;
_chemical_formula_sum "Si O2"
_cell_formula_units_Z 16
_cell_length_a 8.788835
_cell_length_b 9.051395
_cell_length_c 23.420864
_cell_angle_alpha 41.179854
_cell_angle_beta 39.961669
_cell_angle_gamma 43.723235
_cell_volume 739.599561
_symmetry_space_group_name_H-M "P -1"
_symmetry_group_IT_number 2
_symmetry_cell_setting 'triclinic'
loop_
_space_group_symop_operation_xyz
x,y,z
-x,-y,-z
loop_
_atom_site_type_symbol
_atom_site_label
_atom_site_fract_x
_atom_site_fract_y
_atom_site_fract_z
Si Si1 0.881803 0.376008 0.267529
Si Si2 0.540471 0.480552 0.236487
Si Si3 0.326536 0.843742 0.099495
Si Si4 0.797826 0.898466 0.433911
Si Si5 0.735893 0.075008 0.204449
Si Si6 0.042011 0.456795 0.417522
Si Si7 0.700780 0.571979 0.383368
Si Si8 0.418845 0.432954 0.103755
O O1 0.739628 0.527275 0.209332
O O2 0.721679 0.461226 0.346715
O O3 0.148776 0.405293 0.186483
O O4 0.905012 0.105359 0.326083
O O5 0.383696 0.724899 0.179532
O O6 0.669333 0.266448 0.218294
O O7 0.335552 0.419463 0.351414
O O8 0.410899 0.649844 0.082653
O O9 0.033846 0.992909 0.133590
O O10 0.500000 0.000000 0.000000
O O11 0.970721 0.766800 0.476739
O O12 0.852170 0.708956 0.421878
O O13 0.500000 0.000000 0.500000
O O14 0.612149 0.189814 0.146325
O O15 0.639711 0.856806 0.312181
O O16 0.968874 0.446615 0.375104
O O17 0.500000 0.500000 0.500000
O O18 0.500000 0.500000 0.000000
#
# Coordination Sequence:
#
# PCOD8033814 Si02
#       8
#     2   2   2   2   2   2   2   2
#     4  12  26  45  68 108 146 181 242 294 359 414
#     4  11  25  44  73 100 138 187 242 290 346 429
#     4  11  26  48  75 101 136 188 238 290 361 428
#     4  11  24  42  68 100 135 188 235 289 340 422
#     4  11  25  50  69 102 148 186 235 291 352 435
#     4  11  24  44  66  97 140 183 247 276 344 429
#     4  12  26  43  69 104 146 191 227 290 363 414
#     4  11  28  48  72 109 144 182 235 299 366 421
#
# _framework density 21.633327999999999
#
# number of rings (size 3 to 8) (size 9 to 14) (size 15 to 20)
#    0.000    0.750    3.750    2.250    8.750    3.000 
#    0.000    0.000    0.000    0.000    0.000    0.000 
#    0.000    0.000    0.000    0.000    0.000    0.000 
#
# Total GULP energy -198394.480338 kJ/mol
# GULP energy per Si atom -12399.655021 kJ/mol
# Density = 2.158409 g / cm^3
# Si number density = 21.633328 Si / 1000 Ang^3
#
#
#
# Elastic Constant Matrix: (Units=GPa)
#
#
# Indices 1 2 3 4 5 6 
#
# 1 156.6633 43.1578 60.4814 -10.4514 17.9926 -15.3932
# 2 43.1578 80.4333 37.0500 1.8415 5.4734 -13.1736
# 3 60.4814 37.0500 137.8987 -0.4766 -5.3857 -10.0044
# 4 -10.4514 1.8415 -0.4766 26.7933 5.7020 5.1347
# 5 17.9926 5.4734 -5.3857 5.7020 47.4545 -2.0078
# 6 -15.3932 -13.1736 -10.0044 5.1347 -2.0078 27.4261
#
#
#
# Elastic Compliance Matrix: (Units=1/GPa)
#
#
# Indices 1 2 3 4 5 6 
#
# 1 0.009434 -0.003109 -0.003340 0.004421 -0.004067 0.001458
# 2 -0.003109 0.016364 -0.002640 -0.003414 -0.000354 0.005765
# 3 -0.003340 -0.002640 0.009599 -0.001742 0.002908 0.000897
# 4 0.004421 -0.003414 -0.001742 0.042296 -0.006910 -0.008219
# 5 -0.004067 -0.000354 0.002908 -0.006910 0.023886 0.001650
# 6 0.001458 0.005765 0.000897 -0.008219 0.001650 0.042036
#
#
# Mechanical properties :
#
#
# Convention : Reuss Voigt Hill
#
# Bulk Modulus (GPa) = 58.08106 72.93040 65.50573
# Shear Modulus (GPa) = 29.84483 35.95518 32.90000
#
# Velocity S-wave (km/s) = 3.71829 4.08122 3.90398
# Velocity P-wave (km/s) = 6.73354 7.48289 7.11808
#
# Compressibility (1/GPa) = 0.01721732
#
# Stress axis : x y z
#
# Youngs Moduli (GPa) = 105.99449 61.11132 104.18049
#
# Poissons Ratio (x) = 0.19001 0.34799
# Poissons Ratio (y) = 0.32956 0.27506
# Poissons Ratio (z) = 0.35405 0.16135
#
# Static dielectric constant tensor:
#      x y z
#    x 4.234280 -0.076660 0.093140 
#    y -0.076660 3.969440 -0.102230 
#    z 0.093140 -0.102230 3.782780 
# 
# 
# High freq. dielectric constant tensor:
#      x y z
#    x 1.866810 -0.008820 0.009790 
#    y -0.008820 1.851930 -0.003730 
#    z 0.009790 -0.003730 1.855870 
# 
# From -- ./inp_files/90181.got.cif
#   From: 2010.06.25/outbox.cif.g09.slc.cpg/sg2_46_cif.got.tgz:90181.got - 2010.06.27 13:26:56.
