data_PCOD8033829
_publ_section_title
;
Structure prediction by ZEFSAII (Michael W. Deem and Ramdas Pophale) SiO2 
 PCOD8033829
Probable space group: P -1
;
_chemical_formula_sum "Si O2"
_cell_formula_units_Z 14
_cell_length_a 27.415409
_cell_length_b 14.675342
_cell_length_c 15.503149
_cell_angle_alpha 160.924874
_cell_angle_beta 19.889282
_cell_angle_gamma 159.850299
_cell_volume 619.151726
_symmetry_space_group_name_H-M "P -1"
_symmetry_group_IT_number 2
_symmetry_cell_setting 'triclinic'
loop_
_space_group_symop_operation_xyz
x,y,z
-x,-y,-z
loop_
_atom_site_type_symbol
_atom_site_label
_atom_site_fract_x
_atom_site_fract_y
_atom_site_fract_z
Si Si1 0.367378 0.626999 0.823567
Si Si2 0.530609 0.113079 0.452922
Si Si3 0.030477 0.232975 0.952972
Si Si4 0.012865 0.184668 0.512166
Si Si5 0.722283 0.918898 0.283763
Si Si6 0.377508 0.776621 0.130112
Si Si7 0.740338 0.805567 0.760756
O O1 0.500000 0.500000 0.500000
O O2 0.440524 0.938564 0.920393
O O3 0.210438 0.363660 0.805460
O O4 0.314033 0.718999 0.085451
O O5 0.363833 0.986774 0.565407
O O6 0.623054 0.484060 0.623930
O O7 0.500000 0.000000 0.500000
O O8 0.639128 0.985065 0.111396
O O9 0.981314 0.496330 0.242715
O O10 0.906492 0.021351 0.043365
O O11 0.018762 0.030279 0.709145
O O12 0.184198 0.258490 0.335143
O O13 0.876115 0.019875 0.661730
O O14 0.725773 0.105406 0.532464
O O15 0.627110 0.544417 0.116773
#
# Coordination Sequence:
#
# PCOD8033829 Si02
#       7
#     2   2   2   2   2   2   2
#     4  11  27  49  76 104 137 183 230 300 346 423
#     4  12  25  41  70  99 146 188 233 279 345 402
#     4  12  28  44  73 101 144 181 227 300 347 410
#     4  11  25  44  67 102 141 177 245 282 353 399
#     4  12  26  45  70 108 141 187 232 284 349 422
#     4  11  26  47  73 101 143 174 243 279 355 424
#     4  11  24  42  68  98 135 194 231 293 329 414
#
# _framework density 22.611581000000001
#
# number of rings (size 3 to 8) (size 9 to 14) (size 15 to 20)
#    0.000    0.571    1.429    5.571   10.000    3.429 
#    0.000    0.000    0.000    0.000    0.000    0.000 
#    0.000    0.000    0.000    0.000    0.000    0.000 
#
# Total GULP energy -173650.912492 kJ/mol
# GULP energy per Si atom -12403.636607 kJ/mol
# Density = 2.256012 g / cm^3
# Si number density = 22.611581 Si / 1000 Ang^3
#
#
#
# Elastic Constant Matrix: (Units=GPa)
#
#
# Indices 1 2 3 4 5 6 
#
# 1 92.8471 44.6056 55.6954 -6.5890 17.1772 1.3732
# 2 44.6056 105.7544 61.7875 4.8784 -3.0648 -1.7978
# 3 55.6954 61.7875 155.0051 15.9709 15.6347 11.8186
# 4 -6.5890 4.8784 15.9709 42.7591 -1.3762 -1.9770
# 5 17.1772 -3.0648 15.6347 -1.3762 50.7268 4.0237
# 6 1.3732 -1.7978 11.8186 -1.9770 4.0237 42.5898
#
#
#
# Elastic Compliance Matrix: (Units=1/GPa)
#
#
# Indices 1 2 3 4 5 6 
#
# 1 0.016839 -0.005019 -0.004131 0.004608 -0.004690 0.001049
# 2 -0.005019 0.014259 -0.004318 -0.000594 0.003751 0.001580
# 3 -0.004131 -0.004318 0.010525 -0.004277 -0.001985 -0.002981
# 4 0.004608 -0.000594 -0.004277 0.025872 0.000250 0.002191
# 5 -0.004690 0.003751 -0.001985 0.000250 0.022245 -0.001229
# 6 0.001049 0.001580 -0.002981 0.002191 -0.001229 0.024558
#
#
# Mechanical properties :
#
#
# Convention : Reuss Voigt Hill
#
# Bulk Modulus (GPa) = 68.09247 75.30929 71.70088
# Shear Modulus (GPa) = 34.21623 39.98301 37.09962
#
# Velocity S-wave (km/s) = 3.89423 4.20962 4.05499
# Velocity P-wave (km/s) = 7.09925 7.55022 7.32821
#
# Compressibility (1/GPa) = 0.01468591
#
# Stress axis : x y z
#
# Youngs Moduli (GPa) = 59.38464 70.13315 95.00981
#
# Poissons Ratio (x) = 0.35203 0.39253
# Poissons Ratio (y) = 0.29808 0.41023
# Poissons Ratio (z) = 0.24535 0.30282
#
# Static dielectric constant tensor:
#      x y z
#    x 3.977190 -0.127610 -0.107000 
#    y -0.127610 4.287750 -0.010210 
#    z -0.107000 -0.010210 3.815480 
# 
# 
# High freq. dielectric constant tensor:
#      x y z
#    x 1.895990 -0.007280 0.013510 
#    y -0.007280 1.905970 0.009010 
#    z 0.013510 0.009010 1.903660 
# 
# From -- ./inp_files/503529.got.cif
#   From: 2010.06.25/outbox.cif.g09.slc.cpg/sg2_252_cif.got.tgz:503529.got - 2010.06.27 13:26:56.
