data_PCOD8033704
_publ_section_title
;
Structure prediction by ZEFSAII (Michael W. Deem and Ramdas Pophale) SiO2 
 PCOD8033704
Probable space group: P -1
;
_chemical_formula_sum "Si O2"
_cell_formula_units_Z 14
_cell_length_a 30.503450
_cell_length_b 6.670133
_cell_length_c 28.236559
_cell_angle_alpha 49.414552
_cell_angle_beta 171.172192
_cell_angle_gamma 131.131786
_cell_volume 664.063872
_symmetry_space_group_name_H-M "P -1"
_symmetry_group_IT_number 2
_symmetry_cell_setting 'triclinic'
loop_
_space_group_symop_operation_xyz
x,y,z
-x,-y,-z
loop_
_atom_site_type_symbol
_atom_site_label
_atom_site_fract_x
_atom_site_fract_y
_atom_site_fract_z
Si Si1 0.915776 0.522116 0.765929
Si Si2 0.715468 0.772878 0.865315
Si Si3 0.996596 0.133515 0.743191
Si Si4 0.491553 0.043105 0.928636
Si Si5 0.794803 0.387994 0.839605
Si Si6 0.117386 0.228522 0.680303
Si Si7 0.410452 0.348872 0.070903
O O1 0.611106 0.347240 0.472209
O O2 0.873764 0.823910 0.662856
O O3 0.087570 0.406090 0.925135
O O4 0.083015 0.506476 0.995862
O O5 0.757323 0.070708 0.844477
O O6 0.795577 0.769370 0.006485
O O7 0.728631 0.297559 0.432119
O O8 0.178356 0.184993 0.881847
O O9 0.609571 0.339608 0.993073
O O10 0.158798 0.978005 0.567597
O O11 0.500000 0.000000 0.000000
O O12 0.706954 0.857611 0.163909
O O13 0.500000 0.500000 0.500000
O O14 0.000000 0.500000 0.000000
O O15 0.000000 0.500000 0.500000
O O16 0.342566 0.257116 0.959064
#
# Coordination Sequence:
#
# PCOD8033704 Si02
#       7
#     2   2   2   2   2   2   2
#     4  11  24  43  68  93 132 177 216 268 321 374
#     4  11  24  43  68  93 132 177 216 268 321 374
#     4  11  26  44  64  97 128 168 222 276 316 386
#     4  12  26  43  68  95 129 168 211 263 334 402
#     4  11  24  41  64 102 138 168 218 264 316 382
#     4  12  26  43  68  95 129 168 211 263 334 402
#     4  12  26  43  68  95 130 166 218 272 332 390
#
# _framework density 21.08231
#
# number of rings (size 3 to 8) (size 9 to 14) (size 15 to 20)
#    0.000    0.571    1.429    6.000    2.000   14.857 
#    0.000    0.000    0.000    0.000    0.000    0.000 
#    0.000    0.000    0.000    0.000    0.000    0.000 
#
# Total GULP energy -173704.835300 kJ/mol
# GULP energy per Si atom -12407.488236 kJ/mol
# Density = 2.103433 g / cm^3
# Si number density = 21.082310 Si / 1000 Ang^3
#
#
#
# Elastic Constant Matrix: (Units=GPa)
#
#
# Indices 1 2 3 4 5 6 
#
# 1 131.3947 50.3886 46.9450 -6.8894 6.7921 -3.2106
# 2 50.3886 126.9134 43.0545 1.3105 -2.5799 1.9109
# 3 46.9450 43.0545 136.9452 1.8359 4.2679 -2.0510
# 4 -6.8894 1.3105 1.8359 45.0437 -1.6066 4.9446
# 5 6.7921 -2.5799 4.2679 -1.6066 49.8255 -1.5110
# 6 -3.2106 1.9109 -2.0510 4.9446 -1.5110 41.5980
#
#
#
# Elastic Compliance Matrix: (Units=1/GPa)
#
#
# Indices 1 2 3 4 5 6 
#
# 1 0.009819 -0.003151 -0.002350 0.001585 -0.001232 0.000554
# 2 -0.003151 0.009867 -0.002058 -0.000571 0.001077 -0.000691
# 3 -0.002350 -0.002058 0.008788 -0.000723 -0.000550 0.000412
# 4 0.001585 -0.000571 -0.000723 0.022789 0.000473 -0.002579
# 5 -0.001232 0.001077 -0.000550 0.000473 0.020372 0.000512
# 6 0.000554 -0.000691 0.000412 -0.002579 0.000512 0.024460
#
#
# Mechanical properties :
#
#
# Convention : Reuss Voigt Hill
#
# Bulk Modulus (GPa) = 74.87520 75.11439 74.99479
# Shear Modulus (GPa) = 43.22879 44.28445 43.75662
#
# Velocity S-wave (km/s) = 4.53313 4.58815 4.56072
# Velocity P-wave (km/s) = 7.93674 7.98590 7.96136
#
# Compressibility (1/GPa) = 0.01335556
#
# Stress axis : x y z
#
# Youngs Moduli (GPa) = 101.84437 101.34941 113.79432
#
# Poissons Ratio (x) = 0.31935 0.26740
# Poissons Ratio (y) = 0.32091 0.23421
# Poissons Ratio (z) = 0.23932 0.20859
#
# Static dielectric constant tensor:
#      x y z
#    x 3.223780 0.317830 -0.647530 
#    y 0.317830 3.915900 0.371710 
#    z -0.647530 0.371710 3.505070 
# 
# 
# High freq. dielectric constant tensor:
#      x y z
#    x 1.840100 -0.001000 0.002110 
#    y -0.001000 1.842310 0.003720 
#    z 0.002110 0.003720 1.844630 
# 
# From -- ./inp_files/121059.got.cif
#   From: 2010.06.25/outbox.cif.g09.slc.cpg/sg2_61_cif.got.tgz:121059.got - 2010.06.27 13:26:56.
