data_PCOD8033786
_publ_section_title
;
Structure prediction by ZEFSAII (Michael W. Deem and Ramdas Pophale) SiO2 
 PCOD8033786
Probable space group: P -1
;
_chemical_formula_sum "Si O2"
_cell_formula_units_Z 14
_cell_length_a 11.788302
_cell_length_b 21.171203
_cell_length_c 15.801982
_cell_angle_alpha 19.148863
_cell_angle_beta 140.887752
_cell_angle_gamma 151.098582
_cell_volume 591.850310
_symmetry_space_group_name_H-M "P -1"
_symmetry_group_IT_number 2
_symmetry_cell_setting 'triclinic'
loop_
_space_group_symop_operation_xyz
x,y,z
-x,-y,-z
loop_
_atom_site_type_symbol
_atom_site_label
_atom_site_fract_x
_atom_site_fract_y
_atom_site_fract_z
Si Si1 0.143962 0.793283 0.140402
Si Si2 0.745181 0.752592 0.708106
Si Si3 0.652965 0.061031 0.355945
Si Si4 0.899203 0.528686 0.791519
Si Si5 0.856518 0.439301 0.260479
Si Si6 0.308112 0.508791 0.635037
Si Si7 0.569457 0.628476 0.469204
O O1 0.302287 0.737995 0.343766
O O2 0.967888 0.581164 0.234260
O O3 0.961383 0.759565 0.146761
O O4 0.336336 0.084759 0.844378
O O5 0.527735 0.594987 0.712367
O O6 0.690983 0.861503 0.614590
O O7 0.763738 0.554051 0.008173
O O8 0.000000 0.000000 0.500000
O O9 0.829234 0.283337 0.247779
O O10 0.369594 0.876062 0.455422
O O11 0.710281 0.222626 0.099418
O O12 0.791211 0.655519 0.594681
O O13 0.934010 0.523155 0.718152
O O14 0.350095 0.461536 0.623370
O O15 0.500000 0.500000 0.500000
#
# Coordination Sequence:
#
# PCOD8033786 Si02
#       7
#     2   2   2   2   2   2   2
#     4  11  26  47  74 103 134 185 241 285 342 414
#     4  12  23  42  73 103 139 181 235 292 339 406
#     4  11  24  42  65 100 141 179 226 281 350 398
#     4  11  26  42  64 104 143 180 223 285 347 416
#     4  12  24  43  74 101 138 184 234 283 340 416
#     4  11  26  46  73 102 137 180 236 295 337 408
#     4  12  28  45  71  99 141 184 228 284 357 419
#
# _framework density 23.654627999999999
#
# number of rings (size 3 to 8) (size 9 to 14) (size 15 to 20)
#    0.000    0.571    2.857    4.714    6.000    1.714 
#    0.000    0.000    0.000    0.000    0.000    0.000 
#    0.000    0.000    0.000    0.000    0.000    0.000 
#
# Total GULP energy -173644.317161 kJ/mol
# GULP energy per Si atom -12403.165512 kJ/mol
# Density = 2.360079 g / cm^3
# Si number density = 23.654628 Si / 1000 Ang^3
#
#
#
# Elastic Constant Matrix: (Units=GPa)
#
#
# Indices 1 2 3 4 5 6 
#
# 1 145.0491 3.1514 12.8677 -2.2836 -27.4142 -1.6015
# 2 3.1514 65.1306 14.1547 2.3003 -11.6674 -6.8398
# 3 12.8677 14.1547 69.9616 -11.5090 -13.0732 -4.2326
# 4 -2.2836 2.3003 -11.5090 32.9514 9.1337 1.4679
# 5 -27.4142 -11.6674 -13.0732 9.1337 40.4087 1.5553
# 6 -1.6015 -6.8398 -4.2326 1.4679 1.5553 31.3224
#
#
#
# Elastic Compliance Matrix: (Units=1/GPa)
#
#
# Indices 1 2 3 4 5 6 
#
# 1 0.008011 0.000891 -0.000793 -0.001387 0.005738 0.000277
# 2 0.000891 0.017442 -0.003125 -0.003887 0.005379 0.003347
# 3 -0.000793 -0.003125 0.016486 0.005125 0.002692 0.001131
# 4 -0.001387 -0.003887 0.005125 0.034645 -0.008181 -0.001445
# 5 0.005738 0.005379 0.002692 -0.008181 0.032891 0.000582
# 6 0.000277 0.003347 0.001131 -0.001445 0.000582 0.032863
#
#
# Mechanical properties :
#
#
# Convention : Reuss Voigt Hill
#
# Bulk Modulus (GPa) = 27.86599 37.83210 32.84905
# Shear Modulus (GPa) = 31.18125 37.60099 34.39112
#
# Velocity S-wave (km/s) = 3.63462 3.99128 3.81712
# Velocity P-wave (km/s) = 5.42401 6.10481 5.77445
#
# Compressibility (1/GPa) = 0.03588603
#
# Stress axis : x y z
#
# Youngs Moduli (GPa) = 124.82900 57.33228 60.65761
#
# Poissons Ratio (x) = -0.05107 0.04808
# Poissons Ratio (y) = -0.11118 0.18953
# Poissons Ratio (z) = 0.09895 0.17914
#
# Static dielectric constant tensor:
#      x y z
#    x 4.703530 0.210600 -0.072790 
#    y 0.210600 4.152100 0.176520 
#    z -0.072790 0.176520 4.495010 
# 
# 
# High freq. dielectric constant tensor:
#      x y z
#    x 1.953470 0.007230 -0.014310 
#    y 0.007230 1.932050 0.007700 
#    z -0.014310 0.007700 1.934230 
# 
# From -- ./inp_files/524013.got.cif
#   From: 2010.06.25/outbox.cif.g09.slc.cpg/sg2_263_cif.got.tgz:524013.got - 2010.06.27 13:26:56.
