data_PCOD8033743
_publ_section_title
;
Structure prediction by ZEFSAII (Michael W. Deem and Ramdas Pophale) SiO2 
 PCOD8033743
Probable space group: P -1
;
_chemical_formula_sum "Si O2"
_cell_formula_units_Z 14
_cell_length_a 24.127973
_cell_length_b 23.556801
_cell_length_c 7.782638
_cell_angle_alpha 43.554149
_cell_angle_beta 136.596482
_cell_angle_gamma 168.233087
_cell_volume 616.984758
_symmetry_space_group_name_H-M "P -1"
_symmetry_group_IT_number 2
_symmetry_cell_setting 'triclinic'
loop_
_space_group_symop_operation_xyz
x,y,z
-x,-y,-z
loop_
_atom_site_type_symbol
_atom_site_label
_atom_site_fract_x
_atom_site_fract_y
_atom_site_fract_z
Si Si1 0.768146 0.475049 0.232668
Si Si2 0.481935 0.481696 0.295167
Si Si3 0.775239 0.038959 0.052215
Si Si4 0.944524 0.541490 0.770411
Si Si5 0.450139 0.133976 0.720450
Si Si6 0.997663 0.098165 0.593403
Si Si7 0.310158 0.477543 0.765932
O O1 0.800891 0.421107 0.527729
O O2 0.844427 0.624509 0.205749
O O3 0.950690 0.651776 0.084416
O O4 0.451333 0.179836 0.125091
O O5 0.500000 0.500000 0.500000
O O6 0.715226 0.648660 0.392662
O O7 0.505807 0.596897 0.020157
O O8 0.199035 0.172785 0.252256
O O9 0.849143 0.017875 0.310858
O O10 0.658094 0.974717 0.090654
O O11 0.741966 0.371992 0.840075
O O12 0.226519 0.867645 0.688904
O O13 0.000000 0.500000 0.000000
O O14 0.493862 0.270577 0.455799
O O15 0.060631 0.199903 0.696376
#
# Coordination Sequence:
#
# PCOD8033743 Si02
#       7
#     2   2   2   2   2   2   2
#     4  11  24  41  69  96 128 172 216 270 324 389
#     4  12  26  42  63  95 133 173 222 283 334 374
#     4  12  23  43  64  98 132 171 222 267 322 388
#     4  11  24  46  71 102 134 171 216 265 326 399
#     4  11  24  43  71  97 134 178 215 266 328 398
#     4  12  25  41  64  93 133 176 219 278 328 381
#     4  11  24  44  67  97 129 177 229 269 328 401
#
# _framework density 22.690995999999998
#
# number of rings (size 3 to 8) (size 9 to 14) (size 15 to 20)
#    0.000    0.571    0.000   10.286    0.000    5.714 
#    0.000    4.286    0.000    0.000    0.000    0.000 
#    0.000    0.000    0.000    0.000    0.000    0.000 
#
# Total GULP energy -173638.090116 kJ/mol
# GULP energy per Si atom -12402.720723 kJ/mol
# Density = 2.263935 g / cm^3
# Si number density = 22.690996 Si / 1000 Ang^3
#
#
#
# Elastic Constant Matrix: (Units=GPa)
#
#
# Indices 1 2 3 4 5 6 
#
# 1 82.7823 24.6629 52.9260 0.3673 -0.0028 6.9659
# 2 24.6629 107.5872 28.4497 5.3539 -1.4862 -7.9975
# 3 52.9260 28.4497 148.7890 22.1851 19.9215 -2.4336
# 4 0.3673 5.3539 22.1851 34.4597 5.0012 -7.1350
# 5 -0.0028 -1.4862 19.9215 5.0012 24.3028 -9.7983
# 6 6.9659 -7.9975 -2.4336 -7.1350 -9.7983 41.4468
#
#
#
# Elastic Compliance Matrix: (Units=1/GPa)
#
#
# Indices 1 2 3 4 5 6 
#
# 1 0.017309 -0.002479 -0.006746 0.003527 0.003729 -0.002295
# 2 -0.002479 0.010533 -0.001425 -0.000523 0.003136 0.003017
# 3 -0.006746 -0.001425 0.011471 -0.006139 -0.008883 -0.001624
# 4 0.003527 -0.000523 -0.006139 0.034016 -0.000070 0.004785
# 5 0.003729 0.003136 -0.008883 -0.000070 0.053512 0.012095
# 6 -0.002295 0.003017 -0.001624 0.004785 0.012095 0.028683
#
#
# Mechanical properties :
#
#
# Convention : Reuss Voigt Hill
#
# Bulk Modulus (GPa) = 55.51045 61.24841 58.37943
# Shear Modulus (GPa) = 27.34822 35.58320 31.46571
#
# Velocity S-wave (km/s) = 3.47543 3.96430 3.72789
# Velocity P-wave (km/s) = 6.37351 6.92858 6.65683
#
# Compressibility (1/GPa) = 0.01801463
#
# Stress axis : x y z
#
# Youngs Moduli (GPa) = 57.77461 94.93653 87.17658
#
# Poissons Ratio (x) = 0.23531 0.58807
# Poissons Ratio (y) = 0.14320 0.12422
# Poissons Ratio (z) = 0.38973 0.13528
#
# Static dielectric constant tensor:
#      x y z
#    x 3.894840 0.187280 -0.058930 
#    y 0.187280 4.029480 0.105060 
#    z -0.058930 0.105060 4.094700 
# 
# 
# High freq. dielectric constant tensor:
#      x y z
#    x 1.890330 0.009140 -0.009350 
#    y 0.009140 1.908290 0.011740 
#    z -0.009350 0.011740 1.893850 
# 
# From -- ./inp_files/357914.got.cif
#   From: 2010.06.25/outbox.cif.g09.slc.cpg/sg2_179_cif.got.tgz:357914.got - 2010.06.27 13:26:56.
