data_PCOD8033495
_publ_section_title
;
Structure prediction by ZEFSAII (Michael W. Deem and Ramdas Pophale) SiO2 
 PCOD8033495
Probable space group: P -1
;
_chemical_formula_sum "Si O2"
_cell_formula_units_Z 16
_cell_length_a 14.239570
_cell_length_b 6.400236
_cell_length_c 14.994902
_cell_angle_alpha 65.629650
_cell_angle_beta 39.827774
_cell_angle_gamma 87.989505
_cell_volume 698.102804
_symmetry_space_group_name_H-M "P -1"
_symmetry_group_IT_number 2
_symmetry_cell_setting 'triclinic'
loop_
_space_group_symop_operation_xyz
x,y,z
-x,-y,-z
loop_
_atom_site_type_symbol
_atom_site_label
_atom_site_fract_x
_atom_site_fract_y
_atom_site_fract_z
Si Si1 0.534216 0.763028 0.877082
Si Si2 0.242778 0.635738 0.559873
Si Si3 0.152227 0.093821 0.803491
Si Si4 0.140841 0.171411 0.439659
Si Si5 0.434118 0.959474 0.653606
Si Si6 0.354873 0.485041 0.898736
Si Si7 0.023489 0.858745 0.749115
Si Si8 0.641871 0.321983 0.727812
O O1 0.711986 0.896412 0.673366
O O2 0.386398 0.672616 0.928837
O O3 0.554312 0.013606 0.875125
O O4 0.500000 0.500000 0.000000
O O5 0.230482 0.396705 0.668976
O O6 0.250352 0.601544 0.454843
O O7 0.077544 0.657799 0.701597
O O8 0.413584 0.891506 0.416004
O O9 0.294323 0.048115 0.755060
O O10 0.100600 0.932627 0.777813
O O11 0.000000 0.000000 0.000000
O O12 0.229663 0.494301 0.318809
O O13 0.000000 0.000000 0.500000
O O14 0.080511 0.100528 0.597530
O O15 0.358477 0.649725 0.780587
O O16 0.500000 0.000000 0.500000
O O17 0.491941 0.389259 0.812282
O O18 0.172455 0.243960 0.082553
#
# Coordination Sequence:
#
# PCOD8033495 Si02
#       8
#     2   2   2   2   2   2   2   2
#     4  11  24  48  73 105 143 182 242 303 364 435
#     4  12  23  46  71  99 144 192 244 294 359 435
#     4  12  28  42  67 107 146 190 246 296 362 429
#     4  11  24  46  74 107 144 185 239 299 367 438
#     4  12  24  44  69 100 142 195 242 299 359 422
#     4  11  26  42  69 101 144 182 240 299 363 426
#     4  12  25  46  66 104 148 185 233 309 359 421
#     4  11  23  46  75 104 139 194 237 295 369 436
#
# _framework density 22.919257999999999
#
# number of rings (size 3 to 8) (size 9 to 14) (size 15 to 20)
#    0.000    0.500    5.000    3.375    3.500    4.500 
#    0.000    0.000    0.000    0.000    0.000    0.000 
#    0.000    0.000    0.000    0.000    0.000    0.000 
#
# Total GULP energy -198292.018352 kJ/mol
# GULP energy per Si atom -12393.251147 kJ/mol
# Density = 2.286709 g / cm^3
# Si number density = 22.919258 Si / 1000 Ang^3
#
#
#
# Elastic Constant Matrix: (Units=GPa)
#
#
# Indices 1 2 3 4 5 6 
#
# 1 85.6017 34.2259 24.1631 -3.1003 -3.6817 4.7297
# 2 34.2259 139.7630 38.1295 -16.0999 0.5393 -7.6783
# 3 24.1631 38.1295 107.8070 3.3504 1.8434 -12.1758
# 4 -3.1003 -16.0999 3.3504 47.1603 -1.4268 6.7236
# 5 -3.6817 0.5393 1.8434 -1.4268 36.9413 -2.0309
# 6 4.7297 -7.6783 -12.1758 6.7236 -2.0309 44.2417
#
#
#
# Elastic Compliance Matrix: (Units=1/GPa)
#
#
# Indices 1 2 3 4 5 6 
#
# 1 0.013705 -0.002782 -0.002426 0.000541 0.001404 -0.002633
# 2 -0.002782 0.008905 -0.002537 0.002935 -0.000129 0.000693
# 3 -0.002426 -0.002537 0.011162 -0.002296 -0.000674 0.003209
# 4 0.000541 0.002935 -0.002296 0.022947 0.000812 -0.003631
# 5 0.001404 -0.000129 -0.000674 0.000812 0.027319 0.000773
# 6 -0.002633 0.000693 0.003209 -0.003631 0.000773 0.024475
#
#
# Mechanical properties :
#
#
# Convention : Reuss Voigt Hill
#
# Bulk Modulus (GPa) = 54.69770 58.46763 56.58266
# Shear Modulus (GPa) = 38.43302 41.44555 39.93929
#
# Velocity S-wave (km/s) = 4.09942 4.25706 4.17898
# Velocity P-wave (km/s) = 6.80619 7.05188 6.93013
#
# Compressibility (1/GPa) = 0.01828230
#
# Stress axis : x y z
#
# Youngs Moduli (GPa) = 72.96840 112.29775 89.58885
#
# Poissons Ratio (x) = 0.31240 0.21734
# Poissons Ratio (y) = 0.20299 0.22726
# Poissons Ratio (z) = 0.17702 0.28487
#
# Static dielectric constant tensor:
#      x y z
#    x 4.281540 0.240430 0.021730 
#    y 0.240430 4.442940 -0.062070 
#    z 0.021730 -0.062070 4.291780 
# 
# 
# High freq. dielectric constant tensor:
#      x y z
#    x 1.897470 0.003980 0.004480 
#    y 0.003980 1.913330 -0.003180 
#    z 0.004480 -0.003180 1.921920 
# 
# From -- ./inp_files/143342.got.cif
#   From: 2010.06.25/outbox.cif.g09.slc.cpg/sg2_72_cif.got.tgz:143342.got - 2010.06.27 13:26:56.
