data_PCOD8033046
_publ_section_title
;
Structure prediction by ZEFSAII (Michael W. Deem and Ramdas Pophale) SiO2 
 PCOD8033046
Probable space group: P -1
;
_chemical_formula_sum "Si O2"
_cell_formula_units_Z 16
_cell_length_a 11.622805
_cell_length_b 21.228120
_cell_length_c 11.909452
_cell_angle_alpha 153.477354
_cell_angle_beta 40.877707
_cell_angle_gamma 148.739286
_cell_volume 680.436788
_symmetry_space_group_name_H-M "P -1"
_symmetry_group_IT_number 2
_symmetry_cell_setting 'triclinic'
loop_
_space_group_symop_operation_xyz
x,y,z
-x,-y,-z
loop_
_atom_site_type_symbol
_atom_site_label
_atom_site_fract_x
_atom_site_fract_y
_atom_site_fract_z
Si Si1 0.253556 0.337840 0.609984
Si Si2 0.415489 0.021955 0.758764
Si Si3 0.091324 0.253504 0.358488
Si Si4 0.358934 0.650665 0.724315
Si Si5 0.552276 0.730863 0.020525
Si Si6 0.968958 0.567075 0.745868
Si Si7 0.486057 0.753724 0.347752
Si Si8 0.843563 0.790983 0.280771
O O1 0.094339 0.212893 0.424656
O O2 0.471344 0.347507 0.479027
O O3 0.335490 0.535575 0.834607
O O4 0.136056 0.272452 0.713306
O O5 0.539552 0.945465 0.593829
O O6 0.484467 0.186646 0.048438
O O7 0.491719 0.122914 0.741110
O O8 0.153652 0.863681 0.698173
O O9 0.203519 0.461311 0.598865
O O10 0.227560 0.206346 0.109688
O O11 0.204399 0.678454 0.811898
O O12 0.583208 0.722547 0.117128
O O13 0.776733 0.395261 0.683875
O O14 0.000000 0.500000 0.500000
O O15 0.911131 0.706069 0.002244
O O16 0.602784 0.738198 0.343823
O O17 0.000000 0.000000 0.500000
#
# Coordination Sequence:
#
# PCOD8033046 Si02
#       8
#     2   2   2   2   2   2   2   2
#     4  11  23  47  75 106 149 197 241 305 378 441
#     4  12  24  45  74 114 149 193 249 300 377 447
#     4  11  23  44  75 113 146 195 243 303 380 440
#     4  11  23  45  74 109 149 188 250 307 369 444
#     4  11  23  44  72 106 149 191 242 308 370 443
#     4  12  27  50  75 106 147 206 256 307 372 446
#     4  12  27  46  72 107 147 197 247 307 371 445
#     4  12  29  50  73 110 151 199 253 311 378 444
#
# _framework density 23.514309000000001
#
# number of rings (size 3 to 8) (size 9 to 14) (size 15 to 20)
#    0.000    0.500    5.000    3.375    5.250    1.000 
#    2.250    4.375    0.000    0.000    0.000    0.000 
#    0.000    0.000    0.000    0.000    0.000    0.000 
#
# Total GULP energy -198294.983408 kJ/mol
# GULP energy per Si atom -12393.436463 kJ/mol
# Density = 2.346079 g / cm^3
# Si number density = 23.514309 Si / 1000 Ang^3
#
#
#
# Elastic Constant Matrix: (Units=GPa)
#
#
# Indices 1 2 3 4 5 6 
#
# 1 124.2469 38.1179 47.1575 -4.0847 1.7771 8.0737
# 2 38.1179 76.8898 49.7309 2.8157 8.2658 2.5671
# 3 47.1575 49.7309 121.5018 13.0974 -4.1031 0.7353
# 4 -4.0847 2.8157 13.0974 37.6720 -7.5599 7.1183
# 5 1.7771 8.2658 -4.1031 -7.5599 42.5996 1.2288
# 6 8.0737 2.5671 0.7353 7.1183 1.2288 35.6091
#
#
#
# Elastic Compliance Matrix: (Units=1/GPa)
#
#
# Indices 1 2 3 4 5 6 
#
# 1 0.010476 -0.003337 -0.002994 0.003045 0.000540 -0.002700
# 2 -0.003337 0.019565 -0.006830 -0.000265 -0.004353 -0.000310
# 3 -0.002994 -0.006830 0.012690 -0.004165 0.001885 0.001677
# 4 0.003045 -0.000265 -0.004165 0.030683 0.005167 -0.006897
# 5 0.000540 -0.004353 0.001885 0.005167 0.025446 -0.001759
# 6 -0.002700 -0.000310 0.001677 -0.006897 -0.001759 0.030122
#
#
# Mechanical properties :
#
#
# Convention : Reuss Voigt Hill
#
# Bulk Modulus (GPa) = 60.93442 65.85014 63.39228
# Shear Modulus (GPa) = 31.09973 35.68496 33.39235
#
# Velocity S-wave (km/s) = 3.64069 3.89985 3.77249
# Velocity P-wave (km/s) = 6.60627 6.95295 6.78182
#
# Compressibility (1/GPa) = 0.01641109
#
# Stress axis : x y z
#
# Youngs Moduli (GPa) = 95.45313 51.11188 78.80084
#
# Poissons Ratio (x) = 0.17054 0.23594
# Poissons Ratio (y) = 0.31848 0.53818
# Poissons Ratio (z) = 0.28580 0.34907
#
# Static dielectric constant tensor:
#      x y z
#    x 4.573730 -0.125270 0.011360 
#    y -0.125270 4.092330 0.128760 
#    z 0.011360 0.128760 4.427360 
# 
# 
# High freq. dielectric constant tensor:
#      x y z
#    x 1.934030 -0.000850 0.000530 
#    y -0.000850 1.917200 0.011970 
#    z 0.000530 0.011970 1.944910 
# 
# From -- ./inp_files/307031.got.cif
#   From: 2010.06.25/outbox.cif.g09.slc.cpg/sg2_154_cif.got.tgz:307031.got - 2010.06.27 13:26:56.
