data_PCOD8033479
_publ_section_title
;
Structure prediction by ZEFSAII (Michael W. Deem and Ramdas Pophale) SiO2 
 PCOD8033479
Probable space group: P -1
;
_chemical_formula_sum "Si O2"
_cell_formula_units_Z 16
_cell_length_a 15.256889
_cell_length_b 9.214071
_cell_length_c 14.432707
_cell_angle_alpha 41.034627
_cell_angle_beta 38.413690
_cell_angle_gamma 37.270457
_cell_volume 715.820401
_symmetry_space_group_name_H-M "P -1"
_symmetry_group_IT_number 2
_symmetry_cell_setting 'triclinic'
loop_
_space_group_symop_operation_xyz
x,y,z
-x,-y,-z
loop_
_atom_site_type_symbol
_atom_site_label
_atom_site_fract_x
_atom_site_fract_y
_atom_site_fract_z
Si Si1 0.016888 0.384660 0.142161
Si Si2 0.377797 0.097809 0.968715
Si Si3 0.487169 0.256410 0.148631
Si Si4 0.616153 0.086527 0.319210
Si Si5 0.025503 0.238378 0.842585
Si Si6 0.760509 0.191851 0.464348
Si Si7 0.136688 0.375458 0.368740
Si Si8 0.443342 0.524845 0.672478
O O1 0.893887 0.279370 0.310231
O O2 0.982916 0.612260 0.129727
O O3 0.000000 0.500000 0.000000
O O4 0.200020 0.142555 0.121299
O O5 0.348249 0.369967 0.828633
O O6 0.457554 0.908965 0.909211
O O7 0.500000 0.000000 0.000000
O O8 0.605348 0.104619 0.208634
O O9 0.306526 0.324666 0.295323
O O10 0.500000 0.500000 0.000000
O O11 0.569262 0.358321 0.271919
O O12 0.500000 0.000000 0.500000
O O13 0.798704 0.873764 0.296367
O O14 0.897127 0.434295 0.780864
O O15 0.000000 0.000000 0.000000
O O16 0.634674 0.343622 0.578396
O O17 0.652317 0.253322 0.430903
O O18 0.850083 0.887212 0.552617
O O19 0.000000 0.500000 0.500000
#
# Coordination Sequence:
#
# PCOD8033479 Si02
#       8
#     2   2   2   2   2   2   2   2
#     4  12  26  44  74 106 140 192 244 295 356 433
#     4  12  25  46  71 102 142 189 239 294 365 427
#     4  12  26  47  70 106 143 187 245 295 353 438
#     4  12  25  44  73 104 138 186 237 289 358 429
#     4  12  27  48  72 107 147 185 237 299 366 429
#     4  11  25  45  74 104 147 190 247 299 357 439
#     4  12  27  47  74 108 148 189 235 304 371 421
#     4  11  23  46  74 100 143 193 236 297 368 423
#
# _framework density 22.351976000000001
#
# number of rings (size 3 to 8) (size 9 to 14) (size 15 to 20)
#    0.000    0.250    2.500    6.750    5.250    0.500 
#    2.250    0.000    0.000    0.000    0.000    0.000 
#    0.000    0.000    0.000    0.000    0.000    0.000 
#
# Total GULP energy -198482.290361 kJ/mol
# GULP energy per Si atom -12405.143148 kJ/mol
# Density = 2.230110 g / cm^3
# Si number density = 22.351976 Si / 1000 Ang^3
#
#
#
# Elastic Constant Matrix: (Units=GPa)
#
#
# Indices 1 2 3 4 5 6 
#
# 1 110.4512 61.3798 32.7745 0.4045 0.2995 14.6749
# 2 61.3798 147.5436 46.5940 11.7777 -3.9446 10.0350
# 3 32.7745 46.5940 106.0571 -4.3359 -17.7102 2.5698
# 4 0.4045 11.7777 -4.3359 53.8577 -7.9013 -1.6393
# 5 0.2995 -3.9446 -17.7102 -7.9013 46.1156 5.4069
# 6 14.6749 10.0350 2.5698 -1.6393 5.4069 48.1260
#
#
#
# Elastic Compliance Matrix: (Units=1/GPa)
#
#
# Indices 1 2 3 4 5 6 
#
# 1 0.012458 -0.004452 -0.001943 0.000524 -0.000806 -0.002658
# 2 -0.004452 0.009842 -0.003155 -0.002493 -0.000706 -0.000532
# 3 -0.001943 -0.003155 0.012325 0.002416 0.004875 0.000127
# 4 0.000524 -0.002493 0.002416 0.019914 0.004070 0.000452
# 5 -0.000806 -0.000706 0.004875 0.004070 0.024490 -0.002480
# 6 -0.002658 -0.000532 0.000127 0.000452 -0.002480 0.021988
#
#
# Mechanical properties :
#
#
# Convention : Reuss Voigt Hill
#
# Bulk Modulus (GPa) = 64.40851 71.72763 68.06807
# Shear Modulus (GPa) = 39.90717 44.50679 42.20698
#
# Velocity S-wave (km/s) = 4.22998 4.46710 4.35016
# Velocity P-wave (km/s) = 7.26189 7.66593 7.46664
#
# Compressibility (1/GPa) = 0.01552590
#
# Stress axis : x y z
#
# Youngs Moduli (GPa) = 80.27281 101.60285 81.13441
#
# Poissons Ratio (x) = 0.45229 0.15763
# Poissons Ratio (y) = 0.35734 0.25599
# Poissons Ratio (z) = 0.15596 0.32058
#
# Static dielectric constant tensor:
#      x y z
#    x 4.245690 0.236850 -0.132650 
#    y 0.236850 4.661750 0.102050 
#    z -0.132650 0.102050 4.126810 
# 
# 
# High freq. dielectric constant tensor:
#      x y z
#    x 1.887330 0.001200 -0.005050 
#    y 0.001200 1.897330 0.006380 
#    z -0.005050 0.006380 1.893090 
# 
# From -- ./inp_files/529278.got.cif
#   From: 2010.06.25/outbox.cif.g09.slc.cpg/sg2_265_cif.got.tgz:529278.got - 2010.06.27 13:26:56.
