data_PCOD8033066
_publ_section_title
;
Structure prediction by ZEFSAII (Michael W. Deem and Ramdas Pophale) SiO2 
 PCOD8033066
Probable space group: P -1
;
_chemical_formula_sum "Si O2"
_cell_formula_units_Z 16
_cell_length_a 17.274794
_cell_length_b 15.143358
_cell_length_c 8.551870
_cell_angle_alpha 45.273571
_cell_angle_beta 45.268490
_cell_angle_gamma 28.074714
_cell_volume 724.691265
_symmetry_space_group_name_H-M "P -1"
_symmetry_group_IT_number 2
_symmetry_cell_setting 'triclinic'
loop_
_space_group_symop_operation_xyz
x,y,z
-x,-y,-z
loop_
_atom_site_type_symbol
_atom_site_label
_atom_site_fract_x
_atom_site_fract_y
_atom_site_fract_z
Si Si1 0.905139 0.144699 0.098497
Si Si2 0.596704 0.531146 0.890028
Si Si3 0.083421 0.040418 0.417979
Si Si4 0.620622 0.105524 0.033950
Si Si5 0.794819 0.483038 0.385394
Si Si6 0.079418 0.239735 0.789143
Si Si7 0.615147 0.801292 0.002031
Si Si8 0.042528 0.413069 0.314777
O O1 0.850415 0.077143 0.368154
O O2 0.739068 0.363866 0.015237
O O3 0.022374 0.146367 0.016968
O O4 0.000000 0.000000 0.000000
O O5 0.462425 0.725920 0.938276
O O6 0.680708 0.527607 0.629637
O O7 0.500000 0.500000 0.000000
O O8 0.935724 0.269037 0.378221
O O9 0.000000 0.000000 0.500000
O O10 0.246094 0.952636 0.206552
O O11 0.470214 0.169127 0.075125
O O12 0.725691 0.919467 0.229547
O O13 0.895100 0.513417 0.275446
O O14 0.665163 0.639627 0.239633
O O15 0.971848 0.432824 0.798906
O O16 0.046705 0.302342 0.578039
O O17 0.774724 0.751026 0.815323
O O18 0.500000 0.000000 0.000000
#
# Coordination Sequence:
#
# PCOD8033066 Si02
#       8
#     2   2   2   2   2   2   2   2
#     4  12  23  46  72 102 139 186 238 281 353 430
#     4  12  27  45  70 109 143 182 229 302 357 417
#     4  12  25  45  75 100 138 188 234 285 348 434
#     4  12  27  44  70 108 143 180 230 301 359 412
#     4  12  26  49  74 102 143 190 241 284 357 432
#     4  11  23  44  73 102 134 183 245 286 344 427
#     4  12  28  45  69 107 147 183 233 300 358 409
#     4  11  24  46  74  97 133 191 242 290 341 423
#
# _framework density 22.078365999999999
#
# number of rings (size 3 to 8) (size 9 to 14) (size 15 to 20)
#    0.000    0.250    3.750    4.875    7.000    1.000 
#    0.000    0.000    0.000    0.000    0.000    0.000 
#    0.000    0.000    0.000    0.000    0.000    0.000 
#
# Total GULP energy -198360.905425 kJ/mol
# GULP energy per Si atom -12397.556589 kJ/mol
# Density = 2.202811 g / cm^3
# Si number density = 22.078366 Si / 1000 Ang^3
#
#
#
# Elastic Constant Matrix: (Units=GPa)
#
#
# Indices 1 2 3 4 5 6 
#
# 1 117.7420 23.3787 30.9614 0.8395 -2.6915 -9.5552
# 2 23.3787 141.8247 61.5093 11.0696 8.5068 3.4278
# 3 30.9614 61.5093 -7.2720 2.5117 -40.0864 23.8353
# 4 0.8395 11.0696 2.5117 43.1781 -7.8587 9.7671
# 5 -2.6915 8.5068 -40.0864 -7.8587 21.4267 0.6214
# 6 -9.5552 3.4278 23.8353 9.7671 0.6214 41.0512
#
#
#
# Elastic Compliance Matrix: (Units=1/GPa)
#
#
# Indices 1 2 3 4 5 6 
#
# 1 0.008878 -0.002242 0.001006 0.000773 0.004129 0.001423
# 2 -0.002242 0.005652 0.003666 -0.000104 0.004387 -0.003164
# 3 0.001006 0.003666 -0.006269 -0.004383 -0.014806 0.004835
# 4 0.000773 -0.000104 -0.004383 0.024289 0.000935 -0.003059
# 5 0.004129 0.004387 -0.014806 0.000935 0.017838 0.008699
# 6 0.001423 -0.003164 0.004835 -0.003059 0.008699 0.022744
#
#
# Mechanical properties :
#
#
# Convention : Reuss Voigt Hill
#
# Bulk Modulus (GPa) = 76.21302 53.77704 64.99503
# Shear Modulus (GPa) = 68.82699 30.22757 49.52728
#
# Velocity S-wave (km/s) = 5.58942 3.70415 4.74143
# Velocity P-wave (km/s) = 8.73211 6.53487 7.71214
#
# Compressibility (1/GPa) = 0.01312112
#
# Stress axis : x y z
#
# Youngs Moduli (GPa) = 112.63466 176.93299 -159.51139
#
# Poissons Ratio (x) = 0.39670 0.16042
# Poissons Ratio (y) = 0.25254 0.58485
# Poissons Ratio (z) = -0.11328 -0.64872
#
# Static dielectric constant tensor:
#      x y z
#    x 4.264710 -0.062790 0.111620 
#    y -0.062790 4.157660 -0.213430 
#    z 0.111620 -0.213430 4.660100 
# 
# 
# High freq. dielectric constant tensor:
#      x y z
#    x 1.885350 0.001790 0.009070 
#    y 0.001790 1.886100 -0.002770 
#    z 0.009070 -0.002770 1.875370 
# 
# From -- ./inp_files/284670.got.cif
#   From: 2010.06.25/outbox.cif.g09.slc.cpg/sg2_143_cif.got.tgz:284670.got - 2010.06.27 13:26:56.
