data_PCOD8033297
_publ_section_title
;
Structure prediction by ZEFSAII (Michael W. Deem and Ramdas Pophale) SiO2 
 PCOD8033297
Probable space group: P -1
;
_chemical_formula_sum "Si O2"
_cell_formula_units_Z 16
_cell_length_a 28.274133
_cell_length_b 25.248274
_cell_length_c 5.301315
_cell_angle_alpha 55.674122
_cell_angle_beta 125.303919
_cell_angle_gamma 167.177669
_cell_volume 685.423626
_symmetry_space_group_name_H-M "P -1"
_symmetry_group_IT_number 2
_symmetry_cell_setting 'triclinic'
loop_
_space_group_symop_operation_xyz
x,y,z
-x,-y,-z
loop_
_atom_site_type_symbol
_atom_site_label
_atom_site_fract_x
_atom_site_fract_y
_atom_site_fract_z
Si Si1 0.131371 0.482472 0.320424
Si Si2 0.406009 0.545709 0.605287
Si Si3 0.086207 0.827299 0.133699
Si Si4 0.374174 0.658662 0.240763
Si Si5 0.979498 0.019902 0.633684
Si Si6 0.745193 0.102953 0.847516
Si Si7 0.360662 0.240048 0.771213
Si Si8 0.515514 0.058281 0.641164
O O1 0.330615 0.651934 0.378563
O O2 0.248645 0.655627 0.410979
O O3 0.950870 0.240935 0.519832
O O4 0.990798 0.373438 0.980224
O O5 0.437761 0.652835 0.504246
O O6 0.541533 0.677649 0.414824
O O7 0.472724 0.574516 0.979424
O O8 0.160583 0.267952 0.529344
O O9 0.254803 0.958805 0.168877
O O10 0.848671 0.576326 0.963392
O O11 0.182981 0.001037 0.968695
O O12 0.564989 0.899685 0.048636
O O13 0.747401 0.806376 0.484755
O O14 0.000000 0.000000 0.500000
O O15 0.000000 0.000000 0.000000
O O16 0.681769 0.101484 0.519838
O O17 0.500000 0.000000 0.500000
O O18 0.500000 0.000000 0.000000
#
# Coordination Sequence:
#
# PCOD8033297 Si02
#       8
#     2   2   2   2   2   2   2   2
#     4  11  27  44  76 107 145 192 243 305 369 445
#     4  12  27  45  76 110 148 193 239 310 366 432
#     4  11  24  43  75 111 141 184 242 305 378 437
#     4  11  23  45  73 110 148 184 238 306 388 431
#     4  12  28  50  74 103 152 203 248 297 352 432
#     4  11  25  47  74 105 145 187 235 310 372 430
#     4  12  27  46  74 114 145 187 249 301 371 441
#     4  12  29  50  72 104 147 199 249 293 358 447
#
# _framework density 23.343229999999998
#
# number of rings (size 3 to 8) (size 9 to 14) (size 15 to 20)
#    0.000    0.500    3.750    3.000   10.500    5.000 
#    0.000    0.000    0.000    0.000    0.000    0.000 
#    0.000    0.000    0.000    0.000    0.000    0.000 
#
# Total GULP energy -198393.509148 kJ/mol
# GULP energy per Si atom -12399.594322 kJ/mol
# Density = 2.329010 g / cm^3
# Si number density = 23.343230 Si / 1000 Ang^3
#
#
#
# Elastic Constant Matrix: (Units=GPa)
#
#
# Indices 1 2 3 4 5 6 
#
# 1 120.9496 40.8206 54.7110 9.9663 -8.4513 6.7198
# 2 40.8206 72.8288 23.5598 4.1904 1.0302 13.0048
# 3 54.7110 23.5598 142.4967 11.5182 2.2998 13.4983
# 4 9.9663 4.1904 11.5182 38.7335 11.8982 3.2870
# 5 -8.4513 1.0302 2.2998 11.8982 45.3307 2.7920
# 6 6.7198 13.0048 13.4983 3.2870 2.7920 37.1600
#
#
#
# Elastic Compliance Matrix: (Units=1/GPa)
#
#
# Indices 1 2 3 4 5 6 
#
# 1 0.012262 -0.005776 -0.003709 -0.002504 0.003193 0.001133
# 2 -0.005776 0.017960 -0.000286 0.000452 -0.001276 -0.005081
# 3 -0.003709 -0.000286 0.008815 -0.001238 -0.000667 -0.002271
# 4 -0.002504 0.000452 -0.001238 0.029358 -0.008043 -0.001248
# 5 0.003193 -0.001276 -0.000667 -0.008043 0.024894 -0.001047
# 6 0.001133 -0.005081 -0.002271 -0.001248 -0.001047 0.029498
#
#
# Mechanical properties :
#
#
# Convention : Reuss Voigt Hill
#
# Bulk Modulus (GPa) = 51.29856 63.82865 57.56361
# Shear Modulus (GPa) = 33.59566 38.72375 36.15971
#
# Velocity S-wave (km/s) = 3.79780 4.07736 3.94006
# Velocity P-wave (km/s) = 6.42297 7.04055 6.73884
#
# Compressibility (1/GPa) = 0.01949372
#
# Stress axis : x y z
#
# Youngs Moduli (GPa) = 81.55443 55.67805 113.43980
#
# Poissons Ratio (x) = 0.32161 0.42078
# Poissons Ratio (y) = 0.47108 0.03248
# Poissons Ratio (z) = 0.30251 0.01594
#
# Static dielectric constant tensor:
#      x y z
#    x 4.245900 0.027430 0.131250 
#    y 0.027430 4.311190 0.204950 
#    z 0.131250 0.204950 4.285970 
# 
# 
# High freq. dielectric constant tensor:
#      x y z
#    x 1.922790 0.003920 0.002140 
#    y 0.003920 1.936870 0.013650 
#    z 0.002140 0.013650 1.935050 
# 
# From -- ./inp_files/13730.got.cif
#   From: 2010.06.25/outbox.cif.g09.slc.cpg/sg2_7_cif.got.tgz:13730.got - 2010.06.27 13:26:56.
