data_PCOD8033988
_publ_section_title
;
Structure prediction by ZEFSAII (Michael W. Deem and Ramdas Pophale) SiO2 
 PCOD8033988
Probable space group: P -1
;
_chemical_formula_sum "Si O2"
_cell_formula_units_Z 16
_cell_length_a 8.912549
_cell_length_b 25.596316
_cell_length_c 25.674051
_cell_angle_alpha 11.277374
_cell_angle_beta 40.999267
_cell_angle_gamma 41.074472
_cell_volume 747.125850
_symmetry_space_group_name_H-M "P -1"
_symmetry_group_IT_number 2
_symmetry_cell_setting 'triclinic'
loop_
_space_group_symop_operation_xyz
x,y,z
-x,-y,-z
loop_
_atom_site_type_symbol
_atom_site_label
_atom_site_fract_x
_atom_site_fract_y
_atom_site_fract_z
Si Si1 0.993016 0.767851 0.771190
Si Si2 0.452438 0.350304 0.937506
Si Si3 0.557859 0.164642 0.613533
Si Si4 0.842921 0.760780 0.273826
Si Si5 0.096436 0.904650 0.320038
Si Si6 0.210501 0.545919 0.159042
Si Si7 0.503506 0.775581 0.260091
Si Si8 0.537524 0.269657 0.256343
O O1 0.205048 0.771155 0.750700
O O2 0.000000 0.000000 0.500000
O O3 0.000000 0.500000 0.000000
O O4 0.766404 0.776519 0.856788
O O5 0.400385 0.621852 0.651838
O O6 0.634976 0.399017 0.886044
O O7 0.543209 0.104879 0.116741
O O8 0.360820 0.265060 0.606824
O O9 0.800283 0.107030 0.637017
O O10 0.742615 0.752864 0.250162
O O11 0.000000 0.500000 0.500000
O O12 0.000000 0.000000 0.000000
O O13 0.296844 0.892040 0.237853
O O14 0.983825 0.637878 0.594652
O O15 0.912168 0.170000 0.107237
O O16 0.362626 0.360576 0.259382
O O17 0.500000 0.500000 0.500000
O O18 0.500000 0.000000 0.000000
O O19 0.500000 0.000000 0.500000
O O20 0.500000 0.500000 0.000000
#
# Coordination Sequence:
#
# PCOD8033988 Si02
#       8
#     2   2   2   2   2   2   2   2
#     4  12  26  48  70  97 137 175 224 283 338 394
#     4  12  26  44  71  98 134 180 223 277 341 399
#     4  11  26  45  67 101 136 178 225 270 341 401
#     4  11  24  43  69 100 137 176 223 280 326 395
#     4  11  26  45  68  99 141 176 221 279 333 398
#     4  12  26  45  68 100 136 175 224 281 333 399
#     4  11  24  43  69 101 135 180 224 270 335 398
#     4  12  28  46  70 102 132 175 231 276 337 404
#
# _framework density 21.415400000000002
#
# number of rings (size 3 to 8) (size 9 to 14) (size 15 to 20)
#    0.000    0.500    1.250    6.000    7.000   10.000 
#    0.000    0.000    0.000    0.000    0.000    0.000 
#    0.000    0.000    0.000    0.000    0.000    0.000 
#
# Total GULP energy -198312.650358 kJ/mol
# GULP energy per Si atom -12394.540647 kJ/mol
# Density = 2.136666 g / cm^3
# Si number density = 21.415400 Si / 1000 Ang^3
#
#
#
# Elastic Constant Matrix: (Units=GPa)
#
#
# Indices 1 2 3 4 5 6 
#
# 1 232.7446 62.2649 108.7229 -5.6035 2.1014 -7.1399
# 2 62.2649 62.4203 29.5741 -2.2987 1.1942 0.3529
# 3 108.7229 29.5741 188.9155 -4.6498 4.4554 1.5319
# 4 -5.6035 -2.2987 -4.6498 47.4417 7.1243 -5.1713
# 5 2.1014 1.1942 4.4554 7.1243 50.2888 -2.2323
# 6 -7.1399 0.3529 1.5319 -5.1713 -2.2323 33.7513
#
#
#
# Elastic Compliance Matrix: (Units=1/GPa)
#
#
# Indices 1 2 3 4 5 6 
#
# 1 0.007542 -0.005897 -0.003425 0.000453 0.000148 0.001892
# 2 -0.005897 0.021934 -0.000013 0.000262 -0.000375 -0.001461
# 3 -0.003425 -0.000013 0.007296 0.000284 -0.000590 -0.001051
# 4 0.000453 0.000262 0.000284 0.021980 -0.003020 0.003248
# 5 0.000148 -0.000375 -0.000590 -0.003020 0.020410 0.000949
# 6 0.001892 -0.001461 -0.001051 0.003248 0.000949 0.030652
#
#
# Mechanical properties :
#
#
# Convention : Reuss Voigt Hill
#
# Bulk Modulus (GPa) = 55.24186 98.35599 76.79893
# Shear Modulus (GPa) = 37.17006 45.19759 41.18383
#
# Velocity S-wave (km/s) = 4.17066 4.59902 4.39007
# Velocity P-wave (km/s) = 7.00313 8.61561 7.85088
#
# Compressibility (1/GPa) = 0.01810222
#
# Stress axis : x y z
#
# Youngs Moduli (GPa) = 132.59786 45.59149 137.06541
#
# Poissons Ratio (x) = 0.26885 0.46942
# Poissons Ratio (y) = 0.78193 0.00174
# Poissons Ratio (z) = 0.45412 0.00058
#
# Static dielectric constant tensor:
#      x y z
#    x 4.196630 0.190760 0.080110 
#    y 0.190760 3.810430 -0.196900 
#    z 0.080110 -0.196900 3.905560 
# 
# 
# High freq. dielectric constant tensor:
#      x y z
#    x 1.864190 0.002360 -0.002010 
#    y 0.002360 1.853890 -0.003200 
#    z -0.002010 -0.003200 1.862860 
# 
# From -- ./inp_files/617664.got.cif
#   From: 2010.06.25/outbox.cif.g09.slc.cpg/sg2_309_cif.got.tgz:617664.got - 2010.06.27 13:26:56.
