data_PCOD8033808
_publ_section_title
;
Structure prediction by ZEFSAII (Michael W. Deem and Ramdas Pophale) SiO2 
 PCOD8033808
Probable space group: P -1
;
_chemical_formula_sum "Si O2"
_cell_formula_units_Z 16
_cell_length_a 11.016595
_cell_length_b 12.161676
_cell_length_c 10.638360
_cell_angle_alpha 110.499236
_cell_angle_beta 32.162076
_cell_angle_gamma 109.484221
_cell_volume 708.712136
_symmetry_space_group_name_H-M "P -1"
_symmetry_group_IT_number 2
_symmetry_cell_setting 'triclinic'
loop_
_space_group_symop_operation_xyz
x,y,z
-x,-y,-z
loop_
_atom_site_type_symbol
_atom_site_label
_atom_site_fract_x
_atom_site_fract_y
_atom_site_fract_z
Si Si1 0.570761 0.728111 0.241445
Si Si2 0.156480 0.515712 0.750340
Si Si3 0.450764 0.310204 0.473552
Si Si4 0.167614 0.462561 0.186309
Si Si5 0.844227 0.312711 0.574787
Si Si6 0.430410 0.904994 0.850878
Si Si7 0.272014 0.020140 0.801110
Si Si8 0.191944 0.910731 0.313793
O O1 0.640138 0.735204 0.329885
O O2 0.306974 0.729691 0.430788
O O3 0.701853 0.845699 0.117490
O O4 0.641453 0.603718 0.078838
O O5 0.322297 0.411214 0.560041
O O6 0.290191 0.642314 0.703569
O O7 0.032621 0.512262 0.724493
O O8 0.000000 0.500000 0.000000
O O9 0.426116 0.205498 0.352227
O O10 0.273382 0.588556 0.197720
O O11 0.079467 0.376883 0.343369
O O12 0.896313 0.200464 0.568786
O O13 0.280890 0.929512 0.870637
O O14 0.590950 0.021677 0.784041
O O15 0.264490 0.866324 0.095932
O O16 0.500000 0.000000 0.500000
O O17 0.000000 0.000000 0.000000
O O18 0.000000 0.000000 0.500000
#
# Coordination Sequence:
#
# PCOD8033808 Si02
#       8
#     2   2   2   2   2   2   2   2
#     4  12  24  45  73 102 146 189 248 311 375 453
#     4  11  24  42  67 106 140 188 237 307 372 448
#     4  11  25  43  70 102 148 179 243 305 382 447
#     4  11  26  44  73 103 138 196 245 312 371 447
#     4  11  26  48  68 102 143 190 257 303 381 444
#     4  11  27  47  69 111 141 195 250 308 386 454
#     4  12  29  47  79 116 155 198 249 316 387 462
#     4  11  28  48  73 100 146 197 251 313 375 460
#
# _framework density 22.576162
#
# number of rings (size 3 to 8) (size 9 to 14) (size 15 to 20)
#    0.000    0.750    5.000    0.375   10.500    0.000 
#    2.250    0.000    0.000    0.000    0.000    0.000 
#    0.000    0.000    0.000    0.000    0.000    0.000 
#
# Total GULP energy -198265.123885 kJ/mol
# GULP energy per Si atom -12391.570243 kJ/mol
# Density = 2.252478 g / cm^3
# Si number density = 22.576162 Si / 1000 Ang^3
#
#
#
# Elastic Constant Matrix: (Units=GPa)
#
#
# Indices 1 2 3 4 5 6 
#
# 1 108.6636 32.2191 35.8931 -2.0562 7.8582 -17.1272
# 2 32.2191 116.0178 25.8542 7.1525 6.8382 -15.0763
# 3 35.8931 25.8542 90.9805 9.4803 8.2449 -5.3337
# 4 -2.0562 7.1525 9.4803 38.2995 5.2971 3.2395
# 5 7.8582 6.8382 8.2449 5.2971 39.2159 -1.2330
# 6 -17.1272 -15.0763 -5.3337 3.2395 -1.2330 39.2199
#
#
#
# Elastic Compliance Matrix: (Units=1/GPa)
#
#
# Indices 1 2 3 4 5 6 
#
# 1 0.011798 -0.001954 -0.003957 0.001851 -0.001326 0.003668
# 2 -0.001954 0.010060 -0.001676 -0.001720 -0.000687 0.002906
# 3 -0.003957 -0.001676 0.013445 -0.003013 -0.001345 -0.000337
# 4 0.001851 -0.001720 -0.003013 0.027959 -0.003298 -0.002675
# 5 -0.001326 -0.000687 -0.001345 -0.003298 0.026616 0.000083
# 6 0.003668 0.002906 -0.000337 -0.002675 0.000083 0.028394
#
#
# Mechanical properties :
#
#
# Convention : Reuss Voigt Hill
#
# Bulk Modulus (GPa) = 49.67997 55.95497 52.81747
# Shear Modulus (GPa) = 35.67473 38.12676 36.90074
#
# Velocity S-wave (km/s) = 3.97948 4.11397 4.04728
# Velocity P-wave (km/s) = 6.57026 6.88513 6.72954
#
# Compressibility (1/GPa) = 0.02012884
#
# Stress axis : x y z
#
# Youngs Moduli (GPa) = 84.75857 99.40735 74.37827
#
# Poissons Ratio (x) = 0.19423 0.29431
# Poissons Ratio (y) = 0.16561 0.12466
# Poissons Ratio (z) = 0.33538 0.16661
#
# Static dielectric constant tensor:
#      x y z
#    x 4.977420 -0.045130 -0.039530 
#    y -0.045130 4.309190 0.110090 
#    z -0.039530 0.110090 4.127680 
# 
# 
# High freq. dielectric constant tensor:
#      x y z
#    x 1.899830 -0.005510 0.003820 
#    y -0.005510 1.907700 0.004850 
#    z 0.003820 0.004850 1.877690 
# 
# From -- ./inp_files/410604.got.cif
#   From: 2010.06.25/outbox.cif.g09.slc.cpg/sg2_206_cif.got.tgz:410604.got - 2010.06.27 13:26:56.
