data_PCOD8033072
_publ_section_title
;
Structure prediction by ZEFSAII (Michael W. Deem and Ramdas Pophale) SiO2 
 PCOD8033072
Probable space group: P -1
;
_chemical_formula_sum "Si O2"
_cell_formula_units_Z 16
_cell_length_a 6.615409
_cell_length_b 9.198819
_cell_length_c 12.655882
_cell_angle_alpha 91.501457
_cell_angle_beta 85.635885
_cell_angle_gamma 105.940333
_cell_volume 738.387937
_symmetry_space_group_name_H-M "P -1"
_symmetry_group_IT_number 2
_symmetry_cell_setting 'triclinic'
loop_
_space_group_symop_operation_xyz
x,y,z
-x,-y,-z
loop_
_atom_site_type_symbol
_atom_site_label
_atom_site_fract_x
_atom_site_fract_y
_atom_site_fract_z
Si Si1 0.075676 0.650375 0.680816
Si Si2 0.840821 0.423916 0.096384
Si Si3 0.735845 0.368777 0.650090
Si Si4 0.074479 0.849876 0.236125
Si Si5 0.471222 0.657673 0.546069
Si Si6 0.383795 0.837019 0.041550
Si Si7 0.633631 0.678482 0.179967
Si Si8 0.899273 0.896338 0.601183
O O1 0.035385 0.613666 0.806658
O O2 0.309114 0.632236 0.649804
O O3 0.889658 0.533909 0.621190
O O4 0.062440 0.814795 0.646371
O O5 0.703029 0.538397 0.128139
O O6 0.696372 0.264613 0.059313
O O7 0.000000 0.500000 0.000000
O O8 0.881871 0.282424 0.699262
O O9 0.644157 0.280396 0.544623
O O10 0.542373 0.388721 0.727400
O O11 0.191111 0.856462 0.120419
O O12 0.824596 0.806071 0.227096
O O13 0.156957 0.004770 0.300070
O O14 0.500000 0.500000 0.500000
O O15 0.687538 0.776611 0.569510
O O16 0.541905 0.762980 0.094879
O O17 0.500000 0.000000 0.000000
O O18 0.000000 0.000000 0.500000
#
# Coordination Sequence:
#
# PCOD8033072 Si02
#       8
#     2   2   2   2   2   2   2   2
#     4  12  27  44  75 107 142 184 243 292 344 431
#     4  12  24  48  72 104 139 188 243 291 349 413
#     4  11  23  44  73 103 139 181 237 292 347 423
#     4  11  25  45  68 102 142 184 236 287 357 420
#     4  12  26  45  74 105 141 185 234 291 353 420
#     4  11  27  43  68 104 142 183 234 296 355 417
#     4  11  23  45  74  99 140 190 232 293 354 419
#     4  12  29  46  71 108 146 188 230 291 361 423
#
# _framework density 21.668827
#
# number of rings (size 3 to 8) (size 9 to 14) (size 15 to 20)
#    0.000    0.500    3.750    3.750    5.250    4.500 
#    0.000    0.000    0.000    0.000    0.000    0.000 
#    0.000    0.000    0.000    0.000    0.000    0.000 
#
# Total GULP energy -198439.837741 kJ/mol
# GULP energy per Si atom -12402.489859 kJ/mol
# Density = 2.161951 g / cm^3
# Si number density = 21.668827 Si / 1000 Ang^3
#
#
#
# Elastic Constant Matrix: (Units=GPa)
#
#
# Indices 1 2 3 4 5 6 
#
# 1 114.9885 48.9951 45.5529 0.9434 -3.1874 14.8223
# 2 48.9951 138.5047 50.6499 11.6125 -8.0471 16.0471
# 3 45.5529 50.6499 111.3192 5.9747 6.1309 -1.3890
# 4 0.9434 11.6125 5.9747 47.1603 1.7793 8.8804
# 5 -3.1874 -8.0471 6.1309 1.7793 22.7231 10.0782
# 6 14.8223 16.0471 -1.3890 8.8804 10.0782 37.3336
#
#
#
# Elastic Compliance Matrix: (Units=1/GPa)
#
#
# Indices 1 2 3 4 5 6 
#
# 1 0.012166 -0.001804 -0.004589 0.001718 0.004802 -0.005930
# 2 -0.001804 0.010730 -0.004560 -0.001220 0.007438 -0.005783
# 3 -0.004589 -0.004560 0.013597 -0.001500 -0.008940 0.007058
# 4 0.001718 -0.001220 -0.001500 0.022732 0.001052 -0.005905
# 5 0.004802 0.007438 -0.008940 0.001052 0.059263 -0.021685
# 6 -0.005930 -0.005783 0.007058 -0.005905 -0.021685 0.039147
#
#
# Mechanical properties :
#
#
# Convention : Reuss Voigt Hill
#
# Bulk Modulus (GPa) = 68.54992 72.80090 70.67541
# Shear Modulus (GPa) = 27.11445 36.08438 31.59942
#
# Velocity S-wave (km/s) = 3.54123 4.08520 3.82290
# Velocity P-wave (km/s) = 6.95876 7.47809 7.22309
#
# Compressibility (1/GPa) = 0.01458791
#
# Stress axis : x y z
#
# Youngs Moduli (GPa) = 82.19461 93.19462 73.54692
#
# Poissons Ratio (x) = 0.16809 0.33747
# Poissons Ratio (y) = 0.14825 0.33541
# Poissons Ratio (z) = 0.37715 0.42501
#
# Static dielectric constant tensor:
#      x y z
#    x 3.949740 -0.025640 0.264360 
#    y -0.025640 3.965360 0.076040 
#    z 0.264360 0.076040 4.618450 
# 
# 
# High freq. dielectric constant tensor:
#      x y z
#    x 1.863800 -0.000190 0.005300 
#    y -0.000190 1.855830 -0.000460 
#    z 0.005300 -0.000460 1.864900 
# 
# From -- ./inp_files/139384.got.cif
#   From: 2010.06.25/outbox.cif.g09.slc.cpg/sg2_70_cif.got.tgz:139384.got - 2010.06.27 13:26:56.
