data_PCOD8033544
_publ_section_title
;
Structure prediction by ZEFSAII (Michael W. Deem and Ramdas Pophale) SiO2 
 PCOD8033544
Probable space group: P -1
;
_chemical_formula_sum "Si O2"
_cell_formula_units_Z 16
_cell_length_a 17.997522
_cell_length_b 9.367805
_cell_length_c 11.693871
_cell_angle_alpha 104.061403
_cell_angle_beta 131.840338
_cell_angle_gamma 38.205868
_cell_volume 719.655042
_symmetry_space_group_name_H-M "P -1"
_symmetry_group_IT_number 2
_symmetry_cell_setting 'triclinic'
loop_
_space_group_symop_operation_xyz
x,y,z
-x,-y,-z
loop_
_atom_site_type_symbol
_atom_site_label
_atom_site_fract_x
_atom_site_fract_y
_atom_site_fract_z
Si Si1 0.338691 0.831076 0.293089
Si Si2 0.568809 0.613979 0.691869
Si Si3 0.860126 0.647796 0.218487
Si Si4 0.941499 0.059158 0.269598
Si Si5 0.710663 0.832497 0.345235
Si Si6 0.262670 0.534258 0.656196
Si Si7 0.680246 0.118646 0.970288
Si Si8 0.943535 0.258152 0.100043
O O1 0.475001 0.762640 0.499189
O O2 0.450912 0.533915 0.328866
O O3 0.303025 0.954391 0.159010
O O4 0.133087 0.072501 0.192807
O O5 0.458455 0.843344 0.722420
O O6 0.798179 0.368428 0.879645
O O7 0.709947 0.839413 0.208280
O O8 0.826846 0.541697 0.092981
O O9 0.083825 0.369749 0.435560
O O10 0.817487 0.840741 0.132945
O O11 0.872385 0.266506 0.332621
O O12 0.006125 0.060873 0.222022
O O13 0.759436 0.183129 0.078875
O O14 0.133822 0.728420 0.448237
O O15 0.665271 0.725822 0.321558
O O16 0.451591 0.401021 0.827623
#
# Coordination Sequence:
#
# PCOD8033544 Si02
#       8
#     2   2   2   2   2   2   2   2
#     4  11  27  46  67 104 138 186 242 281 331 416
#     4  11  25  43  72  98 132 190 231 283 336 408
#     4  11  25  44  74 106 139 184 226 294 349 415
#     4  11  25  43  70 108 141 179 230 289 348 409
#     4  11  23  47  71 103 145 177 234 286 355 411
#     4  11  25  43  70 106 144 178 225 292 353 412
#     4  12  26  44  70 102 143 186 229 284 343 416
#     4  12  24  46  75 101 138 190 229 284 348 412
#
# _framework density 22.232876000000001
#
# number of rings (size 3 to 8) (size 9 to 14) (size 15 to 20)
#    0.000    0.750    5.000    1.500    5.250    2.500 
#    0.000    1.250    0.000    0.000    0.000    0.000 
#    0.000    0.000    0.000    0.000    0.000    0.000 
#
# Total GULP energy -198513.942206 kJ/mol
# GULP energy per Si atom -12407.121388 kJ/mol
# Density = 2.218227 g / cm^3
# Si number density = 22.232876 Si / 1000 Ang^3
#
#
#
# Elastic Constant Matrix: (Units=GPa)
#
#
# Indices 1 2 3 4 5 6 
#
# 1 78.1298 20.4333 27.8075 -3.9751 -16.9292 -9.8714
# 2 20.4333 96.2146 10.1259 -2.2350 -15.6642 -5.4635
# 3 27.8075 10.1259 102.1027 4.0505 -5.3558 -15.5121
# 4 -3.9751 -2.2350 4.0505 28.6007 0.4261 3.1861
# 5 -16.9292 -15.6642 -5.3558 0.4261 34.3699 7.7187
# 6 -9.8714 -5.4635 -15.5121 3.1861 7.7187 23.5972
#
#
#
# Elastic Compliance Matrix: (Units=1/GPa)
#
#
# Indices 1 2 3 4 5 6 
#
# 1 0.016306 -0.001913 -0.003787 0.002389 0.006194 0.001540
# 2 -0.001913 0.011552 -0.000406 0.000615 0.004219 0.000144
# 3 -0.003787 -0.000406 0.011985 -0.003030 -0.001759 0.007185
# 4 0.002389 0.000615 -0.003030 0.036459 0.001975 -0.006418
# 5 0.006194 0.004219 -0.001759 0.001975 0.035928 -0.009607
# 6 0.001540 0.000144 0.007185 -0.006418 -0.009607 0.051788
#
#
# Mechanical properties :
#
#
# Convention : Reuss Voigt Hill
#
# Bulk Modulus (GPa) = 36.19103 43.68671 39.93887
# Shear Modulus (GPa) = 26.96304 31.85227 29.40766
#
# Velocity S-wave (km/s) = 3.48624 3.78916 3.64085
# Velocity P-wave (km/s) = 5.70251 6.23185 5.97305
#
# Compressibility (1/GPa) = 0.02763116
#
# Stress axis : x y z
#
# Youngs Moduli (GPa) = 61.32858 86.56653 83.43636
#
# Poissons Ratio (x) = 0.16560 0.31597
# Poissons Ratio (y) = 0.11732 0.03386
# Poissons Ratio (z) = 0.23225 0.03513
#
# Static dielectric constant tensor:
#      x y z
#    x 3.860980 -0.002980 -0.071580 
#    y -0.002980 3.922570 0.204300 
#    z -0.071580 0.204300 4.243900 
# 
# 
# High freq. dielectric constant tensor:
#      x y z
#    x 1.865360 -0.002680 0.001410 
#    y -0.002680 1.871620 0.007490 
#    z 0.001410 0.007490 1.897120 
# 
# From -- ./inp_files/462235.got.cif
#   From: 2010.06.25/outbox.cif.g09.slc.cpg/sg2_232_cif.got.tgz:462235.got - 2010.06.27 13:26:56.
