data_PCOD8033004
_publ_section_title
;
Structure prediction by ZEFSAII (Michael W. Deem and Ramdas Pophale) SiO2 
 PCOD8033004
Probable space group: P -1
;
_chemical_formula_sum "Si O2"
_cell_formula_units_Z 16
_cell_length_a 19.550769
_cell_length_b 11.888553
_cell_length_c 6.576843
_cell_angle_alpha 89.392888
_cell_angle_beta 87.116872
_cell_angle_gamma 28.847864
_cell_volume 734.843720
_symmetry_space_group_name_H-M "P -1"
_symmetry_group_IT_number 2
_symmetry_cell_setting 'triclinic'
loop_
_space_group_symop_operation_xyz
x,y,z
-x,-y,-z
loop_
_atom_site_type_symbol
_atom_site_label
_atom_site_fract_x
_atom_site_fract_y
_atom_site_fract_z
Si Si1 0.286487 0.344048 0.159150
Si Si2 0.878027 0.811174 0.664368
Si Si3 0.574899 0.444908 0.297265
Si Si4 0.181270 0.338607 0.511783
Si Si5 0.361665 0.846072 0.008046
Si Si6 0.083943 0.834510 0.185058
Si Si7 0.413625 0.009299 0.801698
Si Si8 0.162531 0.889864 0.501466
O O1 0.188092 0.404220 0.307579
O O2 0.195249 0.582170 0.095050
O O3 0.423998 0.190670 0.264201
O O4 0.337585 0.205961 0.956878
O O5 0.839073 0.762686 0.529889
O O6 0.049634 0.569749 0.668885
O O7 0.801265 0.910196 0.892576
O O8 0.820623 0.003713 0.555648
O O9 0.500000 0.500000 0.500000
O O10 0.466458 0.680856 0.188332
O O11 0.706287 0.330925 0.364443
O O12 0.632902 0.265390 0.143158
O O13 0.331777 0.134819 0.600711
O O14 0.408500 0.891501 0.891080
O O15 0.167821 0.813822 0.289342
O O16 0.982803 0.922752 0.363538
O O17 0.000000 0.000000 0.000000
#
# Coordination Sequence:
#
# PCOD8033004 Si02
#       8
#     2   2   2   2   2   2   2   2
#     4  11  25  47  66 101 135 182 235 278 343 414
#     4  11  23  44  71 100 140 171 234 282 346 410
#     4  11  25  42  70  99 143 179 226 286 346 415
#     4  11  24  46  69 100 137 183 224 288 344 408
#     4  11  25  42  66 111 135 183 230 283 350 407
#     4  11  28  45  71  97 137 183 233 287 342 409
#     4  11  26  42  70 100 137 182 232 283 340 409
#     4  11  25  45  65 104 132 185 229 283 348 411
#
# _framework density 21.773337999999999
#
# number of rings (size 3 to 8) (size 9 to 14) (size 15 to 20)
#    0.000    1.000    3.750    1.125    7.000    0.500 
#    2.250    0.000    0.000    0.000    0.000    0.000 
#    0.000    0.000    0.000    0.000    0.000    0.000 
#
# Total GULP energy -198462.714718 kJ/mol
# GULP energy per Si atom -12403.919670 kJ/mol
# Density = 2.172378 g / cm^3
# Si number density = 21.773338 Si / 1000 Ang^3
#
#
#
# Elastic Constant Matrix: (Units=GPa)
#
#
# Indices 1 2 3 4 5 6 
#
# 1 94.7438 32.5162 18.4015 -7.9646 3.5057 0.6311
# 2 32.5162 102.5756 23.1608 -6.1138 10.4532 3.3720
# 3 18.4015 23.1608 68.8717 -10.1001 12.0497 2.0381
# 4 -7.9646 -6.1138 -10.1001 38.9764 -10.1224 -3.7665
# 5 3.5057 10.4532 12.0497 -10.1224 36.1821 -5.0252
# 6 0.6311 3.3720 2.0381 -3.7665 -5.0252 37.1478
#
#
#
# Elastic Compliance Matrix: (Units=1/GPa)
#
#
# Indices 1 2 3 4 5 6 
#
# 1 0.012238 -0.003436 -0.002058 0.001755 0.001058 0.000538
# 2 -0.003436 0.011695 -0.002596 -0.000290 -0.002432 -0.001219
# 3 -0.002058 -0.002596 0.017059 0.002408 -0.004196 -0.000989
# 4 0.001755 -0.000290 0.002408 0.028980 0.007754 0.003852
# 5 0.001058 -0.002432 -0.004196 0.007754 0.032586 0.005627
# 6 0.000538 -0.001219 -0.000989 0.003852 0.005627 0.028227
#
#
# Mechanical properties :
#
#
# Convention : Reuss Voigt Hill
#
# Bulk Modulus (GPa) = 40.30168 46.03869 43.17018
# Shear Modulus (GPa) = 32.20916 35.26878 33.73897
#
# Velocity S-wave (km/s) = 3.85033 4.02906 3.94071
# Velocity P-wave (km/s) = 6.19004 6.54483 6.36991
#
# Compressibility (1/GPa) = 0.02481286
#
# Stress axis : x y z
#
# Youngs Moduli (GPa) = 81.70936 85.50839 58.62014
#
# Poissons Ratio (x) = 0.29378 0.12065
# Poissons Ratio (y) = 0.28073 0.15217
# Poissons Ratio (z) = 0.16817 0.22196
#
# Static dielectric constant tensor:
#      x y z
#    x 4.033250 -0.061490 0.051550 
#    y -0.061490 4.122060 0.082150 
#    z 0.051550 0.082150 3.824370 
# 
# 
# High freq. dielectric constant tensor:
#      x y z
#    x 1.866140 -0.002820 -0.002200 
#    y -0.002820 1.868050 0.006250 
#    z -0.002200 0.006250 1.849800 
# 
# From -- ./inp_files/83238.got.cif
#   From: 2010.06.25/outbox.cif.g09.slc.cpg/sg2_42_cif.got.tgz:83238.got - 2010.06.27 13:26:56.
