data_PCOD8033133
_publ_section_title
;
Structure prediction by ZEFSAII (Michael W. Deem and Ramdas Pophale) SiO2 
 PCOD8033133
Probable space group: P -1
;
_chemical_formula_sum "Si O2"
_cell_formula_units_Z 16
_cell_length_a 22.292026
_cell_length_b 6.590724
_cell_length_c 12.791242
_cell_angle_alpha 136.967334
_cell_angle_beta 35.014544
_cell_angle_gamma 126.312096
_cell_volume 735.755090
_symmetry_space_group_name_H-M "P -1"
_symmetry_group_IT_number 2
_symmetry_cell_setting 'triclinic'
loop_
_space_group_symop_operation_xyz
x,y,z
-x,-y,-z
loop_
_atom_site_type_symbol
_atom_site_label
_atom_site_fract_x
_atom_site_fract_y
_atom_site_fract_z
Si Si1 0.813332 0.765032 0.126374
Si Si2 0.834271 0.437315 0.386254
Si Si3 0.735403 0.461714 0.749808
Si Si4 0.416768 0.294453 0.484726
Si Si5 0.652598 0.827211 0.687774
Si Si6 0.900922 0.688399 0.753174
Si Si7 0.043067 0.627687 0.093525
Si Si8 0.558645 0.793917 0.027568
O O1 0.688026 0.725085 0.302328
O O2 0.842171 0.110399 0.200881
O O3 0.867687 0.612183 0.890442
O O4 0.863401 0.596106 0.090485
O O5 0.808822 0.368291 0.515158
O O6 0.752951 0.642274 0.515659
O O7 0.943814 0.605982 0.303294
O O8 0.798869 0.581947 0.800481
O O9 0.665716 0.745426 0.919832
O O10 0.675366 0.162029 0.747722
O O11 0.500000 0.500000 0.500000
O O12 0.392159 0.354091 0.417821
O O13 0.481218 0.991078 0.281058
O O14 0.573617 0.882790 0.918320
O O15 0.000000 0.500000 0.500000
O O16 0.918585 0.036595 0.840201
O O17 0.000000 0.500000 0.000000
O O18 0.500000 0.500000 0.000000
#
# Coordination Sequence:
#
# PCOD8033133 Si02
#       8
#     2   2   2   2   2   2   2   2
#     4  12  27  47  71 104 148 185 241 289 356 431
#     4  11  23  44  76 105 141 186 235 290 356 438
#     4  11  25  43  73 102 143 186 239 289 352 422
#     4  12  27  44  71 104 143 188 240 296 350 411
#     4  11  23  45  75 101 143 189 235 290 360 418
#     4  12  29  46  72 110 144 183 236 297 359 423
#     4  12  26  45  76 104 142 187 231 292 364 426
#     4  11  24  46  71 104 137 188 244 290 351 420
#
# _framework density 21.746365000000001
#
# number of rings (size 3 to 8) (size 9 to 14) (size 15 to 20)
#    0.000    0.500    3.750    3.750    5.250    3.000 
#    0.000    1.875    0.000    0.000    0.000    0.000 
#    0.000    0.000    0.000    0.000    0.000    0.000 
#
# Total GULP energy -198246.653235 kJ/mol
# GULP energy per Si atom -12390.415827 kJ/mol
# Density = 2.169687 g / cm^3
# Si number density = 21.746365 Si / 1000 Ang^3
#
#
#
# Elastic Constant Matrix: (Units=GPa)
#
#
# Indices 1 2 3 4 5 6 
#
# 1 120.8835 43.3031 42.6141 2.4775 5.7793 5.6498
# 2 43.3031 116.4813 46.7288 -6.4210 3.3202 -0.1201
# 3 42.6141 46.7288 147.9239 -11.4765 1.2309 -5.1455
# 4 2.4775 -6.4210 -11.4765 47.6962 -4.7252 -1.7199
# 5 5.7793 3.3202 1.2309 -4.7252 30.8687 -0.3484
# 6 5.6498 -0.1201 -5.1455 -1.7199 -0.3484 38.3866
#
#
#
# Elastic Compliance Matrix: (Units=1/GPa)
#
#
# Indices 1 2 3 4 5 6 
#
# 1 0.010340 -0.003000 -0.002217 -0.001723 -0.001810 -0.001922
# 2 -0.003000 0.010745 -0.002444 0.000987 -0.000343 0.000189
# 3 -0.002217 -0.002444 0.008368 0.001920 0.000655 0.001532
# 4 -0.001723 0.000987 0.001920 0.022056 0.003533 0.001534
# 5 -0.001810 -0.000343 0.000655 0.003533 0.033295 0.000814
# 6 -0.001922 0.000189 0.001532 0.001534 0.000814 0.026616
#
#
# Mechanical properties :
#
#
# Convention : Reuss Voigt Hill
#
# Bulk Modulus (GPa) = 70.76413 72.28676 71.52545
# Shear Modulus (GPa) = 38.03672 40.23315 39.13493
#
# Velocity S-wave (km/s) = 4.18677 4.30596 4.24678
# Velocity P-wave (km/s) = 7.48220 7.61805 7.55043
#
# Compressibility (1/GPa) = 0.01413145
#
# Stress axis : x y z
#
# Youngs Moduli (GPa) = 96.70951 93.06354 119.50804
#
# Poissons Ratio (x) = 0.27921 0.26489
# Poissons Ratio (y) = 0.29015 0.29209
# Poissons Ratio (z) = 0.21436 0.22746
#
# Static dielectric constant tensor:
#      x y z
#    x 5.115430 0.747640 -0.752180 
#    y 0.747640 4.327370 -0.590700 
#    z -0.752180 -0.590700 4.682370 
# 
# 
# High freq. dielectric constant tensor:
#      x y z
#    x 1.865490 -0.005830 -0.007270 
#    y -0.005830 1.858230 -0.008320 
#    z -0.007270 -0.008320 1.874660 
# 
# From -- ./inp_files/38189.got.cif
#   From: 2010.06.25/outbox.cif.g09.slc.cpg/sg2_20_cif.got.tgz:38189.got - 2010.06.27 13:26:56.
