data_PCOD8033318
_publ_section_title
;
Structure prediction by ZEFSAII (Michael W. Deem and Ramdas Pophale) SiO2 
 PCOD8033318
Probable space group: P -1
;
_chemical_formula_sum "Si O2"
_cell_formula_units_Z 14
_cell_length_a 13.571977
_cell_length_b 8.947659
_cell_length_c 8.582674
_cell_angle_alpha 137.299327
_cell_angle_beta 61.022956
_cell_angle_gamma 98.064035
_cell_volume 576.003185
_symmetry_space_group_name_H-M "P -1"
_symmetry_group_IT_number 2
_symmetry_cell_setting 'triclinic'
loop_
_space_group_symop_operation_xyz
x,y,z
-x,-y,-z
loop_
_atom_site_type_symbol
_atom_site_label
_atom_site_fract_x
_atom_site_fract_y
_atom_site_fract_z
Si Si1 0.747744 0.757671 0.560654
Si Si2 0.138466 0.870547 0.264535
Si Si3 0.176433 0.951265 0.737296
Si Si4 0.550322 0.631368 0.433440
Si Si5 0.339958 0.118808 0.938862
Si Si6 0.076342 0.725499 0.891377
Si Si7 0.686491 0.427502 0.885236
O O1 0.669911 0.674923 0.432809
O O2 0.879757 0.556802 0.339538
O O3 0.776687 0.980033 0.645827
O O4 0.670779 0.816838 0.822894
O O5 0.187309 0.641257 0.165777
O O6 0.153214 0.807572 0.022881
O O7 0.000000 0.000000 0.500000
O O8 0.115614 0.779764 0.731719
O O9 0.288965 0.794095 0.422338
O O10 0.221191 0.082569 0.937374
O O11 0.068639 0.149975 0.875827
O O12 0.500000 0.500000 0.500000
O O13 0.454605 0.881252 0.646315
O O14 0.583509 0.462584 0.124167
O O15 0.354750 0.330063 0.991138
#
# Coordination Sequence:
#
# PCOD8033318 Si02
#       7
#     2   2   2   2   2   2   2
#     4  12  26  49  79 104 149 198 247 301 370 441
#     4  12  26  46  73 113 152 197 243 300 368 451
#     4  11  25  44  74 112 149 190 241 309 373 438
#     4  12  28  53  79 104 145 201 253 308 369 432
#     4  12  27  48  74 111 144 196 252 300 372 435
#     4  11  23  45  74 108 151 196 241 300 373 450
#     4  12  27  46  73 110 148 187 250 310 362 433
#
# _framework density 24.305420999999999
#
# number of rings (size 3 to 8) (size 9 to 14) (size 15 to 20)
#    0.000    0.286    5.714    2.571    4.000    1.714 
#    0.000    0.000    0.000    0.000    0.000    0.000 
#    0.000    0.000    0.000    0.000    0.000    0.000 
#
# Total GULP energy -173545.156750 kJ/mol
# GULP energy per Si atom -12396.082625 kJ/mol
# Density = 2.425010 g / cm^3
# Si number density = 24.305421 Si / 1000 Ang^3
#
#
#
# Elastic Constant Matrix: (Units=GPa)
#
#
# Indices 1 2 3 4 5 6 
#
# 1 82.9194 12.5395 10.9909 12.8045 -7.3339 -8.7121
# 2 12.5395 92.0236 27.3765 -9.3707 -9.5234 -9.6163
# 3 10.9909 27.3765 129.2487 -4.0702 -12.4497 -2.7924
# 4 12.8045 -9.3707 -4.0702 37.5020 -15.1890 -8.8776
# 5 -7.3339 -9.5234 -12.4497 -15.1890 41.7990 4.3907
# 6 -8.7121 -9.6163 -2.7924 -8.8776 4.3907 33.8332
#
#
#
# Elastic Compliance Matrix: (Units=1/GPa)
#
#
# Indices 1 2 3 4 5 6 
#
# 1 0.013361 -0.001923 -0.000877 -0.004883 -0.000295 0.001579
# 2 -0.001923 0.013212 -0.001963 0.006351 0.003950 0.004252
# 3 -0.000877 -0.001963 0.008534 0.001797 0.002588 0.000056
# 4 -0.004883 0.006351 0.001797 0.037854 0.013954 0.008818
# 5 -0.000295 0.003950 0.002588 0.013954 0.030513 0.000962
# 6 0.001579 0.004252 0.000056 0.008818 0.000962 0.033365
#
#
# Mechanical properties :
#
#
# Convention : Reuss Voigt Hill
#
# Bulk Modulus (GPa) = 39.08867 45.11172 42.10019
# Shear Modulus (GPa) = 32.28064 39.51249 35.89657
#
# Velocity S-wave (km/s) = 3.64830 4.03633 3.84721
# Velocity P-wave (km/s) = 5.81928 6.35006 6.09045
#
# Compressibility (1/GPa) = 0.02558286
#
# Stress axis : x y z
#
# Youngs Moduli (GPa) = 74.84630 75.68607 117.17262
#
# Poissons Ratio (x) = 0.14551 0.10277
# Poissons Ratio (y) = 0.14389 0.22998
# Poissons Ratio (z) = 0.06565 0.14855
#
# Static dielectric constant tensor:
#      x y z
#    x 4.354120 -0.411610 0.004900 
#    y -0.411610 4.281770 0.027710 
#    z 0.004900 0.027710 4.749280 
# 
# 
# High freq. dielectric constant tensor:
#      x y z
#    x 1.954100 -0.033590 -0.009210 
#    y -0.033590 1.962800 -0.002180 
#    z -0.009210 -0.002180 1.986840 
# 
# From -- ./inp_files/47042.got.cif
#   From: 2010.06.25/outbox.cif.g09.slc.cpg/sg2_24_cif.got.tgz:47042.got - 2010.06.27 13:26:56.
