data_PCOD8033101
_publ_section_title
;
Structure prediction by ZEFSAII (Michael W. Deem and Ramdas Pophale) SiO2 
 PCOD8033101
Probable space group: P -1
;
_chemical_formula_sum "Si O2"
_cell_formula_units_Z 14
_cell_length_a 9.796000
_cell_length_b 8.293346
_cell_length_c 15.664562
_cell_angle_alpha 120.035748
_cell_angle_beta 35.951200
_cell_angle_gamma 101.870842
_cell_volume 594.909820
_symmetry_space_group_name_H-M "P -1"
_symmetry_group_IT_number 2
_symmetry_cell_setting 'triclinic'
loop_
_space_group_symop_operation_xyz
x,y,z
-x,-y,-z
loop_
_atom_site_type_symbol
_atom_site_label
_atom_site_fract_x
_atom_site_fract_y
_atom_site_fract_z
Si Si1 0.094341 0.104732 0.789673
Si Si2 0.544658 0.118437 0.671970
Si Si3 0.015313 0.777533 0.310980
Si Si4 0.552543 0.081273 0.842232
Si Si5 0.230467 0.389128 0.215754
Si Si6 0.759653 0.309429 0.482999
Si Si7 0.553601 0.298793 0.186425
O O1 0.311995 0.155104 0.737266
O O2 0.019175 0.239903 0.777980
O O3 0.207506 0.860423 0.651089
O O4 0.854613 0.175785 0.993111
O O5 0.446209 0.198036 0.837391
O O6 0.725949 0.219761 0.567571
O O7 0.736663 0.882267 0.521381
O O8 0.173846 0.918319 0.277740
O O9 0.159668 0.565213 0.227882
O O10 0.578502 0.851928 0.760825
O O11 0.361642 0.182155 0.042236
O O12 0.429696 0.407491 0.188236
O O13 0.997939 0.371975 0.379475
O O14 0.512455 0.525047 0.660155
#
# Coordination Sequence:
#
# PCOD8033101 Si02
#       7
#     2   2   2   2   2   2   2
#     4  11  25  49  70 103 145 185 231 287 348 420
#     4  11  26  47  70 103 141 187 235 283 349 420
#     4  11  23  44  74 100 141 183 235 291 345 410
#     4  12  24  44  72 106 141 181 235 291 347 412
#     4  12  24  44  72 110 140 177 238 295 348 407
#     4  11  24  45  70 102 139 183 231 284 347 410
#     4  12  24  44  75 105 141 184 231 291 352 408
#
# _framework density 23.532978
#
# number of rings (size 3 to 8) (size 9 to 14) (size 15 to 20)
#    0.000    0.571    2.857    6.857    2.000    2.286 
#    2.571    3.571    0.000    0.000    0.000    0.000 
#    0.000    0.000    0.000    0.000    0.000    0.000 
#
# Total GULP energy -173505.608294 kJ/mol
# GULP energy per Si atom -12393.257735 kJ/mol
# Density = 2.347942 g / cm^3
# Si number density = 23.532978 Si / 1000 Ang^3
#
#
#
# Elastic Constant Matrix: (Units=GPa)
#
#
# Indices 1 2 3 4 5 6 
#
# 1 109.1569 36.8677 38.7338 -12.5271 -11.7639 -8.8951
# 2 36.8677 94.1249 49.9302 0.3191 -12.4440 -7.5209
# 3 38.7338 49.9302 147.6004 1.9749 -3.5751 12.1862
# 4 -12.5271 0.3191 1.9749 34.6840 0.1745 2.4751
# 5 -11.7639 -12.4440 -3.5751 0.1745 26.0267 2.6707
# 6 -8.8951 -7.5209 12.1862 2.4751 2.6707 16.1661
#
#
#
# Elastic Compliance Matrix: (Units=1/GPa)
#
#
# Indices 1 2 3 4 5 6 
#
# 1 0.012403 -0.002274 -0.003025 0.004167 0.003372 0.006852
# 2 -0.002274 0.015784 -0.005399 -0.001367 0.004804 0.009577
# 3 -0.003025 -0.005399 0.010333 -0.000795 -0.001331 -0.011624
# 4 0.004167 -0.001367 -0.000795 0.030576 0.001185 -0.002621
# 5 0.003372 0.004804 -0.001331 0.001185 0.042265 -0.002070
# 6 0.006852 0.009577 -0.011624 -0.002621 -0.002070 0.079589
#
#
# Mechanical properties :
#
#
# Convention : Reuss Voigt Hill
#
# Bulk Modulus (GPa) = 58.39827 66.88285 62.64056
# Shear Modulus (GPa) = 22.93034 30.39874 26.66454
#
# Velocity S-wave (km/s) = 3.12491 3.59799 3.36976
# Velocity P-wave (km/s) = 6.15544 6.76338 6.46656
#
# Compressibility (1/GPa) = 0.01712379
#
# Stress axis : x y z
#
# Youngs Moduli (GPa) = 80.62815 63.35709 96.77497
#
# Poissons Ratio (x) = 0.14407 0.29277
# Poissons Ratio (y) = 0.18335 0.52244
# Poissons Ratio (z) = 0.24392 0.34204
#
# Static dielectric constant tensor:
#      x y z
#    x 3.917560 -0.065670 0.078470 
#    y -0.065670 4.199480 0.099130 
#    z 0.078470 0.099130 4.507950 
# 
# 
# High freq. dielectric constant tensor:
#      x y z
#    x 1.901910 -0.000900 0.002800 
#    y -0.000900 1.933800 -0.002770 
#    z 0.002800 -0.002770 1.952210 
# 
# From -- ./inp_files/159789.got.cif
#   From: 2010.06.25/outbox.cif.g09.slc.cpg/sg2_80_cif.got.tgz:159789.got - 2010.06.27 13:26:56.
