data_PCOD8033143
_publ_section_title
;
Structure prediction by ZEFSAII (Michael W. Deem and Ramdas Pophale) SiO2 
 PCOD8033143
Probable space group: P -1
;
_chemical_formula_sum "Si O2"
_cell_formula_units_Z 12
_cell_length_a 11.790072
_cell_length_b 11.402912
_cell_length_c 9.082345
_cell_angle_alpha 41.825390
_cell_angle_beta 61.306906
_cell_angle_gamma 39.810817
_cell_volume 509.009921
_symmetry_space_group_name_H-M "P -1"
_symmetry_group_IT_number 2
_symmetry_cell_setting 'triclinic'
loop_
_space_group_symop_operation_xyz
x,y,z
-x,-y,-z
loop_
_atom_site_type_symbol
_atom_site_label
_atom_site_fract_x
_atom_site_fract_y
_atom_site_fract_z
Si Si1 0.165141 0.231912 0.089450
Si Si2 0.407316 0.322646 0.879201
Si Si3 0.271824 0.806207 0.612532
Si Si4 0.631528 0.612064 0.488573
Si Si5 0.758855 0.864753 0.199600
Si Si6 0.022687 0.116265 0.750044
O O1 0.176948 0.030006 0.347408
O O2 0.336367 0.190690 0.064329
O O3 0.138540 0.240196 0.923025
O O4 0.000000 0.500000 0.000000
O O5 0.264726 0.610329 0.745190
O O6 0.463807 0.291190 0.702616
O O7 0.591637 0.162473 0.009756
O O8 0.485012 0.653964 0.644874
O O9 0.163002 0.914058 0.730839
O O10 0.676091 0.756436 0.397426
O O11 0.823392 0.332020 0.605465
O O12 0.895918 0.785292 0.318821
O O13 0.000000 0.000000 0.000000
#
# Coordination Sequence:
#
# PCOD8033143 Si02
#       6
#     2   2   2   2   2   2
#     4  11  24  43  74 106 136 181 241 291 348 416
#     4  11  23  44  77 106 137 180 239 297 343 419
#     4  12  25  46  76 103 140 192 236 283 358 419
#     4  11  23  47  75 103 141 187 236 293 353 414
#     4  11  23  48  70 103 145 181 231 300 349 416
#     4  12  30  45  65 108 149 186 236 290 352 421
#
# _framework density 23.57518
#
# number of rings (size 3 to 8) (size 9 to 14) (size 15 to 20)
#    0.000    0.667    3.333    5.000    4.667    4.667 
#    0.000    0.000    0.000    0.000    0.000    0.000 
#    0.000    0.000    0.000    0.000    0.000    0.000 
#
# Total GULP energy -148786.477550 kJ/mol
# GULP energy per Si atom -12398.873129 kJ/mol
# Density = 2.352152 g / cm^3
# Si number density = 23.575180 Si / 1000 Ang^3
#
#
#
# Elastic Constant Matrix: (Units=GPa)
#
#
# Indices 1 2 3 4 5 6 
#
# 1 44.3562 11.6088 -6.9897 7.1437 1.5015 5.0357
# 2 11.6088 153.8548 22.7837 4.5661 -6.1307 -1.6797
# 3 -6.9897 22.7837 62.7498 2.4676 -16.2503 5.7382
# 4 7.1437 4.5661 2.4676 41.8852 -1.7755 -3.9016
# 5 1.5015 -6.1307 -16.2503 -1.7755 29.5410 -14.5608
# 6 5.0357 -1.6797 5.7382 -3.9016 -14.5608 40.7936
#
#
#
# Elastic Compliance Matrix: (Units=1/GPa)
#
#
# Indices 1 2 3 4 5 6 
#
# 1 0.025219 -0.002465 0.003696 -0.004836 -0.002572 -0.005115
# 2 -0.002465 0.007143 -0.002806 -0.000051 0.000665 0.001226
# 3 0.003696 -0.002806 0.020056 -0.001053 0.010287 0.000178
# 4 -0.004836 -0.000051 -0.001053 0.025313 0.003321 0.004349
# 5 -0.002572 0.000665 0.010287 0.003321 0.048045 0.016364
# 6 -0.005115 0.001226 0.000178 0.004349 0.016364 0.031428
#
#
# Mechanical properties :
#
#
# Convention : Reuss Voigt Hill
#
# Bulk Modulus (GPa) = 20.29729 35.08517 27.69123
# Shear Modulus (GPa) = 28.28463 38.01448 33.14956
#
# Velocity S-wave (km/s) = 3.46752 4.01992 3.75390
# Velocity P-wave (km/s) = 4.96587 6.03829 5.52815
#
# Compressibility (1/GPa) = 0.04926767
#
# Stress axis : x y z
#
# Youngs Moduli (GPa) = 39.65285 140.00689 49.86075
#
# Poissons Ratio (x) = 0.34511 -0.18428
# Poissons Ratio (y) = 0.09774 0.13990
# Poissons Ratio (z) = -0.14655 0.39282
#
# Static dielectric constant tensor:
#      x y z
#    x 5.155560 -0.872520 0.872240 
#    y -0.872520 5.073840 -1.205390 
#    z 0.872240 -1.205390 5.934710 
# 
# 
# High freq. dielectric constant tensor:
#      x y z
#    x 1.929310 -0.010870 -0.015290 
#    y -0.010870 1.946950 -0.018560 
#    z -0.015290 -0.018560 1.928540 
# 
# From -- ./inp_files/154423.got.cif
#   From: 2010.06.25/outbox.cif.g09.slc.cpg/sg2_78_cif.got.tgz:154423.got - 2010.06.27 13:26:56.
