data_PCOD8033432
_publ_section_title
;
Structure prediction by ZEFSAII (Michael W. Deem and Ramdas Pophale) SiO2 
 PCOD8033432
Probable space group: P -1
;
_chemical_formula_sum "Si O2"
_cell_formula_units_Z 14
_cell_length_a 5.370600
_cell_length_b 17.404663
_cell_length_c 7.606974
_cell_angle_alpha 54.816426
_cell_angle_beta 108.794575
_cell_angle_gamma 109.532356
_cell_volume 539.905611
_symmetry_space_group_name_H-M "P -1"
_symmetry_group_IT_number 2
_symmetry_cell_setting 'triclinic'
loop_
_space_group_symop_operation_xyz
x,y,z
-x,-y,-z
loop_
_atom_site_type_symbol
_atom_site_label
_atom_site_fract_x
_atom_site_fract_y
_atom_site_fract_z
Si Si1 0.356040 0.818257 0.344429
Si Si2 0.635991 0.675652 0.465125
Si Si3 0.050531 0.131393 0.059609
Si Si4 0.146948 0.658097 0.762382
Si Si5 0.366305 0.326432 0.931179
Si Si6 0.813768 0.491082 0.301278
Si Si7 0.484662 0.979175 0.728618
O O1 0.510687 0.772110 0.286395
O O2 0.357450 0.738966 0.599229
O O3 0.508235 0.923274 0.292303
O O4 0.061576 0.825741 0.197756
O O5 0.709813 0.652441 0.313760
O O6 0.456774 0.579190 0.619481
O O7 0.873802 0.698750 0.635337
O O8 0.798804 0.084375 0.189048
O O9 0.248367 0.063964 0.119705
O O10 0.224549 0.218721 0.095372
O O11 0.072003 0.554702 0.783737
O O12 0.307192 0.655019 0.987156
O O13 0.243756 0.405270 0.910994
O O14 0.000000 0.500000 0.500000
O O15 0.500000 0.000000 0.500000
#
# Coordination Sequence:
#
# PCOD8033432 Si02
#       7
#     2   2   2   2   2   2   2
#     4  11  25  48  74 106 153 193 251 315 378 455
#     4  11  24  48  72 107 151 202 250 312 382 449
#     4  12  26  49  76 112 149 207 247 310 389 448
#     4  11  25  45  72 109 146 197 255 311 378 449
#     4  12  24  47  74 109 151 197 258 311 379 448
#     4  11  23  46  71 105 152 200 251 317 379 450
#     4  12  28  50  78 115 151 194 259 316 378 457
#
# _framework density 25.93046
#
# number of rings (size 3 to 8) (size 9 to 14) (size 15 to 20)
#    0.000    0.571    2.857    4.714    2.000    0.571 
#   23.143    0.000    0.000    0.000    0.000    0.000 
#    0.000    0.000    0.000    0.000    0.000    0.000 
#
# Total GULP energy -173458.635597 kJ/mol
# GULP energy per Si atom -12389.902543 kJ/mol
# Density = 2.587144 g / cm^3
# Si number density = 25.930460 Si / 1000 Ang^3
#
#
#
# Elastic Constant Matrix: (Units=GPa)
#
#
# Indices 1 2 3 4 5 6 
#
# 1 93.1269 37.2842 5.6749 -9.9376 24.0964 7.0412
# 2 37.2842 167.7707 35.4423 -16.8623 22.8005 8.2568
# 3 5.6749 35.4423 76.8470 6.8363 26.6725 1.9731
# 4 -9.9376 -16.8623 6.8363 47.3010 -0.2272 23.5003
# 5 24.0964 22.8005 26.6725 -0.2272 43.6019 4.4386
# 6 7.0412 8.2568 1.9731 23.5003 4.4386 38.4480
#
#
#
# Elastic Compliance Matrix: (Units=1/GPa)
#
#
# Indices 1 2 3 4 5 6 
#
# 1 0.014080 -0.002029 0.002366 0.003639 -0.007783 -0.003590
# 2 -0.002029 0.007957 -0.003761 0.005033 -0.000287 -0.004187
# 3 0.002366 -0.003761 0.018922 -0.005729 -0.011375 0.004218
# 4 0.003639 0.005033 -0.005729 0.036394 0.001481 -0.023869
# 5 -0.007783 -0.000287 -0.011375 0.001481 0.034641 -0.002834
# 6 -0.003590 -0.004187 0.004218 -0.023869 -0.002834 0.042266
#
#
# Mechanical properties :
#
#
# Convention : Reuss Voigt Hill
#
# Bulk Modulus (GPa) = 29.31560 54.94970 42.13265
# Shear Modulus (GPa) = 28.98960 43.15974 36.07467
#
# Velocity S-wave (km/s) = 3.34724 4.08418 3.73394
# Velocity P-wave (km/s) = 5.12530 6.59378 5.90536
#
# Compressibility (1/GPa) = 0.03411153
#
# Stress axis : x y z
#
# Youngs Moduli (GPa) = 71.02457 125.68152 52.84831
#
# Poissons Ratio (x) = 0.25495 -0.12502
# Poissons Ratio (y) = 0.14407 0.19874
# Poissons Ratio (z) = -0.16802 0.47263
#
# Static dielectric constant tensor:
#      x y z
#    x 4.592810 0.065530 0.200450 
#    y 0.065530 5.228160 -0.210040 
#    z 0.200450 -0.210040 4.646380 
# 
# 
# High freq. dielectric constant tensor:
#      x y z
#    x 2.035490 0.008360 0.015840 
#    y 0.008360 2.048920 -0.010930 
#    z 0.015840 -0.010930 2.043660 
# 
# From -- ./inp_files/138640.got.cif
#   From: 2010.06.25/outbox.cif.g09.slc.cpg/sg2_70_cif.got.tgz:138640.got - 2010.06.27 13:26:56.
