data_PCOD8033105
_publ_section_title
;
Structure prediction by ZEFSAII (Michael W. Deem and Ramdas Pophale) SiO2 
 PCOD8033105
Probable space group: P -1
;
_chemical_formula_sum "Si O2"
_cell_formula_units_Z 16
_cell_length_a 9.498923
_cell_length_b 17.719696
_cell_length_c 12.007435
_cell_angle_alpha 30.304756
_cell_angle_beta 120.676091
_cell_angle_gamma 133.100518
_cell_volume 726.990829
_symmetry_space_group_name_H-M "P -1"
_symmetry_group_IT_number 2
_symmetry_cell_setting 'triclinic'
loop_
_space_group_symop_operation_xyz
x,y,z
-x,-y,-z
loop_
_atom_site_type_symbol
_atom_site_label
_atom_site_fract_x
_atom_site_fract_y
_atom_site_fract_z
Si Si1 0.512065 0.864219 0.100037
Si Si2 0.158410 0.728403 0.972539
Si Si3 0.975284 0.885605 0.839749
Si Si4 0.919702 0.111831 0.873679
Si Si5 0.515504 0.595537 0.999444
Si Si6 0.315902 0.804431 0.691566
Si Si7 0.303979 0.295343 0.478651
Si Si8 0.016271 0.348305 0.411142
O O1 0.316719 0.746309 0.100699
O O2 0.553767 0.738048 0.349802
O O3 0.500000 0.000000 0.000000
O O4 0.685174 0.981621 0.932087
O O5 0.996334 0.515949 0.177925
O O6 0.242868 0.791353 0.803972
O O7 0.055442 0.826774 0.845714
O O8 0.737466 0.776039 0.875463
O O9 0.103785 0.104416 0.601591
O O10 0.019869 0.832727 0.044480
O O11 0.991254 0.287948 0.605925
O O12 0.000000 0.000000 0.000000
O O13 0.445647 0.433476 0.265040
O O14 0.500000 0.500000 0.000000
O O15 0.364546 0.656692 0.870597
O O16 0.157435 0.797327 0.553388
O O17 0.500000 0.000000 0.500000
O O18 0.227433 0.394189 0.396189
#
# Coordination Sequence:
#
# PCOD8033105 Si02
#       8
#     2   2   2   2   2   2   2   2
#     4  11  23  45  71 107 141 186 243 289 365 428
#     4  12  26  45  73 104 148 185 235 306 359 429
#     4  11  26  48  72 109 142 191 238 297 371 417
#     4  11  23  44  74 102 140 184 240 295 353 431
#     4  12  29  48  73 109 144 191 250 296 351 440
#     4  12  28  48  73 105 142 196 243 293 362 437
#     4  11  25  47  73 104 148 187 239 300 357 429
#     4  12  25  45  73 104 144 189 239 299 360 428
#
# _framework density 22.008531000000001
#
# number of rings (size 3 to 8) (size 9 to 14) (size 15 to 20)
#    0.000    0.500    6.250    2.625    7.000    3.500 
#    0.000    0.000    0.000    0.000    0.000    0.000 
#    0.000    0.000    0.000    0.000    0.000    0.000 
#
# Total GULP energy -198347.254686 kJ/mol
# GULP energy per Si atom -12396.703418 kJ/mol
# Density = 2.195844 g / cm^3
# Si number density = 22.008531 Si / 1000 Ang^3
#
#
#
# Elastic Constant Matrix: (Units=GPa)
#
#
# Indices 1 2 3 4 5 6 
#
# 1 127.4515 15.1449 28.1378 7.1450 -7.9684 -13.2404
# 2 15.1449 71.2664 1.6183 2.2523 -8.9723 2.6828
# 3 28.1378 1.6183 85.5607 -5.5415 -23.9144 -10.4039
# 4 7.1450 2.2523 -5.5415 34.7721 2.8290 -2.3722
# 5 -7.9684 -8.9723 -23.9144 2.8290 43.2591 0.0221
# 6 -13.2404 2.6828 -10.4039 -2.3722 0.0221 46.3005
#
#
#
# Elastic Compliance Matrix: (Units=1/GPa)
#
#
# Indices 1 2 3 4 5 6 
#
# 1 0.009008 -0.001881 -0.002877 -0.002040 -0.000189 0.001934
# 2 -0.001881 0.014904 0.001092 -0.000763 0.003399 -0.001197
# 3 -0.002877 0.001092 0.015341 0.002496 0.008013 0.002685
# 4 -0.002040 -0.000763 0.002496 0.029821 -0.001105 0.001550
# 5 -0.000189 0.003399 0.008013 -0.001105 0.028288 0.001479
# 6 0.001934 -0.001197 0.002685 0.001550 0.001479 0.022903
#
#
# Mechanical properties :
#
#
# Convention : Reuss Voigt Hill
#
# Bulk Modulus (GPa) = 31.32739 41.56451 36.44595
# Shear Modulus (GPa) = 36.16996 40.82484 38.49740
#
# Velocity S-wave (km/s) = 4.05835 4.31159 4.18689
# Velocity P-wave (km/s) = 6.01875 6.61159 6.32212
#
# Compressibility (1/GPa) = 0.03192095
#
# Stress axis : x y z
#
# Youngs Moduli (GPa) = 111.00943 67.09658 65.18611
#
# Poissons Ratio (x) = 0.12622 0.18751
# Poissons Ratio (y) = 0.20882 -0.07117
# Poissons Ratio (z) = 0.31933 -0.07325
#
# Static dielectric constant tensor:
#      x y z
#    x 4.309860 0.256530 0.117370 
#    y 0.256530 4.697970 0.347820 
#    z 0.117370 0.347820 4.433020 
# 
# 
# High freq. dielectric constant tensor:
#      x y z
#    x 1.884450 0.001490 -0.001900 
#    y 0.001490 1.869570 -0.000780 
#    z -0.001900 -0.000780 1.871270 
# 
# From -- ./inp_files/307152.got.cif
#   From: 2010.06.25/outbox.cif.g09.slc.cpg/sg2_154_cif.got.tgz:307152.got - 2010.06.27 13:26:56.
