data_PCOD8033255
_publ_section_title
;
Structure prediction by ZEFSAII (Michael W. Deem and Ramdas Pophale) SiO2 
 PCOD8033255
Probable space group: P -1
;
_chemical_formula_sum "Si O2"
_cell_formula_units_Z 16
_cell_length_a 18.002907
_cell_length_b 8.718422
_cell_length_c 12.046537
_cell_angle_alpha 103.650415
_cell_angle_beta 38.381920
_cell_angle_gamma 132.545407
_cell_volume 662.557820
_symmetry_space_group_name_H-M "P -1"
_symmetry_group_IT_number 2
_symmetry_cell_setting 'triclinic'
loop_
_space_group_symop_operation_xyz
x,y,z
-x,-y,-z
loop_
_atom_site_type_symbol
_atom_site_label
_atom_site_fract_x
_atom_site_fract_y
_atom_site_fract_z
Si Si1 0.211837 0.257272 0.728125
Si Si2 0.053105 0.778207 0.295682
Si Si3 0.071688 0.601794 0.807979
Si Si4 0.823362 0.536638 0.925787
Si Si5 0.532865 0.783194 0.567199
Si Si6 0.880913 0.900015 0.429134
Si Si7 0.761889 0.357422 0.744504
Si Si8 0.624480 0.879632 0.856582
O O1 0.341818 0.550317 0.665960
O O2 0.331981 0.225352 0.598512
O O3 0.197516 0.275789 0.617803
O O4 0.000000 0.000000 0.000000
O O5 0.995586 0.622809 0.224074
O O6 0.963701 0.858203 0.408962
O O7 0.967765 0.605591 0.477657
O O8 0.292978 0.044121 0.098459
O O9 0.955426 0.626093 0.893509
O O10 0.318467 0.904617 0.573823
O O11 0.000000 0.500000 0.000000
O O12 0.816407 0.392219 0.817262
O O13 0.585357 0.321625 0.195709
O O14 0.925556 0.793575 0.789168
O O15 0.704076 0.816875 0.679723
O O16 0.670970 0.091595 0.768773
O O17 0.622253 0.365313 0.886299
#
# Coordination Sequence:
#
# PCOD8033255 Si02
#       8
#     2   2   2   2   2   2   2   2
#     4  11  23  45  71 107 141 191 247 299 362 442
#     4  12  27  45  70 110 151 192 239 309 372 431
#     4  12  29  49  73 108 151 195 248 310 365 436
#     4  12  24  47  77 105 144 195 246 302 371 441
#     4  11  25  44  77 104 139 196 252 299 365 433
#     4  12  25  45  73 103 154 192 236 310 375 433
#     4  11  25  44  77 107 141 196 250 296 366 450
#     4  11  24  47  70 106 145 190 246 301 369 436
#
# _framework density 24.148838000000001
#
# number of rings (size 3 to 8) (size 9 to 14) (size 15 to 20)
#    0.000    0.500    5.000    2.250    7.000    1.000 
#    4.500    0.000    0.000    0.000    0.000    0.000 
#    0.000    0.000    0.000    0.000    0.000    0.000 
#
# Total GULP energy -198209.941789 kJ/mol
# GULP energy per Si atom -12388.121362 kJ/mol
# Density = 2.409387 g / cm^3
# Si number density = 24.148838 Si / 1000 Ang^3
#
#
#
# Elastic Constant Matrix: (Units=GPa)
#
#
# Indices 1 2 3 4 5 6 
#
# 1 71.9173 39.5142 23.7172 11.9273 -7.0548 25.7745
# 2 39.5142 81.3538 42.1121 12.1377 2.7417 17.0088
# 3 23.7172 42.1121 124.0841 14.2754 -10.8901 15.0520
# 4 11.9273 12.1377 14.2754 41.4198 3.0796 -3.8148
# 5 -7.0548 2.7417 -10.8901 3.0796 38.4141 6.8167
# 6 25.7745 17.0088 15.0520 -3.8148 6.8167 41.0379
#
#
#
# Elastic Compliance Matrix: (Units=1/GPa)
#
#
# Indices 1 2 3 4 5 6 
#
# 1 0.026330 -0.009701 0.001817 -0.007485 0.009382 -0.015437
# 2 -0.009701 0.019921 -0.005284 -0.000828 -0.004721 0.000482
# 3 0.001817 -0.005284 0.010805 -0.003423 0.004762 -0.004023
# 4 -0.007485 -0.000828 -0.003423 0.029125 -0.006408 0.010071
# 5 0.009382 -0.004721 0.004762 -0.006408 0.032014 -0.011596
# 6 -0.015437 0.000482 -0.004023 0.010071 -0.011596 0.038202
#
#
# Mechanical properties :
#
#
# Convention : Reuss Voigt Hill
#
# Bulk Modulus (GPa) = 32.55314 54.22689 43.39001
# Shear Modulus (GPa) = 25.91036 35.64181 30.77608
#
# Velocity S-wave (km/s) = 3.27914 3.84594 3.57379
# Velocity P-wave (km/s) = 5.27697 6.49813 5.91913
#
# Compressibility (1/GPa) = 0.03071901
#
# Stress axis : x y z
#
# Youngs Moduli (GPa) = 37.97934 50.19802 92.54992
#
# Poissons Ratio (x) = 0.48699 -0.16815
# Poissons Ratio (y) = 0.36845 0.48905
# Poissons Ratio (z) = -0.06900 0.26525
#
# Static dielectric constant tensor:
#      x y z
#    x 4.431020 0.480810 -0.256410 
#    y 0.480810 4.817170 -0.052260 
#    z -0.256410 -0.052260 4.501120 
# 
# 
# High freq. dielectric constant tensor:
#      x y z
#    x 1.953880 0.012820 -0.018030 
#    y 0.012820 1.971060 0.012560 
#    z -0.018030 0.012560 1.960540 
# 
# From -- ./inp_files/462201.got.cif
#   From: 2010.06.25/outbox.cif.g09.slc.cpg/sg2_232_cif.got.tgz:462201.got - 2010.06.27 13:26:56.
