data_PCOD8033082
_publ_section_title
;
Structure prediction by ZEFSAII (Michael W. Deem and Ramdas Pophale) SiO2 
 PCOD8033082
Probable space group: P -1
;
_chemical_formula_sum "Si O2"
_cell_formula_units_Z 16
_cell_length_a 15.346439
_cell_length_b 10.951088
_cell_length_c 14.208139
_cell_angle_alpha 148.658075
_cell_angle_beta 142.859357
_cell_angle_gamma 57.333913
_cell_volume 669.954221
_symmetry_space_group_name_H-M "P -1"
_symmetry_group_IT_number 2
_symmetry_cell_setting 'triclinic'
loop_
_space_group_symop_operation_xyz
x,y,z
-x,-y,-z
loop_
_atom_site_type_symbol
_atom_site_label
_atom_site_fract_x
_atom_site_fract_y
_atom_site_fract_z
Si Si1 0.252323 0.630002 0.028362
Si Si2 0.649668 0.984108 0.168665
Si Si3 0.912706 0.834482 0.069271
Si Si4 0.899020 0.519997 0.672065
Si Si5 0.841625 0.321333 0.302649
Si Si6 0.324855 0.508603 0.211148
Si Si7 0.724617 0.868533 0.356487
Si Si8 0.545283 0.064105 0.749781
O O1 0.278782 0.406289 0.849368
O O2 0.076034 0.597239 0.836320
O O3 0.261902 0.616702 0.140125
O O4 0.384329 0.902251 0.274488
O O5 0.646458 0.958039 0.261088
O O6 0.820716 0.236598 0.467366
O O7 0.644249 0.730356 0.948739
O O8 0.500000 0.000000 0.000000
O O9 0.855071 0.060614 0.177561
O O10 0.894070 0.741386 0.882297
O O11 0.799868 0.581142 0.868549
O O12 0.093842 0.925966 0.323196
O O13 0.808746 0.476439 0.464544
O O14 0.000000 0.500000 0.500000
O O15 0.689288 0.260621 0.067517
O O16 0.490630 0.767696 0.548640
O O17 0.602799 0.855769 0.326248
#
# Coordination Sequence:
#
# PCOD8033082 Si02
#       8
#     2   2   2   2   2   2   2   2
#     4  11  23  46  71 105 147 194 241 299 360 433
#     4  11  24  43  70 107 149 191 238 302 370 425
#     4  12  26  46  77 110 143 195 246 294 367 435
#     4  12  24  45  75 101 147 189 247 291 360 433
#     4  12  26  50  71 105 151 189 237 304 363 436
#     4  11  25  44  73 105 149 187 242 306 359 428
#     4  11  23  44  73 107 146 192 242 303 362 426
#     4  12  25  44  72 107 147 192 245 297 365 433
#
# _framework density 23.882228000000001
#
# number of rings (size 3 to 8) (size 9 to 14) (size 15 to 20)
#    0.000    0.500    3.750    3.750    1.750    4.500 
#    0.000    0.000    0.000    0.000    0.000    0.000 
#    0.000    0.000    0.000    0.000    0.000    0.000 
#
# Total GULP energy -198282.594932 kJ/mol
# GULP energy per Si atom -12392.662183 kJ/mol
# Density = 2.382787 g / cm^3
# Si number density = 23.882228 Si / 1000 Ang^3
#
#
#
# Elastic Constant Matrix: (Units=GPa)
#
#
# Indices 1 2 3 4 5 6 
#
# 1 117.9143 23.8969 50.8520 4.4158 11.7556 13.5728
# 2 23.8969 66.0659 24.1783 -9.0906 3.0657 10.4314
# 3 50.8520 24.1783 121.0850 -6.7284 8.2579 7.2259
# 4 4.4158 -9.0906 -6.7284 32.3749 8.5885 -0.8374
# 5 11.7556 3.0657 8.2579 8.5885 57.8732 2.7357
# 6 13.5728 10.4314 7.2259 -0.8374 2.7357 37.8412
#
#
#
# Elastic Compliance Matrix: (Units=1/GPa)
#
#
# Indices 1 2 3 4 5 6 
#
# 1 0.011297 -0.002505 -0.004184 -0.002912 -0.001012 -0.002554
# 2 -0.002505 0.018074 -0.002011 0.005107 -0.000753 -0.003532
# 3 -0.004184 -0.002011 0.010609 0.002461 -0.000930 0.000151
# 4 -0.002912 0.005107 0.002461 0.034613 -0.005182 0.000307
# 5 -0.001012 -0.000753 -0.000930 -0.005182 0.018459 -0.000701
# 6 -0.002554 -0.003532 0.000151 0.000307 -0.000701 0.028344
#
#
# Mechanical properties :
#
#
# Convention : Reuss Voigt Hill
#
# Bulk Modulus (GPa) = 44.29067 55.87994 50.08531
# Shear Modulus (GPa) = 34.17067 39.36041 36.76554
#
# Velocity S-wave (km/s) = 3.78669 4.06409 3.92784
# Velocity P-wave (km/s) = 6.14040 6.74325 6.44887
#
# Compressibility (1/GPa) = 0.02257812
#
# Stress axis : x y z
#
# Youngs Moduli (GPa) = 88.51939 55.32836 94.26199
#
# Poissons Ratio (x) = 0.13861 0.39444
# Poissons Ratio (y) = 0.22177 0.18956
# Poissons Ratio (z) = 0.37041 0.11126
#
# Static dielectric constant tensor:
#      x y z
#    x 4.564750 0.344130 0.050230 
#    y 0.344130 4.350020 -0.031440 
#    z 0.050230 -0.031440 4.855480 
# 
# 
# High freq. dielectric constant tensor:
#      x y z
#    x 1.965050 0.013130 0.000880 
#    y 0.013130 1.925570 -0.002310 
#    z 0.000880 -0.002310 1.968270 
# 
# From -- ./inp_files/532825.got.cif
#   From: 2010.06.25/outbox.cif.g09.slc.cpg/sg2_267_cif.got.tgz:532825.got - 2010.06.27 13:26:56.
