data_PCOD8033642
_publ_section_title
;
Structure prediction by ZEFSAII (Michael W. Deem and Ramdas Pophale) SiO2 
 PCOD8033642
Probable space group: P -1
;
_chemical_formula_sum "Si O2"
_cell_formula_units_Z 14
_cell_length_a 9.021892
_cell_length_b 9.399844
_cell_length_c 11.920118
_cell_angle_alpha 60.739713
_cell_angle_beta 127.934941
_cell_angle_gamma 133.892696
_cell_volume 571.067633
_symmetry_space_group_name_H-M "P -1"
_symmetry_group_IT_number 2
_symmetry_cell_setting 'triclinic'
loop_
_space_group_symop_operation_xyz
x,y,z
-x,-y,-z
loop_
_atom_site_type_symbol
_atom_site_label
_atom_site_fract_x
_atom_site_fract_y
_atom_site_fract_z
Si Si1 0.076919 0.978861 0.272027
Si Si2 0.026153 0.771990 0.745220
Si Si3 0.481930 0.579762 0.316406
Si Si4 0.676062 0.953001 0.411906
Si Si5 0.560880 0.838707 0.807875
Si Si6 0.432757 0.791094 0.005161
Si Si7 0.190792 0.468900 0.642171
O O1 0.925193 0.744731 0.270921
O O2 0.918706 0.053135 0.207767
O O3 0.262628 0.038459 0.433333
O O4 0.208883 0.096587 0.175016
O O5 0.758689 0.605124 0.680653
O O6 0.170398 0.683276 0.880356
O O7 0.099582 0.873348 0.617687
O O8 0.587474 0.739583 0.402518
O O9 0.651083 0.512044 0.395699
O O10 0.443024 0.658251 0.153430
O O11 0.475126 0.985881 0.295135
O O12 0.590988 0.816842 0.962881
O O13 0.343079 0.630780 0.743873
O O14 0.500000 0.000000 0.000000
O O15 0.000000 0.500000 0.500000
#
# Coordination Sequence:
#
# PCOD8033642 Si02
#       7
#     2   2   2   2   2   2   2
#     4  12  24  45  69 105 148 183 230 293 356 410
#     4  11  24  43  72 107 138 187 233 287 350 411
#     4  12  25  46  74 104 140 191 236 288 350 414
#     4  11  24  43  74 102 144 186 236 288 345 424
#     4  11  25  45  71 103 144 185 231 292 356 410
#     4  11  23  50  74 100 142 182 243 290 339 426
#     4  12  26  44  70 106 146 182 234 290 354 420
#
# _framework density 24.515485000000002
#
# number of rings (size 3 to 8) (size 9 to 14) (size 15 to 20)
#    0.000    0.571    7.143    1.286    0.000    4.571 
#    2.571    1.429    0.000    0.000    0.000    0.000 
#    0.000    0.000    0.000    0.000    0.000    0.000 
#
# Total GULP energy -173662.356603 kJ/mol
# GULP energy per Si atom -12404.454043 kJ/mol
# Density = 2.445969 g / cm^3
# Si number density = 24.515485 Si / 1000 Ang^3
#
#
#
# Elastic Constant Matrix: (Units=GPa)
#
#
# Indices 1 2 3 4 5 6 
#
# 1 118.3508 21.8599 22.9902 -11.6976 -4.5053 6.9843
# 2 21.8599 106.7177 1.9431 10.0391 -5.9589 3.6441
# 3 22.9902 1.9431 65.3532 -10.8057 -14.6998 0.8498
# 4 -11.6976 10.0391 -10.8057 29.3437 -7.4670 -1.6446
# 5 -4.5053 -5.9589 -14.6998 -7.4670 42.0646 -1.6832
# 6 6.9843 3.6441 0.8498 -1.6446 -1.6832 47.1084
#
#
#
# Elastic Compliance Matrix: (Units=1/GPa)
#
#
# Indices 1 2 3 4 5 6 
#
# 1 0.009836 -0.002259 -0.002661 0.003762 0.000428 -0.001089
# 2 -0.002259 0.010292 -0.000155 -0.004423 0.000353 -0.000600
# 3 -0.002661 -0.000155 0.019373 0.008182 0.007940 0.000626
# 4 0.003762 -0.004423 0.008182 0.042809 0.010295 0.001499
# 5 0.000428 0.000353 0.007940 0.010295 0.028517 0.001144
# 6 -0.001089 -0.000600 0.000626 0.001499 0.001144 0.021517
#
#
# Mechanical properties :
#
#
# Convention : Reuss Voigt Hill
#
# Bulk Modulus (GPa) = 34.07062 42.66757 38.36909
# Shear Modulus (GPa) = 32.83469 39.94522 36.38996
#
# Velocity S-wave (km/s) = 3.66368 4.04095 3.85693
# Velocity P-wave (km/s) = 5.64132 6.26214 5.95982
#
# Compressibility (1/GPa) = 0.02935080
#
# Stress axis : x y z
#
# Youngs Moduli (GPa) = 101.66792 97.15929 51.61875
#
# Poissons Ratio (x) = 0.21950 0.13733
# Poissons Ratio (y) = 0.22968 0.00803
# Poissons Ratio (z) = 0.27049 0.01511
#
# Static dielectric constant tensor:
#      x y z
#    x 4.970570 -0.230790 0.382760 
#    y -0.230790 4.566200 -0.167830 
#    z 0.382760 -0.167830 4.872270 
# 
# 
# High freq. dielectric constant tensor:
#      x y z
#    x 1.990560 -0.004320 0.001330 
#    y -0.004320 1.978040 0.001810 
#    z 0.001330 0.001810 1.970350 
# 
# From -- ./inp_files/381813.got.cif
#   From: 2010.06.25/outbox.cif.g09.slc.cpg/sg2_191_cif.got.tgz:381813.got - 2010.06.27 13:26:56.
