data_PCOD8033758
_publ_section_title
;
Structure prediction by ZEFSAII (Michael W. Deem and Ramdas Pophale) SiO2 
 PCOD8033758
Probable space group: P -1
;
_chemical_formula_sum "Si O2"
_cell_formula_units_Z 14
_cell_length_a 5.079381
_cell_length_b 28.910226
_cell_length_c 23.495313
_cell_angle_alpha 10.085029
_cell_angle_beta 75.059002
_cell_angle_gamma 74.809729
_cell_volume 583.052617
_symmetry_space_group_name_H-M "P -1"
_symmetry_group_IT_number 2
_symmetry_cell_setting 'triclinic'
loop_
_space_group_symop_operation_xyz
x,y,z
-x,-y,-z
loop_
_atom_site_type_symbol
_atom_site_label
_atom_site_fract_x
_atom_site_fract_y
_atom_site_fract_z
Si Si1 0.379231 0.041660 0.161722
Si Si2 0.039940 0.331210 0.646106
Si Si3 0.494598 0.957370 0.971289
Si Si4 0.613769 0.024105 0.334463
Si Si5 0.994305 0.876837 0.711264
Si Si6 0.369237 0.551648 0.268322
Si Si7 0.836095 0.732326 0.573910
O O1 0.407886 0.160892 0.952037
O O2 0.625257 0.822095 0.426847
O O3 0.406034 0.285621 0.907783
O O4 0.088610 0.920252 0.332487
O O5 0.000000 0.500000 0.500000
O O6 0.097269 0.520501 0.359944
O O7 0.800036 0.139956 0.878627
O O8 0.310535 0.141197 0.869008
O O9 0.504419 0.270742 0.583517
O O10 0.292468 0.054291 0.326432
O O11 0.772980 0.989421 0.426893
O O12 0.680621 0.769913 0.597961
O O13 0.716177 0.287072 0.978924
O O14 0.000000 0.000000 0.500000
O O15 0.056515 0.564880 0.081412
#
# Coordination Sequence:
#
# PCOD8033758 Si02
#       7
#     2   2   2   2   2   2   2
#     4  11  24  41  70  97 137 181 225 289 331 402
#     4  12  26  44  63  95 137 177 227 281 341 391
#     4  12  25  42  66  93 131 180 229 282 340 386
#     4  11  26  45  71 105 137 181 230 278 339 415
#     4  12  26  47  74 106 142 177 223 280 341 417
#     4  11  25  44  69  96 133 176 231 279 333 402
#     4  11  24  44  70 104 141 179 228 275 347 399
#
# _framework density 24.011555999999999
#
# number of rings (size 3 to 8) (size 9 to 14) (size 15 to 20)
#    0.000    0.571    1.429    6.857    2.000    5.714 
#    0.000    0.000    0.000    0.000    0.000    0.000 
#    0.000    0.000    0.000    0.000    0.000    0.000 
#
# Total GULP energy -173688.091437 kJ/mol
# GULP energy per Si atom -12406.292246 kJ/mol
# Density = 2.395690 g / cm^3
# Si number density = 24.011556 Si / 1000 Ang^3
#
#
#
# Elastic Constant Matrix: (Units=GPa)
#
#
# Indices 1 2 3 4 5 6 
#
# 1 124.6209 26.8664 18.6562 -1.3382 5.4840 -11.0246
# 2 26.8664 84.6430 2.2019 10.0522 -2.7967 -7.7002
# 3 18.6562 2.2019 35.4574 6.5413 -7.2057 -1.6594
# 4 -1.3382 10.0522 6.5413 41.1959 3.9353 8.4821
# 5 5.4840 -2.7967 -7.2057 3.9353 19.7267 3.2829
# 6 -11.0246 -7.7002 -1.6594 8.4821 3.2829 45.1359
#
#
#
# Elastic Compliance Matrix: (Units=1/GPa)
#
#
# Indices 1 2 3 4 5 6 
#
# 1 0.010278 -0.003456 -0.006947 0.002575 -0.006676 0.001667
# 2 -0.003456 0.013757 0.002881 -0.004811 0.004560 0.002181
# 3 -0.006947 0.002881 0.036815 -0.008538 0.017410 0.000486
# 4 0.002575 -0.004811 -0.008538 0.028866 -0.009402 -0.005247
# 5 -0.006676 0.004560 0.017410 -0.009402 0.061921 -0.002950
# 6 0.001667 0.002181 0.000486 -0.005247 -0.002950 0.024153
#
#
# Mechanical properties :
#
#
# Convention : Reuss Voigt Hill
#
# Bulk Modulus (GPa) = 21.83179 37.79671 29.81425
# Shear Modulus (GPa) = 24.25954 34.34481 29.30218
#
# Velocity S-wave (km/s) = 3.18201 3.78609 3.49712
# Velocity P-wave (km/s) = 4.75523 5.90660 5.36191
#
# Compressibility (1/GPa) = 0.04580476
#
# Stress axis : x y z
#
# Youngs Moduli (GPa) = 97.29102 72.69039 27.16275
#
# Poissons Ratio (x) = 0.25125 0.18870
# Poissons Ratio (y) = 0.33628 -0.07825
# Poissons Ratio (z) = 0.67590 -0.20940
#
# Static dielectric constant tensor:
#      x y z
#    x 4.599420 0.039830 0.188740 
#    y 0.039830 4.560580 -0.006930 
#    z 0.188740 -0.006930 4.307350 
# 
# 
# High freq. dielectric constant tensor:
#      x y z
#    x 1.962820 0.000460 0.008350 
#    y 0.000460 1.974890 -0.009480 
#    z 0.008350 -0.009480 1.943290 
# 
# From -- ./inp_files/550938.got.cif
#   From: 2010.06.25/outbox.cif.g09.slc.cpg/sg2_276_cif.got.tgz:550938.got - 2010.06.27 13:26:56.
