data_PCOD8033848
_publ_section_title
;
Structure prediction by ZEFSAII (Michael W. Deem and Ramdas Pophale) SiO2 
 PCOD8033848
Probable space group: P -1
;
_chemical_formula_sum "Si O2"
_cell_formula_units_Z 16
_cell_length_a 13.421546
_cell_length_b 6.455652
_cell_length_c 13.582098
_cell_angle_alpha 107.412518
_cell_angle_beta 40.531436
_cell_angle_gamma 103.493042
_cell_volume 729.694783
_symmetry_space_group_name_H-M "P -1"
_symmetry_group_IT_number 2
_symmetry_cell_setting 'triclinic'
loop_
_space_group_symop_operation_xyz
x,y,z
-x,-y,-z
loop_
_atom_site_type_symbol
_atom_site_label
_atom_site_fract_x
_atom_site_fract_y
_atom_site_fract_z
Si Si1 0.071828 0.630137 0.552932
Si Si2 0.607300 0.314811 0.423627
Si Si3 0.930439 0.529090 0.253895
Si Si4 0.407708 0.626130 0.221016
Si Si5 0.907661 0.043117 0.810621
Si Si6 0.885978 0.840737 0.007450
Si Si7 0.597896 0.217602 0.970200
Si Si8 0.561684 0.887887 0.298530
O O1 0.039692 0.497681 0.656961
O O2 0.253768 0.635559 0.401767
O O3 0.000000 0.500000 0.500000
O O4 0.988350 0.864146 0.654741
O O5 0.500000 0.500000 0.500000
O O6 0.772058 0.422234 0.324840
O O7 0.561592 0.203161 0.544722
O O8 0.586049 0.146111 0.325899
O O9 0.955796 0.781919 0.245426
O O10 0.053623 0.400828 0.079931
O O11 0.366531 0.675435 0.146689
O O12 0.513241 0.818751 0.214728
O O13 0.497727 0.395633 0.131423
O O14 0.761123 0.160000 0.888061
O O15 0.851404 0.937168 0.939056
O O16 0.731775 0.800588 0.179907
O O17 0.000000 0.000000 0.000000
O O18 0.500000 0.000000 0.000000
#
# Coordination Sequence:
#
# PCOD8033848 Si02
#       8
#     2   2   2   2   2   2   2   2
#     4  11  24  44  67  97 132 177 216 274 335 395
#     4  11  26  41  67  97 133 174 221 276 324 399
#     4  11  24  45  66  99 136 172 220 274 337 392
#     4  11  24  42  69  95 134 172 217 276 334 390
#     4  11  26  42  70 100 136 172 227 276 327 407
#     4  11  24  44  67  95 134 179 217 274 332 386
#     4  11  24  44  66  99 133 175 220 276 331 396
#     4  11  24  45  66  95 133 174 222 272 332 393
#
# _framework density 21.926976
#
# number of rings (size 3 to 8) (size 9 to 14) (size 15 to 20)
#    0.000    1.000    2.500    3.000    3.500   10.500 
#    0.000    0.000    0.000    0.000    0.000    0.000 
#    0.000    0.000    0.000    0.000    0.000    0.000 
#
# Total GULP energy -198335.494538 kJ/mol
# GULP energy per Si atom -12395.968409 kJ/mol
# Density = 2.187707 g / cm^3
# Si number density = 21.926976 Si / 1000 Ang^3
#
#
#
# Elastic Constant Matrix: (Units=GPa)
#
#
# Indices 1 2 3 4 5 6 
#
# 1 88.8943 31.5315 27.6106 28.0729 -7.5976 18.4105
# 2 31.5315 119.2000 40.6237 27.3699 -9.5801 25.4315
# 3 27.6106 40.6237 131.5278 31.1064 -21.0699 10.1419
# 4 28.0729 27.3699 31.1064 41.5242 6.7172 -2.8157
# 5 -7.5976 -9.5801 -21.0699 6.7172 37.8057 4.4812
# 6 18.4105 25.4315 10.1419 -2.8157 4.4812 40.4976
#
#
#
# Elastic Compliance Matrix: (Units=1/GPa)
#
#
# Indices 1 2 3 4 5 6 
#
# 1 0.019412 0.002073 0.002543 -0.019043 0.010802 -0.013283
# 2 0.002073 0.013675 0.000503 -0.012826 0.007794 -0.011410
# 3 0.002543 0.000503 0.012327 -0.013467 0.010693 -0.006678
# 4 -0.019043 -0.012826 -0.013467 0.062042 -0.028877 0.027593
# 5 0.010802 0.007794 0.010693 -0.028877 0.043981 -0.019357
# 6 -0.013283 -0.011410 -0.006678 0.027593 -0.019357 0.043629
#
#
# Mechanical properties :
#
#
# Convention : Reuss Voigt Hill
#
# Bulk Modulus (GPa) = 17.96892 59.90598 38.93745
# Shear Modulus (GPa) = 24.58452 39.95594 32.27023
#
# Velocity S-wave (km/s) = 3.35207 4.27339 3.84045
# Velocity P-wave (km/s) = 4.81606 7.19229 6.12060
#
# Compressibility (1/GPa) = 0.05565165
#
# Stress axis : x y z
#
# Youngs Moduli (GPa) = 51.51427 73.12368 81.12440
#
# Poissons Ratio (x) = -0.15158 -0.20630
# Poissons Ratio (y) = -0.10678 -0.04079
# Poissons Ratio (z) = -0.13100 -0.03677
#
# Static dielectric constant tensor:
#      x y z
#    x 3.962070 0.247490 -0.163370 
#    y 0.247490 4.167100 -0.013900 
#    z -0.163370 -0.013900 4.525310 
# 
# 
# High freq. dielectric constant tensor:
#      x y z
#    x 1.868300 0.018670 -0.004260 
#    y 0.018670 1.865560 0.008390 
#    z -0.004260 0.008390 1.881610 
# 
# From -- ./inp_files/39365.got.cif
#   From: 2010.06.25/outbox.cif.g09.slc.cpg/sg2_20_cif.got.tgz:39365.got - 2010.06.27 13:26:56.
