data_PCOD8033927
_publ_section_title
;
Structure prediction by ZEFSAII (Michael W. Deem and Ramdas Pophale) SiO2 
 PCOD8033927
Probable space group: P -1
;
_chemical_formula_sum "Si O2"
_cell_formula_units_Z 14
_cell_length_a 15.575110
_cell_length_b 28.796184
_cell_length_c 16.118503
_cell_angle_alpha 17.751230
_cell_angle_beta 162.100539
_cell_angle_gamma 160.163460
_cell_volume 630.194803
_symmetry_space_group_name_H-M "P -1"
_symmetry_group_IT_number 2
_symmetry_cell_setting 'triclinic'
loop_
_space_group_symop_operation_xyz
x,y,z
-x,-y,-z
loop_
_atom_site_type_symbol
_atom_site_label
_atom_site_fract_x
_atom_site_fract_y
_atom_site_fract_z
Si Si1 0.234813 0.832303 0.148300
Si Si2 0.419448 0.402275 0.841860
Si Si3 0.327285 0.116999 0.124537
Si Si4 0.930853 0.397328 0.903747
Si Si5 0.314086 0.612908 0.132970
Si Si6 0.808435 0.111076 0.164899
Si Si7 0.559996 0.655540 0.848557
O O1 0.302957 0.718338 0.473403
O O2 0.488638 0.013722 0.082025
O O3 0.263585 0.794742 0.140999
O O4 0.883797 0.804846 0.883534
O O5 0.200426 0.497764 0.455762
O O6 0.294036 0.220707 0.997143
O O7 0.478347 0.400462 0.997063
O O8 0.747937 0.490685 0.953909
O O9 0.500000 0.000000 0.500000
O O10 0.502386 0.229080 0.019626
O O11 0.000000 0.000000 0.000000
O O12 0.716872 0.325465 0.907663
O O13 0.989462 0.251201 0.157147
O O14 0.500000 0.500000 0.500000
O O15 0.000000 0.500000 0.000000
O O16 0.000000 0.000000 0.500000
O O17 0.500000 0.500000 0.000000
#
# Coordination Sequence:
#
# PCOD8033927 Si02
#       7
#     2   2   2   2   2   2   2
#     4  11  24  43  64  93 143 177 231 283 358 408
#     4  12  26  45  72 104 140 188 244 285 357 446
#     4  12  26  46  74 108 150 182 230 313 374 415
#     4  12  25  44  76 101 135 192 243 287 355 422
#     4  12  23  48  74 104 143 184 246 297 351 443
#     4  11  25  44  70 101 145 179 240 300 346 420
#     4  12  24  42  67  98 139 183 230 287 349 428
#
# _framework density 22.215354000000001
#
# number of rings (size 3 to 8) (size 9 to 14) (size 15 to 20)
#    0.000    0.286    4.286    4.714    4.000    2.286 
#    0.000    0.000    0.000    0.000    0.000    0.000 
#    0.000    0.000    0.000    0.000    0.000    0.000 
#
# Total GULP energy -173492.990911 kJ/mol
# GULP energy per Si atom -12392.356494 kJ/mol
# Density = 2.216479 g / cm^3
# Si number density = 22.215354 Si / 1000 Ang^3
#
#
#
# Elastic Constant Matrix: (Units=GPa)
#
#
# Indices 1 2 3 4 5 6 
#
# 1 114.2692 52.7499 42.6544 -18.3801 -4.9683 -14.4226
# 2 52.7499 149.9701 53.4848 9.6102 7.4289 0.5340
# 3 42.6544 53.4848 141.4246 3.0728 2.6340 -9.0911
# 4 -18.3801 9.6102 3.0728 38.4328 2.1774 3.9277
# 5 -4.9683 7.4289 2.6340 2.1774 38.3352 -4.8395
# 6 -14.4226 0.5340 -9.0911 3.9277 -4.8395 49.3679
#
#
#
# Elastic Compliance Matrix: (Units=1/GPa)
#
#
# Indices 1 2 3 4 5 6 
#
# 1 0.013384 -0.004483 -0.002342 0.007223 0.002761 0.003223
# 2 -0.004483 0.009398 -0.002183 -0.004018 -0.002240 -0.001713
# 3 -0.002342 -0.002183 0.008703 -0.001359 -0.000272 0.001024
# 4 0.007223 -0.004018 -0.001359 0.030642 0.000000 -0.000534
# 5 0.002761 -0.002240 -0.000272 0.000000 0.027333 0.003460
# 6 0.003223 -0.001713 0.001024 -0.000534 0.003460 0.021786
#
#
# Mechanical properties :
#
#
# Convention : Reuss Voigt Hill
#
# Bulk Modulus (GPa) = 74.25122 78.16025 76.20573
# Shear Modulus (GPa) = 37.38210 42.34549 39.86379
#
# Velocity S-wave (km/s) = 4.10654 4.37067 4.24066
# Velocity P-wave (km/s) = 7.48203 7.79293 7.63906
#
# Compressibility (1/GPa) = 0.01346779
#
# Stress axis : x y z
#
# Youngs Moduli (GPa) = 74.71613 106.40467 114.89785
#
# Poissons Ratio (x) = 0.47706 0.26912
# Poissons Ratio (y) = 0.33498 0.25084
# Poissons Ratio (z) = 0.17501 0.23230
#
# Static dielectric constant tensor:
#      x y z
#    x 4.239800 0.242140 -0.252180 
#    y 0.242140 4.306530 0.077380 
#    z -0.252180 0.077380 4.089650 
# 
# 
# High freq. dielectric constant tensor:
#      x y z
#    x 1.878530 0.008270 -0.014240 
#    y 0.008270 1.888010 0.015880 
#    z -0.014240 0.015880 1.881400 
# 
# From -- ./inp_files/535722.got.cif
#   From: 2010.06.25/outbox.cif.g09.slc.cpg/sg2_268_cif.got.tgz:535722.got - 2010.06.27 13:26:56.
