data_PCOD8033877
_publ_section_title
;
Structure prediction by ZEFSAII (Michael W. Deem and Ramdas Pophale) SiO2 
 PCOD8033877
Probable space group: P -1
;
_chemical_formula_sum "Si O2"
_cell_formula_units_Z 10
_cell_length_a 6.312134
_cell_length_b 8.430860
_cell_length_c 9.864469
_cell_angle_alpha 74.077680
_cell_angle_beta 72.154830
_cell_angle_gamma 98.138819
_cell_volume 465.698936
_symmetry_space_group_name_H-M "P -1"
_symmetry_group_IT_number 2
_symmetry_cell_setting 'triclinic'
loop_
_space_group_symop_operation_xyz
x,y,z
-x,-y,-z
loop_
_atom_site_type_symbol
_atom_site_label
_atom_site_fract_x
_atom_site_fract_y
_atom_site_fract_z
Si Si1 0.339597 0.448020 0.417297
Si Si2 0.900378 0.282773 0.703252
Si Si3 0.940738 0.708513 0.019813
Si Si4 0.377173 0.645992 0.844447
Si Si5 0.324221 0.073268 0.100844
O O1 0.500000 0.500000 0.500000
O O2 0.292522 0.610882 0.307929
O O3 0.477679 0.340849 0.325069
O O4 0.098285 0.332369 0.541234
O O5 0.798064 0.082342 0.741137
O O6 0.988910 0.316419 0.832843
O O7 0.859349 0.881539 0.977773
O O8 0.154406 0.725493 0.869192
O O9 0.729947 0.551878 0.051292
O O10 0.557638 0.752338 0.889578
O O11 0.500000 0.000000 0.000000
#
# Coordination Sequence:
#
# PCOD8033877 Si02
#       5
#     2   2   2   2   2
#     4  11  25  45  68  91 133 178 215 260 322 386
#     4  11  25  43  69  97 129 172 220 262 321 389
#     4  11  24  42  70  99 128 167 223 264 318 392
#     4  11  25  40  69  98 128 174 215 262 326 381
#     4  12  25  41  68 101 133 163 213 278 326 370
#
# _framework density 21.473102000000001
#
# number of rings (size 3 to 8) (size 9 to 14) (size 15 to 20)
#    0.000    0.800    4.000    2.400    5.600    0.800 
#    0.000    2.000    0.000    0.000    0.000    0.000 
#    0.000    0.000    0.000    0.000    0.000    0.000 
#
# Total GULP energy -123913.233214 kJ/mol
# GULP energy per Si atom -12391.323321 kJ/mol
# Density = 2.142423 g / cm^3
# Si number density = 21.473102 Si / 1000 Ang^3
#
#
#
# Elastic Constant Matrix: (Units=GPa)
#
#
# Indices 1 2 3 4 5 6 
#
# 1 128.0955 74.8419 76.9321 -3.5176 1.3435 -22.7106
# 2 74.8419 91.5697 59.2171 4.5604 14.2037 2.8440
# 3 76.9321 59.2171 111.7367 7.1789 -3.2145 -20.8946
# 4 -3.5176 4.5604 7.1789 45.6144 -9.6205 -5.5195
# 5 1.3435 14.2037 -3.2145 -9.6205 46.4901 2.6630
# 6 -22.7106 2.8440 -20.8946 -5.5195 2.6630 52.9661
#
#
#
# Elastic Compliance Matrix: (Units=1/GPa)
#
#
# Indices 1 2 3 4 5 6 
#
# 1 0.021757 -0.015533 -0.005432 0.006057 0.004512 0.008424
# 2 -0.015533 0.030857 -0.007682 -0.006624 -0.010220 -0.011524
# 3 -0.005432 -0.007682 0.017834 -0.001195 0.003213 0.004833
# 4 0.006057 -0.006624 -0.001195 0.025234 0.006714 0.004773
# 5 0.004512 -0.010220 0.003213 0.006714 0.025933 0.003147
# 6 0.008424 -0.011524 0.004833 0.004773 0.003147 0.025356
#
#
# Mechanical properties :
#
#
# Convention : Reuss Voigt Hill
#
# Bulk Modulus (GPa) = 76.02334 83.70935 79.86635
# Shear Modulus (GPa) = 23.96359 37.04149 30.50254
#
# Velocity S-wave (km/s) = 3.34426 4.15784 3.77304
# Velocity P-wave (km/s) = 7.09880 7.88151 7.50037
#
# Compressibility (1/GPa) = 0.01315385
#
# Stress axis : x y z
#
# Youngs Moduli (GPa) = 45.96264 32.40765 56.07299
#
# Poissons Ratio (x) = 0.50338 0.30459
# Poissons Ratio (y) = 0.71392 0.43077
# Poissons Ratio (z) = 0.24967 0.24896
#
# Static dielectric constant tensor:
#      x y z
#    x 4.309880 0.150020 -0.481140 
#    y 0.150020 4.093820 -0.643100 
#    z -0.481140 -0.643100 4.211750 
# 
# 
# High freq. dielectric constant tensor:
#      x y z
#    x 1.867470 -0.001310 -0.015050 
#    y -0.001310 1.846060 -0.000950 
#    z -0.015050 -0.000950 1.826660 
# 
# From -- ./inp_files/15790.got.cif
#   From: 2010.06.25/outbox.cif.g09.slc.cpg/sg2_8_cif.got.tgz:15790.got - 2010.06.27 13:26:56.
