data_PCOD8033697
_publ_section_title
;
Structure prediction by ZEFSAII (Michael W. Deem and Ramdas Pophale) SiO2 
 PCOD8033697
Probable space group: P -1
;
_chemical_formula_sum "Si O2"
_cell_formula_units_Z 14
_cell_length_a 23.634565
_cell_length_b 5.348742
_cell_length_c 6.437776
_cell_angle_alpha 131.241487
_cell_angle_beta 93.728066
_cell_angle_gamma 78.981861
_cell_volume 598.618201
_symmetry_space_group_name_H-M "P -1"
_symmetry_group_IT_number 2
_symmetry_cell_setting 'triclinic'
loop_
_space_group_symop_operation_xyz
x,y,z
-x,-y,-z
loop_
_atom_site_type_symbol
_atom_site_label
_atom_site_fract_x
_atom_site_fract_y
_atom_site_fract_z
Si Si1 0.147222 0.569165 0.950182
Si Si2 0.236110 0.541156 0.618986
Si Si3 0.960031 0.258829 0.278322
Si Si4 0.619521 0.609238 0.955690
Si Si5 0.131846 0.877558 0.540541
Si Si6 0.462143 0.793071 0.514037
Si Si7 0.690950 0.026662 0.927615
O O1 0.209002 0.556128 0.852101
O O2 0.096451 0.581094 0.776526
O O3 0.148833 0.197474 0.839615
O O4 0.133044 0.864662 0.281553
O O5 0.183963 0.579267 0.460693
O O6 0.273922 0.174172 0.367557
O O7 0.272382 0.844511 0.805590
O O8 0.933875 0.124184 0.406833
O O9 0.000000 0.500000 0.500000
O O10 0.000000 0.000000 0.000000
O O11 0.578633 0.372668 0.730996
O O12 0.654851 0.380326 0.020146
O O13 0.658206 0.746353 0.865001
O O14 0.579305 0.948276 0.210530
O O15 0.500000 0.500000 0.500000
O O16 0.500000 0.000000 0.500000
#
# Coordination Sequence:
#
# PCOD8033697 Si02
#       7
#     2   2   2   2   2   2   2
#     4  11  24  42  66  93 128 172 233 276 338 437
#     4  11  26  43  66  97 130 186 226 285 352 416
#     4  11  24  41  62  95 132 165 220 286 350 412
#     4  12  26  45  68 110 140 183 240 288 348 412
#     4  11  24  42  66  93 128 172 233 276 338 437
#     4  12  24  45  74 101 142 190 234 286 346 412
#     4  12  26  44  70  99 148 182 232 299 350 414
#
# _framework density 23.387194999999998
#
# number of rings (size 3 to 8) (size 9 to 14) (size 15 to 20)
#    0.000    0.571    0.000    7.714    6.000    8.000 
#    0.000    0.000    0.000    0.000    0.000    0.000 
#    0.000    0.000    0.000    0.000    0.000    0.000 
#
# Total GULP energy -173472.906664 kJ/mol
# GULP energy per Si atom -12390.921905 kJ/mol
# Density = 2.333396 g / cm^3
# Si number density = 23.387195 Si / 1000 Ang^3
#
#
#
# Elastic Constant Matrix: (Units=GPa)
#
#
# Indices 1 2 3 4 5 6 
#
# 1 135.1989 42.9243 51.3364 5.0017 2.1042 10.5930
# 2 42.9243 96.5210 15.1123 5.5013 -5.9948 10.8528
# 3 51.3364 15.1123 156.3154 16.5118 -3.8187 -0.9759
# 4 5.0017 5.5013 16.5118 40.4140 2.2331 -2.1814
# 5 2.1042 -5.9948 -3.8187 2.2331 48.4780 3.6096
# 6 10.5930 10.8528 -0.9759 -2.1814 3.6096 36.9994
#
#
#
# Elastic Compliance Matrix: (Units=1/GPa)
#
#
# Indices 1 2 3 4 5 6 
#
# 1 0.009862 -0.003829 -0.002954 0.000476 -0.001033 -0.001649
# 2 -0.003829 0.012566 0.000244 -0.001603 0.002027 -0.002875
# 3 -0.002954 0.000244 0.007665 -0.002806 0.000837 0.000729
# 4 0.000476 -0.001603 -0.002806 0.026256 -0.001797 0.001983
# 5 -0.001033 0.002027 0.000837 -0.001797 0.021255 -0.002456
# 6 -0.001649 -0.002875 0.000729 0.001983 -0.002456 0.028719
#
#
# Mechanical properties :
#
#
# Convention : Reuss Voigt Hill
#
# Bulk Modulus (GPa) = 58.77707 67.42014 63.09860
# Shear Modulus (GPa) = 39.97651 43.75577 41.86614
#
# Velocity S-wave (km/s) = 4.13889 4.33012 4.23558
# Velocity P-wave (km/s) = 6.93017 7.34100 7.13854
#
# Compressibility (1/GPa) = 0.01701344
#
# Stress axis : x y z
#
# Youngs Moduli (GPa) = 101.40277 79.58183 130.45525
#
# Poissons Ratio (x) = 0.30471 0.38541
# Poissons Ratio (y) = 0.38826 -0.03178
# Poissons Ratio (z) = 0.29958 -0.01938
#
# Static dielectric constant tensor:
#      x y z
#    x 4.382450 0.321450 0.034610 
#    y 0.321450 3.811840 -0.042440 
#    z 0.034610 -0.042440 4.097200 
# 
# 
# High freq. dielectric constant tensor:
#      x y z
#    x 1.948520 -0.000810 0.001220 
#    y -0.000810 1.919220 0.009800 
#    z 0.001220 0.009800 1.943270 
# 
# From -- ./inp_files/12868.got.cif
#   From: 2010.06.25/outbox.cif.g09.slc.cpg/sg2_7_cif.got.tgz:12868.got - 2010.06.27 13:26:56.
