data_PCOD8033291
_publ_section_title
;
Structure prediction by ZEFSAII (Michael W. Deem and Ramdas Pophale) SiO2 
 PCOD8033291
Probable space group: P -1
;
_chemical_formula_sum "Si O2"
_cell_formula_units_Z 14
_cell_length_a 6.212289
_cell_length_b 10.888638
_cell_length_c 15.006563
_cell_angle_alpha 125.667954
_cell_angle_beta 46.572750
_cell_angle_gamma 110.238229
_cell_volume 596.317469
_symmetry_space_group_name_H-M "P -1"
_symmetry_group_IT_number 2
_symmetry_cell_setting 'triclinic'
loop_
_space_group_symop_operation_xyz
x,y,z
-x,-y,-z
loop_
_atom_site_type_symbol
_atom_site_label
_atom_site_fract_x
_atom_site_fract_y
_atom_site_fract_z
Si Si1 0.871458 0.227304 0.589186
Si Si2 0.345872 0.249146 0.175854
Si Si3 0.111229 0.937614 0.308973
Si Si4 0.653793 0.979890 0.079102
Si Si5 0.842328 0.467655 0.362620
Si Si6 0.824058 0.732585 0.176660
Si Si7 0.870565 0.427193 0.128755
O O1 0.991159 0.164177 0.623933
O O2 0.520504 0.245798 0.697973
O O3 0.006156 0.381980 0.593575
O O4 0.972403 0.109743 0.433025
O O5 0.465160 0.139885 0.175836
O O6 0.542585 0.392379 0.175283
O O7 0.004347 0.326760 0.314453
O O8 0.384774 0.151880 0.034804
O O9 0.981979 0.878049 0.227714
O O10 0.475142 0.933577 0.198892
O O11 0.000000 0.000000 0.000000
O O12 0.500000 0.500000 0.500000
O O13 0.896232 0.420602 0.224780
O O14 0.956282 0.587867 0.136064
O O15 0.899888 0.703997 0.037941
#
# Coordination Sequence:
#
# PCOD8033291 Si02
#       7
#     2   2   2   2   2   2   2
#     4  11  26  44  70 104 143 194 236 297 369 429
#     4  11  25  46  70 109 140 189 241 293 366 427
#     4  11  25  47  68 102 145 189 241 297 363 434
#     4  11  26  46  75 106 143 190 242 301 361 429
#     4  12  28  47  72 108 153 191 242 297 367 443
#     4  11  23  45  73 102 143 182 246 303 354 430
#     4  11  24  43  73 107 136 186 238 305 364 424
#
# _framework density 23.477426000000001
#
# number of rings (size 3 to 8) (size 9 to 14) (size 15 to 20)
#    0.000    0.857    4.286    1.286    8.000    2.286 
#    2.571    0.000    0.000    0.000    0.000    0.000 
#    0.000    0.000    0.000    0.000    0.000    0.000 
#
# Total GULP energy -173568.029711 kJ/mol
# GULP energy per Si atom -12397.716408 kJ/mol
# Density = 2.342399 g / cm^3
# Si number density = 23.477426 Si / 1000 Ang^3
#
#
#
# Elastic Constant Matrix: (Units=GPa)
#
#
# Indices 1 2 3 4 5 6 
#
# 1 98.2265 37.9719 66.9498 12.7441 -16.5482 16.4176
# 2 37.9719 83.1993 55.5081 11.7199 -3.2532 13.5226
# 3 66.9498 55.5081 163.6566 10.3669 -17.4437 12.8272
# 4 12.7441 11.7199 10.3669 39.4718 7.2160 -4.7561
# 5 -16.5482 -3.2532 -17.4437 7.2160 54.0654 3.2152
# 6 16.4176 13.5226 12.8272 -4.7561 3.2152 41.6745
#
#
#
# Elastic Compliance Matrix: (Units=1/GPa)
#
#
# Indices 1 2 3 4 5 6 
#
# 1 0.016666 -0.002807 -0.004706 -0.004718 0.004346 -0.005080
# 2 -0.002807 0.017155 -0.004237 -0.003399 -0.000532 -0.003504
# 3 -0.004706 -0.004237 0.009606 0.000020 0.001392 0.000167
# 4 -0.004718 -0.003399 0.000020 0.029785 -0.006023 0.006820
# 5 0.004346 -0.000532 0.001392 -0.006023 0.021303 -0.004299
# 6 -0.005080 -0.003504 0.000167 0.006820 -0.004299 0.028192
#
#
# Mechanical properties :
#
#
# Convention : Reuss Voigt Hill
#
# Bulk Modulus (GPa) = 50.17889 73.99355 62.08622
# Shear Modulus (GPa) = 32.71202 39.35251 36.03227
#
# Velocity S-wave (km/s) = 3.73680 4.09857 3.92185
# Velocity P-wave (km/s) = 6.32755 7.34731 6.85641
#
# Compressibility (1/GPa) = 0.01992870
#
# Stress axis : x y z
#
# Youngs Moduli (GPa) = 60.00111 58.29361 104.09636
#
# Poissons Ratio (x) = 0.16361 0.48985
# Poissons Ratio (y) = 0.16840 0.44105
# Poissons Ratio (z) = 0.28235 0.24699
#
# Static dielectric constant tensor:
#      x y z
#    x 4.129260 0.121230 -0.054140 
#    y 0.121230 4.551070 0.136280 
#    z -0.054140 0.136280 4.410200 
# 
# 
# High freq. dielectric constant tensor:
#      x y z
#    x 1.916590 0.011080 -0.004600 
#    y 0.011080 1.934130 0.011780 
#    z -0.004600 0.011780 1.946280 
# 
# From -- ./inp_files/68766.got.cif
#   From: 2010.06.25/outbox.cif.g09.slc.cpg/sg2_35_cif.got.tgz:68766.got - 2010.06.27 13:26:56.
