data_PCOD8033215
_publ_section_title
;
Structure prediction by ZEFSAII (Michael W. Deem and Ramdas Pophale) SiO2 
 PCOD8033215
Probable space group: P -1
;
_chemical_formula_sum "Si O2"
_cell_formula_units_Z 16
_cell_length_a 11.572844
_cell_length_b 6.143796
_cell_length_c 11.531265
_cell_angle_alpha 121.798421
_cell_angle_beta 92.184055
_cell_angle_gamma 76.473320
_cell_volume 673.892761
_symmetry_space_group_name_H-M "P -1"
_symmetry_group_IT_number 2
_symmetry_cell_setting 'triclinic'
loop_
_space_group_symop_operation_xyz
x,y,z
-x,-y,-z
loop_
_atom_site_type_symbol
_atom_site_label
_atom_site_fract_x
_atom_site_fract_y
_atom_site_fract_z
Si Si1 0.343652 0.174918 0.450434
Si Si2 0.053463 0.785706 0.036779
Si Si3 0.110223 0.539621 0.439587
Si Si4 0.774516 0.999269 0.387122
Si Si5 0.612062 0.330840 0.290911
Si Si6 0.673535 0.382414 0.053818
Si Si7 0.000515 0.350554 0.776537
Si Si8 0.520131 0.081798 0.826804
O O1 0.228436 0.313475 0.409226
O O2 0.306042 0.011990 0.507874
O O3 0.412679 0.393631 0.559939
O O4 0.431795 0.952368 0.313822
O O5 0.024820 0.876046 0.197802
O O6 0.195278 0.669759 0.005746
O O7 0.980388 0.579500 0.933963
O O8 0.000000 0.000000 0.000000
O O9 0.089673 0.547221 0.303170
O O10 0.000000 0.500000 0.500000
O O11 0.131256 0.824353 0.546008
O O12 0.863670 0.714116 0.285312
O O13 0.690403 0.091805 0.301580
O O14 0.681971 0.365829 0.188185
O O15 0.498409 0.210998 0.221774
O O16 0.598385 0.677985 0.101496
O O17 0.616049 0.153155 0.936820
#
# Coordination Sequence:
#
# PCOD8033215 Si02
#       8
#     2   2   2   2   2   2   2   2
#     4  11  25  43  71 105 136 186 232 290 350 411
#     4  11  26  43  71 100 137 184 227 283 338 420
#     4  11  25  40  69 102 142 179 224 284 348 415
#     4  11  24  42  71 101 138 177 225 286 348 419
#     4  11  23  45  70 100 135 180 234 291 350 410
#     4  11  26  46  70  99 140 185 233 284 353 406
#     4  11  24  42  66 103 137 181 227 275 350 408
#     4  11  26  46  70  99 139 184 235 294 341 414
#
# _framework density 23.742647999999999
#
# number of rings (size 3 to 8) (size 9 to 14) (size 15 to 20)
#    0.000    1.000    1.250    4.125    7.000    5.000 
#    2.250    0.000    0.000    0.000    0.000    0.000 
#    0.000    0.000    0.000    0.000    0.000    0.000 
#
# Total GULP energy -198255.170191 kJ/mol
# GULP energy per Si atom -12390.948137 kJ/mol
# Density = 2.368861 g / cm^3
# Si number density = 23.742648 Si / 1000 Ang^3
#
#
#
# Elastic Constant Matrix: (Units=GPa)
#
#
# Indices 1 2 3 4 5 6 
#
# 1 90.5087 18.7882 35.5283 0.2480 2.0087 6.4853
# 2 18.7882 77.8189 23.5939 -21.6670 11.4696 2.1079
# 3 35.5283 23.5939 117.2622 -9.1571 9.1049 0.9966
# 4 0.2480 -21.6670 -9.1571 50.0849 3.7459 4.3116
# 5 2.0087 11.4696 9.1049 3.7459 41.4135 0.1051
# 6 6.4853 2.1079 0.9966 4.3116 0.1051 39.0047
#
#
#
# Elastic Compliance Matrix: (Units=1/GPa)
#
#
# Indices 1 2 3 4 5 6 
#
# 1 0.013147 -0.002686 -0.003654 -0.001825 0.001079 -0.001749
# 2 -0.002686 0.016808 -0.001599 0.007461 -0.004845 -0.001233
# 3 -0.003654 -0.001599 0.010190 0.001294 -0.001738 0.000295
# 4 -0.001825 0.007461 0.001294 0.024009 -0.004427 -0.002775
# 5 0.001079 -0.004845 -0.001738 -0.004427 0.026217 0.000546
# 6 -0.001749 -0.001233 0.000295 -0.002775 0.000546 0.026293
#
#
# Mechanical properties :
#
#
# Convention : Reuss Voigt Hill
#
# Bulk Modulus (GPa) = 41.20789 49.04560 45.12675
# Shear Modulus (GPa) = 35.55347 39.94593 37.74970
#
# Velocity S-wave (km/s) = 3.87389 4.10622 3.99175
# Velocity P-wave (km/s) = 6.11581 6.57141 6.34770
#
# Compressibility (1/GPa) = 0.02426720
#
# Stress axis : x y z
#
# Youngs Moduli (GPa) = 76.06246 59.49386 98.13258
#
# Poissons Ratio (x) = 0.15981 0.35861
# Poissons Ratio (y) = 0.20432 0.15689
# Poissons Ratio (z) = 0.27796 0.09512
#
# Static dielectric constant tensor:
#      x y z
#    x 4.057700 -0.236040 0.408550 
#    y -0.236040 3.767620 0.195530 
#    z 0.408550 0.195530 4.378410 
# 
# 
# High freq. dielectric constant tensor:
#      x y z
#    x 1.940940 0.009330 0.008790 
#    y 0.009330 1.947110 -0.009630 
#    z 0.008790 -0.009630 1.953260 
# 
# From -- ./inp_files/411256.got.cif
#   From: 2010.06.25/outbox.cif.g09.slc.cpg/sg2_206_cif.got.tgz:411256.got - 2010.06.27 13:26:56.
