data_PCOD8033911
_publ_section_title
;
Structure prediction by ZEFSAII (Michael W. Deem and Ramdas Pophale) SiO2 
 PCOD8033911
Probable space group: P -1
;
_chemical_formula_sum "Si O2"
_cell_formula_units_Z 16
_cell_length_a 14.802615
_cell_length_b 11.122849
_cell_length_c 14.847254
_cell_angle_alpha 58.236586
_cell_angle_beta 28.154923
_cell_angle_gamma 41.741081
_cell_volume 697.477696
_symmetry_space_group_name_H-M "P -1"
_symmetry_group_IT_number 2
_symmetry_cell_setting 'triclinic'
loop_
_space_group_symop_operation_xyz
x,y,z
-x,-y,-z
loop_
_atom_site_type_symbol
_atom_site_label
_atom_site_fract_x
_atom_site_fract_y
_atom_site_fract_z
Si Si1 0.684433 0.677321 0.718590
Si Si2 0.199119 0.886104 0.737678
Si Si3 0.384698 0.682174 0.132941
Si Si4 0.226156 0.065926 0.193126
Si Si5 0.831473 0.889099 0.575646
Si Si6 0.331150 0.719011 0.877712
Si Si7 0.971093 0.295157 0.145928
Si Si8 0.419762 0.255199 0.690799
O O1 0.638416 0.854988 0.734170
O O2 0.532311 0.735199 0.734697
O O3 0.000000 0.500000 0.500000
O O4 0.549330 0.626586 0.919295
O O5 0.334328 0.736700 0.761254
O O6 0.066941 0.841874 0.803520
O O7 0.428777 0.853407 0.494625
O O8 0.968258 0.111957 0.885078
O O9 0.572316 0.490571 0.107340
O O10 0.105573 0.742679 0.332545
O O11 0.288376 0.872673 0.192031
O O12 0.066271 0.158526 0.392073
O O13 0.068675 0.232202 0.188318
O O14 0.500000 0.000000 0.000000
O O15 0.644330 0.121843 0.625054
O O16 0.691395 0.527121 0.297165
O O17 0.180846 0.267193 0.908138
#
# Coordination Sequence:
#
# PCOD8033911 Si02
#       8
#     2   2   2   2   2   2   2   2
#     4  12  25  45  71 103 145 182 230 297 349 413
#     4  11  26  48  67  98 147 185 238 289 340 424
#     4  12  26  44  73 105 143 182 240 287 362 416
#     4  12  24  46  73 108 142 175 236 303 353 415
#     4  12  25  45  74 109 141 185 233 299 351 419
#     4  11  26  47  70 103 140 194 238 285 347 423
#     4  11  25  46  70 101 143 185 232 289 355 421
#     4  11  24  42  73  99 138 189 230 283 361 411
#
# _framework density 22.939802
#
# number of rings (size 3 to 8) (size 9 to 14) (size 15 to 20)
#    0.000    0.500    3.750    4.125    5.250    0.000 
#    2.250    1.875    0.000    0.000    0.000    0.000 
#    0.000    0.000    0.000    0.000    0.000    0.000 
#
# Total GULP energy -198426.741396 kJ/mol
# GULP energy per Si atom -12401.671337 kJ/mol
# Density = 2.288759 g / cm^3
# Si number density = 22.939802 Si / 1000 Ang^3
#
#
#
# Elastic Constant Matrix: (Units=GPa)
#
#
# Indices 1 2 3 4 5 6 
#
# 1 109.6179 29.9546 33.2414 -11.1532 5.8309 -25.1868
# 2 29.9546 129.0083 37.6303 4.1156 0.0149 -24.8104
# 3 33.2414 37.6303 140.5297 -7.7675 9.8215 -18.8385
# 4 -11.1532 4.1156 -7.7675 34.3794 0.2462 -5.8691
# 5 5.8309 0.0149 9.8215 0.2462 29.9841 -0.0376
# 6 -25.1868 -24.8104 -18.8385 -5.8691 -0.0376 36.3880
#
#
#
# Elastic Compliance Matrix: (Units=1/GPa)
#
#
# Indices 1 2 3 4 5 6 
#
# 1 0.012241 -0.001162 -0.001084 0.005239 -0.002058 0.007963
# 2 -0.001162 0.009445 -0.001766 -0.001137 0.000815 0.004539
# 3 -0.001084 -0.001766 0.008533 0.002289 -0.002599 0.002830
# 4 0.005239 -0.001137 0.002289 0.033054 -0.002028 0.009365
# 5 -0.002058 0.000815 -0.002599 -0.002028 0.034615 -0.002506
# 6 0.007963 0.004539 0.002830 0.009365 -0.002506 0.039061
#
#
# Mechanical properties :
#
#
# Convention : Reuss Voigt Hill
#
# Bulk Modulus (GPa) = 45.05167 64.53428 54.79297
# Shear Modulus (GPa) = 32.81485 38.70562 35.76023
#
# Velocity S-wave (km/s) = 3.78627 4.11209 3.95254
# Velocity P-wave (km/s) = 6.22866 7.12312 6.69085
#
# Compressibility (1/GPa) = 0.02219674
#
# Stress axis : x y z
#
# Youngs Moduli (GPa) = 81.69436 105.87170 117.19759
#
# Poissons Ratio (x) = 0.12299 0.12699
# Poissons Ratio (y) = 0.09490 0.20694
# Poissons Ratio (z) = 0.08852 0.18694
#
# Static dielectric constant tensor:
#      x y z
#    x 4.341280 -0.392210 0.675310 
#    y -0.392210 3.953330 0.436940 
#    z 0.675310 0.436940 3.786520 
# 
# 
# High freq. dielectric constant tensor:
#      x y z
#    x 1.890780 -0.006830 0.003550 
#    y -0.006830 1.915710 0.002700 
#    z 0.003550 0.002700 1.927390 
# 
# From -- ./inp_files/532457.got.cif
#   From: 2010.06.25/outbox.cif.g09.slc.cpg/sg2_267_cif.got.tgz:532457.got - 2010.06.27 13:26:56.
