data_PCOD8033081
_publ_section_title
;
Structure prediction by ZEFSAII (Michael W. Deem and Ramdas Pophale) SiO2 
 PCOD8033081
Probable space group: P -1
;
_chemical_formula_sum "Si O2"
_cell_formula_units_Z 16
_cell_length_a 18.920086
_cell_length_b 9.235952
_cell_length_c 12.111140
_cell_angle_alpha 51.490388
_cell_angle_beta 27.573843
_cell_angle_gamma 47.454408
_cell_volume 720.060950
_symmetry_space_group_name_H-M "P -1"
_symmetry_group_IT_number 2
_symmetry_cell_setting 'triclinic'
loop_
_space_group_symop_operation_xyz
x,y,z
-x,-y,-z
loop_
_atom_site_type_symbol
_atom_site_label
_atom_site_fract_x
_atom_site_fract_y
_atom_site_fract_z
Si Si1 0.200814 0.708498 0.833166
Si Si2 0.321903 0.091691 0.846637
Si Si3 0.828760 0.856307 0.336721
Si Si4 0.362007 0.299548 0.912462
Si Si5 0.005400 0.964864 0.637803
Si Si6 0.103066 0.275285 0.453571
Si Si7 0.322571 0.677720 0.441986
Si Si8 0.594394 0.731374 0.572531
O O1 0.304900 0.533901 0.852794
O O2 0.241029 0.632798 0.688118
O O3 0.240181 0.909061 0.706400
O O4 0.012308 0.753524 0.092563
O O5 0.378647 0.169886 0.841656
O O6 0.369588 0.201618 0.628494
O O7 0.419956 0.859192 0.804460
O O8 0.129612 0.128393 0.095073
O O9 0.811003 0.824475 0.505775
O O10 0.730841 0.741692 0.462990
O O11 0.536239 0.237251 0.760360
O O12 0.239406 0.244842 0.187317
O O13 0.185930 0.830528 0.485324
O O14 0.974243 0.171697 0.644545
O O15 0.000000 0.000000 0.500000
O O16 0.000000 0.500000 0.500000
O O17 0.400107 0.490266 0.344647
#
# Coordination Sequence:
#
# PCOD8033081 Si02
#       8
#     2   2   2   2   2   2   2   2
#     4  11  23  44  73 107 145 192 238 298 357 433
#     4  11  26  47  73 105 147 186 232 303 363 424
#     4  11  25  44  72 107 149 190 243 297 361 429
#     4  12  26  47  75 105 149 194 240 293 366 433
#     4  12  28  50  73 102 144 193 246 297 359 429
#     4  12  27  47  73 104 145 193 241 292 361 431
#     4  12  27  45  75 109 143 190 246 298 359 431
#     4  11  27  42  73 109 146 179 242 301 363 415
#
# _framework density 22.220343
#
# number of rings (size 3 to 8) (size 9 to 14) (size 15 to 20)
#    0.000    0.500    5.000    1.875   10.500    2.500 
#    0.000    1.250    0.000    0.000    0.000    0.000 
#    0.000    0.000    0.000    0.000    0.000    0.000 
#
# Total GULP energy -198453.357494 kJ/mol
# GULP energy per Si atom -12403.334843 kJ/mol
# Density = 2.216977 g / cm^3
# Si number density = 22.220343 Si / 1000 Ang^3
#
#
#
# Elastic Constant Matrix: (Units=GPa)
#
#
# Indices 1 2 3 4 5 6 
#
# 1 140.8239 33.2631 49.5009 2.0117 -21.3351 20.7307
# 2 33.2631 111.7227 24.7293 4.2331 -19.3133 15.0551
# 3 49.5009 24.7293 88.2775 6.6769 -3.6508 -0.1719
# 4 2.0117 4.2331 6.6769 30.4185 1.5160 -1.2721
# 5 -21.3351 -19.3133 -3.6508 1.5160 40.6274 3.4962
# 6 20.7307 15.0551 -0.1719 -1.2721 3.4962 39.7366
#
#
#
# Elastic Compliance Matrix: (Units=1/GPa)
#
#
# Indices 1 2 3 4 5 6 
#
# 1 0.010985 -0.000145 -0.005899 0.000045 0.005701 -0.006202
# 2 -0.000145 0.011238 -0.002742 -0.001423 0.005479 -0.004722
# 3 -0.005899 -0.002742 0.015447 -0.002270 -0.003307 0.004401
# 4 0.000045 -0.001423 -0.002270 0.033756 -0.002270 0.001786
# 5 0.005701 0.005479 -0.003307 -0.002270 0.030675 -0.007836
# 6 -0.006202 -0.004722 0.004401 0.001786 -0.007836 0.030956
#
#
# Mechanical properties :
#
#
# Convention : Reuss Voigt Hill
#
# Bulk Modulus (GPa) = 49.75401 61.75674 55.75537
# Shear Modulus (GPa) = 31.78091 37.71189 34.74640
#
# Velocity S-wave (km/s) = 3.78598 4.12415 3.95868
# Velocity P-wave (km/s) = 6.44603 7.10854 6.78538
#
# Compressibility (1/GPa) = 0.02009888
#
# Stress axis : x y z
#
# Youngs Moduli (GPa) = 91.03407 88.98245 64.73716
#
# Poissons Ratio (x) = 0.01293 0.38186
# Poissons Ratio (y) = 0.01323 0.17749
# Poissons Ratio (z) = 0.53698 0.24396
#
# Static dielectric constant tensor:
#      x y z
#    x 4.168800 0.015680 -0.012950 
#    y 0.015680 4.247140 0.141520 
#    z -0.012950 0.141520 4.181250 
# 
# 
# High freq. dielectric constant tensor:
#      x y z
#    x 1.885720 0.009090 0.001200 
#    y 0.009090 1.884990 0.009530 
#    z 0.001200 0.009530 1.874830 
# 
# From -- ./inp_files/205087.got.cif
#   From: 2010.06.25/outbox.cif.g09.slc.cpg/sg2_103_cif.got.tgz:205087.got - 2010.06.27 13:26:56.
