data_PCOD8033554
_publ_section_title
;
Structure prediction by ZEFSAII (Michael W. Deem and Ramdas Pophale) SiO2 
 PCOD8033554
Probable space group: P -1
;
_chemical_formula_sum "Si O2"
_cell_formula_units_Z 12
_cell_length_a 12.390418
_cell_length_b 8.186598
_cell_length_c 10.945843
_cell_angle_alpha 46.136161
_cell_angle_beta 39.270940
_cell_angle_gamma 65.456445
_cell_volume 488.558917
_symmetry_space_group_name_H-M "P -1"
_symmetry_group_IT_number 2
_symmetry_cell_setting 'triclinic'
loop_
_space_group_symop_operation_xyz
x,y,z
-x,-y,-z
loop_
_atom_site_type_symbol
_atom_site_label
_atom_site_fract_x
_atom_site_fract_y
_atom_site_fract_z
Si Si1 0.670959 0.389983 0.479322
Si Si2 0.727706 0.765083 0.585948
Si Si3 0.656463 0.536755 0.165239
Si Si4 0.035931 0.861437 0.654644
Si Si5 0.197914 0.105338 0.813167
Si Si6 0.655394 0.311640 0.018105
O O1 0.612936 0.335464 0.415003
O O2 0.497204 0.324384 0.754250
O O3 0.813123 0.256125 0.464014
O O4 0.771499 0.668503 0.245685
O O5 0.693542 0.796836 0.456172
O O6 0.547260 0.783970 0.801419
O O7 0.894853 0.968275 0.379687
O O8 0.757837 0.509729 0.728140
O O9 0.655426 0.432329 0.087021
O O10 0.854653 0.684927 0.945523
O O11 0.000000 0.000000 0.500000
O O12 0.256285 0.901547 0.940336
O O13 0.000000 0.000000 0.000000
#
# Coordination Sequence:
#
# PCOD8033554 Si02
#       6
#     2   2   2   2   2   2
#     4  11  26  43  72 107 132 182 240 287 349 419
#     4  11  25  46  71 102 138 188 231 285 354 419
#     4  11  23  47  72 100 137 183 234 287 347 420
#     4  12  25  46  70  98 143 183 230 291 348 415
#     4  12  25  44  73 105 143 181 231 294 348 420
#     4  11  24  47  72  99 142 188 227 286 358 410
#
# _framework density 24.562034000000001
#
# number of rings (size 3 to 8) (size 9 to 14) (size 15 to 20)
#    0.000    0.667    3.333    4.000    4.667    1.333 
#    3.000    0.000    0.000    0.000    0.000    0.000 
#    0.000    0.000    0.000    0.000    0.000    0.000 
#
# Total GULP energy -148748.592077 kJ/mol
# GULP energy per Si atom -12395.716006 kJ/mol
# Density = 2.450613 g / cm^3
# Si number density = 24.562034 Si / 1000 Ang^3
#
#
#
# Elastic Constant Matrix: (Units=GPa)
#
#
# Indices 1 2 3 4 5 6 
#
# 1 80.0904 34.4020 -1.2539 -10.4762 0.5800 -24.7274
# 2 34.4020 109.0002 19.7862 -6.4163 11.2604 -45.0302
# 3 -1.2539 19.7862 58.2387 -0.7365 -22.6745 -18.0209
# 4 -10.4762 -6.4163 -0.7365 33.1785 -9.6575 3.9925
# 5 0.5800 11.2604 -22.6745 -9.6575 45.5866 0.9928
# 6 -24.7274 -45.0302 -18.0209 3.9925 0.9928 50.6796
#
#
#
# Elastic Compliance Matrix: (Units=1/GPa)
#
#
# Indices 1 2 3 4 5 6 
#
# 1 0.016781 -0.003869 0.005348 0.005200 0.004370 0.006156
# 2 -0.003869 0.016658 -0.005017 -0.001561 -0.007140 0.011392
# 3 0.005348 -0.005017 0.027393 0.005033 0.015706 0.007188
# 4 0.005200 -0.001561 0.005033 0.034541 0.010140 0.000021
# 5 0.004370 -0.007140 0.015706 0.010140 0.033606 -0.000084
# 6 0.006156 0.011392 0.007188 0.000021 -0.000084 0.035414
#
#
# Mechanical properties :
#
#
# Convention : Reuss Voigt Hill
#
# Bulk Modulus (GPa) = 18.60279 39.24419 28.92349
# Shear Modulus (GPa) = 26.40066 38.84859 32.62462
#
# Velocity S-wave (km/s) = 3.28206 3.98131 3.64848
# Velocity P-wave (km/s) = 4.68538 6.09481 5.43597
#
# Compressibility (1/GPa) = 0.05375538
#
# Stress axis : x y z
#
# Youngs Moduli (GPa) = 59.59189 60.03009 36.50533
#
# Poissons Ratio (x) = 0.23226 -0.19522
# Poissons Ratio (y) = 0.23057 0.18316
# Poissons Ratio (z) = -0.31869 0.30118
#
# Static dielectric constant tensor:
#      x y z
#    x 4.664080 -0.137990 -0.004890 
#    y -0.137990 4.401890 0.142480 
#    z -0.004890 0.142480 4.550300 
# 
# 
# High freq. dielectric constant tensor:
#      x y z
#    x 1.999470 -0.003530 -0.011580 
#    y -0.003530 1.953690 0.004600 
#    z -0.011580 0.004600 1.986360 
# 
# From -- ./inp_files/180517.got.cif
#   From: 2010.06.25/outbox.cif.g09.slc.cpg/sg2_91_cif.got.tgz:180517.got - 2010.06.27 13:26:56.
