data_PCOD8033212
_publ_section_title
;
Structure prediction by ZEFSAII (Michael W. Deem and Ramdas Pophale) SiO2 
 PCOD8033212
Probable space group: P -1
;
_chemical_formula_sum "Si O2"
_cell_formula_units_Z 14
_cell_length_a 19.571647
_cell_length_b 7.848678
_cell_length_c 12.510168
_cell_angle_alpha 58.377484
_cell_angle_beta 147.945911
_cell_angle_gamma 139.665447
_cell_volume 617.270565
_symmetry_space_group_name_H-M "P -1"
_symmetry_group_IT_number 2
_symmetry_cell_setting 'triclinic'
loop_
_space_group_symop_operation_xyz
x,y,z
-x,-y,-z
loop_
_atom_site_type_symbol
_atom_site_label
_atom_site_fract_x
_atom_site_fract_y
_atom_site_fract_z
Si Si1 0.814948 0.943063 0.551156
Si Si2 0.532273 0.795200 0.855880
Si Si3 0.798759 0.821239 0.331709
Si Si4 0.802589 0.700404 0.976140
Si Si5 0.675309 0.984179 0.754152
Si Si6 0.501865 0.120411 0.850762
Si Si7 0.306035 0.564427 0.314173
O O1 0.820626 0.958676 0.426309
O O2 0.688846 0.991719 0.398715
O O3 0.742162 0.650761 0.589976
O O4 0.010692 0.197705 0.776597
O O5 0.328172 0.512376 0.712517
O O6 0.554195 0.804367 0.756268
O O7 0.563343 0.050847 0.856749
O O8 0.694492 0.842141 0.102559
O O9 0.000000 0.000000 0.500000
O O10 0.814717 0.956997 0.919071
O O11 0.650269 0.460432 0.937417
O O12 0.765827 0.595261 0.840936
O O13 0.525252 0.831461 0.510611
O O14 0.777382 0.309124 0.802221
O O15 0.500000 0.000000 0.000000
#
# Coordination Sequence:
#
# PCOD8033212 Si02
#       7
#     2   2   2   2   2   2   2
#     4  12  26  45  69 104 139 181 233 288 347 416
#     4  11  23  45  69  99 137 185 229 289 349 406
#     4  11  24  42  69  99 136 179 235 289 348 409
#     4  12  26  46  72 102 146 184 229 290 347 411
#     4  11  23  45  77  99 139 186 232 288 347 412
#     4  12  26  46  71  99 144 184 235 287 345 418
#     4  11  24  46  71 106 137 184 238 280 350 416
#
# _framework density 22.680492000000001
#
# number of rings (size 3 to 8) (size 9 to 14) (size 15 to 20)
#    0.000    0.571    5.714    1.714    4.000    2.286 
#    2.571    0.000    0.000    0.000    0.000    0.000 
#    0.000    0.000    0.000    0.000    0.000    0.000 
#
# Total GULP energy -173569.877364 kJ/mol
# GULP energy per Si atom -12397.848383 kJ/mol
# Density = 2.262887 g / cm^3
# Si number density = 22.680492 Si / 1000 Ang^3
#
#
#
# Elastic Constant Matrix: (Units=GPa)
#
#
# Indices 1 2 3 4 5 6 
#
# 1 42.1738 1.6445 9.8015 8.9085 -1.1333 -15.1366
# 2 1.6445 58.1062 14.9184 -9.3003 6.7391 -12.2885
# 3 9.8015 14.9184 112.0633 6.2426 7.7429 -0.6728
# 4 8.9085 -9.3003 6.2426 25.1570 0.3923 1.9004
# 5 -1.1333 6.7391 7.7429 0.3923 43.2220 0.2582
# 6 -15.1366 -12.2885 -0.6728 1.9004 0.2582 36.7248
#
#
#
# Elastic Compliance Matrix: (Units=1/GPa)
#
#
# Indices 1 2 3 4 5 6 
#
# 1 0.031598 0.000615 -0.002203 -0.011474 0.001149 0.013774
# 2 0.000615 0.021003 -0.003050 0.007831 -0.002824 0.006840
# 3 -0.002203 -0.003050 0.009748 -0.002625 -0.001295 -0.001605
# 4 -0.011474 0.007831 -0.002625 0.047731 -0.001457 -0.004616
# 5 0.001149 -0.002824 -0.001295 -0.001457 0.023856 -0.000587
# 6 0.013774 0.006840 -0.001605 -0.004616 -0.000587 0.035409
#
#
# Mechanical properties :
#
#
# Convention : Reuss Voigt Hill
#
# Bulk Modulus (GPa) = 18.84216 29.45247 24.14731
# Shear Modulus (GPa) = 25.46965 33.41936 29.44451
#
# Velocity S-wave (km/s) = 3.35472 3.84276 3.60701
# Velocity P-wave (km/s) = 4.83024 5.71866 5.29312
#
# Compressibility (1/GPa) = 0.05307248
#
# Stress axis : x y z
#
# Youngs Moduli (GPa) = 31.64796 47.61227 102.58198
#
# Poissons Ratio (x) = -0.02926 0.22599
# Poissons Ratio (y) = -0.01945 0.31286
# Poissons Ratio (z) = 0.06972 0.14521
#
# Static dielectric constant tensor:
#      x y z
#    x 4.148610 -0.116790 0.042700 
#    y -0.116790 4.216620 -0.115480 
#    z 0.042700 -0.115480 4.264990 
# 
# 
# High freq. dielectric constant tensor:
#      x y z
#    x 1.892970 -0.006690 -0.011500 
#    y -0.006690 1.897620 -0.009440 
#    z -0.011500 -0.009440 1.904840 
# 
# From -- ./inp_files/469923.got.cif
#   From: 2010.06.25/outbox.cif.g09.slc.cpg/sg2_235_cif.got.tgz:469923.got - 2010.06.27 13:26:56.
