data_PCOD8033570
_publ_section_title
;
Structure prediction by ZEFSAII (Michael W. Deem and Ramdas Pophale) SiO2 
 PCOD8033570
Probable space group: P -1
;
_chemical_formula_sum "Si O2"
_cell_formula_units_Z 14
_cell_length_a 8.706019
_cell_length_b 8.983215
_cell_length_c 11.560904
_cell_angle_alpha 127.344216
_cell_angle_beta 62.108756
_cell_angle_gamma 100.773637
_cell_volume 629.247834
_symmetry_space_group_name_H-M "P -1"
_symmetry_group_IT_number 2
_symmetry_cell_setting 'triclinic'
loop_
_space_group_symop_operation_xyz
x,y,z
-x,-y,-z
loop_
_atom_site_type_symbol
_atom_site_label
_atom_site_fract_x
_atom_site_fract_y
_atom_site_fract_z
Si Si1 0.628626 0.650119 0.552395
Si Si2 0.789031 0.640040 0.739649
Si Si3 0.578536 0.013588 0.350551
Si Si4 0.522273 0.711880 0.064585
Si Si5 0.985123 0.705317 0.409210
Si Si6 0.968317 0.054180 0.170976
Si Si7 0.141430 0.891610 0.240048
O O1 0.500000 0.500000 0.500000
O O2 0.664182 0.665030 0.683599
O O3 0.552513 0.851134 0.620460
O O4 0.818974 0.590315 0.397322
O O5 0.863861 0.419156 0.627604
O O6 0.954409 0.754947 0.731376
O O7 0.671958 0.726114 0.926359
O O8 0.768398 0.082132 0.301762
O O9 0.500000 0.000000 0.500000
O O10 0.586118 0.800879 0.201366
O O11 0.348477 0.836534 0.137198
O O12 0.500000 0.500000 0.000000
O O13 0.059447 0.737867 0.272302
O O14 0.918090 0.899739 0.589831
O O15 0.072532 0.883273 0.129104
O O16 0.000000 0.000000 0.000000
#
# Coordination Sequence:
#
# PCOD8033570 Si02
#       7
#     2   2   2   2   2   2   2
#     4  12  27  44  75 111 146 191 246 307 371 440
#     4  12  26  47  74 105 153 185 250 308 372 437
#     4  12  28  48  75 111 151 197 253 305 366 452
#     4  12  26  49  75 109 145 201 241 310 375 440
#     4  11  23  47  73 105 138 195 236 300 372 438
#     4  12  26  46  72 107 148 195 242 309 375 431
#     4  11  25  45  75  99 144 190 243 294 369 445
#
# _framework density 22.248783
#
# number of rings (size 3 to 8) (size 9 to 14) (size 15 to 20)
#    0.000    0.286    5.714    2.143    8.000    1.143 
#    0.000    1.429    0.000    0.000    0.000    0.000 
#    0.000    0.000    0.000    0.000    0.000    0.000 
#
# Total GULP energy -173550.898973 kJ/mol
# GULP energy per Si atom -12396.492784 kJ/mol
# Density = 2.219814 g / cm^3
# Si number density = 22.248783 Si / 1000 Ang^3
#
#
#
# Elastic Constant Matrix: (Units=GPa)
#
#
# Indices 1 2 3 4 5 6 
#
# 1 145.6388 69.7757 70.5350 -19.3489 2.7128 -8.2253
# 2 69.7757 151.5858 69.1045 -21.4520 8.1419 -14.4567
# 3 70.5350 69.1045 120.0450 -14.0174 -6.0073 1.6301
# 4 -19.3489 -21.4520 -14.0174 39.2071 5.5974 -10.5877
# 5 2.7128 8.1419 -6.0073 5.5974 46.6847 0.0511
# 6 -8.2253 -14.4567 1.6301 -10.5877 0.0511 49.4504
#
#
#
# Elastic Compliance Matrix: (Units=1/GPa)
#
#
# Indices 1 2 3 4 5 6 
#
# 1 0.010759 -0.002008 -0.004884 0.003203 -0.001290 0.002051
# 2 -0.002008 0.010907 -0.004743 0.004798 -0.002976 0.004041
# 3 -0.004884 -0.004743 0.013979 -0.001235 0.003061 -0.002927
# 4 0.003203 0.004798 -0.001235 0.032403 -0.005077 0.008919
# 5 -0.001290 -0.002976 0.003061 -0.005077 0.023019 -0.002296
# 6 0.002051 0.004041 -0.002927 0.008919 -0.002296 0.023753
#
#
# Mechanical properties :
#
#
# Convention : Reuss Voigt Hill
#
# Bulk Modulus (GPa) = 80.80299 92.90001 86.85150
# Shear Modulus (GPa) = 35.15768 40.92540 38.04154
#
# Velocity S-wave (km/s) = 3.97949 4.29353 4.13949
# Velocity P-wave (km/s) = 7.58366 8.15015 7.87200
#
# Compressibility (1/GPa) = 0.01237578
#
# Stress axis : x y z
#
# Youngs Moduli (GPa) = 92.94422 91.68069 71.53533
#
# Poissons Ratio (x) = 0.18406 0.34941
# Poissons Ratio (y) = 0.18660 0.33928
# Poissons Ratio (z) = 0.45398 0.43483
#
# Static dielectric constant tensor:
#      x y z
#    x 4.323310 -0.010490 -0.119360 
#    y -0.010490 4.445340 -0.204770 
#    z -0.119360 -0.204770 4.091830 
# 
# 
# High freq. dielectric constant tensor:
#      x y z
#    x 1.888880 -0.001080 -0.013870 
#    y -0.001080 1.898830 -0.011900 
#    z -0.013870 -0.011900 1.867600 
# 
# From -- ./inp_files/209406.got.cif
#   From: 2010.06.25/outbox.cif.g09.slc.cpg/sg2_105_cif.got.tgz:209406.got - 2010.06.27 13:26:56.
