data_PCOD8033180
_publ_section_title
;
Structure prediction by ZEFSAII (Michael W. Deem and Ramdas Pophale) SiO2 
 PCOD8033180
Probable space group: P -1
;
_chemical_formula_sum "Si O2"
_cell_formula_units_Z 16
_cell_length_a 5.997137
_cell_length_b 25.798279
_cell_length_c 4.995733
_cell_angle_alpha 121.481256
_cell_angle_beta 85.096466
_cell_angle_gamma 94.204433
_cell_volume 656.367153
_symmetry_space_group_name_H-M "P -1"
_symmetry_group_IT_number 2
_symmetry_cell_setting 'triclinic'
loop_
_space_group_symop_operation_xyz
x,y,z
-x,-y,-z
loop_
_atom_site_type_symbol
_atom_site_label
_atom_site_fract_x
_atom_site_fract_y
_atom_site_fract_z
Si Si1 0.730650 0.373282 0.149906
Si Si2 0.312572 0.340966 0.434112
Si Si3 0.990813 0.259385 0.915384
Si Si4 0.951146 0.429251 0.791490
Si Si5 0.931638 0.930065 0.814090
Si Si6 0.623893 0.771391 0.594893
Si Si7 0.700569 0.153885 0.537080
Si Si8 0.692291 0.883206 0.204274
O O1 0.469690 0.365709 0.243282
O O2 0.868220 0.413397 0.461064
O O3 0.836325 0.308323 0.919186
O O4 0.753468 0.409382 0.964957
O O5 0.186325 0.395984 0.738483
O O6 0.456727 0.298680 0.507433
O O7 0.116021 0.292942 0.236382
O O8 0.159570 0.230926 0.614839
O O9 0.827550 0.201976 0.856502
O O10 0.000000 0.500000 0.000000
O O11 0.875879 0.909133 0.461839
O O12 0.138213 0.888858 0.766523
O O13 0.725797 0.917566 0.008546
O O14 0.000000 0.000000 0.000000
O O15 0.432848 0.807042 0.559932
O O16 0.701563 0.810086 0.956605
O O17 0.549720 0.107780 0.611719
#
# Coordination Sequence:
#
# PCOD8033180 Si02
#       8
#     2   2   2   2   2   2   2   2
#     4  11  25  44  75 102 142 192 233 298 361 407
#     4  11  26  44  71 107 148 185 241 290 360 431
#     4  11  23  45  68 106 148 183 234 293 360 427
#     4  11  26  47  71 104 143 189 245 295 349 421
#     4  12  29  52  75 103 144 189 240 294 349 420
#     4  12  23  44  72 108 146 180 237 290 358 432
#     4  12  26  45  77 105 147 188 230 293 362 416
#     4  12  26  51  72 111 140 186 241 289 356 426
#
# _framework density 24.3766
#
# number of rings (size 3 to 8) (size 9 to 14) (size 15 to 20)
#    0.000    0.500    3.750    3.750    5.250    3.000 
#    2.250    0.000    0.000    0.000    0.000    0.000 
#    0.000    0.000    0.000    0.000    0.000    0.000 
#
# Total GULP energy -198373.466842 kJ/mol
# GULP energy per Si atom -12398.341678 kJ/mol
# Density = 2.432112 g / cm^3
# Si number density = 24.376600 Si / 1000 Ang^3
#
#
#
# Elastic Constant Matrix: (Units=GPa)
#
#
# Indices 1 2 3 4 5 6 
#
# 1 98.6343 44.8510 40.1113 18.5551 -13.5651 8.4927
# 2 44.8510 135.7492 43.3389 19.6739 -17.3155 17.4163
# 3 40.1113 43.3389 114.8440 17.7187 -4.3664 -6.7881
# 4 18.5551 19.6739 17.7187 51.3773 4.3910 -4.0582
# 5 -13.5651 -17.3155 -4.3664 4.3910 20.4136 -3.1198
# 6 8.4927 17.4163 -6.7881 -4.0582 -3.1198 30.7438
#
#
#
# Elastic Compliance Matrix: (Units=1/GPa)
#
#
# Indices 1 2 3 4 5 6 
#
# 1 0.014602 -0.001469 -0.003789 -0.004390 0.008010 -0.003805
# 2 -0.001469 0.011240 -0.003223 -0.003827 0.007714 -0.006396
# 3 -0.003789 -0.003223 0.011612 -0.000842 -0.001801 0.005143
# 4 -0.004390 -0.003827 -0.000842 0.024140 -0.010727 0.005292
# 5 0.008010 0.007714 -0.001801 -0.010727 0.062461 -0.002058
# 6 -0.003805 -0.006396 0.005143 0.005292 -0.002058 0.038826
#
#
# Mechanical properties :
#
#
# Convention : Reuss Voigt Hill
#
# Bulk Modulus (GPa) = 48.79680 67.31444 58.05562
# Shear Modulus (GPa) = 26.78475 35.23536 31.01006
#
# Velocity S-wave (km/s) = 3.31840 3.80604 3.57055
# Velocity P-wave (km/s) = 5.89438 6.85485 6.39268
#
# Compressibility (1/GPa) = 0.02049315
#
# Stress axis : x y z
#
# Youngs Moduli (GPa) = 68.48319 88.96899 86.11423
#
# Poissons Ratio (x) = 0.13068 0.32627
# Poissons Ratio (y) = 0.10059 0.27754
# Poissons Ratio (z) = 0.25947 0.28674
#
# Static dielectric constant tensor:
#      x y z
#    x 4.527990 0.127200 -0.082300 
#    y 0.127200 4.337750 0.104550 
#    z -0.082300 0.104550 4.409430 
# 
# 
# High freq. dielectric constant tensor:
#      x y z
#    x 1.968410 0.014020 -0.002880 
#    y 0.014020 1.959310 0.000480 
#    z -0.002880 0.000480 1.975130 
# 
# From -- ./inp_files/14780.got.cif
#   From: 2010.06.25/outbox.cif.g09.slc.cpg/sg2_8_cif.got.tgz:14780.got - 2010.06.27 13:26:56.
