data_PCOD8033918
_publ_section_title
;
Structure prediction by ZEFSAII (Michael W. Deem and Ramdas Pophale) SiO2 
 PCOD8033918
Probable space group: P -1
;
_chemical_formula_sum "Si O2"
_cell_formula_units_Z 16
_cell_length_a 9.296554
_cell_length_b 9.743086
_cell_length_c 14.127312
_cell_angle_alpha 106.934544
_cell_angle_beta 82.787979
_cell_angle_gamma 43.828197
_cell_volume 730.823496
_symmetry_space_group_name_H-M "P -1"
_symmetry_group_IT_number 2
_symmetry_cell_setting 'triclinic'
loop_
_space_group_symop_operation_xyz
x,y,z
-x,-y,-z
loop_
_atom_site_type_symbol
_atom_site_label
_atom_site_fract_x
_atom_site_fract_y
_atom_site_fract_z
Si Si1 0.662713 0.352420 0.548616
Si Si2 0.828929 0.930957 0.528128
Si Si3 0.653248 0.246535 0.195132
Si Si4 0.374322 0.487798 0.896059
Si Si5 0.425696 0.134936 0.129793
Si Si6 0.968779 0.677442 0.279517
Si Si7 0.131550 0.784419 0.153359
Si Si8 0.461248 0.121808 0.746471
O O1 0.500000 0.500000 0.500000
O O2 0.568607 0.525664 0.676738
O O3 0.934232 0.185652 0.467880
O O4 0.660939 0.187735 0.547972
O O5 0.899019 0.757612 0.409841
O O6 0.687664 0.956616 0.625188
O O7 0.702985 0.313418 0.117863
O O8 0.598742 0.133578 0.134456
O O9 0.890122 0.059545 0.202907
O O10 0.657870 0.267518 0.855013
O O11 0.327255 0.380199 0.820727
O O12 0.211132 0.613932 0.028647
O O13 0.148099 0.401884 0.200738
O O14 0.447910 0.003189 0.185108
O O15 0.500000 0.000000 0.000000
O O16 0.728467 0.840436 0.272074
O O17 0.095899 0.720205 0.238148
#
# Coordination Sequence:
#
# PCOD8033918 Si02
#       8
#     2   2   2   2   2   2   2   2
#     4  11  24  42  78 105 143 185 238 296 360 418
#     4  11  25  47  69 108 142 185 238 298 354 424
#     4  12  23  47  71 106 136 188 238 286 358 426
#     4  11  25  45  69 106 137 181 236 298 338 419
#     4  12  28  46  71 104 145 189 239 290 360 426
#     4  12  25  48  73  99 147 191 232 292 364 427
#     4  11  24  42  74  99 140 181 232 290 354 414
#     4  12  28  45  72 104 145 185 241 294 356 419
#
# _framework density 21.893108999999999
#
# number of rings (size 3 to 8) (size 9 to 14) (size 15 to 20)
#    0.000    0.500    5.000    2.250    7.000    3.500 
#    0.000    0.000    0.000    0.000    0.000    0.000 
#    0.000    0.000    0.000    0.000    0.000    0.000 
#
# Total GULP energy -198544.810881 kJ/mol
# GULP energy per Si atom -12409.050680 kJ/mol
# Density = 2.184328 g / cm^3
# Si number density = 21.893109 Si / 1000 Ang^3
#
#
#
# Elastic Constant Matrix: (Units=GPa)
#
#
# Indices 1 2 3 4 5 6 
#
# 1 66.0034 35.3879 27.8352 -3.4479 0.2328 2.5519
# 2 35.3879 134.6154 50.7361 -7.4100 -6.8456 -3.6055
# 3 27.8352 50.7361 125.2158 -8.4935 5.3108 8.3390
# 4 -3.4479 -7.4100 -8.4935 40.7298 2.4264 -1.6386
# 5 0.2328 -6.8456 5.3108 2.4264 36.9714 1.2992
# 6 2.5519 -3.6055 8.3390 -1.6386 1.2992 34.2930
#
#
#
# Elastic Compliance Matrix: (Units=1/GPa)
#
#
# Indices 1 2 3 4 5 6 
#
# 1 0.018335 -0.003976 -0.002344 0.000322 -0.000495 -0.001178
# 2 -0.003976 0.009937 -0.003327 0.000730 0.002221 0.002100
# 3 -0.002344 -0.003327 0.010202 0.001346 -0.002067 -0.002514
# 4 0.000322 0.000730 0.001346 0.025137 -0.001745 0.000993
# 5 -0.000495 0.002221 -0.002067 -0.001745 0.027887 -0.000367
# 6 -0.001178 0.002100 -0.002514 0.000993 -0.000367 0.030142
#
#
# Mechanical properties :
#
#
# Convention : Reuss Voigt Hill
#
# Bulk Modulus (GPa) = 52.13577 61.52810 56.83193
# Shear Modulus (GPa) = 33.93869 36.52387 35.23128
#
# Velocity S-wave (km/s) = 3.94153 4.08889 4.01589
# Velocity P-wave (km/s) = 6.67680 7.10330 6.89335
#
# Compressibility (1/GPa) = 0.01918069
#
# Stress axis : x y z
#
# Youngs Moduli (GPa) = 54.54130 100.63339 98.02299
#
# Poissons Ratio (x) = 0.40007 0.22973
# Poissons Ratio (y) = 0.21683 0.32615
# Poissons Ratio (z) = 0.12782 0.33483
#
# Static dielectric constant tensor:
#      x y z
#    x 3.811890 -0.084650 -0.028130 
#    y -0.084650 3.962970 0.028460 
#    z -0.028130 0.028460 4.066110 
# 
# 
# High freq. dielectric constant tensor:
#      x y z
#    x 1.856490 -0.007210 -0.000140 
#    y -0.007210 1.866730 -0.001720 
#    z -0.000140 -0.001720 1.876070 
# 
# From -- ./inp_files/188071.got.cif
#   From: 2010.06.25/outbox.cif.g09.slc.cpg/sg2_95_cif.got.tgz:188071.got - 2010.06.27 13:26:56.
