data_PCOD8033259
_publ_section_title
;
Structure prediction by ZEFSAII (Michael W. Deem and Ramdas Pophale) SiO2 
 PCOD8033259
Probable space group: P -1
;
_chemical_formula_sum "Si O2"
_cell_formula_units_Z 16
_cell_length_a 8.975924
_cell_length_b 14.303278
_cell_length_c 12.214295
_cell_angle_alpha 129.699021
_cell_angle_beta 64.233105
_cell_angle_gamma 77.218304
_cell_volume 754.026005
_symmetry_space_group_name_H-M "P -1"
_symmetry_group_IT_number 2
_symmetry_cell_setting 'triclinic'
loop_
_space_group_symop_operation_xyz
x,y,z
-x,-y,-z
loop_
_atom_site_type_symbol
_atom_site_label
_atom_site_fract_x
_atom_site_fract_y
_atom_site_fract_z
Si Si1 0.511276 0.136049 0.098448
Si Si2 0.516212 0.296809 0.614823
Si Si3 0.777815 0.668813 0.451238
Si Si4 0.298399 0.325276 0.081249
Si Si5 0.035830 0.176036 0.579053
Si Si6 0.528156 0.102962 0.642210
Si Si7 0.049290 0.987103 0.232982
Si Si8 0.363126 0.634717 0.990637
O O1 0.406441 0.238642 0.321689
O O2 0.358567 0.262153 0.138869
O O3 0.500000 0.000000 0.000000
O O4 0.783510 0.037928 0.929883
O O5 0.331350 0.358369 0.626832
O O6 0.439239 0.267624 0.727826
O O7 0.785487 0.110680 0.358179
O O8 0.494687 0.452422 0.754679
O O9 0.828940 0.774657 0.465981
O O10 0.018072 0.483902 0.280919
O O11 0.380752 0.176322 0.858324
O O12 0.432724 0.379400 0.048123
O O13 0.017346 0.093386 0.424626
O O14 0.775632 0.337269 0.834790
O O15 0.193801 0.029918 0.514890
O O16 0.500000 0.000000 0.500000
O O17 0.175215 0.794927 0.085693
#
# Coordination Sequence:
#
# PCOD8033259 Si02
#       8
#     2   2   2   2   2   2   2   2
#     4  11  23  47  73  95 122 181 240 278 328 395
#     4  12  27  41  67 107 143 174 217 282 347 408
#     4  12  26  43  67 101 137 178 227 278 342 393
#     4  11  25  45  71  99 134 179 229 280 329 412
#     4  12  21  43  69  98 136 179 227 276 331 412
#     4  12  23  40  69 105 139 176 222 280 346 394
#     4  11  23  45  71  96 133 177 233 279 329 403
#     4  11  24  42  66 102 136 177 222 270 341 405
#
# _framework density 21.219427
#
# number of rings (size 3 to 8) (size 9 to 14) (size 15 to 20)
#    0.000    0.500    6.250    3.000    1.750    3.000 
#    0.000    2.500    0.000    0.000    0.000    0.000 
#    0.000    0.000    0.000    0.000    0.000    0.000 
#
# Total GULP energy -198429.310230 kJ/mol
# GULP energy per Si atom -12401.831889 kJ/mol
# Density = 2.117113 g / cm^3
# Si number density = 21.219427 Si / 1000 Ang^3
#
#
#
# Elastic Constant Matrix: (Units=GPa)
#
#
# Indices 1 2 3 4 5 6 
#
# 1 79.5770 33.4289 33.8261 -0.5908 -2.3177 -1.2556
# 2 33.4289 81.5057 37.5022 -10.3291 1.5957 6.6881
# 3 33.8261 37.5022 91.5122 -0.2580 -10.9609 0.9652
# 4 -0.5908 -10.3291 -0.2580 40.4689 2.6146 0.0244
# 5 -2.3177 1.5957 -10.9609 2.6146 41.8838 4.1883
# 6 -1.2556 6.6881 0.9652 0.0244 4.1883 31.5082
#
#
#
# Elastic Compliance Matrix: (Units=1/GPa)
#
#
# Indices 1 2 3 4 5 6 
#
# 1 0.016471 -0.005221 -0.003978 -0.001115 -0.000050 0.001894
# 2 -0.005221 0.017935 -0.005656 0.004622 -0.002388 -0.003528
# 3 -0.003978 -0.005656 0.015198 -0.001668 0.004073 0.000036
# 4 -0.001115 0.004622 -0.001668 0.026007 -0.002228 -0.000698
# 5 -0.000050 -0.002388 0.004073 -0.002228 0.025469 -0.003004
# 6 0.001894 -0.003528 0.000036 -0.000698 -0.003004 0.032961
#
#
# Mechanical properties :
#
#
# Convention : Reuss Voigt Hill
#
# Bulk Modulus (GPa) = 50.26384 51.34548 50.80466
# Shear Modulus (GPa) = 29.34601 32.62805 30.98703
#
# Velocity S-wave (km/s) = 3.72288 3.92554 3.82555
# Velocity P-wave (km/s) = 6.49760 6.69301 6.59603
#
# Compressibility (1/GPa) = 0.01989502
#
# Stress axis : x y z
#
# Youngs Moduli (GPa) = 60.71430 55.75831 65.79664
#
# Poissons Ratio (x) = 0.29110 0.26172
# Poissons Ratio (y) = 0.31698 0.37212
# Poissons Ratio (z) = 0.24151 0.31535
#
# Static dielectric constant tensor:
#      x y z
#    x 3.862560 -0.030220 -0.253880 
#    y -0.030220 4.307260 -0.222600 
#    z -0.253880 -0.222600 4.385470 
# 
# 
# High freq. dielectric constant tensor:
#      x y z
#    x 1.828610 0.000620 -0.008170 
#    y 0.000620 1.834030 0.008030 
#    z -0.008170 0.008030 1.839390 
# 
# From -- ./inp_files/272326.got.cif
#   From: 2010.06.25/outbox.cif.g09.slc.cpg/sg2_137_cif.got.tgz:272326.got - 2010.06.27 13:26:56.
