data_PCOD8033755
_publ_section_title
;
Structure prediction by ZEFSAII (Michael W. Deem and Ramdas Pophale) SiO2 
 PCOD8033755
Probable space group: P -1
;
_chemical_formula_sum "Si O2"
_cell_formula_units_Z 16
_cell_length_a 24.312485
_cell_length_b 5.164416
_cell_length_c 11.529534
_cell_angle_alpha 61.974913
_cell_angle_beta 31.717440
_cell_angle_gamma 64.693941
_cell_volume 670.626228
_symmetry_space_group_name_H-M "P -1"
_symmetry_group_IT_number 2
_symmetry_cell_setting 'triclinic'
loop_
_space_group_symop_operation_xyz
x,y,z
-x,-y,-z
loop_
_atom_site_type_symbol
_atom_site_label
_atom_site_fract_x
_atom_site_fract_y
_atom_site_fract_z
Si Si1 0.623608 0.669510 0.617935
Si Si2 0.380774 0.118094 0.673666
Si Si3 0.220229 0.140149 0.310046
Si Si4 0.255824 0.561075 0.965368
Si Si5 0.062177 0.701481 0.695814
Si Si6 0.181308 0.157967 0.644413
Si Si7 0.572201 0.123514 0.941309
Si Si8 0.924807 0.249081 0.927406
O O1 0.634975 0.692476 0.455520
O O2 0.704254 0.872423 0.495223
O O3 0.647866 0.342688 0.693090
O O4 0.501962 0.742927 0.852545
O O5 0.343251 0.334001 0.799278
O O6 0.500000 0.000000 0.500000
O O7 0.310327 0.841790 0.856493
O O8 0.181982 0.205061 0.495581
O O9 0.161115 0.858890 0.426535
O O10 0.347106 0.102774 0.091864
O O11 0.196702 0.413911 0.209407
O O12 0.167229 0.662808 0.013222
O O13 0.111659 0.452203 0.750103
O O14 0.991961 0.532888 0.764517
O O15 0.992410 0.965334 0.821701
O O16 0.125594 0.859954 0.838531
O O17 0.500000 0.000000 0.000000
#
# Coordination Sequence:
#
# PCOD8033755 Si02
#       8
#     2   2   2   2   2   2   2   2
#     4  11  25  43  75 112 147 198 244 306 373 440
#     4  12  28  50  79 108 153 202 253 297 369 444
#     4  12  28  46  75 109 155 191 250 307 379 439
#     4  12  30  50  76 110 153 199 250 309 365 449
#     4  12  27  48  76 110 147 197 248 317 374 433
#     4  12  25  47  76 113 149 189 254 310 379 438
#     4  11  24  41  70 110 151 186 240 303 370 447
#     4  12  28  49  76 109 147 196 256 307 370 444
#
# _framework density 23.858295999999999
#
# number of rings (size 3 to 8) (size 9 to 14) (size 15 to 20)
#    0.000    0.250    5.000    2.625    8.750    1.000 
#    0.000    0.000    0.000    0.000    0.000    0.000 
#    0.000    0.000    0.000    0.000    0.000    0.000 
#
# Total GULP energy -198340.899035 kJ/mol
# GULP energy per Si atom -12396.306190 kJ/mol
# Density = 2.380399 g / cm^3
# Si number density = 23.858296 Si / 1000 Ang^3
#
#
#
# Elastic Constant Matrix: (Units=GPa)
#
#
# Indices 1 2 3 4 5 6 
#
# 1 84.2491 30.8240 50.2863 -7.9162 -2.1354 -10.4335
# 2 30.8240 67.5024 39.9381 -13.1545 8.3735 6.3051
# 3 50.2863 39.9381 94.3973 -11.6110 -9.5968 -12.3813
# 4 -7.9162 -13.1545 -11.6110 38.7282 0.4028 -1.0108
# 5 -2.1354 8.3735 -9.5968 0.4028 53.0644 -6.7540
# 6 -10.4335 6.3051 -12.3813 -1.0108 -6.7540 39.8477
#
#
#
# Elastic Compliance Matrix: (Units=1/GPa)
#
#
# Indices 1 2 3 4 5 6 
#
# 1 0.018312 -0.004291 -0.007449 0.000132 0.000479 0.003244
# 2 -0.004291 0.025168 -0.009730 0.004588 -0.007112 -0.009218
# 3 -0.007449 -0.009730 0.020347 0.001393 0.005786 0.006927
# 4 0.000132 0.004588 0.001393 0.027839 -0.000635 0.000340
# 5 0.000479 -0.007112 0.005786 -0.000635 0.021896 0.006744
# 6 0.003244 -0.009218 0.006927 0.000340 0.006744 0.030707
#
#
# Mechanical properties :
#
#
# Convention : Reuss Voigt Hill
#
# Bulk Modulus (GPa) = 47.87949 54.24952 51.06451
# Shear Modulus (GPa) = 25.75036 34.66809 30.20922
#
# Velocity S-wave (km/s) = 3.28884 3.81607 3.56222
# Velocity P-wave (km/s) = 5.87655 6.49647 6.19427
#
# Compressibility (1/GPa) = 0.02088577
#
# Stress axis : x y z
#
# Youngs Moduli (GPa) = 54.60904 39.73314 49.14846
#
# Poissons Ratio (x) = 0.17051 0.36611
# Poissons Ratio (y) = 0.23435 0.47821
# Poissons Ratio (z) = 0.40678 0.38660
#
# Static dielectric constant tensor:
#      x y z
#    x 4.331530 -0.073490 -0.387840 
#    y -0.073490 4.497300 -0.105040 
#    z -0.387840 -0.105040 4.877250 
# 
# 
# High freq. dielectric constant tensor:
#      x y z
#    x 1.941570 -0.004420 -0.019270 
#    y -0.004420 1.953440 -0.001890 
#    z -0.019270 -0.001890 1.961710 
# 
# From -- ./inp_files/473353.got.cif
#   From: 2010.06.25/outbox.cif.g09.slc.cpg/sg2_237_cif.got.tgz:473353.got - 2010.06.27 13:26:56.
