data_PCOD8033783
_publ_section_title
;
Structure prediction by ZEFSAII (Michael W. Deem and Ramdas Pophale) SiO2 
 PCOD8033783
Probable space group: P -1
;
_chemical_formula_sum "Si O2"
_cell_formula_units_Z 14
_cell_length_a 9.050250
_cell_length_b 15.114640
_cell_length_c 15.239561
_cell_angle_alpha 18.670608
_cell_angle_beta 69.047053
_cell_angle_gamma 69.810841
_cell_volume 623.080340
_symmetry_space_group_name_H-M "P -1"
_symmetry_group_IT_number 2
_symmetry_cell_setting 'triclinic'
loop_
_space_group_symop_operation_xyz
x,y,z
-x,-y,-z
loop_
_atom_site_type_symbol
_atom_site_label
_atom_site_fract_x
_atom_site_fract_y
_atom_site_fract_z
Si Si1 0.936169 0.883152 0.891876
Si Si2 0.814639 0.554681 0.495863
Si Si3 0.864430 0.586545 0.647689
Si Si4 0.685372 0.008112 0.966296
Si Si5 0.676725 0.016859 0.562179
Si Si6 0.857003 0.544463 0.055768
Si Si7 0.400100 0.313679 0.265327
O O1 0.770841 0.984329 0.875478
O O2 0.914817 0.677060 0.008438
O O3 0.032203 0.151804 0.591164
O O4 0.029229 0.693244 0.121886
O O5 0.780379 0.651180 0.512015
O O6 0.750516 0.775575 0.234421
O O7 0.000000 0.500000 0.500000
O O8 0.718505 0.287241 0.746387
O O9 0.734157 0.512272 0.818828
O O10 0.500000 0.000000 0.000000
O O11 0.799334 0.232475 0.373034
O O12 0.502827 0.162500 0.463090
O O13 0.692813 0.927592 0.540293
O O14 0.707950 0.733006 0.875919
O O15 0.000000 0.500000 0.000000
O O16 0.500000 0.500000 0.000000
#
# Coordination Sequence:
#
# PCOD8033783 Si02
#       7
#     2   2   2   2   2   2   2
#     4  12  25  44  69 102 137 185 234 280 349 428
#     4  12  23  47  74 105 141 185 241 290 347 433
#     4  12  26  42  75  99 134 184 240 280 347 412
#     4  12  26  46  73 108 149 181 228 307 360 410
#     4  11  24  42  63  92 134 176 221 280 350 397
#     4  12  24  41  65  94 137 177 224 276 344 420
#     4  11  25  45  68  98 138 175 234 296 337 410
#
# _framework density 22.469013
#
# number of rings (size 3 to 8) (size 9 to 14) (size 15 to 20)
#    0.000    0.286    4.286    4.714    4.000    2.286 
#    0.000    0.000    0.000    0.000    0.000    0.000 
#    0.000    0.000    0.000    0.000    0.000    0.000 
#
# Total GULP energy -173504.982342 kJ/mol
# GULP energy per Si atom -12393.213024 kJ/mol
# Density = 2.241787 g / cm^3
# Si number density = 22.469013 Si / 1000 Ang^3
#
#
#
# Elastic Constant Matrix: (Units=GPa)
#
#
# Indices 1 2 3 4 5 6 
#
# 1 125.5360 51.5786 42.5380 1.6807 -2.1958 -4.4897
# 2 51.5786 137.0159 21.5654 3.2861 -27.4582 -6.4790
# 3 42.5380 21.5654 115.5673 -6.4904 -4.0797 -7.4921
# 4 1.6807 3.2861 -6.4904 33.9814 6.8888 -5.4832
# 5 -2.1958 -27.4582 -4.0797 6.8888 48.7390 -8.3806
# 6 -4.4897 -6.4790 -7.4921 -5.4832 -8.3806 37.1737
#
#
#
# Elastic Compliance Matrix: (Units=1/GPa)
#
#
# Indices 1 2 3 4 5 6 
#
# 1 0.010649 -0.003910 -0.003327 -0.000467 -0.002038 -0.000594
# 2 -0.003910 0.010199 -0.000183 -0.001696 0.006210 0.002418
# 3 -0.003327 -0.000183 0.010202 0.002343 0.000633 0.002111
# 4 -0.000467 -0.001696 0.002343 0.031600 -0.004603 0.003743
# 5 -0.002038 0.006210 0.000633 -0.004603 0.025672 0.006072
# 6 -0.000594 0.002418 0.002111 0.003743 0.006072 0.029597
#
#
# Mechanical properties :
#
#
# Convention : Reuss Voigt Hill
#
# Bulk Modulus (GPa) = 61.69104 67.72036 64.70570
# Shear Modulus (GPa) = 36.18926 41.47464 38.83195
#
# Velocity S-wave (km/s) = 4.01762 4.30101 4.16173
# Velocity P-wave (km/s) = 7.00267 7.40741 7.20788
#
# Compressibility (1/GPa) = 0.01620981
#
# Stress axis : x y z
#
# Youngs Moduli (GPa) = 93.90439 98.05084 98.01632
#
# Poissons Ratio (x) = 0.38343 0.32607
# Poissons Ratio (y) = 0.36721 0.01794
# Poissons Ratio (z) = 0.31239 0.01795
#
# Static dielectric constant tensor:
#      x y z
#    x 4.513970 0.170130 0.186920 
#    y 0.170130 3.935440 -0.144950 
#    z 0.186920 -0.144950 4.179880 
# 
# 
# High freq. dielectric constant tensor:
#      x y z
#    x 1.892710 0.011690 0.006420 
#    y 0.011690 1.882190 -0.017750 
#    z 0.006420 -0.017750 1.897600 
# 
# From -- ./inp_files/502462.got.cif
#   From: 2010.06.25/outbox.cif.g09.slc.cpg/sg2_252_cif.got.tgz:502462.got - 2010.06.27 13:26:56.
