data_PCOD8033572
_publ_section_title
;
Structure prediction by ZEFSAII (Michael W. Deem and Ramdas Pophale) SiO2 
 PCOD8033572
Probable space group: P -1
;
_chemical_formula_sum "Si O2"
_cell_formula_units_Z 16
_cell_length_a 15.024609
_cell_length_b 9.002110
_cell_length_c 10.416192
_cell_angle_alpha 51.689626
_cell_angle_beta 105.410133
_cell_angle_gamma 65.116788
_cell_volume 674.785475
_symmetry_space_group_name_H-M "P -1"
_symmetry_group_IT_number 2
_symmetry_cell_setting 'triclinic'
loop_
_space_group_symop_operation_xyz
x,y,z
-x,-y,-z
loop_
_atom_site_type_symbol
_atom_site_label
_atom_site_fract_x
_atom_site_fract_y
_atom_site_fract_z
Si Si1 0.882739 0.572956 0.154461
Si Si2 0.231765 0.675541 0.543976
Si Si3 0.798397 0.671471 0.346468
Si Si4 0.851678 0.600675 0.691614
Si Si5 0.688147 0.256407 0.968500
Si Si6 0.894004 0.247095 0.128743
Si Si7 0.328365 0.774135 0.296750
Si Si8 0.601604 0.289460 0.268858
O O1 0.910547 0.520569 0.348676
O O2 0.869164 0.392352 0.177017
O O3 0.014486 0.472171 0.188812
O O4 0.730017 0.918818 0.878588
O O5 0.298847 0.357639 0.719185
O O6 0.262435 0.755529 0.391920
O O7 0.302261 0.674656 0.690212
O O8 0.059698 0.915928 0.364657
O O9 0.869506 0.502559 0.602334
O O10 0.705183 0.009560 0.150848
O O11 0.700312 0.950519 0.465133
O O12 0.854471 0.428706 0.888534
O O13 0.739545 0.205239 0.870268
O O14 0.513871 0.577261 0.733984
O O15 0.788173 0.232763 0.106581
O O16 0.500000 0.500000 0.500000
O O17 0.500000 0.500000 0.000000
#
# Coordination Sequence:
#
# PCOD8033572 Si02
#       8
#     2   2   2   2   2   2   2   2
#     4  11  25  46  72 107 147 191 244 299 365 433
#     4  12  26  47  78 105 143 196 245 295 366 438
#     4  11  28  44  70 105 147 191 241 298 363 429
#     4  12  24  48  75 108 146 193 242 300 364 439
#     4  11  27  48  68 107 150 189 242 308 363 426
#     4  12  27  46  78 109 142 192 251 301 359 434
#     4  11  23  47  73 105 148 188 237 302 366 430
#     4  12  26  48  73 104 151 189 239 302 367 429
#
# _framework density 23.711238999999999
#
# number of rings (size 3 to 8) (size 9 to 14) (size 15 to 20)
#    0.000    0.500    5.000    2.250    7.000    2.500 
#    2.250    0.000    0.000    0.000    0.000    0.000 
#    0.000    0.000    0.000    0.000    0.000    0.000 
#
# Total GULP energy -198324.602150 kJ/mol
# GULP energy per Si atom -12395.287634 kJ/mol
# Density = 2.365727 g / cm^3
# Si number density = 23.711239 Si / 1000 Ang^3
#
#
#
# Elastic Constant Matrix: (Units=GPa)
#
#
# Indices 1 2 3 4 5 6 
#
# 1 88.7722 52.5645 40.6106 -12.8889 8.5157 29.7128
# 2 52.5645 125.9427 45.6706 -6.6514 -9.4818 8.3947
# 3 40.6106 45.6706 115.7211 -11.7622 7.3400 7.1273
# 4 -12.8889 -6.6514 -11.7622 32.7226 -10.8452 -3.5197
# 5 8.5157 -9.4818 7.3400 -10.8452 40.1572 2.1397
# 6 29.7128 8.3947 7.1273 -3.5197 2.1397 41.2057
#
#
#
# Elastic Compliance Matrix: (Units=1/GPa)
#
#
# Indices 1 2 3 4 5 6 
#
# 1 0.022855 -0.007458 -0.003619 0.003263 -0.004328 -0.013832
# 2 -0.007458 0.012205 -0.002649 0.000564 0.004932 0.003142
# 3 -0.003619 -0.002649 0.011136 0.001693 -0.001513 0.001446
# 4 0.003263 0.000564 0.001693 0.035436 0.008712 -0.000186
# 5 -0.004328 0.004932 -0.001513 0.008712 0.029529 0.001588
# 6 -0.013832 0.003142 0.001446 -0.000186 0.001588 0.033254
#
#
# Mechanical properties :
#
#
# Convention : Reuss Voigt Hill
#
# Bulk Modulus (GPa) = 53.34960 67.56972 60.45966
# Shear Modulus (GPa) = 28.07184 35.58978 31.83081
#
# Velocity S-wave (km/s) = 3.44452 3.87843 3.66790
# Velocity P-wave (km/s) = 6.19421 6.97245 6.59482
#
# Compressibility (1/GPa) = 0.01874428
#
# Stress axis : x y z
#
# Youngs Moduli (GPa) = 43.75386 81.93310 89.80028
#
# Poissons Ratio (x) = 0.61107 0.32500
# Poissons Ratio (y) = 0.32632 0.23784
# Poissons Ratio (z) = 0.15835 0.21701
#
# Static dielectric constant tensor:
#      x y z
#    x -16.672100 10.771760 -6.569410 
#    y 10.771760 -0.476750 3.306790 
#    z -6.569410 3.306790 2.291700 
# 
# 
# High freq. dielectric constant tensor:
#      x y z
#    x 1.933240 -0.007770 -0.008710 
#    y -0.007770 1.965360 0.004630 
#    z -0.008710 0.004630 1.934560 
# 
# From -- ./inp_files/446804.got.cif
#   From: 2010.06.25/outbox.cif.g09.slc.cpg/sg2_224_cif.got.tgz:446804.got - 2010.06.27 13:26:56.
