data_PCOD8033369
_publ_section_title
;
Structure prediction by ZEFSAII (Michael W. Deem and Ramdas Pophale) SiO2 
 PCOD8033369
Probable space group: P -1
;
_chemical_formula_sum "Si O2"
_cell_formula_units_Z 16
_cell_length_a 9.232512
_cell_length_b 20.960467
_cell_length_c 18.050948
_cell_angle_alpha 19.961070
_cell_angle_beta 37.643499
_cell_angle_gamma 34.929700
_cell_volume 678.757831
_symmetry_space_group_name_H-M "P -1"
_symmetry_group_IT_number 2
_symmetry_cell_setting 'triclinic'
loop_
_space_group_symop_operation_xyz
x,y,z
-x,-y,-z
loop_
_atom_site_type_symbol
_atom_site_label
_atom_site_fract_x
_atom_site_fract_y
_atom_site_fract_z
Si Si1 0.211739 0.098497 0.304649
Si Si2 0.402561 0.619852 0.512877
Si Si3 0.438797 0.186905 0.265944
Si Si4 0.735901 0.756896 0.441857
Si Si5 0.986133 0.452533 0.894007
Si Si6 0.250454 0.196680 0.772644
Si Si7 0.135893 0.652543 0.101304
Si Si8 0.239911 0.775575 0.251803
O O1 0.472336 0.940675 0.339723
O O2 0.268484 0.163910 0.291852
O O3 0.000000 0.000000 0.500000
O O4 0.110166 0.290891 0.083397
O O5 0.141832 0.601249 0.664447
O O6 0.475893 0.777527 0.360824
O O7 0.386967 0.709690 0.340058
O O8 0.631175 0.403687 0.662860
O O9 0.297022 0.398528 0.133670
O O10 0.500000 0.000000 0.500000
O O11 0.706714 0.200495 0.116657
O O12 0.865175 0.692483 0.378604
O O13 0.686221 0.575213 0.701866
O O14 0.940785 0.818307 0.338546
O O15 0.984474 0.340698 0.939043
O O16 0.087945 0.280799 0.820244
O O17 0.290210 0.967128 0.992769
#
# Coordination Sequence:
#
# PCOD8033369 Si02
#       8
#     2   2   2   2   2   2   2   2
#     4  12  28  49  75 110 148 194 254 315 378 442
#     4  11  24  43  70 106 153 188 250 301 378 439
#     4  12  28  49  79 110 142 196 258 312 378 449
#     4  12  25  47  73 108 153 195 248 311 371 454
#     4  12  26  48  75 104 153 196 245 317 377 442
#     4  12  26  41  77 108 152 200 247 302 381 445
#     4  12  25  48  76 106 149 195 254 309 375 443
#     4  11  23  46  65 107 149 197 244 303 367 449
#
# _framework density 23.572472000000001
#
# number of rings (size 3 to 8) (size 9 to 14) (size 15 to 20)
#    0.000    0.250    2.500    6.375    5.250    1.000 
#    0.000    0.000    0.000    0.000    0.000    0.000 
#    0.000    0.000    0.000    0.000    0.000    0.000 
#
# Total GULP energy -198415.872777 kJ/mol
# GULP energy per Si atom -12400.992049 kJ/mol
# Density = 2.351882 g / cm^3
# Si number density = 23.572472 Si / 1000 Ang^3
#
#
#
# Elastic Constant Matrix: (Units=GPa)
#
#
# Indices 1 2 3 4 5 6 
#
# 1 140.8012 36.5155 67.7459 -0.4744 3.2666 5.9509
# 2 36.5155 78.7276 12.6094 -2.0551 5.4918 -0.0131
# 3 67.7459 12.6094 148.9770 7.4378 -5.1649 -2.3611
# 4 -0.4744 -2.0551 7.4378 29.5953 -10.5970 2.9115
# 5 3.2666 5.4918 -5.1649 -10.5970 57.2635 7.4772
# 6 5.9509 -0.0131 -2.3611 2.9115 7.4772 36.4500
#
#
#
# Elastic Compliance Matrix: (Units=1/GPa)
#
#
# Indices 1 2 3 4 5 6 
#
# 1 0.010409 -0.004071 -0.004484 0.001170 -0.000122 -0.002060
# 2 -0.004071 0.014588 0.000576 0.000288 -0.001183 0.000927
# 3 -0.004484 0.000576 0.008851 -0.002252 0.000399 0.001404
# 4 0.001170 0.000288 -0.002252 0.037470 0.007266 -0.004820
# 5 -0.000122 -0.001183 0.000399 0.007266 0.019558 -0.004547
# 6 -0.002060 0.000927 0.001404 -0.004820 -0.004547 0.029180
#
#
# Mechanical properties :
#
#
# Convention : Reuss Voigt Hill
#
# Bulk Modulus (GPa) = 55.89752 66.91639 61.40696
# Shear Modulus (GPa) = 35.21639 41.43742 38.32690
#
# Velocity S-wave (km/s) = 3.86937 4.19725 4.03664
# Velocity P-wave (km/s) = 6.61266 7.20683 6.91613
#
# Compressibility (1/GPa) = 0.01788988
#
# Stress axis : x y z
#
# Youngs Moduli (GPa) = 96.06624 68.54825 112.97645
#
# Poissons Ratio (x) = 0.27907 0.50662
# Poissons Ratio (y) = 0.39110 -0.06506
# Poissons Ratio (z) = 0.43079 -0.03947
#
# Static dielectric constant tensor:
#      x y z
#    x 4.359220 0.043220 0.031260 
#    y 0.043220 4.132890 -0.025190 
#    z 0.031260 -0.025190 4.494180 
# 
# 
# High freq. dielectric constant tensor:
#      x y z
#    x 1.947320 -0.002200 -0.000130 
#    y -0.002200 1.924030 0.002020 
#    z -0.000130 0.002020 1.952180 
# 
# From -- ./inp_files/562876.got.cif
#   From: 2010.06.25/outbox.cif.g09.slc.cpg/sg2_282_cif.got.tgz:562876.got - 2010.06.27 13:26:56.
