data_PCOD8033057
_publ_section_title
;
Structure prediction by ZEFSAII (Michael W. Deem and Ramdas Pophale) SiO2 
 PCOD8033057
Probable space group: P -1
;
_chemical_formula_sum "Si O2"
_cell_formula_units_Z 16
_cell_length_a 9.347545
_cell_length_b 9.398266
_cell_length_c 12.076197
_cell_angle_alpha 85.889909
_cell_angle_beta 132.201963
_cell_angle_gamma 103.161633
_cell_volume 760.378661
_symmetry_space_group_name_H-M "P -1"
_symmetry_group_IT_number 2
_symmetry_cell_setting 'triclinic'
loop_
_space_group_symop_operation_xyz
x,y,z
-x,-y,-z
loop_
_atom_site_type_symbol
_atom_site_label
_atom_site_fract_x
_atom_site_fract_y
_atom_site_fract_z
Si Si1 0.332231 0.756723 0.862794
Si Si2 0.376154 0.094048 0.369794
Si Si3 0.630636 0.395400 0.535504
Si Si4 0.410836 0.982501 0.154996
Si Si5 0.177929 0.483165 0.167276
Si Si6 0.011328 0.832770 0.834740
Si Si7 0.772094 0.484133 0.364369
Si Si8 0.508693 0.687872 0.187624
O O1 0.116866 0.785053 0.783180
O O2 0.309824 0.631442 0.767752
O O3 0.471941 0.910798 0.885270
O O4 0.429559 0.696948 0.022175
O O5 0.479957 0.241847 0.475972
O O6 0.137488 0.061090 0.275318
O O7 0.500000 0.000000 0.500000
O O8 0.407966 0.079550 0.256213
O O9 0.500000 0.500000 0.500000
O O10 0.814617 0.424982 0.717929
O O11 0.687171 0.416017 0.438278
O O12 0.517123 0.846938 0.239477
O O13 0.183543 0.913039 0.003797
O O14 0.374517 0.550798 0.194053
O O15 0.140667 0.308858 0.180493
O O16 0.000000 0.500000 0.000000
O O17 0.720477 0.641644 0.300174
O O18 0.000000 0.500000 0.500000
#
# Coordination Sequence:
#
# PCOD8033057 Si02
#       8
#     2   2   2   2   2   2   2   2
#     4  11  24  46  68 102 140 180 228 281 343 403
#     4  12  26  44  67 101 136 181 229 278 338 410
#     4  12  24  46  68  92 140 175 221 298 338 381
#     4  11  24  46  68 102 140 180 228 281 343 403
#     4  12  22  40  76 102 122 176 239 284 341 394
#     4  11  23  44  72  98 138 181 227 285 335 404
#     4  12  26  44  67 101 136 181 229 278 338 410
#     4  11  23  44  72  98 138 181 227 285 335 404
#
# _framework density 21.042145999999999
#
# number of rings (size 3 to 8) (size 9 to 14) (size 15 to 20)
#    0.000    0.500    6.250    3.750    0.000    0.000 
#    4.500    1.250    0.000    0.000    0.000    0.000 
#    0.000    0.000    0.000    0.000    0.000    0.000 
#
# Total GULP energy -198209.924600 kJ/mol
# GULP energy per Si atom -12388.120287 kJ/mol
# Density = 2.099425 g / cm^3
# Si number density = 21.042146 Si / 1000 Ang^3
#
#
#
# Elastic Constant Matrix: (Units=GPa)
#
#
# Indices 1 2 3 4 5 6 
#
# 1 107.8661 53.4393 45.2232 -16.7706 2.4754 -7.8317
# 2 53.4393 118.0224 49.5929 4.7941 18.6537 -2.2181
# 3 45.2232 49.5929 128.6329 -3.6202 1.4158 -20.3111
# 4 -16.7706 4.7941 -3.6202 40.4040 -13.0542 0.6837
# 5 2.4754 18.6537 1.4158 -13.0542 42.8100 -4.9042
# 6 -7.8317 -2.2181 -20.3111 0.6837 -4.9042 45.2237
#
#
#
# Elastic Compliance Matrix: (Units=1/GPa)
#
#
# Indices 1 2 3 4 5 6 
#
# 1 0.014930 -0.006978 -0.002106 0.008427 0.005013 0.001714
# 2 -0.006978 0.014899 -0.003896 -0.007765 -0.008677 -0.003051
# 3 -0.002106 -0.003896 0.010736 0.001235 0.002357 0.004503
# 4 0.008427 -0.007765 0.001235 0.033561 0.013384 0.002577
# 5 0.005013 -0.008677 0.002357 0.013384 0.031392 0.004703
# 6 0.001714 -0.003051 0.004503 0.002577 0.004703 0.024753
#
#
# Mechanical properties :
#
#
# Convention : Reuss Voigt Hill
#
# Bulk Modulus (GPa) = 68.46401 72.33690 70.40045
# Shear Modulus (GPa) = 31.03686 39.43861 35.23774
#
# Velocity S-wave (km/s) = 3.84472 4.33398 4.09666
# Velocity P-wave (km/s) = 7.23301 7.71338 7.47705
#
# Compressibility (1/GPa) = 0.01460621
#
# Stress axis : x y z
#
# Youngs Moduli (GPa) = 66.97829 67.11967 93.14128
#
# Poissons Ratio (x) = 0.46833 0.19619
# Poissons Ratio (y) = 0.46734 0.36285
# Poissons Ratio (z) = 0.14108 0.26148
#
# Static dielectric constant tensor:
#      x y z
#    x 4.231630 -0.098530 0.067920 
#    y -0.098530 3.569300 0.256590 
#    z 0.067920 0.256590 3.917360 
# 
# 
# High freq. dielectric constant tensor:
#      x y z
#    x 1.824920 -0.007860 -0.006180 
#    y -0.007860 1.826990 0.002940 
#    z -0.006180 0.002940 1.840960 
# 
# From -- ./inp_files/382463.got.cif
#   From: 2010.06.25/outbox.cif.g09.slc.cpg/sg2_192_cif.got.tgz:382463.got - 2010.06.27 13:26:56.
