data_PCOD8033296
_publ_section_title
;
Structure prediction by ZEFSAII (Michael W. Deem and Ramdas Pophale) SiO2 
 PCOD8033296
Probable space group: P -1
;
_chemical_formula_sum "Si O2"
_cell_formula_units_Z 16
_cell_length_a 15.199007
_cell_length_b 9.254249
_cell_length_c 9.347405
_cell_angle_alpha 50.027559
_cell_angle_beta 91.702830
_cell_angle_gamma 57.093885
_cell_volume 683.850150
_symmetry_space_group_name_H-M "P -1"
_symmetry_group_IT_number 2
_symmetry_cell_setting 'triclinic'
loop_
_space_group_symop_operation_xyz
x,y,z
-x,-y,-z
loop_
_atom_site_type_symbol
_atom_site_label
_atom_site_fract_x
_atom_site_fract_y
_atom_site_fract_z
Si Si1 0.442506 0.616118 0.079469
Si Si2 0.323467 0.505414 0.328195
Si Si3 0.102087 0.004299 0.164921
Si Si4 0.778969 0.787516 0.949621
Si Si5 0.174509 0.172209 0.611463
Si Si6 0.185016 0.413778 0.223843
Si Si7 0.076398 0.639411 0.512049
Si Si8 0.501619 0.796143 0.200360
O O1 0.302260 0.928870 0.860332
O O2 0.500000 0.500000 0.000000
O O3 0.425778 0.445181 0.267640
O O4 0.531763 0.604642 0.193495
O O5 0.298898 0.346890 0.351651
O O6 0.382844 0.389297 0.562902
O O7 0.186782 0.831639 0.135415
O O8 0.158502 0.111877 0.161966
O O9 0.112995 0.803623 0.398047
O O10 0.952583 0.270962 0.950860
O O11 0.782841 0.643722 0.905307
O O12 0.632762 0.050303 0.828285
O O13 0.862110 0.551092 0.223857
O O14 0.194024 0.189065 0.433744
O O15 0.120669 0.453738 0.493348
O O16 0.079149 0.142696 0.630689
O O17 0.500000 0.000000 0.000000
#
# Coordination Sequence:
#
# PCOD8033296 Si02
#       8
#     2   2   2   2   2   2   2   2
#     4  12  28  48  74 111 147 190 257 309 361 445
#     4  12  26  48  74 105 144 199 249 299 371 444
#     4  12  24  47  78 107 147 198 247 299 381 438
#     4  12  27  49  72 111 152 190 249 308 372 436
#     4  11  23  45  73 109 148 189 244 305 372 435
#     4  12  27  45  75 110 150 191 242 317 362 440
#     4  11  23  45  78 106 148 196 240 302 374 450
#     4  12  27  51  75 100 148 205 245 301 376 439
#
# _framework density 23.396937999999999
#
# number of rings (size 3 to 8) (size 9 to 14) (size 15 to 20)
#    0.000    0.250    5.000    3.375    5.250    1.000 
#    2.250    0.000    0.000    0.000    0.000    0.000 
#    0.000    0.000    0.000    0.000    0.000    0.000 
#
# Total GULP energy -198388.815481 kJ/mol
# GULP energy per Si atom -12399.300968 kJ/mol
# Density = 2.334369 g / cm^3
# Si number density = 23.396938 Si / 1000 Ang^3
#
#
#
# Elastic Constant Matrix: (Units=GPa)
#
#
# Indices 1 2 3 4 5 6 
#
# 1 162.7561 58.4135 50.5634 12.3203 -14.2504 17.3465
# 2 58.4135 99.4643 42.0281 34.4209 5.6322 4.5156
# 3 50.5634 42.0281 96.8540 20.9360 -5.1101 10.7728
# 4 12.3203 34.4209 20.9360 36.1457 2.0111 -1.8281
# 5 -14.2504 5.6322 -5.1101 2.0111 45.3908 5.1142
# 6 17.3465 4.5156 10.7728 -1.8281 5.1142 23.3573
#
#
#
# Elastic Compliance Matrix: (Units=1/GPa)
#
#
# Indices 1 2 3 4 5 6 
#
# 1 0.009629 -0.005645 -0.002390 0.002975 0.003952 -0.005590
# 2 -0.005645 0.019976 -0.002798 -0.015186 -0.004041 0.001317
# 3 -0.002390 -0.002798 0.014655 -0.005394 0.002085 -0.005322
# 4 0.002975 -0.015186 -0.005394 0.044612 -0.000534 0.006823
# 5 0.003952 -0.004041 0.002085 -0.000534 0.025004 -0.008632
# 6 -0.005590 0.001317 -0.005322 0.006823 -0.008632 0.051588
#
#
# Mechanical properties :
#
#
# Convention : Reuss Voigt Hill
#
# Bulk Modulus (GPa) = 44.26137 73.45381 58.85759
# Shear Modulus (GPa) = 25.68543 34.85005 30.26774
#
# Velocity S-wave (km/s) = 3.31692 3.86361 3.60065
# Velocity P-wave (km/s) = 5.79896 7.16701 6.51897
#
# Compressibility (1/GPa) = 0.02259307
#
# Stress axis : x y z
#
# Youngs Moduli (GPa) = 103.84956 50.06079 68.23640
#
# Poissons Ratio (x) = 0.28257 0.16312
# Poissons Ratio (y) = 0.58619 0.19095
# Poissons Ratio (z) = 0.24825 0.14009
#
# Static dielectric constant tensor:
#      x y z
#    x 4.184140 0.158410 -0.535130 
#    y 0.158410 3.805820 0.534430 
#    z -0.535130 0.534430 3.230740 
# 
# 
# High freq. dielectric constant tensor:
#      x y z
#    x 1.943100 -0.004940 -0.002130 
#    y -0.004940 1.907570 0.008830 
#    z -0.002130 0.008830 1.934930 
# 
# From -- ./inp_files/297677.got.cif
#   From: 2010.06.25/outbox.cif.g09.slc.cpg/sg2_149_cif.got.tgz:297677.got - 2010.06.27 13:26:56.
