data_PCOD8033366
_publ_section_title
;
Structure prediction by ZEFSAII (Michael W. Deem and Ramdas Pophale) SiO2 
 PCOD8033366
Probable space group: P -1
;
_chemical_formula_sum "Si O2"
_cell_formula_units_Z 8
_cell_length_a 7.170502
_cell_length_b 8.693235
_cell_length_c 6.096218
_cell_angle_alpha 110.958392
_cell_angle_beta 115.585251
_cell_angle_gamma 104.814907
_cell_volume 279.552957
_symmetry_space_group_name_H-M "P -1"
_symmetry_group_IT_number 2
_symmetry_cell_setting 'triclinic'
loop_
_space_group_symop_operation_xyz
x,y,z
-x,-y,-z
loop_
_atom_site_type_symbol
_atom_site_label
_atom_site_fract_x
_atom_site_fract_y
_atom_site_fract_z
Si Si1 0.029029 0.358093 0.175206
Si Si2 0.166876 0.972846 0.402048
Si Si3 0.346152 0.561761 0.810890
Si Si4 0.577110 0.250851 0.481223
O O1 0.132222 0.377719 0.486283
O O2 0.211208 0.544530 0.223959
O O3 0.767983 0.339078 0.047625
O O4 0.994562 0.169968 0.943892
O O5 0.317115 0.890998 0.562705
O O6 0.354053 0.173894 0.493000
O O7 0.000000 0.000000 0.500000
O O8 0.507838 0.713008 0.782180
O O9 0.500000 0.500000 0.000000
#
# Coordination Sequence:
#
# PCOD8033366 Si02
#       4
#     2   2   2   2
#     4   9  21  46  83 120 165 209 281 342 407 508
#     4  11  23  45  84 121 168 216 268 344 420 490
#     4   9  20  47  87 119 159 219 278 341 416 490
#     4   9  22  47  80 124 162 210 281 342 403 509
#
# _framework density 28.617115999999999
#
# number of rings (size 3 to 8) (size 9 to 14) (size 15 to 20)
#    1.500    1.000    0.000    0.750    0.000    2.000 
#    9.000    3.750   11.000    4.500    0.000    0.000 
#    0.000    0.000    0.000    0.000    0.000    0.000 
#
# Total GULP energy -99162.362375 kJ/mol
# GULP energy per Si atom -12395.295297 kJ/mol
# Density = 2.855198 g / cm^3
# Si number density = 28.617116 Si / 1000 Ang^3
#
#
#
# Elastic Constant Matrix: (Units=GPa)
#
#
# Indices 1 2 3 4 5 6 
#
# 1 220.6295 83.4868 68.7284 3.1747 -12.6000 8.5662
# 2 83.4868 125.8528 44.7340 -9.7965 13.8238 30.1082
# 3 68.7284 44.7340 123.1141 4.9902 1.9238 -12.4377
# 4 3.1747 -9.7965 4.9902 72.9007 -14.3825 5.3869
# 5 -12.6000 13.8238 1.9238 -14.3825 42.6794 -1.7157
# 6 8.5662 30.1082 -12.4377 5.3869 -1.7157 66.2081
#
#
#
# Elastic Compliance Matrix: (Units=1/GPa)
#
#
# Indices 1 2 3 4 5 6 
#
# 1 0.007145 -0.004516 -0.002321 -0.000092 0.003678 0.000796
# 2 -0.004516 0.014609 -0.003481 0.001815 -0.005578 -0.007005
# 3 -0.002321 -0.003481 0.011164 -0.001514 -0.000406 0.004093
# 4 -0.000092 0.001815 -0.001514 0.015112 0.004456 -0.002212
# 5 0.003678 -0.005578 -0.000406 0.004456 0.027937 0.002346
# 6 0.000796 -0.007005 0.004093 -0.002212 0.002346 0.019196
#
#
# Mechanical properties :
#
#
# Convention : Reuss Voigt Hill
#
# Bulk Modulus (GPa) = 81.42335 95.94387 88.68361
# Shear Modulus (GPa) = 41.70340 54.53410 48.11875
#
# Velocity S-wave (km/s) = 3.82159 4.37011 4.10502
# Velocity P-wave (km/s) = 6.92728 7.68527 7.31609
#
# Compressibility (1/GPa) = 0.01228149
#
# Stress axis : x y z
#
# Youngs Moduli (GPa) = 139.95919 68.45030 89.57139
#
# Poissons Ratio (x) = 0.30915 0.20788
# Poissons Ratio (y) = 0.63212 0.31181
# Poissons Ratio (z) = 0.32483 0.23828
#
# Static dielectric constant tensor:
#      x y z
#    x 5.176020 0.218530 -0.010190 
#    y 0.218530 5.164280 -0.084200 
#    z -0.010190 -0.084200 5.229440 
# 
# 
# High freq. dielectric constant tensor:
#      x y z
#    x 2.166470 -0.001650 -0.001100 
#    y -0.001650 2.154090 -0.017130 
#    z -0.001100 -0.017130 2.170590 
# 
# From -- ./inp_files/16460.got.cif
#   From: 2010.06.25/outbox.cif.g09.slc.cpg/sg2_9_cif.got.tgz:16460.got - 2010.06.27 13:26:56.
