data_PCOD8033250
_publ_section_title
;
Structure prediction by ZEFSAII (Michael W. Deem and Ramdas Pophale) SiO2 
 PCOD8033250
Probable space group: P -1
;
_chemical_formula_sum "Si O2"
_cell_formula_units_Z 16
_cell_length_a 9.285996
_cell_length_b 11.164309
_cell_length_c 19.864563
_cell_angle_alpha 158.920237
_cell_angle_beta 68.817357
_cell_angle_gamma 111.244398
_cell_volume 688.699717
_symmetry_space_group_name_H-M "P -1"
_symmetry_group_IT_number 2
_symmetry_cell_setting 'triclinic'
loop_
_space_group_symop_operation_xyz
x,y,z
-x,-y,-z
loop_
_atom_site_type_symbol
_atom_site_label
_atom_site_fract_x
_atom_site_fract_y
_atom_site_fract_z
Si Si1 0.119097 0.727450 0.417664
Si Si2 0.680382 0.267512 0.170636
Si Si3 0.907048 0.468781 0.429654
Si Si4 0.498423 0.327399 0.824845
Si Si5 0.752338 0.746608 0.071364
Si Si6 0.631776 0.675950 0.524267
Si Si7 0.013991 0.433188 0.786942
Si Si8 0.567920 0.517810 0.772899
O O1 0.095073 0.637253 0.296169
O O2 0.297969 0.702066 0.391826
O O3 0.026234 0.470760 0.348781
O O4 0.074363 0.100630 0.633963
O O5 0.691283 0.429170 0.327258
O O6 0.548792 0.454989 0.253786
O O7 0.842007 0.316474 0.128633
O O8 0.638148 0.875151 0.975446
O O9 0.785504 0.755758 0.587489
O O10 0.000000 0.500000 0.500000
O O11 0.792556 0.138259 0.273766
O O12 0.325361 0.366757 0.903174
O O13 0.480417 0.310230 0.738883
O O14 0.577827 0.010945 0.676470
O O15 0.614140 0.653896 0.992964
O O16 0.911473 0.581660 0.940836
O O17 0.500000 0.500000 0.500000
#
# Coordination Sequence:
#
# PCOD8033250 Si02
#       8
#     2   2   2   2   2   2   2   2
#     4  11  24  43  72 101 142 180 235 293 347 421
#     4  11  26  45  72 106 141 185 233 295 353 424
#     4  12  27  46  69 106 143 188 237 297 359 417
#     4  11  24  44  73 107 140 192 236 290 355 427
#     4  11  24  44  71 104 139 192 234 289 358 420
#     4  12  25  45  70 101 142 187 241 286 355 429
#     4  11  23  45  71 105 135 185 238 287 353 418
#     4  11  25  45  71 108 143 181 237 291 355 419
#
# _framework density 23.232188000000001
#
# number of rings (size 3 to 8) (size 9 to 14) (size 15 to 20)
#    0.000    0.750    3.750    3.000    3.500    4.000 
#    0.000    3.125    0.000    0.000    0.000    0.000 
#    0.000    0.000    0.000    0.000    0.000    0.000 
#
# Total GULP energy -198364.363484 kJ/mol
# GULP energy per Si atom -12397.772718 kJ/mol
# Density = 2.317931 g / cm^3
# Si number density = 23.232188 Si / 1000 Ang^3
#
#
#
# Elastic Constant Matrix: (Units=GPa)
#
#
# Indices 1 2 3 4 5 6 
#
# 1 122.7422 77.8392 43.7126 -9.7149 -29.2210 9.4189
# 2 77.8392 144.4514 31.6392 -4.4104 -11.9518 18.3142
# 3 43.7126 31.6392 69.7805 -3.0261 -10.4686 -3.4750
# 4 -9.7149 -4.4104 -3.0261 27.0857 10.1501 -14.8527
# 5 -29.2210 -11.9518 -10.4686 10.1501 36.1187 -3.0273
# 6 9.4189 18.3142 -3.4750 -14.8527 -3.0273 44.3666
#
#
#
# Elastic Compliance Matrix: (Units=1/GPa)
#
#
# Indices 1 2 3 4 5 6 
#
# 1 0.017139 -0.007041 -0.006102 0.000515 0.009590 -0.000383
# 2 -0.007041 0.011302 -0.001331 -0.002384 -0.002025 -0.004211
# 3 -0.006102 -0.001331 0.019027 0.001927 -0.000070 0.003975
# 4 0.000515 -0.002384 0.001927 0.051193 -0.012751 0.017293
# 5 0.009590 -0.002025 -0.000070 -0.012751 0.038097 -0.002874
# 6 -0.000383 -0.004211 0.003975 0.017293 -0.002874 0.030264
#
#
# Mechanical properties :
#
#
# Convention : Reuss Voigt Hill
#
# Bulk Modulus (GPa) = 53.99242 71.48402 62.73822
# Shear Modulus (GPa) = 24.73509 33.76642 29.25076
#
# Velocity S-wave (km/s) = 3.26650 3.81653 3.55218
# Velocity P-wave (km/s) = 6.12515 7.08924 6.62476
#
# Compressibility (1/GPa) = 0.01852112
#
# Stress axis : x y z
#
# Youngs Moduli (GPa) = 58.34703 88.48062 52.55638
#
# Poissons Ratio (x) = 0.62301 0.32068
# Poissons Ratio (y) = 0.41083 0.06993
# Poissons Ratio (z) = 0.35602 0.11772
#
# Static dielectric constant tensor:
#      x y z
#    x 4.214930 0.140570 -0.113090 
#    y 0.140570 4.409060 0.082460 
#    z -0.113090 0.082460 4.100550 
# 
# 
# High freq. dielectric constant tensor:
#      x y z
#    x 1.921010 0.015130 -0.012660 
#    y 0.015130 1.936410 0.008470 
#    z -0.012660 0.008470 1.907450 
# 
# From -- ./inp_files/589775.got.cif
#   From: 2010.06.25/outbox.cif.g09.slc.cpg/sg2_295_cif.got.tgz:589775.got - 2010.06.27 13:26:56.
