data_PCOD8033053
_publ_section_title
;
Structure prediction by ZEFSAII (Michael W. Deem and Ramdas Pophale) SiO2 
 PCOD8033053
Probable space group: P -1
;
_chemical_formula_sum "Si O2"
_cell_formula_units_Z 14
_cell_length_a 10.506878
_cell_length_b 7.327907
_cell_length_c 8.826789
_cell_angle_alpha 106.505611
_cell_angle_beta 98.078748
_cell_angle_gamma 58.944839
_cell_volume 558.191408
_symmetry_space_group_name_H-M "P -1"
_symmetry_group_IT_number 2
_symmetry_cell_setting 'triclinic'
loop_
_space_group_symop_operation_xyz
x,y,z
-x,-y,-z
loop_
_atom_site_type_symbol
_atom_site_label
_atom_site_fract_x
_atom_site_fract_y
_atom_site_fract_z
Si Si1 0.742810 0.928494 0.490461
Si Si2 0.157456 0.372699 0.309890
Si Si3 0.735623 0.255098 0.775563
Si Si4 0.387245 0.356454 0.538763
Si Si5 0.474302 0.678826 0.747151
Si Si6 0.043694 0.197431 0.761562
Si Si7 0.257993 0.011339 0.013598
O O1 0.873514 0.758881 0.591664
O O2 0.632008 0.830151 0.417540
O O3 0.819771 0.961771 0.363088
O O4 0.656974 0.157357 0.626974
O O5 0.246042 0.483301 0.429072
O O6 0.007718 0.553129 0.244063
O O7 0.270118 0.187786 0.163838
O O8 0.636474 0.519759 0.812492
O O9 0.902353 0.164823 0.721122
O O10 0.742744 0.179962 0.931906
O O11 0.390659 0.534404 0.693327
O O12 0.524021 0.244994 0.409754
O O13 0.392613 0.893381 0.889143
O O14 0.102599 0.150380 0.931045
#
# Coordination Sequence:
#
# PCOD8033053 Si02
#       7
#     2   2   2   2   2   2   2
#     4   9  22  41  68 101 129 170 223 274 330 382
#     4   9  21  46  65  97 134 168 219 278 322 395
#     4  11  23  45  67  98 138 174 221 274 327 397
#     4   9  22  44  69  99 132 163 231 275 321 393
#     4  11  23  44  72  96 133 176 221 273 334 389
#     4  12  22  42  69  99 133 178 217 276 329 391
#     4  11  26  43  63 103 135 178 219 268 337 392
#
# _framework density 25.081005999999999
#
# number of rings (size 3 to 8) (size 9 to 14) (size 15 to 20)
#    0.857    0.857    1.429    2.143    4.000    2.286 
#    7.714    0.000    0.000    0.000    0.000    0.000 
#    0.000    0.000    0.000    0.000    0.000    0.000 
#
# Total GULP energy -173462.176171 kJ/mol
# GULP energy per Si atom -12390.155441 kJ/mol
# Density = 2.502392 g / cm^3
# Si number density = 25.081006 Si / 1000 Ang^3
#
#
#
# Elastic Constant Matrix: (Units=GPa)
#
#
# Indices 1 2 3 4 5 6 
#
# 1 69.0147 -8.2409 10.5266 4.9709 -12.5058 1.9892
# 2 -8.2409 60.7772 14.5010 -10.1070 -2.1016 -2.1990
# 3 10.5266 14.5010 100.0046 -12.0120 -11.2847 -2.7564
# 4 4.9709 -10.1070 -12.0120 43.2942 2.3049 -4.1306
# 5 -12.5058 -2.1016 -11.2847 2.3049 29.8573 -1.0176
# 6 1.9892 -2.1990 -2.7564 -4.1306 -1.0176 31.7854
#
#
#
# Elastic Compliance Matrix: (Units=1/GPa)
#
#
# Indices 1 2 3 4 5 6 
#
# 1 0.016410 0.002434 -0.001637 -0.002222 0.006561 -0.001079
# 2 0.002434 0.017977 -0.002287 0.003349 0.001209 0.001367
# 3 -0.001637 -0.002287 0.011234 0.002730 0.003236 0.001377
# 4 -0.002222 0.003349 0.002730 0.025339 -0.001488 0.003853
# 5 0.006561 0.001209 0.003236 -0.001488 0.037697 0.000967
# 6 -0.001079 0.001367 0.001377 0.003853 0.000967 0.032274
#
#
# Mechanical properties :
#
#
# Convention : Reuss Voigt Hill
#
# Bulk Modulus (GPa) = 23.45063 29.26333 26.35698
# Shear Modulus (GPa) = 31.62067 35.18805 33.40436
#
# Velocity S-wave (km/s) = 3.55454 3.74970 3.65342
# Velocity P-wave (km/s) = 5.12022 5.51723 5.32243
#
# Compressibility (1/GPa) = 0.04264278
#
# Stress axis : x y z
#
# Youngs Moduli (GPa) = 60.93873 55.62576 89.01238
#
# Poissons Ratio (x) = -0.13538 0.14568
# Poissons Ratio (y) = -0.14831 0.20354
# Poissons Ratio (z) = 0.09973 0.12720
#
# Static dielectric constant tensor:
#      x y z
#    x 4.096280 0.008440 0.029220 
#    y 0.008440 4.547990 -0.336890 
#    z 0.029220 -0.336890 4.293080 
# 
# 
# High freq. dielectric constant tensor:
#      x y z
#    x 1.976160 -0.007350 0.001260 
#    y -0.007350 2.016020 -0.027050 
#    z 0.001260 -0.027050 1.992760 
# 
# From -- ./inp_files/235201.got.cif
#   From: 2010.06.25/outbox.cif.g09.slc.cpg/sg2_118_cif.got.tgz:235201.got - 2010.06.27 13:26:56.
