data_PCOD8033824
_publ_section_title
;
Structure prediction by ZEFSAII (Michael W. Deem and Ramdas Pophale) SiO2 
 PCOD8033824
Probable space group: P -1
;
_chemical_formula_sum "Si O2"
_cell_formula_units_Z 16
_cell_length_a 12.222512
_cell_length_b 12.290811
_cell_length_c 11.165985
_cell_angle_alpha 33.819820
_cell_angle_beta 92.929456
_cell_angle_gamma 70.260016
_cell_volume 680.156778
_symmetry_space_group_name_H-M "P -1"
_symmetry_group_IT_number 2
_symmetry_cell_setting 'triclinic'
loop_
_space_group_symop_operation_xyz
x,y,z
-x,-y,-z
loop_
_atom_site_type_symbol
_atom_site_label
_atom_site_fract_x
_atom_site_fract_y
_atom_site_fract_z
Si Si1 0.838445 0.108841 0.389124
Si Si2 0.869683 0.808953 0.889387
Si Si3 0.081896 0.877691 0.241564
Si Si4 0.458304 0.808489 0.469164
Si Si5 0.454856 0.333725 0.134277
Si Si6 0.607705 0.970691 0.240585
Si Si7 0.090059 0.220960 0.518456
Si Si8 0.568301 0.527947 0.366803
O O1 0.826283 0.948597 0.629901
O O2 0.813871 0.043150 0.317595
O O3 0.000000 0.000000 0.500000
O O4 0.725856 0.429038 0.112266
O O5 0.941641 0.894008 0.895025
O O6 0.710746 0.917811 0.827979
O O7 0.985993 0.488133 0.186871
O O8 0.258692 0.627745 0.461295
O O9 0.010558 0.777258 0.395654
O O10 0.000000 0.000000 0.000000
O O11 0.499476 0.822300 0.594635
O O12 0.461417 0.571711 0.661474
O O13 0.576243 0.775623 0.417563
O O14 0.534647 0.130867 0.214998
O O15 0.500000 0.500000 0.000000
O O16 0.784309 0.799631 0.390507
O O17 0.523266 0.163454 0.945229
O O18 0.500000 0.500000 0.500000
#
# Coordination Sequence:
#
# PCOD8033824 Si02
#       8
#     2   2   2   2   2   2   2   2
#     4  12  24  39  67  96 133 175 212 259 325 384
#     4  11  24  43  65  97 132 171 214 265 322 385
#     4  11  25  46  69  94 128 170 215 272 327 379
#     4  11  24  42  68  96 131 171 215 265 322 381
#     4  12  21  42  66  94 134 173 215 262 316 383
#     4  12  25  41  68  99 130 172 215 266 322 381
#     4  12  25  41  66 100 133 169 215 264 324 386
#     4  11  24  46  71  93 126 170 219 270 322 382
#
# _framework density 23.523987000000002
#
# number of rings (size 3 to 8) (size 9 to 14) (size 15 to 20)
#    0.000    0.500    5.000    3.000    3.500    3.000 
#    0.000    0.000    0.000    0.000    0.000    0.000 
#    0.000    0.000    0.000    0.000    0.000    0.000 
#
# Total GULP energy -198362.053527 kJ/mol
# GULP energy per Si atom -12397.628345 kJ/mol
# Density = 2.347045 g / cm^3
# Si number density = 23.523987 Si / 1000 Ang^3
#
#
#
# Elastic Constant Matrix: (Units=GPa)
#
#
# Indices 1 2 3 4 5 6 
#
# 1 157.7372 15.6737 42.8435 5.9000 16.5092 -33.7001
# 2 15.6737 49.6862 19.3978 11.7338 6.9903 -19.9687
# 3 42.8435 19.3978 123.2234 13.6132 10.8053 -14.4411
# 4 5.9000 11.7338 13.6132 41.1523 -5.8220 0.7831
# 5 16.5092 6.9903 10.8053 -5.8220 36.5968 0.3117
# 6 -33.7001 -19.9687 -14.4411 0.7831 0.3117 33.9109
#
#
#
# Elastic Compliance Matrix: (Units=1/GPa)
#
#
# Indices 1 2 3 4 5 6 
#
# 1 0.009367 0.003288 -0.001832 -0.002556 -0.004809 0.010568
# 2 0.003288 0.032424 -0.001672 -0.010869 -0.009099 0.021983
# 3 -0.001832 -0.001672 0.009679 -0.002796 -0.002169 0.001401
# 4 -0.002556 -0.010869 -0.002796 0.030163 0.008946 -0.010910
# 5 -0.004809 -0.009099 -0.002169 0.008946 0.033394 -0.011575
# 6 0.010568 0.021983 0.001401 -0.010910 -0.011575 0.053891
#
#
# Mechanical properties :
#
#
# Convention : Reuss Voigt Hill
#
# Bulk Modulus (GPa) = 19.59365 54.05300 36.82333
# Shear Modulus (GPa) = 26.82918 39.18079 33.00498
#
# Velocity S-wave (km/s) = 3.38080 4.08556 3.74977
# Velocity P-wave (km/s) = 4.85665 6.72930 5.86816
#
# Compressibility (1/GPa) = 0.05103695
#
# Stress axis : x y z
#
# Youngs Moduli (GPa) = 106.75335 30.84161 103.31942
#
# Poissons Ratio (x) = -0.10140 0.18927
# Poissons Ratio (y) = -0.35099 0.17279
# Poissons Ratio (z) = 0.19556 0.05158
#
# Static dielectric constant tensor:
#      x y z
#    x 4.648550 -0.190800 0.125290 
#    y -0.190800 3.944320 0.126450 
#    z 0.125290 0.126450 3.700700 
# 
# 
# High freq. dielectric constant tensor:
#      x y z
#    x 1.952360 -0.009440 0.005100 
#    y -0.009440 1.913720 0.005230 
#    z 0.005100 0.005230 1.934610 
# 
# From -- ./inp_files/433659.got.cif
#   From: 2010.06.25/outbox.cif.g09.slc.cpg/sg2_217_cif.got.tgz:433659.got - 2010.06.27 13:26:56.
