data_PCOD8033247
_publ_section_title
;
Structure prediction by ZEFSAII (Michael W. Deem and Ramdas Pophale) SiO2 
 PCOD8033247
Probable space group: P -1
;
_chemical_formula_sum "Si O2"
_cell_formula_units_Z 16
_cell_length_a 16.739435
_cell_length_b 6.126723
_cell_length_c 12.229548
_cell_angle_alpha 132.705016
_cell_angle_beta 50.035403
_cell_angle_gamma 123.798701
_cell_volume 690.019096
_symmetry_space_group_name_H-M "P -1"
_symmetry_group_IT_number 2
_symmetry_cell_setting 'triclinic'
loop_
_space_group_symop_operation_xyz
x,y,z
-x,-y,-z
loop_
_atom_site_type_symbol
_atom_site_label
_atom_site_fract_x
_atom_site_fract_y
_atom_site_fract_z
Si Si1 0.605112 0.278036 0.616061
Si Si2 0.946848 0.647851 0.914940
Si Si3 0.250618 0.875290 0.395522
Si Si4 0.046672 0.108156 0.614996
Si Si5 0.617954 0.952595 0.872552
Si Si6 0.575671 0.276781 0.391817
Si Si7 0.130873 0.268269 0.214284
Si Si8 0.752656 0.254484 0.056255
O O1 0.691110 0.092122 0.525868
O O2 0.616732 0.598836 0.776984
O O3 0.623245 0.348895 0.495785
O O4 0.487310 0.074078 0.673651
O O5 0.037715 0.449951 0.770965
O O6 0.891446 0.567844 0.820352
O O7 0.853635 0.539008 0.049431
O O8 0.000000 0.000000 0.000000
O O9 0.189584 0.525943 0.331322
O O10 0.342245 0.944746 0.248178
O O11 0.170271 0.098956 0.519794
O O12 0.980208 0.886080 0.686351
O O13 0.000000 0.000000 0.500000
O O14 0.500000 0.000000 0.000000
O O15 0.691944 0.169773 0.966872
O O16 0.500000 0.500000 0.500000
O O17 0.674540 0.338680 0.243748
O O18 0.202871 0.031961 0.039749
#
# Coordination Sequence:
#
# PCOD8033247 Si02
#       8
#     2   2   2   2   2   2   2   2
#     4  11  26  45  73 105 150 191 241 300 369 435
#     4  11  26  50  73 105 146 196 241 305 378 437
#     4  12  23  43  74 111 140 186 247 303 365 428
#     4  11  24  44  74 106 142 185 246 308 355 439
#     4  12  25  43  75 110 141 187 247 299 356 437
#     4  11  26  52  69 106 154 192 240 300 370 446
#     4  11  23  45  71 103 141 186 242 303 368 428
#     4  11  24  46  77 104 143 192 246 300 364 445
#
# _framework density 23.187764000000001
#
# number of rings (size 3 to 8) (size 9 to 14) (size 15 to 20)
#    0.000    0.750    3.750    3.375    1.750    5.000 
#   13.500    0.000    0.000    0.000    0.000    0.000 
#    0.000    0.000    0.000    0.000    0.000    0.000 
#
# Total GULP energy -198428.159170 kJ/mol
# GULP energy per Si atom -12401.759948 kJ/mol
# Density = 2.313499 g / cm^3
# Si number density = 23.187764 Si / 1000 Ang^3
#
#
#
# Elastic Constant Matrix: (Units=GPa)
#
#
# Indices 1 2 3 4 5 6 
#
# 1 146.9959 42.0198 65.7876 -11.9813 -16.7614 -17.1128
# 2 42.0198 118.6040 67.0807 11.9054 -10.9407 3.5508
# 3 65.7876 67.0807 140.4897 -15.4235 -25.5121 -1.2631
# 4 -11.9813 11.9054 -15.4235 33.5075 1.4610 13.9676
# 5 -16.7614 -10.9407 -25.5121 1.4610 38.2212 0.6284
# 6 -17.1128 3.5508 -1.2631 13.9676 0.6284 41.8688
#
#
#
# Elastic Compliance Matrix: (Units=1/GPa)
#
#
# Indices 1 2 3 4 5 6 
#
# 1 0.009342 -0.001520 -0.003273 0.000834 0.001386 0.003549
# 2 -0.001520 0.013713 -0.007017 -0.009028 -0.001097 0.001032
# 3 -0.003273 -0.007017 0.013965 0.008916 0.005592 -0.003380
# 4 0.000834 -0.009028 0.008916 0.042737 0.002311 -0.012917
# 5 0.001386 -0.001097 0.005592 0.002311 0.030108 -0.000395
# 6 0.003549 0.001032 -0.003380 -0.012917 -0.000395 0.029460
#
#
# Mechanical properties :
#
#
# Convention : Reuss Voigt Hill
#
# Bulk Modulus (GPa) = 74.63361 83.98510 79.30936
# Shear Modulus (GPa) = 29.86637 38.13292 33.99965
#
# Velocity S-wave (km/s) = 3.59280 4.05968 3.83335
# Velocity P-wave (km/s) = 7.03331 7.63367 7.33963
#
# Compressibility (1/GPa) = 0.01339879
#
# Stress axis : x y z
#
# Youngs Moduli (GPa) = 107.04629 72.92508 71.60770
#
# Poissons Ratio (x) = 0.11087 0.23440
# Poissons Ratio (y) = 0.16275 0.50244
# Poissons Ratio (z) = 0.35040 0.51169
#
# Static dielectric constant tensor:
#      x y z
#    x 4.248510 -0.011160 0.086330 
#    y -0.011160 4.302830 -0.023880 
#    z 0.086330 -0.023880 4.012260 
# 
# 
# High freq. dielectric constant tensor:
#      x y z
#    x 1.928610 -0.002230 -0.003010 
#    y -0.002230 1.934710 0.000600 
#    z -0.003010 0.000600 1.906790 
# 
# From -- ./inp_files/459652.got.cif
#   From: 2010.06.25/outbox.cif.g09.slc.cpg/sg2_230_cif.got.tgz:459652.got - 2010.06.27 13:26:56.
