data_PCOD8033050
_publ_section_title
;
Structure prediction by ZEFSAII (Michael W. Deem and Ramdas Pophale) SiO2 
 PCOD8033050
Probable space group: P -1
;
_chemical_formula_sum "Si O2"
_cell_formula_units_Z 16
_cell_length_a 5.331307
_cell_length_b 24.968199
_cell_length_c 20.748386
_cell_angle_alpha 157.800206
_cell_angle_beta 50.026734
_cell_angle_gamma 129.839096
_cell_volume 789.634147
_symmetry_space_group_name_H-M "P -1"
_symmetry_group_IT_number 2
_symmetry_cell_setting 'triclinic'
loop_
_space_group_symop_operation_xyz
x,y,z
-x,-y,-z
loop_
_atom_site_type_symbol
_atom_site_label
_atom_site_fract_x
_atom_site_fract_y
_atom_site_fract_z
Si Si1 0.662665 0.324389 0.524172
Si Si2 0.771365 0.037249 0.136131
Si Si3 0.746416 0.292732 0.852732
Si Si4 0.856576 0.812590 0.432624
Si Si5 0.569771 0.004479 0.377329
Si Si6 0.031636 0.020196 0.211537
Si Si7 0.927693 0.638128 0.394709
Si Si8 0.246883 0.450244 0.041560
O O1 0.807534 0.209203 0.328042
O O2 0.402707 0.249196 0.537862
O O3 0.461266 0.421255 0.620575
O O4 0.963076 0.421316 0.620696
O O5 0.391161 0.974118 0.111521
O O6 0.895611 0.974040 0.111469
O O7 0.000000 0.000000 0.000000
O O8 0.643312 0.123236 0.690554
O O9 0.417446 0.360006 0.965511
O O10 0.010006 0.313076 0.771727
O O11 0.915115 0.359968 0.965479
O O12 0.680965 0.904239 0.513232
O O13 0.179772 0.903575 0.512433
O O14 0.780611 0.936186 0.211190
O O15 0.031560 0.189156 0.414273
O O16 0.153607 0.592392 0.249431
O O17 0.500000 0.500000 0.000000
#
# Coordination Sequence:
#
# PCOD8033050 Si02
#       8
#     2   2   2   2   2   2   2   2
#     4  10  17  31  52  76 100 138 175 198 266 318
#     4  10  18  30  50  81 115 133 162 207 261 333
#     4  12  26  36  53  81 102 143 191 225 267 293
#     4  12  19  36  53  73 106 143 179 219 258 312
#     4  12  21  37  55  75 109 138 186 218 258 327
#     4  10  19  34  54  79 104 146 166 208 270 317
#     4  10  18  33  52  70  99 139 179 203 257 313
#     4  12  24  39  52  72 107 139 183 239 264 294
#
# _framework density 20.262547000000001
#
# number of rings (size 3 to 8) (size 9 to 14) (size 15 to 20)
#    0.000    1.000    5.000    5.250    0.000    0.000 
#    0.000    0.000    0.000    0.000    0.000    0.000 
#    0.000   80.000    0.000    0.000    0.000    0.000 
#
# Total GULP energy -198282.951251 kJ/mol
# GULP energy per Si atom -12392.684453 kJ/mol
# Density = 2.021643 g / cm^3
# Si number density = 20.262547 Si / 1000 Ang^3
#
#
#
# Elastic Constant Matrix: (Units=GPa)
#
#
# Indices 1 2 3 4 5 6 
#
# 1 229.6411 17.5150 43.9597 -11.1526 9.0433 -1.1660
# 2 17.5150 32.0338 25.5952 -19.3251 -0.6392 1.0473
# 3 43.9597 25.5952 86.4472 -34.1421 -0.3353 1.1568
# 4 -11.1526 -19.3251 -34.1421 37.5869 1.3110 -1.5125
# 5 9.0433 -0.6392 -0.3353 1.3110 23.0798 -6.4835
# 6 -1.1660 1.0473 1.1568 -1.5125 -6.4835 15.9516
#
#
#
# Elastic Compliance Matrix: (Units=1/GPa)
#
#
# Indices 1 2 3 4 5 6 
#
# 1 0.005003 -0.001647 -0.002784 -0.001833 -0.002033 -0.000325
# 2 -0.001647 0.048330 -0.006018 0.018839 0.000593 -0.000830
# 3 -0.002784 -0.006018 0.020605 0.014792 0.000464 0.000289
# 4 -0.001833 0.018839 0.014792 0.049288 -0.000811 0.001900
# 5 -0.002033 0.000593 0.000464 -0.000811 0.049796 0.019941
# 6 -0.000325 -0.000830 0.000289 0.001900 0.019941 0.070985
#
#
# Mechanical properties :
#
#
# Convention : Reuss Voigt Hill
#
# Bulk Modulus (GPa) = 18.85354 58.02910 38.44132
# Shear Modulus (GPa) = 17.69381 32.72712 25.21047
#
# Velocity S-wave (km/s) = 2.95825 4.02326 3.53113
# Velocity P-wave (km/s) = 4.58183 7.09104 5.96976
#
# Compressibility (1/GPa) = 0.05304044
#
# Stress axis : x y z
#
# Youngs Moduli (GPa) = 199.89925 20.69099 48.53139
#
# Poissons Ratio (x) = 0.03407 0.13510
# Poissons Ratio (y) = 0.32919 0.29207
# Poissons Ratio (z) = 0.55649 0.12452
#
# Static dielectric constant tensor:
#      x y z
#    x 5.373950 -0.016090 0.116880 
#    y -0.016090 3.169850 -0.250670 
#    z 0.116880 -0.250670 3.572070 
# 
# 
# High freq. dielectric constant tensor:
#      x y z
#    x 1.844130 0.000210 0.004180 
#    y 0.000210 1.719950 -0.030100 
#    z 0.004180 -0.030100 1.774710 
# 
# From -- ./inp_files/482144.got.cif
#   From: 2010.06.25/outbox.cif.g09.slc.cpg/sg2_242_cif.got.tgz:482144.got - 2010.06.27 13:26:56.
