data_PCOD8033852
_publ_section_title
;
Structure prediction by ZEFSAII (Michael W. Deem and Ramdas Pophale) SiO2 
 PCOD8033852
Probable space group: P -1
;
_chemical_formula_sum "Si O2"
_cell_formula_units_Z 16
_cell_length_a 18.460727
_cell_length_b 8.676084
_cell_length_c 13.108741
_cell_angle_alpha 131.573996
_cell_angle_beta 32.637240
_cell_angle_gamma 110.272928
_cell_volume 720.329462
_symmetry_space_group_name_H-M "P -1"
_symmetry_group_IT_number 2
_symmetry_cell_setting 'triclinic'
loop_
_space_group_symop_operation_xyz
x,y,z
-x,-y,-z
loop_
_atom_site_type_symbol
_atom_site_label
_atom_site_fract_x
_atom_site_fract_y
_atom_site_fract_z
Si Si1 0.209539 0.360703 0.269060
Si Si2 0.643323 0.128850 0.020997
Si Si3 0.861228 0.612369 0.858469
Si Si4 0.793703 0.923497 0.546514
Si Si5 0.720273 0.540476 0.389143
Si Si6 0.153321 0.665599 0.060896
Si Si7 0.323378 0.702900 0.328909
Si Si8 0.169133 0.914195 0.806798
O O1 0.241998 0.329135 0.095606
O O2 0.216768 0.587034 0.398410
O O3 0.040106 0.413714 0.528172
O O4 0.341046 0.113656 0.058522
O O5 0.465926 0.344516 0.341169
O O6 0.762529 0.181167 0.963790
O O7 0.674244 0.101581 0.851755
O O8 0.806554 0.490445 0.952540
O O9 0.832850 0.860742 0.043465
O O10 0.777214 0.690769 0.452976
O O11 0.967317 0.846881 0.344245
O O12 0.748339 0.064497 0.556181
O O13 0.798786 0.274523 0.225453
O O14 0.779295 0.519503 0.194515
O O15 0.306718 0.796465 0.505752
O O16 0.500000 0.500000 0.000000
O O17 0.000000 0.000000 0.000000
#
# Coordination Sequence:
#
# PCOD8033852 Si02
#       8
#     2   2   2   2   2   2   2   2
#     4  11  24  43  68  97 133 175 223 269 339 389
#     4  12  25  45  69  99 138 177 219 276 341 397
#     4  11  24  42  69  98 131 174 224 280 319 395
#     4  12  24  43  69  99 133 175 229 271 326 401
#     4  12  26  45  68 100 139 176 217 279 343 394
#     4  12  25  44  68 103 131 175 229 275 327 396
#     4  12  25  43  68 100 136 174 220 278 336 397
#     4  12  23  44  69  99 133 178 226 270 331 398
#
# _framework density 22.212057000000001
#
# number of rings (size 3 to 8) (size 9 to 14) (size 15 to 20)
#    0.000    0.250    2.500    7.500    3.500    0.000 
#    0.000    1.875    0.000    0.000    0.000    0.000 
#    0.000    0.000    0.000    0.000    0.000    0.000 
#
# Total GULP energy -198531.814911 kJ/mol
# GULP energy per Si atom -12408.238432 kJ/mol
# Density = 2.216150 g / cm^3
# Si number density = 22.212057 Si / 1000 Ang^3
#
#
#
# Elastic Constant Matrix: (Units=GPa)
#
#
# Indices 1 2 3 4 5 6 
#
# 1 80.5338 30.5349 24.8566 0.7764 9.8295 -10.2381
# 2 30.5349 102.5480 31.2001 8.3650 -3.1301 -16.7854
# 3 24.8566 31.2001 107.4643 -6.2382 5.4949 -15.0946
# 4 0.7764 8.3650 -6.2382 39.6345 2.1435 10.3500
# 5 9.8295 -3.1301 5.4949 2.1435 30.9272 -5.1803
# 6 -10.2381 -16.7854 -15.0946 10.3500 -5.1803 33.1807
#
#
#
# Elastic Compliance Matrix: (Units=1/GPa)
#
#
# Indices 1 2 3 4 5 6 
#
# 1 0.015221 -0.003925 -0.001986 0.000212 -0.004729 0.001003
# 2 -0.003925 0.013351 -0.002558 -0.005135 0.004529 0.006687
# 3 -0.001986 -0.002558 0.011007 0.001770 -0.001314 0.002343
# 4 0.000212 -0.005135 0.001770 0.029950 -0.004961 -0.011844
# 5 -0.004729 0.004529 -0.001314 -0.004961 0.036116 0.007421
# 6 0.001003 0.006687 0.002343 -0.011844 0.007421 0.039749
#
#
# Mechanical properties :
#
#
# Convention : Reuss Voigt Hill
#
# Bulk Modulus (GPa) = 44.17273 51.52550 47.84911
# Shear Modulus (GPa) = 29.43273 34.34542 31.88908
#
# Velocity S-wave (km/s) = 3.64411 3.93651 3.79313
# Velocity P-wave (km/s) = 6.13482 6.62638 6.38533
#
# Compressibility (1/GPa) = 0.02263840
#
# Stress axis : x y z
#
# Youngs Moduli (GPa) = 65.69819 74.90356 90.85472
#
# Poissons Ratio (x) = 0.29403 0.18044
# Poissons Ratio (y) = 0.25789 0.23245
# Poissons Ratio (z) = 0.13048 0.19164
#
# Static dielectric constant tensor:
#      x y z
#    x 4.093630 -0.109590 0.169570 
#    y -0.109590 4.134270 -0.081970 
#    z 0.169570 -0.081970 4.029300 
# 
# 
# High freq. dielectric constant tensor:
#      x y z
#    x 1.880240 -0.007010 0.012540 
#    y -0.007010 1.886580 0.001310 
#    z 0.012540 0.001310 1.883300 
# 
# From -- ./inp_files/216448.got.cif
#   From: 2010.06.25/outbox.cif.g09.slc.cpg/sg2_109_cif.got.tgz:216448.got - 2010.06.27 13:26:56.
