data_PCOD8033137
_publ_section_title
;
Structure prediction by ZEFSAII (Michael W. Deem and Ramdas Pophale) SiO2 
 PCOD8033137
Probable space group: P -1
;
_chemical_formula_sum "Si O2"
_cell_formula_units_Z 14
_cell_length_a 11.913475
_cell_length_b 7.928009
_cell_length_c 8.766187
_cell_angle_alpha 47.362505
_cell_angle_beta 121.799072
_cell_angle_gamma 114.105528
_cell_volume 515.914366
_symmetry_space_group_name_H-M "P -1"
_symmetry_group_IT_number 2
_symmetry_cell_setting 'triclinic'
loop_
_space_group_symop_operation_xyz
x,y,z
-x,-y,-z
loop_
_atom_site_type_symbol
_atom_site_label
_atom_site_fract_x
_atom_site_fract_y
_atom_site_fract_z
Si Si1 0.696221 0.968928 0.843253
Si Si2 0.003095 0.523978 0.311080
Si Si3 0.225090 0.107060 0.390422
Si Si4 0.934110 0.078383 0.101007
Si Si5 0.483256 0.241216 0.915757
Si Si6 0.275180 0.484126 0.417661
Si Si7 0.229772 0.731815 0.863552
O O1 0.693943 0.239076 0.725691
O O2 0.695895 0.942464 0.676835
O O3 0.828127 0.878916 0.078863
O O4 0.573905 0.809308 0.923065
O O5 0.129757 0.388599 0.435214
O O6 0.000000 0.500000 0.500000
O O7 0.860186 0.445205 0.191756
O O8 0.030621 0.783239 0.114710
O O9 0.260996 0.375178 0.300431
O O10 0.068817 0.013682 0.315854
O O11 0.270246 0.964739 0.654401
O O12 0.852797 0.227941 0.067735
O O13 0.391379 0.388516 0.657120
O O14 0.629410 0.374858 0.942792
O O15 0.500000 0.000000 0.000000
#
# Coordination Sequence:
#
# PCOD8033137 Si02
#       7
#     2   2   2   2   2   2   2
#     4  11  27  48  75 117 151 201 269 311 389 468
#     4  11  26  47  76 119 149 197 270 317 384 464
#     4  12  25  45  79 115 148 202 258 328 385 452
#     4  11  23  44  76 111 155 197 256 327 385 452
#     4  12  26  50  76 110 160 211 252 318 388 471
#     4  11  26  51  77 109 157 204 253 333 380 451
#     4  12  24  46  75 113 156 197 259 312 388 467
#
# _framework density 27.136286999999999
#
# number of rings (size 3 to 8) (size 9 to 14) (size 15 to 20)
#    0.000    0.571    4.286    3.000    6.000    1.143 
#    2.571    2.857    0.000    0.000    0.000    0.000 
#    0.000    0.000    0.000    0.000    0.000    0.000 
#
# Total GULP energy -173470.538802 kJ/mol
# GULP energy per Si atom -12390.752772 kJ/mol
# Density = 2.707452 g / cm^3
# Si number density = 27.136287 Si / 1000 Ang^3
#
#
#
# Elastic Constant Matrix: (Units=GPa)
#
#
# Indices 1 2 3 4 5 6 
#
# 1 155.0770 39.9654 54.2825 18.3516 -0.9174 21.3171
# 2 39.9654 95.8531 29.3781 17.2542 -4.8776 -5.3575
# 3 54.2825 29.3781 111.6163 29.7794 11.8572 7.0869
# 4 18.3516 17.2542 29.7794 35.1549 1.7628 2.5475
# 5 -0.9174 -4.8776 11.8572 1.7628 63.7235 17.8587
# 6 21.3171 -5.3575 7.0869 2.5475 17.8587 43.8510
#
#
#
# Elastic Compliance Matrix: (Units=1/GPa)
#
#
# Indices 1 2 3 4 5 6 
#
# 1 0.009152 -0.002891 -0.003561 -0.000077 0.001985 -0.005031
# 2 -0.002891 0.012931 -0.001143 -0.004124 0.000361 0.003263
# 3 -0.003561 -0.001143 0.013634 -0.009068 -0.002710 0.001019
# 4 -0.000077 -0.004124 -0.009068 0.038265 0.000739 -0.001525
# 5 0.001985 0.000361 -0.002710 0.000739 0.018491 -0.008056
# 6 -0.005031 0.003263 0.001019 -0.001525 -0.008056 0.028854
#
#
# Mechanical properties :
#
#
# Convention : Reuss Voigt Hill
#
# Bulk Modulus (GPa) = 48.71234 67.75536 58.23385
# Shear Modulus (GPa) = 34.87742 44.47391 39.67567
#
# Velocity S-wave (km/s) = 3.58895 4.05274 3.82788
# Velocity P-wave (km/s) = 5.92993 6.84999 6.40650
#
# Compressibility (1/GPa) = 0.02052868
#
# Stress axis : x y z
#
# Youngs Moduli (GPa) = 109.26169 77.33179 73.34391
#
# Poissons Ratio (x) = 0.22355 0.26118
# Poissons Ratio (y) = 0.31586 0.08382
# Poissons Ratio (z) = 0.38908 0.08838
#
# Static dielectric constant tensor:
#      x y z
#    x 5.340190 0.758130 1.149400 
#    y 0.758130 4.832920 0.083400 
#    z 1.149400 0.083400 5.677990 
# 
# 
# High freq. dielectric constant tensor:
#      x y z
#    x 2.111220 0.003760 -0.005800 
#    y 0.003760 2.082090 0.011040 
#    z -0.005800 0.011040 2.111800 
# 
# From -- ./inp_files/242269.got.cif
#   From: 2010.06.25/outbox.cif.g09.slc.cpg/sg2_122_cif.got.tgz:242269.got - 2010.06.27 13:26:56.
