data_PCOD8033792
_publ_section_title
;
Structure prediction by ZEFSAII (Michael W. Deem and Ramdas Pophale) SiO2 
 PCOD8033792
Probable space group: P -1
;
_chemical_formula_sum "Si O2"
_cell_formula_units_Z 14
_cell_length_a 5.958359
_cell_length_b 9.153001
_cell_length_c 14.900380
_cell_angle_alpha 89.758627
_cell_angle_beta 92.701886
_cell_angle_gamma 130.485058
_cell_volume 616.999005
_symmetry_space_group_name_H-M "P -1"
_symmetry_group_IT_number 2
_symmetry_cell_setting 'triclinic'
loop_
_space_group_symop_operation_xyz
x,y,z
-x,-y,-z
loop_
_atom_site_type_symbol
_atom_site_label
_atom_site_fract_x
_atom_site_fract_y
_atom_site_fract_z
Si Si1 0.467897 0.511383 0.200979
Si Si2 0.019664 0.672898 0.314075
Si Si3 0.377569 0.169348 0.920708
Si Si4 0.964935 0.647785 0.654908
Si Si5 0.136253 0.891042 0.489281
Si Si6 0.283534 0.146900 0.113618
Si Si7 0.462341 0.987726 0.777432
O O1 0.440056 0.639296 0.136102
O O2 0.346958 0.486153 0.299554
O O3 0.281493 0.313586 0.143017
O O4 0.808077 0.616295 0.225589
O O5 0.935318 0.478570 0.352490
O O6 0.011193 0.792198 0.390673
O O7 0.346498 0.818421 0.277834
O O8 0.417237 0.028242 0.877147
O O9 0.483134 0.216762 0.026348
O O10 0.030537 0.058868 0.912498
O O11 0.959653 0.716007 0.556684
O O12 0.164789 0.838334 0.718112
O O13 0.500000 0.000000 0.500000
O O14 0.000000 0.000000 0.500000
O O15 0.404102 0.115617 0.203901
#
# Coordination Sequence:
#
# PCOD8033792 Si02
#       7
#     2   2   2   2   2   2   2
#     4  12  25  43  72 104 140 188 242 297 361 444
#     4  12  27  47  75 103 147 188 240 299 373 438
#     4  11  24  42  66 101 143 187 236 299 360 425
#     4  12  27  47  75 103 147 188 240 299 373 438
#     4  12  31  51  80 113 150 194 246 306 371 452
#     4  11  24  42  66 101 143 187 236 299 360 425
#     4  12  23  45  70 102 140 190 238 291 363 438
#
# _framework density 22.690476
#
# number of rings (size 3 to 8) (size 9 to 14) (size 15 to 20)
#    0.000    0.286    7.143    1.286    8.000    0.571 
#    0.000    1.429    0.000    0.000    0.000    0.000 
#    0.000    0.000    0.000    0.000    0.000    0.000 
#
# Total GULP energy -173441.960999 kJ/mol
# GULP energy per Si atom -12388.711500 kJ/mol
# Density = 2.263883 g / cm^3
# Si number density = 22.690476 Si / 1000 Ang^3
#
#
#
# Elastic Constant Matrix: (Units=GPa)
#
#
# Indices 1 2 3 4 5 6 
#
# 1 68.7729 23.8490 13.7221 -7.5591 -4.7313 -9.3014
# 2 23.8490 97.7929 31.0932 -16.3174 1.8687 -7.9902
# 3 13.7221 31.0932 110.4791 -12.2205 -14.0041 -5.2740
# 4 -7.5591 -16.3174 -12.2205 44.9506 -2.1072 -0.7382
# 5 -4.7313 1.8687 -14.0041 -2.1072 37.9405 -1.3078
# 6 -9.3014 -7.9902 -5.2740 -0.7382 -1.3078 32.4907
#
#
#
# Elastic Compliance Matrix: (Units=1/GPa)
#
#
# Indices 1 2 3 4 5 6 
#
# 1 0.016679 -0.003366 -0.000461 0.001631 0.002304 0.004002
# 2 -0.003366 0.012692 -0.002965 0.003173 -0.001905 0.001672
# 3 -0.000461 -0.002965 0.010748 0.001983 0.004204 0.001098
# 4 0.001631 0.003173 0.001983 0.024352 0.002208 0.002212
# 5 0.002304 -0.001905 0.004204 0.002208 0.028484 0.002070
# 6 0.004002 0.001672 0.001098 0.002212 0.002070 0.032647
#
#
# Mechanical properties :
#
#
# Convention : Reuss Voigt Hill
#
# Bulk Modulus (GPa) = 37.68481 46.04150 41.86315
# Shear Modulus (GPa) = 33.77739 36.96843 35.37291
#
# Velocity S-wave (km/s) = 3.86244 4.04077 3.95261
# Velocity P-wave (km/s) = 6.04446 6.48889 6.27061
#
# Compressibility (1/GPa) = 0.02653589
#
# Stress axis : x y z
#
# Youngs Moduli (GPa) = 59.95617 78.79242 93.04322
#
# Poissons Ratio (x) = 0.26520 0.04287
# Poissons Ratio (y) = 0.20180 0.27583
# Poissons Ratio (z) = 0.02762 0.23358
#
# Static dielectric constant tensor:
#      x y z
#    x 4.115420 0.027060 -0.201620 
#    y 0.027060 4.106460 -0.115780 
#    z -0.201620 -0.115780 4.202350 
# 
# 
# High freq. dielectric constant tensor:
#      x y z
#    x 1.878410 -0.009070 -0.010130 
#    y -0.009070 1.905970 -0.005000 
#    z -0.010130 -0.005000 1.906570 
# 
# From -- ./inp_files/38300.got.cif
#   From: 2010.06.25/outbox.cif.g09.slc.cpg/sg2_20_cif.got.tgz:38300.got - 2010.06.27 13:26:56.
