data_PCOD8033054
_publ_section_title
;
Structure prediction by ZEFSAII (Michael W. Deem and Ramdas Pophale) SiO2 
 PCOD8033054
Probable space group: P -1
;
_chemical_formula_sum "Si O2"
_cell_formula_units_Z 16
_cell_length_a 15.257191
_cell_length_b 14.980804
_cell_length_c 14.789611
_cell_angle_alpha 27.560847
_cell_angle_beta 37.415406
_cell_angle_gamma 27.889275
_cell_volume 730.723141
_symmetry_space_group_name_H-M "P -1"
_symmetry_group_IT_number 2
_symmetry_cell_setting 'triclinic'
loop_
_space_group_symop_operation_xyz
x,y,z
-x,-y,-z
loop_
_atom_site_type_symbol
_atom_site_label
_atom_site_fract_x
_atom_site_fract_y
_atom_site_fract_z
Si Si1 0.936822 0.371835 0.446121
Si Si2 0.895355 0.915329 0.613217
Si Si3 0.306281 0.710085 0.204840
Si Si4 0.529665 0.647938 0.774262
Si Si5 0.353463 0.181927 0.032133
Si Si6 0.691331 0.835602 0.578804
Si Si7 0.420913 0.540110 0.629091
Si Si8 0.597967 0.955484 0.212147
O O1 0.898176 0.208680 0.681370
O O2 0.747927 0.657949 0.346520
O O3 0.975576 0.287838 0.386151
O O4 0.111309 0.335206 0.378533
O O5 0.829513 0.800307 0.838550
O O6 0.706060 0.170332 0.497129
O O7 0.000000 0.000000 0.500000
O O8 0.417288 0.482643 0.248408
O O9 0.408025 0.624117 0.295378
O O10 0.285748 0.943522 0.974784
O O11 0.692407 0.650744 0.676720
O O12 0.340892 0.938297 0.654022
O O13 0.500000 0.500000 0.000000
O O14 0.445786 0.079915 0.146094
O O15 0.293735 0.454221 0.817229
O O16 0.500000 0.000000 0.000000
O O17 0.514093 0.964426 0.674865
O O18 0.500000 0.500000 0.500000
#
# Coordination Sequence:
#
# PCOD8033054 Si02
#       8
#     2   2   2   2   2   2   2   2
#     4  12  26  45  70 101 141 178 230 289 343 414
#     4  12  26  41  63 103 137 177 233 288 342 409
#     4  11  24  44  72 101 136 186 230 284 347 410
#     4  11  23  44  76 103 138 180 231 284 344 418
#     4  11  24  42  70  96 133 187 229 283 349 409
#     4  11  24  46  73 101 137 184 226 281 354 405
#     4  11  23  44  72  96 136 186 232 279 347 413
#     4  11  24  47  70  98 139 186 231 280 350 410
#
# _framework density 21.896118999999999
#
# number of rings (size 3 to 8) (size 9 to 14) (size 15 to 20)
#    0.000    0.750    5.000    2.250    3.500    3.000 
#    0.000    1.250    0.000    0.000    0.000    0.000 
#    0.000    0.000    0.000    0.000    0.000    0.000 
#
# Total GULP energy -198403.912102 kJ/mol
# GULP energy per Si atom -12400.244506 kJ/mol
# Density = 2.184628 g / cm^3
# Si number density = 21.896119 Si / 1000 Ang^3
#
#
#
# Elastic Constant Matrix: (Units=GPa)
#
#
# Indices 1 2 3 4 5 6 
#
# 1 96.4094 7.9512 31.0553 10.3399 -11.0941 9.2723
# 2 7.9512 70.1286 35.6730 13.5554 -6.0579 3.7640
# 3 31.0553 35.6730 159.7269 16.8845 -19.0914 1.0501
# 4 10.3399 13.5554 16.8845 31.6201 -1.9019 -3.6905
# 5 -11.0941 -6.0579 -19.0914 -1.9019 40.9232 2.3186
# 6 9.2723 3.7640 1.0501 -3.6905 2.3186 29.9261
#
#
#
# Elastic Compliance Matrix: (Units=1/GPa)
#
#
# Indices 1 2 3 4 5 6 
#
# 1 0.011996 0.000702 -0.001763 -0.003638 0.002613 -0.004394
# 2 0.000702 0.017268 -0.003176 -0.006233 0.001153 -0.003136
# 3 -0.001763 -0.003176 0.007841 -0.002067 0.002602 0.000214
# 4 -0.003638 -0.006233 -0.002067 0.037281 -0.001520 0.006699
# 5 0.002613 0.001153 0.002602 -0.001520 0.026645 -0.003298
# 6 -0.004394 -0.003136 0.000214 0.006699 -0.003298 0.036246
#
#
# Mechanical properties :
#
#
# Convention : Reuss Voigt Hill
#
# Bulk Modulus (GPa) = 34.92826 52.84710 43.88768
# Shear Modulus (GPa) = 32.19673 37.26624 34.73149
#
# Velocity S-wave (km/s) = 3.83878 4.12995 3.98703
# Velocity P-wave (km/s) = 5.96948 6.85053 6.42513
#
# Compressibility (1/GPa) = 0.02863011
#
# Stress axis : x y z
#
# Youngs Moduli (GPa) = 83.36086 57.91026 127.53707
#
# Poissons Ratio (x) = -0.04063 0.22488
# Poissons Ratio (y) = -0.05848 0.40502
# Poissons Ratio (z) = 0.14699 0.18391
#
# Static dielectric constant tensor:
#      x y z
#    x 4.171790 0.064070 -0.242220 
#    y 0.064070 3.929810 0.028660 
#    z -0.242220 0.028660 4.696720 
# 
# 
# High freq. dielectric constant tensor:
#      x y z
#    x 1.866780 0.015540 -0.013300 
#    y 0.015540 1.843330 0.005160 
#    z -0.013300 0.005160 1.885510 
# 
# From -- ./inp_files/533607.got.cif
#   From: 2010.06.25/outbox.cif.g09.slc.cpg/sg2_267_cif.got.tgz:533607.got - 2010.06.27 13:26:56.
