data_PCOD8033522
_publ_section_title
;
Structure prediction by ZEFSAII (Michael W. Deem and Ramdas Pophale) SiO2 
 PCOD8033522
Probable space group: P -1
;
_chemical_formula_sum "Si O2"
_cell_formula_units_Z 14
_cell_length_a 6.678920
_cell_length_b 8.875297
_cell_length_c 17.496762
_cell_angle_alpha 108.942920
_cell_angle_beta 63.388196
_cell_angle_gamma 65.114523
_cell_volume 651.437958
_symmetry_space_group_name_H-M "P -1"
_symmetry_group_IT_number 2
_symmetry_cell_setting 'triclinic'
loop_
_space_group_symop_operation_xyz
x,y,z
-x,-y,-z
loop_
_atom_site_type_symbol
_atom_site_label
_atom_site_fract_x
_atom_site_fract_y
_atom_site_fract_z
Si Si1 0.071296 0.446642 0.207602
Si Si2 0.145433 0.168976 0.587774
Si Si3 0.701252 0.235918 0.109161
Si Si4 0.782059 0.566086 0.117575
Si Si5 0.113691 0.995423 0.299832
Si Si6 0.100054 0.633394 0.498230
Si Si7 0.248855 0.720752 0.722350
O O1 0.434088 0.276467 0.115319
O O2 0.968124 0.620708 0.316621
O O3 0.937547 0.557081 0.166437
O O4 0.966638 0.323354 0.229628
O O5 0.011966 0.076874 0.634131
O O6 0.034192 0.218614 0.528692
O O7 0.500000 0.000000 0.500000
O O8 0.719939 0.408358 0.106769
O O9 0.640112 0.252800 0.213320
O O10 0.000000 0.000000 0.000000
O O11 0.470966 0.808311 0.197848
O O12 0.000000 0.500000 0.000000
O O13 0.030349 0.210134 0.381097
O O14 0.947801 0.059045 0.256530
O O15 0.462102 0.472641 0.407646
O O16 0.000000 0.500000 0.500000
#
# Coordination Sequence:
#
# PCOD8033522 Si02
#       7
#     2   2   2   2   2   2   2
#     4  11  23  47  68  96 138 176 228 278 338 409
#     4  12  22  41  69  99 136 179 221 282 343 395
#     4  11  26  46  72  96 133 185 229 277 340 405
#     4  11  27  45  68 103 137 176 229 283 339 401
#     4  12  25  43  66 105 137 175 229 282 337 403
#     4  12  24  43  68 101 140 181 227 274 339 413
#     4  11  25  44  68 101 135 178 230 276 340 412
#
# _framework density 21.490915999999999
#
# number of rings (size 3 to 8) (size 9 to 14) (size 15 to 20)
#    0.000    0.571    2.857    5.143    4.000    2.857 
#    0.000    0.000    0.000    0.000    0.000    0.000 
#    0.000    0.000    0.000    0.000    0.000    0.000 
#
# Total GULP energy -173699.554419 kJ/mol
# GULP energy per Si atom -12407.111030 kJ/mol
# Density = 2.144200 g / cm^3
# Si number density = 21.490916 Si / 1000 Ang^3
#
#
#
# Elastic Constant Matrix: (Units=GPa)
#
#
# Indices 1 2 3 4 5 6 
#
# 1 98.6365 34.0198 31.0316 3.5597 -26.0530 -22.8699
# 2 34.0198 114.4068 35.8398 -5.3026 -14.3189 -28.3982
# 3 31.0316 35.8398 130.4607 17.0307 -28.4329 -18.0640
# 4 3.5597 -5.3026 17.0307 49.6837 -6.5780 -4.1700
# 5 -26.0530 -14.3189 -28.4329 -6.5780 42.0708 8.7956
# 6 -22.8699 -28.3982 -18.0640 -4.1700 8.7956 44.4234
#
#
#
# Elastic Compliance Matrix: (Units=1/GPa)
#
#
# Indices 1 2 3 4 5 6 
#
# 1 0.013745 -0.001968 -0.000765 0.000282 0.006480 0.004250
# 2 -0.001968 0.011600 -0.002174 0.002665 0.000491 0.005671
# 3 -0.000765 -0.002174 0.010034 -0.002880 0.004896 0.001057
# 4 0.000282 0.002665 -0.002880 0.021847 0.002066 0.002320
# 5 0.006480 0.000491 0.004896 0.002066 0.031673 -0.000436
# 6 0.004250 0.005671 0.001057 0.002320 -0.000436 0.029058
#
#
# Mechanical properties :
#
#
# Convention : Reuss Voigt Hill
#
# Bulk Modulus (GPa) = 39.11797 60.58737 49.85267
# Shear Modulus (GPa) = 36.68613 43.40977 40.04795
#
# Velocity S-wave (km/s) = 4.13613 4.49922 4.32149
# Velocity P-wave (km/s) = 6.40716 7.43263 6.93886
#
# Compressibility (1/GPa) = 0.02556370
#
# Stress axis : x y z
#
# Youngs Moduli (GPa) = 72.75570 86.20874 99.66442
#
# Poissons Ratio (x) = 0.16970 0.07619
# Poissons Ratio (y) = 0.14322 0.21669
# Poissons Ratio (z) = 0.05562 0.18743
#
# Static dielectric constant tensor:
#      x y z
#    x 4.100290 -0.298820 -0.011720 
#    y -0.298820 4.049670 -0.057320 
#    z -0.011720 -0.057320 3.969760 
# 
# 
# High freq. dielectric constant tensor:
#      x y z
#    x 1.855070 -0.011710 -0.007810 
#    y -0.011710 1.856920 -0.000430 
#    z -0.007810 -0.000430 1.851130 
# 
# From -- ./inp_files/24563.got.cif
#   From: 2010.06.25/outbox.cif.g09.slc.cpg/sg2_13_cif.got.tgz:24563.got - 2010.06.27 13:26:56.
