data_PCOD8033731
_publ_section_title
;
Structure prediction by ZEFSAII (Michael W. Deem and Ramdas Pophale) SiO2 
 PCOD8033731
Probable space group: P -1
;
_chemical_formula_sum "Si O2"
_cell_formula_units_Z 16
_cell_length_a 20.753610
_cell_length_b 17.718913
_cell_length_c 12.979080
_cell_angle_alpha 38.912601
_cell_angle_beta 151.762445
_cell_angle_gamma 158.942270
_cell_volume 783.655522
_symmetry_space_group_name_H-M "P -1"
_symmetry_group_IT_number 2
_symmetry_cell_setting 'triclinic'
loop_
_space_group_symop_operation_xyz
x,y,z
-x,-y,-z
loop_
_atom_site_type_symbol
_atom_site_label
_atom_site_fract_x
_atom_site_fract_y
_atom_site_fract_z
Si Si1 0.477054 0.404744 0.967286
Si Si2 0.283299 0.679446 0.032268
Si Si3 0.736567 0.197446 0.756501
Si Si4 0.633393 0.922960 0.738467
Si Si5 0.675527 0.071859 0.031160
Si Si6 0.885186 0.812696 0.967651
Si Si7 0.917283 0.820937 0.512561
Si Si8 0.488761 0.584892 0.487853
O O1 0.225482 0.249357 0.717865
O O2 0.500000 0.500000 0.000000
O O3 0.466051 0.260454 0.140529
O O4 0.711518 0.597564 0.018676
O O5 0.466351 0.705219 0.291344
O O6 0.403013 0.838049 0.936143
O O7 0.239929 0.739732 0.000883
O O8 0.021688 0.436011 0.890434
O O9 0.573105 0.197434 0.510749
O O10 0.665839 0.054750 0.720653
O O11 0.669290 0.084049 0.888213
O O12 0.890409 0.096287 0.858631
O O13 0.854449 0.093579 0.290350
O O14 0.734442 0.757799 0.718557
O O15 0.000000 0.000000 0.000000
O O16 0.750783 0.618323 0.567011
O O17 0.000000 0.000000 0.500000
O O18 0.500000 0.500000 0.500000
#
# Coordination Sequence:
#
# PCOD8033731 Si02
#       8
#     2   2   2   2   2   2   2   2
#     4  11  25  42  67 100 134 173 223 277 332 401
#     4  11  25  42  68 101 133 176 224 276 336 396
#     4  11  25  46  68  92 141 177 219 277 323 413
#     4  11  26  44  68  98 131 183 221 265 344 394
#     4  11  25  42  68 101 133 176 224 276 336 396
#     4  11  25  42  67 100 134 173 223 277 332 401
#     4  11  24  41  68 101 136 172 222 281 334 398
#     4  11  24  41  68 101 136 172 222 281 334 398
#
# _framework density 20.417134000000001
#
# number of rings (size 3 to 8) (size 9 to 14) (size 15 to 20)
#    0.000    1.000    2.500    2.625    7.000    4.000 
#    0.000    2.500    0.000    0.000    0.000    0.000 
#    0.000    0.000    0.000    0.000    0.000    0.000 
#
# Total GULP energy -198450.114552 kJ/mol
# GULP energy per Si atom -12403.132159 kJ/mol
# Density = 2.037066 g / cm^3
# Si number density = 20.417134 Si / 1000 Ang^3
#
#
#
# Elastic Constant Matrix: (Units=GPa)
#
#
# Indices 1 2 3 4 5 6 
#
# 1 104.8211 40.3274 61.2142 6.4438 4.7336 -8.9051
# 2 40.3274 98.8905 61.9584 -5.6575 -4.0974 6.6049
# 3 61.2142 61.9584 161.0995 1.4512 0.5926 1.0643
# 4 6.4438 -5.6575 1.4512 29.9472 -7.2806 1.9950
# 5 4.7336 -4.0974 0.5926 -7.2806 36.1725 1.0820
# 6 -8.9051 6.6049 1.0643 1.9950 1.0820 45.1848
#
#
#
# Elastic Compliance Matrix: (Units=1/GPa)
#
#
# Indices 1 2 3 4 5 6 
#
# 1 0.014029 -0.004017 -0.003756 -0.004640 -0.003275 0.003724
# 2 -0.004017 0.015092 -0.004314 0.004964 0.003401 -0.003197
# 3 -0.003756 -0.004314 0.009301 -0.000496 -0.000240 -0.000301
# 4 -0.004640 0.004964 -0.000496 0.037745 0.008880 -0.003507
# 5 -0.003275 0.003401 -0.000240 0.008880 0.030318 -0.002255
# 6 0.003724 -0.003197 -0.000301 -0.003507 -0.002255 0.023548
#
#
# Mechanical properties :
#
#
# Convention : Reuss Voigt Hill
#
# Bulk Modulus (GPa) = 70.19221 76.86789 73.53005
# Shear Modulus (GPa) = 31.45528 35.68163 33.56846
#
# Velocity S-wave (km/s) = 3.92935 4.18500 4.05919
# Velocity P-wave (km/s) = 7.41890 7.81555 7.61980
#
# Compressibility (1/GPa) = 0.01424659
#
# Stress axis : x y z
#
# Youngs Moduli (GPa) = 71.28248 66.26210 107.51418
#
# Poissons Ratio (x) = 0.26619 0.40386
# Poissons Ratio (y) = 0.28636 0.46380
# Poissons Ratio (z) = 0.26776 0.28584
#
# Static dielectric constant tensor:
#      x y z
#    x 3.756180 0.106780 0.010250 
#    y 0.106780 3.847940 0.004920 
#    z 0.010250 0.004920 4.196640 
# 
# 
# High freq. dielectric constant tensor:
#      x y z
#    x 1.811050 0.003030 0.000280 
#    y 0.003030 1.813560 -0.000720 
#    z 0.000280 -0.000720 1.806150 
# 
# From -- ./inp_files/428675.got.cif
#   From: 2010.06.25/outbox.cif.g09.slc.cpg/sg2_215_cif.got.tgz:428675.got - 2010.06.27 13:26:56.
