data_PCOD8033863
_publ_section_title
;
Structure prediction by ZEFSAII (Michael W. Deem and Ramdas Pophale) SiO2 
 PCOD8033863
Probable space group: P -1
;
_chemical_formula_sum "Si O2"
_cell_formula_units_Z 16
_cell_length_a 5.218095
_cell_length_b 29.802287
_cell_length_c 8.996575
_cell_angle_alpha 31.594468
_cell_angle_beta 88.870786
_cell_angle_gamma 79.211148
_cell_volume 692.970788
_symmetry_space_group_name_H-M "P -1"
_symmetry_group_IT_number 2
_symmetry_cell_setting 'triclinic'
loop_
_space_group_symop_operation_xyz
x,y,z
-x,-y,-z
loop_
_atom_site_type_symbol
_atom_site_label
_atom_site_fract_x
_atom_site_fract_y
_atom_site_fract_z
Si Si1 0.973580 0.094798 0.657808
Si Si2 0.463488 0.561419 0.478710
Si Si3 0.689148 0.695938 0.711190
Si Si4 0.366076 0.106785 0.374693
Si Si5 0.157394 0.047829 0.264945
Si Si6 0.533154 0.746426 0.877887
Si Si7 0.029488 0.503022 0.813072
Si Si8 0.934330 0.202395 0.623964
O O1 0.143878 0.079928 0.547431
O O2 0.669862 0.158688 0.448882
O O3 0.079841 0.152520 0.613449
O O4 0.000000 0.000000 0.000000
O O5 0.500000 0.500000 0.500000
O O6 0.197446 0.566084 0.567254
O O7 0.737008 0.525634 0.674865
O O8 0.407970 0.668281 0.144975
O O9 0.746558 0.704787 0.861247
O O10 0.374173 0.736732 0.562264
O O11 0.880169 0.738114 0.494104
O O12 0.767936 0.592287 0.967624
O O13 0.327175 0.095178 0.232374
O O14 0.340448 0.212952 0.100824
O O15 0.653051 0.029102 0.631114
O O16 0.000000 0.000000 0.500000
O O17 0.937695 0.126606 0.957130
O O18 0.000000 0.500000 0.000000
#
# Coordination Sequence:
#
# PCOD8033863 Si02
#       8
#     2   2   2   2   2   2   2   2
#     4  11  24  42  70 101 143 189 245 304 361 432
#     4  12  27  48  86 111 155 203 256 322 392 463
#     4  11  25  46  75 105 145 184 251 306 372 454
#     4  11  24  43  70  96 149 189 251 307 368 441
#     4  11  26  45  63 100 148 197 247 302 379 446
#     4  11  25  43  73 112 141 189 260 306 370 448
#     4  12  28  53  77 115 155 200 250 325 400 469
#     4  11  25  43  73 101 139 191 242 305 366 435
#
# _framework density 23.088999000000001
#
# number of rings (size 3 to 8) (size 9 to 14) (size 15 to 20)
#    0.000    0.750    2.500    3.750   10.500    2.000 
#    4.500    0.000    0.000    0.000    0.000    0.000 
#    0.000    0.000    0.000    0.000    0.000    0.000 
#
# Total GULP energy -198262.653646 kJ/mol
# GULP energy per Si atom -12391.415853 kJ/mol
# Density = 2.303645 g / cm^3
# Si number density = 23.088999 Si / 1000 Ang^3
#
#
#
# Elastic Constant Matrix: (Units=GPa)
#
#
# Indices 1 2 3 4 5 6 
#
# 1 104.6614 37.3631 27.0340 -1.0903 -8.4872 -9.2128
# 2 37.3631 126.5555 53.7127 -12.1261 -3.0865 7.3189
# 3 27.0340 53.7127 116.1774 -11.7017 -7.6192 5.4672
# 4 -1.0903 -12.1261 -11.7017 39.5998 -0.5860 -3.8918
# 5 -8.4872 -3.0865 -7.6192 -0.5860 44.8844 -0.3201
# 6 -9.2128 7.3189 5.4672 -3.8918 -0.3201 29.4398
#
#
#
# Elastic Compliance Matrix: (Units=1/GPa)
#
#
# Indices 1 2 3 4 5 6 
#
# 1 0.011566 -0.003089 -0.001422 -0.000570 0.001759 0.004595
# 2 -0.003089 0.010831 -0.004018 0.001773 -0.000517 -0.002684
# 3 -0.001422 -0.004018 0.011137 0.001919 0.001362 -0.001246
# 4 -0.000570 0.001773 0.001919 0.026608 0.000706 0.002550
# 5 0.001759 -0.000517 0.001362 0.000706 0.022822 0.000767
# 6 0.004595 -0.002684 -0.001246 0.002550 0.000767 0.036650
#
#
# Mechanical properties :
#
#
# Convention : Reuss Voigt Hill
#
# Bulk Modulus (GPa) = 60.68807 64.84599 62.76703
# Shear Modulus (GPa) = 35.17092 38.07045 36.62068
#
# Velocity S-wave (km/s) = 3.90715 4.06502 3.98687
# Velocity P-wave (km/s) = 6.83344 7.08369 6.95969
#
# Compressibility (1/GPa) = 0.01647770
#
# Stress axis : x y z
#
# Youngs Moduli (GPa) = 86.46363 92.32465 89.78908
#
# Poissons Ratio (x) = 0.28515 0.12764
# Poissons Ratio (y) = 0.26705 0.36077
# Poissons Ratio (z) = 0.12292 0.37096
#
# Static dielectric constant tensor:
#      x y z
#    x 3.867330 0.387030 -0.217450 
#    y 0.387030 4.917160 -0.091800 
#    z -0.217450 -0.091800 4.220200 
# 
# 
# High freq. dielectric constant tensor:
#      x y z
#    x 1.915950 0.005800 -0.006800 
#    y 0.005800 1.922050 -0.011060 
#    z -0.006800 -0.011060 1.916570 
# 
# From -- ./inp_files/143332.got.cif
#   From: 2010.06.25/outbox.cif.g09.slc.cpg/sg2_72_cif.got.tgz:143332.got - 2010.06.27 13:26:56.
