data_PCOD8033365
_publ_section_title
;
Structure prediction by ZEFSAII (Michael W. Deem and Ramdas Pophale) SiO2 
 PCOD8033365
Probable space group: P -1
;
_chemical_formula_sum "Si O2"
_cell_formula_units_Z 16
_cell_length_a 26.274028
_cell_length_b 8.606071
_cell_length_c 9.969005
_cell_angle_alpha 58.606707
_cell_angle_beta 38.249321
_cell_angle_gamma 34.054976
_cell_volume 724.690657
_symmetry_space_group_name_H-M "P -1"
_symmetry_group_IT_number 2
_symmetry_cell_setting 'triclinic'
loop_
_space_group_symop_operation_xyz
x,y,z
-x,-y,-z
loop_
_atom_site_type_symbol
_atom_site_label
_atom_site_fract_x
_atom_site_fract_y
_atom_site_fract_z
Si Si1 0.959224 0.269069 0.517632
Si Si2 0.858910 0.146004 0.224550
Si Si3 0.896585 0.673775 0.254142
Si Si4 0.443968 0.316081 0.033221
Si Si5 0.361632 0.088571 0.407200
Si Si6 0.295739 0.140400 0.108334
Si Si7 0.797903 0.074867 0.640979
Si Si8 0.646793 0.809582 0.310744
O O1 0.967487 0.411811 0.326730
O O2 0.807395 0.520275 0.781296
O O3 0.000000 0.000000 0.500000
O O4 0.065354 0.151576 0.459215
O O5 0.801953 0.229156 0.454976
O O6 0.750440 0.461103 0.231375
O O7 0.874967 0.918138 0.234363
O O8 0.000000 0.000000 0.000000
O O9 0.753509 0.843383 0.433370
O O10 0.000000 0.500000 0.000000
O O11 0.497616 0.232395 0.806058
O O12 0.564649 0.101092 0.989809
O O13 0.342082 0.663662 0.102949
O O14 0.348800 0.307975 0.263639
O O15 0.355077 0.100678 0.576870
O O16 0.213030 0.101229 0.330350
O O17 0.318737 0.106633 0.915309
O O18 0.500000 0.000000 0.500000
#
# Coordination Sequence:
#
# PCOD8033365 Si02
#       8
#     2   2   2   2   2   2   2   2
#     4  12  28  45  72 107 144 187 249 301 360 429
#     4  12  26  47  75 102 146 197 242 296 370 426
#     4  12  28  47  72 106 148 193 244 299 367 441
#     4  11  23  45  79 102 143 194 239 295 371 438
#     4  11  23  46  73 101 145 189 235 292 369 431
#     4  12  25  47  73 105 147 187 245 301 360 439
#     4  12  25  45  74 106 138 193 246 302 359 435
#     4  12  26  45  73 108 143 186 242 302 360 429
#
# _framework density 22.078385999999998
#
# number of rings (size 3 to 8) (size 9 to 14) (size 15 to 20)
#    0.000    0.250    5.000    3.000    8.750    1.000 
#    0.000    1.250    0.000    0.000    0.000    0.000 
#    0.000    0.000    0.000    0.000    0.000    0.000 
#
# Total GULP energy -198314.905629 kJ/mol
# GULP energy per Si atom -12394.681602 kJ/mol
# Density = 2.202813 g / cm^3
# Si number density = 22.078386 Si / 1000 Ang^3
#
#
#
# Elastic Constant Matrix: (Units=GPa)
#
#
# Indices 1 2 3 4 5 6 
#
# 1 81.9838 30.3465 27.9231 -6.2159 -11.0425 11.7498
# 2 30.3465 96.3148 34.0249 13.5407 -11.4092 4.2729
# 3 27.9231 34.0249 128.1909 0.5443 1.9043 7.0630
# 4 -6.2159 13.5407 0.5443 42.5868 -0.1308 2.1183
# 5 -11.0425 -11.4092 1.9043 -0.1308 57.7720 -5.1286
# 6 11.7498 4.2729 7.0630 2.1183 -5.1286 36.6136
#
#
#
# Elastic Compliance Matrix: (Units=1/GPa)
#
#
# Indices 1 2 3 4 5 6 
#
# 1 0.015641 -0.004344 -0.002073 0.003899 0.001847 -0.004079
# 2 -0.004344 0.013611 -0.002725 -0.004965 0.002016 0.000901
# 3 -0.002073 -0.002725 0.009047 0.000493 -0.001318 -0.000975
# 4 0.003899 -0.004965 0.000493 0.025737 -0.000398 -0.002312
# 5 0.001847 0.002016 -0.001318 -0.000398 0.018282 0.002010
# 6 -0.004079 0.000901 -0.000975 -0.002312 0.002010 0.029120
#
#
# Mechanical properties :
#
#
# Convention : Reuss Voigt Hill
#
# Bulk Modulus (GPa) = 49.96451 54.56429 52.26440
# Shear Modulus (GPa) = 36.65902 41.67413 39.16658
#
# Velocity S-wave (km/s) = 4.07923 4.34931 4.21643
# Velocity P-wave (km/s) = 6.69824 7.07033 6.88680
#
# Compressibility (1/GPa) = 0.02001420
#
# Stress axis : x y z
#
# Youngs Moduli (GPa) = 63.93621 73.47048 110.53495
#
# Poissons Ratio (x) = 0.31916 0.22915
# Poissons Ratio (y) = 0.27774 0.30120
# Poissons Ratio (z) = 0.13255 0.20020
#
# Static dielectric constant tensor:
#      x y z
#    x 4.986030 -1.023380 1.339820 
#    y -1.023380 6.101480 -1.946480 
#    z 1.339820 -1.946480 6.254750 
# 
# 
# High freq. dielectric constant tensor:
#      x y z
#    x 1.875590 0.007480 0.005500 
#    y 0.007480 1.866740 0.009910 
#    z 0.005500 0.009910 1.893140 
# 
# From -- ./inp_files/477495.got.cif
#   From: 2010.06.25/outbox.cif.g09.slc.cpg/sg2_239_cif.got.tgz:477495.got - 2010.06.27 13:26:56.
