data_PCOD8033689
_publ_section_title
;
Structure prediction by ZEFSAII (Michael W. Deem and Ramdas Pophale) SiO2 
 PCOD8033689
Probable space group: P -1
;
_chemical_formula_sum "Si O2"
_cell_formula_units_Z 12
_cell_length_a 8.877889
_cell_length_b 13.821172
_cell_length_c 10.015440
_cell_angle_alpha 31.720946
_cell_angle_beta 87.612400
_cell_angle_gamma 68.885219
_cell_volume 507.400517
_symmetry_space_group_name_H-M "P -1"
_symmetry_group_IT_number 2
_symmetry_cell_setting 'triclinic'
loop_
_space_group_symop_operation_xyz
x,y,z
-x,-y,-z
loop_
_atom_site_type_symbol
_atom_site_label
_atom_site_fract_x
_atom_site_fract_y
_atom_site_fract_z
Si Si1 0.012896 0.683251 0.133713
Si Si2 0.568479 0.074283 0.290197
Si Si3 0.400767 0.960357 0.220606
Si Si4 0.384843 0.579211 0.775132
Si Si5 0.858224 0.796482 0.283732
Si Si6 0.941558 0.953066 0.349285
O O1 0.022856 0.688061 0.290352
O O2 0.126450 0.415768 0.395338
O O3 0.105051 0.794421 0.932861
O O4 0.787717 0.846345 0.909984
O O5 0.791179 0.960861 0.441416
O O6 0.500000 0.000000 0.500000
O O7 0.563857 0.968344 0.271458
O O8 0.439040 0.354710 0.955142
O O9 0.442488 0.711934 0.528139
O O10 0.353000 0.032043 0.980858
O O11 0.500000 0.500000 0.000000
O O12 0.158778 0.741886 0.627646
O O13 0.898148 0.931365 0.223941
#
# Coordination Sequence:
#
# PCOD8033689 Si02
#       6
#     2   2   2   2   2   2
#     4   8  18  37  65  98 128 170 208 263 326 390
#     4  12  26  44  62  97 133 174 226 270 313 387
#     4   9  20  40  64  92 136 164 208 274 319 380
#     4  11  24  45  65  93 131 173 220 275 317 384
#     4   9  18  38  70  98 132 169 207 269 337 385
#     4  11  24  40  71  98 128 175 218 262 336 389
#
# _framework density 23.649957000000001
#
# number of rings (size 3 to 8) (size 9 to 14) (size 15 to 20)
#    1.000    1.000    1.667    1.500    0.000    3.333 
#    0.000    1.667    0.000    0.000    0.000    0.000 
#    0.000    0.000    0.000    0.000    0.000    0.000 
#
# Total GULP energy -148729.695304 kJ/mol
# GULP energy per Si atom -12394.141275 kJ/mol
# Density = 2.359613 g / cm^3
# Si number density = 23.649957 Si / 1000 Ang^3
#
#
#
# Elastic Constant Matrix: (Units=GPa)
#
#
# Indices 1 2 3 4 5 6 
#
# 1 135.2558 7.0640 50.6810 -9.3698 11.4347 10.7289
# 2 7.0640 45.4307 18.3705 -4.2888 10.4574 18.1761
# 3 50.6810 18.3705 136.5775 -21.0607 -0.1690 19.9361
# 4 -9.3698 -4.2888 -21.0607 29.2036 20.0140 2.9651
# 5 11.4347 10.4574 -0.1690 20.0140 26.8214 -4.8986
# 6 10.7289 18.1761 19.9361 2.9651 -4.8986 31.7058
#
#
#
# Elastic Compliance Matrix: (Units=1/GPa)
#
#
# Indices 1 2 3 4 5 6 
#
# 1 0.001938 -0.026153 -0.009471 -0.048874 0.051783 0.032864
# 2 -0.026153 -0.076361 -0.026823 -0.192222 0.205976 0.119292
# 3 -0.009471 -0.026823 0.004055 -0.041529 0.050575 0.027730
# 4 -0.048874 -0.192222 -0.041529 -0.327754 0.384451 0.242897
# 5 0.051783 0.205976 0.050575 0.384451 -0.400089 -0.265173
# 6 0.032864 0.119292 0.027730 0.242897 -0.265173 -0.129089
#
#
# Mechanical properties :
#
#
# Convention : Reuss Voigt Hill
#
# Bulk Modulus (GPa) = -5.12130 52.16613 23.52241
# Shear Modulus (GPa) = -5.76374 33.62273 13.92950
#
# Velocity S-wave (km/s) = -1.56282 3.77461 2.42954
# Velocity P-wave (km/s) = 2.32952 6.41112 4.22349
#
# Compressibility (1/GPa) = -0.19526301
#
# Stress axis : x y z
#
# Youngs Moduli (GPa) = 516.07953 -13.09573 246.60488
#
# Poissons Ratio (x) = -0.34250 2.33554
# Poissons Ratio (y) = 13.49716 6.61479
# Poissons Ratio (z) = 4.88768 -0.35127
#
# Static dielectric constant tensor:
#      x y z
#    x 4.273670 0.212550 -0.041150 
#    y 0.212550 3.944180 -0.162180 
#    z -0.041150 -0.162180 4.284880 
# 
# 
# High freq. dielectric constant tensor:
#      x y z
#    x 1.946810 0.006510 -0.004040 
#    y 0.006510 1.916070 -0.008170 
#    z -0.004040 -0.008170 1.935180 
# 
# From -- ./inp_files/393465.got.cif
#   From: 2010.06.25/outbox.cif.g09.slc.cpg/sg2_197_cif.got.tgz:393465.got - 2010.06.27 13:26:56.
