data_PCOD8033888
_publ_section_title
;
Structure prediction by ZEFSAII (Michael W. Deem and Ramdas Pophale) SiO2 
 PCOD8033888
Probable space group: P -1
;
_chemical_formula_sum "Si O2"
_cell_formula_units_Z 16
_cell_length_a 18.492339
_cell_length_b 6.422701
_cell_length_c 8.614480
_cell_angle_alpha 79.401751
_cell_angle_beta 118.626484
_cell_angle_gamma 126.840377
_cell_volume 710.922347
_symmetry_space_group_name_H-M "P -1"
_symmetry_group_IT_number 2
_symmetry_cell_setting 'triclinic'
loop_
_space_group_symop_operation_xyz
x,y,z
-x,-y,-z
loop_
_atom_site_type_symbol
_atom_site_label
_atom_site_fract_x
_atom_site_fract_y
_atom_site_fract_z
Si Si1 0.405904 0.256136 0.524748
Si Si2 0.263874 0.023546 0.913389
Si Si3 0.775020 0.596308 0.321364
Si Si4 0.061628 0.715737 0.166215
Si Si5 0.404303 0.993031 0.853322
Si Si6 0.750456 0.210412 0.744372
Si Si7 0.082323 0.496378 0.676325
Si Si8 0.216621 0.279558 0.332983
O O1 0.500000 0.500000 0.500000
O O2 0.439209 0.223271 0.732443
O O3 0.317838 0.295307 0.435216
O O4 0.360858 0.988696 0.418939
O O5 0.266478 0.278090 0.848993
O O6 0.367521 0.064008 0.959217
O O7 0.175189 0.798207 0.745891
O O8 0.240132 0.935428 0.080258
O O9 0.878371 0.658147 0.343298
O O10 0.808027 0.718799 0.510744
O O11 0.684217 0.286010 0.275921
O O12 0.158024 0.703106 0.299227
O O13 0.973304 0.641137 0.203339
O O14 0.122615 0.033268 0.171955
O O15 0.000000 0.500000 0.000000
O O16 0.500000 0.000000 0.000000
O O17 0.760642 0.468804 0.770522
O O18 0.000000 0.500000 0.500000
#
# Coordination Sequence:
#
# PCOD8033888 Si02
#       8
#     2   2   2   2   2   2   2   2
#     4  11  26  45  71 105 139 182 239 288 361 430
#     4  11  25  45  67 103 143 183 235 295 349 421
#     4  11  24  46  72 103 143 192 237 296 357 418
#     4  11  24  45  66 104 143 183 239 292 353 423
#     4  11  26  45  70 104 143 184 241 289 355 432
#     4  11  25  46  68 101 144 185 237 292 353 428
#     4  11  24  42  72 102 140 186 246 286 349 434
#     4  11  24  45  75  96 146 192 229 299 357 420
#
# _framework density 22.505973999999998
#
# number of rings (size 3 to 8) (size 9 to 14) (size 15 to 20)
#    0.000    1.000    3.750    1.500    7.000    8.500 
#    0.000    0.000    0.000    0.000    0.000    0.000 
#    0.000    0.000    0.000    0.000    0.000    0.000 
#
# Total GULP energy -198241.017492 kJ/mol
# GULP energy per Si atom -12390.063593 kJ/mol
# Density = 2.245475 g / cm^3
# Si number density = 22.505974 Si / 1000 Ang^3
#
#
#
# Elastic Constant Matrix: (Units=GPa)
#
#
# Indices 1 2 3 4 5 6 
#
# 1 169.9858 60.2671 46.6869 1.8602 6.7541 7.0688
# 2 60.2671 137.7241 34.6201 -2.0940 -1.5474 0.6769
# 3 46.6869 34.6201 81.5830 -1.8147 1.0174 6.2419
# 4 1.8602 -2.0940 -1.8147 47.9591 -1.5529 0.8247
# 5 6.7541 -1.5474 1.0174 -1.5529 36.9467 0.7916
# 6 7.0688 0.6769 6.2419 0.8247 0.7916 32.5696
#
#
#
# Elastic Compliance Matrix: (Units=1/GPa)
#
#
# Indices 1 2 3 4 5 6 
#
# 1 0.007816 -0.002615 -0.003284 -0.000572 -0.001451 -0.000963
# 2 -0.002615 0.009020 -0.002395 0.000421 0.000922 0.000806
# 3 -0.003284 -0.002395 0.015334 0.000646 0.000152 -0.002196
# 4 -0.000572 0.000421 0.000646 0.020958 0.000997 -0.000563
# 5 -0.001451 0.000922 0.000152 0.000997 0.027417 -0.000425
# 6 -0.000963 0.000806 -0.002196 -0.000563 -0.000425 0.031341
#
#
# Mechanical properties :
#
#
# Convention : Reuss Voigt Hill
#
# Bulk Modulus (GPa) = 64.17882 74.71570 69.44726
# Shear Modulus (GPa) = 37.40625 40.00965 38.70795
#
# Velocity S-wave (km/s) = 4.08126 4.22089 4.15166
# Velocity P-wave (km/s) = 7.12651 7.55148 7.34207
#
# Compressibility (1/GPa) = 0.01558147
#
# Stress axis : x y z
#
# Youngs Moduli (GPa) = 127.94473 110.86449 65.21604
#
# Poissons Ratio (x) = 0.28990 0.21417
# Poissons Ratio (y) = 0.33457 0.15620
# Poissons Ratio (z) = 0.42018 0.26553
#
# Static dielectric constant tensor:
#      x y z
#    x 4.304370 -0.046730 0.121080 
#    y -0.046730 4.257680 0.205460 
#    z 0.121080 0.205460 3.801780 
# 
# 
# High freq. dielectric constant tensor:
#      x y z
#    x 1.901320 -0.004010 0.001890 
#    y -0.004010 1.895480 0.005310 
#    z 0.001890 0.005310 1.876250 
# 
# From -- ./inp_files/323591.got.cif
#   From: 2010.06.25/outbox.cif.g09.slc.cpg/sg2_162_cif.got.tgz:323591.got - 2010.06.27 13:26:56.
