data_PCOD8033489
_publ_section_title
;
Structure prediction by ZEFSAII (Michael W. Deem and Ramdas Pophale) SiO2 
 PCOD8033489
Probable space group: P -1
;
_chemical_formula_sum "Si O2"
_cell_formula_units_Z 14
_cell_length_a 9.285487
_cell_length_b 17.452459
_cell_length_c 24.200357
_cell_angle_alpha 20.022686
_cell_angle_beta 29.136040
_cell_angle_gamma 29.286169
_cell_volume 621.782508
_symmetry_space_group_name_H-M "P -1"
_symmetry_group_IT_number 2
_symmetry_cell_setting 'triclinic'
loop_
_space_group_symop_operation_xyz
x,y,z
-x,-y,-z
loop_
_atom_site_type_symbol
_atom_site_label
_atom_site_fract_x
_atom_site_fract_y
_atom_site_fract_z
Si Si1 0.870574 0.481722 0.441901
Si Si2 0.784797 0.298231 0.013981
Si Si3 0.897256 0.978865 0.487268
Si Si4 0.208333 0.503609 0.663950
Si Si5 0.727276 0.000630 0.132924
Si Si6 0.952908 0.773732 0.825410
Si Si7 0.779123 0.009863 0.309729
O O1 0.576455 0.382664 0.614755
O O2 0.958403 0.507723 0.330791
O O3 0.139078 0.274322 0.521857
O O4 0.814068 0.742957 0.308290
O O5 0.666827 0.191073 0.072841
O O6 0.932004 0.096378 0.146972
O O7 0.500000 0.500000 0.000000
O O8 0.067407 0.390293 0.837604
O O9 0.172754 0.772663 0.507116
O O10 0.589672 0.899637 0.639117
O O11 0.000000 0.000000 0.500000
O O12 0.885259 0.207806 0.300257
O O13 0.409695 0.070441 0.156435
O O14 0.000000 0.000000 0.000000
O O15 0.135216 0.871859 0.744447
O O16 0.000000 0.500000 0.000000
#
# Coordination Sequence:
#
# PCOD8033489 Si02
#       7
#     2   2   2   2   2   2   2
#     4  11  24  47  73 104 141 199 244 300 370 441
#     4  12  26  45  74 109 148 194 242 307 373 432
#     4  12  26  47  73 105 144 202 244 297 373 447
#     4  11  23  46  74  96 150 197 238 293 379 441
#     4  12  26  48  74 106 150 198 245 299 373 444
#     4  12  27  45  72 112 148 193 254 304 363 442
#     4  12  27  45  73 110 148 185 248 310 368 436
#
# _framework density 22.515910999999999
#
# number of rings (size 3 to 8) (size 9 to 14) (size 15 to 20)
#    0.000    0.286    5.714    3.000    4.000    1.143 
#    0.000    0.000    0.000    0.000    0.000    0.000 
#    0.000    0.000    0.000    0.000    0.000    0.000 
#
# Total GULP energy -173568.810406 kJ/mol
# GULP energy per Si atom -12397.772172 kJ/mol
# Density = 2.246466 g / cm^3
# Si number density = 22.515911 Si / 1000 Ang^3
#
#
#
# Elastic Constant Matrix: (Units=GPa)
#
#
# Indices 1 2 3 4 5 6 
#
# 1 140.1193 48.3514 48.5214 8.8533 -3.6403 5.1699
# 2 48.3514 93.0549 46.9410 0.0962 -1.5517 10.3867
# 3 48.5214 46.9410 161.9362 4.4370 19.5613 2.4925
# 4 8.8533 0.0962 4.4370 48.8024 10.0338 -0.6774
# 5 -3.6403 -1.5517 19.5613 10.0338 42.4859 -1.7728
# 6 5.1699 10.3867 2.4925 -0.6774 -1.7728 35.2850
#
#
#
# Elastic Compliance Matrix: (Units=1/GPa)
#
#
# Indices 1 2 3 4 5 6 
#
# 1 0.009278 -0.003851 -0.001847 -0.001910 0.001954 -0.000034
# 2 -0.003851 0.014811 -0.003275 0.000626 0.001426 -0.003481
# 3 -0.001847 -0.003275 0.008156 0.000454 -0.004121 0.000460
# 4 -0.001910 0.000626 0.000454 0.021933 -0.005521 0.000207
# 5 0.001954 0.001426 -0.004121 -0.005521 0.026993 0.000835
# 6 -0.000034 -0.003481 0.000460 0.000207 0.000835 0.029384
#
#
# Mechanical properties :
#
#
# Convention : Reuss Voigt Hill
#
# Bulk Modulus (GPa) = 69.93377 75.85976 72.89676
# Shear Modulus (GPa) = 37.51865 42.06777 39.79321
#
# Velocity S-wave (km/s) = 4.08648 4.32714 4.20853
# Velocity P-wave (km/s) = 7.30705 7.66357 7.48743
#
# Compressibility (1/GPa) = 0.01429924
#
# Stress axis : x y z
#
# Youngs Moduli (GPa) = 107.78386 67.51714 122.60286
#
# Poissons Ratio (x) = 0.25999 0.22644
# Poissons Ratio (y) = 0.41505 0.40157
# Poissons Ratio (z) = 0.19907 0.22114
#
# Static dielectric constant tensor:
#      x y z
#    x 3.637490 -0.500780 0.380930 
#    y -0.500780 2.853210 0.547610 
#    z 0.380930 0.547610 4.086220 
# 
# 
# High freq. dielectric constant tensor:
#      x y z
#    x 1.871840 0.007380 0.001870 
#    y 0.007380 1.888140 0.000960 
#    z 0.001870 0.000960 1.912490 
# 
# From -- ./inp_files/204974.got.cif
#   From: 2010.06.25/outbox.cif.g09.slc.cpg/sg2_103_cif.got.tgz:204974.got - 2010.06.27 13:26:56.
