data_PCOD8033172
_publ_section_title
;
Structure prediction by ZEFSAII (Michael W. Deem and Ramdas Pophale) SiO2 
 PCOD8033172
Probable space group: P -1
;
_chemical_formula_sum "Si O2"
_cell_formula_units_Z 14
_cell_length_a 14.876873
_cell_length_b 14.836852
_cell_length_c 8.125561
_cell_angle_alpha 103.902200
_cell_angle_beta 121.412225
_cell_angle_gamma 28.317837
_cell_volume 611.190379
_symmetry_space_group_name_H-M "P -1"
_symmetry_group_IT_number 2
_symmetry_cell_setting 'triclinic'
loop_
_space_group_symop_operation_xyz
x,y,z
-x,-y,-z
loop_
_atom_site_type_symbol
_atom_site_label
_atom_site_fract_x
_atom_site_fract_y
_atom_site_fract_z
Si Si1 0.907523 0.636729 0.623521
Si Si2 0.781095 0.067161 0.859783
Si Si3 0.627595 0.649974 0.874483
Si Si4 0.465492 0.897146 0.515757
Si Si5 0.656138 0.454205 0.326446
Si Si6 0.109647 0.002476 0.697758
Si Si7 0.268924 0.612045 0.992880
O O1 0.725945 0.728922 0.618398
O O2 0.000000 0.500000 0.500000
O O3 0.737491 0.863013 0.503625
O O4 0.172217 0.444381 0.884744
O O5 0.681640 0.040705 0.741938
O O6 0.551660 0.314881 0.679207
O O7 0.850924 0.049582 0.096953
O O8 0.034923 0.873184 0.903686
O O9 0.548701 0.757092 0.673345
O O10 0.759433 0.441338 0.910703
O O11 0.371230 0.836675 0.812956
O O12 0.543307 0.440970 0.191868
O O13 0.901342 0.251868 0.588516
O O14 0.742152 0.425015 0.216445
O O15 0.000000 0.000000 0.500000
#
# Coordination Sequence:
#
# PCOD8033172 Si02
#       7
#     2   2   2   2   2   2   2
#     4  11  26  51  76 102 141 181 236 300 362 428
#     4  12  25  44  71 105 139 191 241 289 351 414
#     4  12  24  47  73 105 148 183 232 297 351 420
#     4  11  27  46  75 108 139 182 238 296 361 423
#     4  11  24  44  66  98 147 192 236 287 344 409
#     4  12  25  43  71 102 147 194 238 283 349 414
#     4  11  23  45  68 100 146 188 238 290 339 421
#
# _framework density 22.906120999999999
#
# number of rings (size 3 to 8) (size 9 to 14) (size 15 to 20)
#    0.000    0.571    4.286    3.429    2.000    2.286 
#    0.000    0.000    0.000    0.000    0.000    0.000 
#    0.000    0.000    0.000    0.000    0.000    0.000 
#
# Total GULP energy -173495.365297 kJ/mol
# GULP energy per Si atom -12392.526093 kJ/mol
# Density = 2.285399 g / cm^3
# Si number density = 22.906121 Si / 1000 Ang^3
#
#
#
# Elastic Constant Matrix: (Units=GPa)
#
#
# Indices 1 2 3 4 5 6 
#
# 1 106.7202 26.3698 41.3090 -2.2625 -4.3320 0.1844
# 2 26.3698 139.9787 58.4151 -17.1606 -3.8160 -5.5954
# 3 41.3090 58.4151 128.0394 -12.8785 14.0684 -5.6200
# 4 -2.2625 -17.1606 -12.8785 46.3421 2.5055 7.3776
# 5 -4.3320 -3.8160 14.0684 2.5055 34.7437 -15.4587
# 6 0.1844 -5.5954 -5.6200 7.3776 -15.4587 30.0102
#
#
#
# Elastic Compliance Matrix: (Units=1/GPa)
#
#
# Indices 1 2 3 4 5 6 
#
# 1 0.011072 -0.000498 -0.003781 -0.001068 0.003456 0.001174
# 2 -0.000498 0.009421 -0.004262 0.001696 0.003657 0.002428
# 3 -0.003781 -0.004262 0.011878 0.002377 -0.007180 -0.002830
# 4 -0.001068 0.001696 0.002377 0.024539 -0.006515 -0.008621
# 5 0.003456 0.003657 -0.007180 -0.006515 0.043331 0.023238
# 6 0.001174 0.002428 -0.002830 -0.008621 0.023238 0.047327
#
#
# Mechanical properties :
#
#
# Convention : Reuss Voigt Hill
#
# Bulk Modulus (GPa) = 65.40265 69.65845 67.53055
# Shear Modulus (GPa) = 29.45545 38.79549 34.12547
#
# Velocity S-wave (km/s) = 3.58986 4.11989 3.86398
# Velocity P-wave (km/s) = 6.76737 7.28751 7.03225
#
# Compressibility (1/GPa) = 0.01528990
#
# Stress axis : x y z
#
# Youngs Moduli (GPa) = 90.31472 106.14584 84.18856
#
# Poissons Ratio (x) = 0.05285 0.31830
# Poissons Ratio (y) = 0.04497 0.35882
# Poissons Ratio (z) = 0.34146 0.45241
#
# Static dielectric constant tensor:
#      x y z
#    x 4.297770 0.172290 0.059790 
#    y 0.172290 4.381050 -0.398190 
#    z 0.059790 -0.398190 4.291060 
# 
# 
# High freq. dielectric constant tensor:
#      x y z
#    x 1.897750 0.003780 0.008770 
#    y 0.003780 1.918420 -0.028940 
#    z 0.008770 -0.028940 1.909510 
# 
# From -- ./inp_files/315696.got.cif
#   From: 2010.06.25/outbox.cif.g09.slc.cpg/sg2_158_cif.got.tgz:315696.got - 2010.06.27 13:26:56.
