data_PCOD8033468
_publ_section_title
;
Structure prediction by ZEFSAII (Michael W. Deem and Ramdas Pophale) SiO2 
 PCOD8033468
Probable space group: P -1
;
_chemical_formula_sum "Si O2"
_cell_formula_units_Z 16
_cell_length_a 11.418156
_cell_length_b 5.390286
_cell_length_c 16.425835
_cell_angle_alpha 113.446646
_cell_angle_beta 125.323457
_cell_angle_gamma 56.363117
_cell_volume 682.239600
_symmetry_space_group_name_H-M "P -1"
_symmetry_group_IT_number 2
_symmetry_cell_setting 'triclinic'
loop_
_space_group_symop_operation_xyz
x,y,z
-x,-y,-z
loop_
_atom_site_type_symbol
_atom_site_label
_atom_site_fract_x
_atom_site_fract_y
_atom_site_fract_z
Si Si1 0.392895 0.172843 0.172387
Si Si2 0.557548 0.563195 0.341591
Si Si3 0.922900 0.219370 0.155186
Si Si4 0.739976 0.853946 0.722607
Si Si5 0.134230 0.356785 0.968720
Si Si6 0.898763 0.840601 0.475097
Si Si7 0.705155 0.654698 0.258425
Si Si8 0.317143 0.602140 0.461760
O O1 0.451711 0.382098 0.274086
O O2 0.267629 0.141629 0.181215
O O3 0.544456 0.861115 0.171786
O O4 0.303508 0.305499 0.069383
O O5 0.658364 0.486299 0.289218
O O6 0.682660 0.492317 0.456015
O O7 0.429689 0.906932 0.347242
O O8 0.888958 0.426806 0.088611
O O9 0.832508 0.419623 0.220569
O O10 0.111970 0.071759 0.230039
O O11 0.861955 0.962676 0.093476
O O12 0.768581 0.539528 0.651026
O O13 0.000000 0.500000 0.000000
O O14 0.778716 0.860373 0.356608
O O15 0.000000 0.500000 0.500000
O O16 0.792411 0.036603 0.534797
O O17 0.000000 0.000000 0.500000
O O18 0.500000 0.500000 0.500000
#
# Coordination Sequence:
#
# PCOD8033468 Si02
#       8
#     2   2   2   2   2   2   2   2
#     4  11  24  46  75 101 151 191 242 313 373 433
#     4  11  23  46  73 104 155 194 242 310 371 438
#     4  12  29  47  76 109 145 188 254 303 364 461
#     4  11  24  43  73 111 141 198 247 309 369 437
#     4  12  27  49  77 108 146 186 245 313 383 428
#     4  12  27  48  72 105 156 203 240 304 371 439
#     4  11  27  47  70 107 148 197 244 298 375 443
#     4  12  23  44  74 112 145 194 260 301 363 446
#
# _framework density 23.452172000000001
#
# number of rings (size 3 to 8) (size 9 to 14) (size 15 to 20)
#    0.000    0.500    3.750    3.750    5.250    4.000 
#    0.000    0.000    0.000    0.000    0.000    0.000 
#    0.000    0.000    0.000    0.000    0.000    0.000 
#
# Total GULP energy -198384.174469 kJ/mol
# GULP energy per Si atom -12399.010904 kJ/mol
# Density = 2.339879 g / cm^3
# Si number density = 23.452172 Si / 1000 Ang^3
#
#
#
# Elastic Constant Matrix: (Units=GPa)
#
#
# Indices 1 2 3 4 5 6 
#
# 1 93.5934 34.7851 9.1180 -6.7133 -3.7800 -20.1329
# 2 34.7851 92.3595 8.3863 6.5005 -4.9212 -3.5554
# 3 9.1180 8.3863 80.1947 -5.1680 9.5233 -2.7581
# 4 -6.7133 6.5005 -5.1680 42.4755 0.4401 -5.5691
# 5 -3.7800 -4.9212 9.5233 0.4401 31.3693 4.6715
# 6 -20.1329 -3.5554 -2.7581 -5.5691 4.6715 43.8862
#
#
#
# Elastic Compliance Matrix: (Units=1/GPa)
#
#
# Indices 1 2 3 4 5 6 
#
# 1 0.014468 -0.005412 -0.000602 0.003914 0.000031 0.006654
# 2 -0.005412 0.013256 -0.001321 -0.003350 0.002196 -0.002151
# 3 -0.000602 -0.001321 0.013382 0.001938 -0.004546 0.001188
# 4 0.003914 -0.003350 0.001938 0.025594 -0.001758 0.005081
# 5 0.000031 0.002196 -0.004546 -0.001758 0.034221 -0.003959
# 6 0.006654 -0.002151 0.001188 0.005081 -0.003959 0.026806
#
#
# Mechanical properties :
#
#
# Convention : Reuss Voigt Hill
#
# Bulk Modulus (GPa) = 37.82838 41.19182 39.51010
# Shear Modulus (GPa) = 33.06693 37.80341 35.43517
#
# Velocity S-wave (km/s) = 3.75903 4.01925 3.89132
# Velocity P-wave (km/s) = 5.91654 6.25631 6.08880
#
# Compressibility (1/GPa) = 0.02643518
#
# Stress axis : x y z
#
# Youngs Moduli (GPa) = 69.11806 75.44018 74.72774
#
# Poissons Ratio (x) = 0.40829 0.04496
# Poissons Ratio (y) = 0.37407 0.09875
# Poissons Ratio (z) = 0.04158 0.09969
#
# Static dielectric constant tensor:
#      x y z
#    x 4.537620 0.047650 0.139030 
#    y 0.047650 4.645850 -0.108270 
#    z 0.139030 -0.108270 4.605460 
# 
# 
# High freq. dielectric constant tensor:
#      x y z
#    x 1.933180 -0.010300 0.006130 
#    y -0.010300 1.939500 -0.002720 
#    z 0.006130 -0.002720 1.926950 
# 
# From -- ./inp_files/96984.got.cif
#   From: 2010.06.25/outbox.cif.g09.slc.cpg/sg2_49_cif.got.tgz:96984.got - 2010.06.27 13:26:56.
