data_PCOD8033932
_publ_section_title
;
Structure prediction by ZEFSAII (Michael W. Deem and Ramdas Pophale) SiO2 
 PCOD8033932
Probable space group: P -1
;
_chemical_formula_sum "Si O2"
_cell_formula_units_Z 16
_cell_length_a 17.446231
_cell_length_b 11.809338
_cell_length_c 9.139016
_cell_angle_alpha 85.691136
_cell_angle_beta 127.687706
_cell_angle_gamma 137.274115
_cell_volume 725.426024
_symmetry_space_group_name_H-M "P -1"
_symmetry_group_IT_number 2
_symmetry_cell_setting 'triclinic'
loop_
_space_group_symop_operation_xyz
x,y,z
-x,-y,-z
loop_
_atom_site_type_symbol
_atom_site_label
_atom_site_fract_x
_atom_site_fract_y
_atom_site_fract_z
Si Si1 0.677798 0.147634 0.585789
Si Si2 0.542874 0.925120 0.138666
Si Si3 0.586277 0.614141 0.935475
Si Si4 0.164931 0.917442 0.738333
Si Si5 0.021691 0.190836 0.956200
Si Si6 0.802001 0.599803 0.154082
Si Si7 0.992202 0.342668 0.133018
Si Si8 0.310292 0.306714 0.395341
O O1 0.799368 0.378707 0.643494
O O2 0.500000 0.000000 0.500000
O O3 0.601113 0.001563 0.368767
O O4 0.828119 0.227488 0.847133
O O5 0.713271 0.031608 0.241501
O O6 0.348313 0.647986 0.937274
O O7 0.500000 0.000000 0.000000
O O8 0.387385 0.433429 0.626884
O O9 0.500000 0.500000 0.000000
O O10 0.709646 0.630880 0.023338
O O11 0.712670 0.858537 0.059759
O O12 0.091542 0.754642 0.792122
O O13 0.980681 0.790288 0.458950
O O14 0.111165 0.351608 0.906861
O O15 0.151893 0.213917 0.129250
O O16 0.792748 0.922296 0.679296
O O17 0.042173 0.274385 0.125711
O O18 0.500000 0.500000 0.500000
#
# Coordination Sequence:
#
# PCOD8033932 Si02
#       8
#     2   2   2   2   2   2   2   2
#     4  11  25  47  72 100 135 175 233 285 342 406
#     4  12  27  47  73 101 138 183 230 290 348 410
#     4  12  25  44  70 100 145 185 229 278 345 415
#     4  12  27  45  69 105 143 182 230 285 346 413
#     4  11  25  42  70 101 138 183 225 281 341 402
#     4  12  26  45  70 102 139 188 229 283 345 410
#     4  11  26  43  70 103 135 179 227 286 341 407
#     4  11  24  43  65 100 139 180 228 276 333 407
#
# _framework density 22.056004000000001
#
# number of rings (size 3 to 8) (size 9 to 14) (size 15 to 20)
#    0.000    0.500    2.500    4.875    5.250    8.000 
#    0.000    0.000    0.000    0.000    0.000    0.000 
#    0.000    0.000    0.000    0.000    0.000    0.000 
#
# Total GULP energy -198371.412360 kJ/mol
# GULP energy per Si atom -12398.213272 kJ/mol
# Density = 2.200580 g / cm^3
# Si number density = 22.056004 Si / 1000 Ang^3
#
#
#
# Elastic Constant Matrix: (Units=GPa)
#
#
# Indices 1 2 3 4 5 6 
#
# 1 111.5281 49.8626 20.7498 12.4234 -8.1061 14.4868
# 2 49.8626 144.1245 36.1383 14.0108 1.6008 19.2607
# 3 20.7498 36.1383 98.2717 7.5721 -11.1775 3.4655
# 4 12.4234 14.0108 7.5721 35.4316 6.0626 -5.0575
# 5 -8.1061 1.6008 -11.1775 6.0626 35.6314 -2.8185
# 6 14.4868 19.2607 3.4655 -5.0575 -2.8185 47.0204
#
#
#
# Elastic Compliance Matrix: (Units=1/GPa)
#
#
# Indices 1 2 3 4 5 6 
#
# 1 0.011402 -0.003188 -0.000547 -0.003465 0.002968 -0.002361
# 2 -0.003188 0.009345 -0.002709 -0.002104 -0.001873 -0.002985
# 3 -0.000547 -0.002709 0.011884 -0.001913 0.004086 0.000442
# 4 -0.003465 -0.002104 -0.001913 0.032517 -0.006417 0.005183
# 5 0.002968 -0.001873 0.004086 -0.006417 0.031256 0.000735
# 6 -0.002361 -0.002985 0.000442 0.005183 0.000735 0.023787
#
#
# Mechanical properties :
#
#
# Convention : Reuss Voigt Hill
#
# Bulk Modulus (GPa) = 50.65226 63.04731 56.84978
# Shear Modulus (GPa) = 35.80125 40.09492 37.94808
#
# Velocity S-wave (km/s) = 4.03326 4.26827 4.15243
# Velocity P-wave (km/s) = 6.68616 7.27585 6.98723
#
# Compressibility (1/GPa) = 0.01974246
#
# Stress axis : x y z
#
# Youngs Moduli (GPa) = 87.70411 107.01048 84.14588
#
# Poissons Ratio (x) = 0.34115 0.04605
# Poissons Ratio (y) = 0.27960 0.22795
# Poissons Ratio (z) = 0.04799 0.28989
#
# Static dielectric constant tensor:
#      x y z
#    x 3.529730 -0.249100 -0.601060 
#    y -0.249100 3.733730 -0.508750 
#    z -0.601060 -0.508750 3.087560 
# 
# 
# High freq. dielectric constant tensor:
#      x y z
#    x 1.869520 0.013780 -0.005460 
#    y 0.013780 1.885970 0.003900 
#    z -0.005460 0.003900 1.884550 
# 
# From -- ./inp_files/333284.got.cif
#   From: 2010.06.25/outbox.cif.g09.slc.cpg/sg2_167_cif.got.tgz:333284.got - 2010.06.27 13:26:56.
