data_PCOD8033136
_publ_section_title
;
Structure prediction by ZEFSAII (Michael W. Deem and Ramdas Pophale) SiO2 
 PCOD8033136
Probable space group: P -1
;
_chemical_formula_sum "Si O2"
_cell_formula_units_Z 16
_cell_length_a 11.704920
_cell_length_b 9.018183
_cell_length_c 9.062945
_cell_angle_alpha 52.494338
_cell_angle_beta 84.492358
_cell_angle_gamma 69.816892
_cell_volume 703.898607
_symmetry_space_group_name_H-M "P -1"
_symmetry_group_IT_number 2
_symmetry_cell_setting 'triclinic'
loop_
_space_group_symop_operation_xyz
x,y,z
-x,-y,-z
loop_
_atom_site_type_symbol
_atom_site_label
_atom_site_fract_x
_atom_site_fract_y
_atom_site_fract_z
Si Si1 0.644624 0.025596 0.462199
Si Si2 0.556160 0.295649 0.038617
Si Si3 0.578892 0.722519 0.493878
Si Si4 0.159620 0.123984 0.054350
Si Si5 0.394085 0.207497 0.886175
Si Si6 0.745646 0.316397 0.799684
Si Si7 0.915359 0.870014 0.612597
Si Si8 0.031399 0.540040 0.307260
O O1 0.575267 0.121125 0.260338
O O2 0.567998 0.151949 0.536930
O O3 0.644556 0.801477 0.571876
O O4 0.784346 0.007866 0.475525
O O5 0.500000 0.500000 0.000000
O O6 0.451344 0.334639 0.902571
O O7 0.696643 0.247276 0.996088
O O8 0.630232 0.733230 0.317417
O O9 0.618362 0.481779 0.651409
O O10 0.095757 0.179949 0.185855
O O11 0.194667 0.884292 0.181904
O O12 0.275272 0.193167 0.989283
O O13 0.065786 0.248991 0.865284
O O14 0.500000 0.000000 0.000000
O O15 0.837884 0.434324 0.737339
O O16 0.973095 0.650990 0.665725
O O17 0.000000 0.000000 0.500000
O O18 0.000000 0.500000 0.500000
#
# Coordination Sequence:
#
# PCOD8033136 Si02
#       8
#     2   2   2   2   2   2   2   2
#     4  11  24  44  74 105 148 190 241 300 369 432
#     4  12  27  43  71 112 145 192 233 299 365 444
#     4  11  23  44  76 108 145 192 239 302 365 441
#     4  12  28  48  74 107 148 191 244 306 361 435
#     4  12  24  46  72 105 150 185 240 297 369 427
#     4  12  25  45  76 107 143 191 246 295 371 431
#     4  12  29  50  74 107 146 193 249 301 365 434
#     4  12  28  51  77 103 142 196 250 304 363 433
#
# _framework density 22.730547999999999
#
# number of rings (size 3 to 8) (size 9 to 14) (size 15 to 20)
#    0.000    0.250    5.000    3.000    7.000    2.500 
#    0.000    0.000    0.000    0.000    0.000    0.000 
#    0.000    0.000    0.000    0.000    0.000    0.000 
#
# Total GULP energy -198235.273195 kJ/mol
# GULP energy per Si atom -12389.704575 kJ/mol
# Density = 2.267881 g / cm^3
# Si number density = 22.730548 Si / 1000 Ang^3
#
#
#
# Elastic Constant Matrix: (Units=GPa)
#
#
# Indices 1 2 3 4 5 6 
#
# 1 140.9617 36.6599 34.0321 4.4240 -17.0542 -3.8578
# 2 36.6599 165.9863 51.0692 -3.4686 -3.2192 9.0645
# 3 34.0321 51.0692 117.8599 9.1684 -5.8200 -2.2351
# 4 4.4240 -3.4686 9.1684 43.0073 -9.2036 -0.7037
# 5 -17.0542 -3.2192 -5.8200 -9.2036 41.4034 -0.3123
# 6 -3.8578 9.0645 -2.2351 -0.7037 -0.3123 33.4737
#
#
#
# Elastic Compliance Matrix: (Units=1/GPa)
#
#
# Indices 1 2 3 4 5 6 
#
# 1 0.008237 -0.001322 -0.001636 0.000075 0.003086 0.001228
# 2 -0.001322 0.007381 -0.002968 0.001301 -0.000116 -0.002323
# 3 -0.001636 -0.002968 0.010446 -0.002262 0.000070 0.001266
# 4 0.000075 0.001301 -0.002262 0.024981 0.005368 0.000081
# 5 0.003086 -0.000116 0.000070 0.005368 0.026624 0.000753
# 6 0.001228 -0.002323 0.001266 0.000081 0.000753 0.030738
#
#
# Mechanical properties :
#
#
# Convention : Reuss Voigt Hill
#
# Bulk Modulus (GPa) = 70.35105 74.25893 72.30499
# Shear Modulus (GPa) = 40.00075 43.77998 41.89036
#
# Velocity S-wave (km/s) = 4.19952 4.39343 4.29757
# Velocity P-wave (km/s) = 7.38457 7.64699 7.51692
#
# Compressibility (1/GPa) = 0.01421443
#
# Stress axis : x y z
#
# Youngs Moduli (GPa) = 121.39628 135.47594 95.72595
#
# Poissons Ratio (x) = 0.17905 0.15662
# Poissons Ratio (y) = 0.16044 0.28409
# Poissons Ratio (z) = 0.19861 0.40206
#
# Static dielectric constant tensor:
#      x y z
#    x 3.965980 -0.133820 -0.177690 
#    y -0.133820 4.469480 -0.115540 
#    z -0.177690 -0.115540 3.894290 
# 
# 
# High freq. dielectric constant tensor:
#      x y z
#    x 1.896430 -0.005730 -0.012480 
#    y -0.005730 1.915500 -0.001540 
#    z -0.012480 -0.001540 1.904210 
# 
# From -- ./inp_files/242554.got.cif
#   From: 2010.06.25/outbox.cif.g09.slc.cpg/sg2_122_cif.got.tgz:242554.got - 2010.06.27 13:26:56.
