data_PCOD8033917
_publ_section_title
;
Structure prediction by ZEFSAII (Michael W. Deem and Ramdas Pophale) SiO2 
 PCOD8033917
Probable space group: P -1
;
_chemical_formula_sum "Si O2"
_cell_formula_units_Z 16
_cell_length_a 13.708923
_cell_length_b 22.275464
_cell_length_c 5.920870
_cell_angle_alpha 121.311825
_cell_angle_beta 100.731473
_cell_angle_gamma 33.447689
_cell_volume 724.418468
_symmetry_space_group_name_H-M "P -1"
_symmetry_group_IT_number 2
_symmetry_cell_setting 'triclinic'
loop_
_space_group_symop_operation_xyz
x,y,z
-x,-y,-z
loop_
_atom_site_type_symbol
_atom_site_label
_atom_site_fract_x
_atom_site_fract_y
_atom_site_fract_z
Si Si1 0.251146 0.092537 0.914981
Si Si2 0.154895 0.719421 0.777970
Si Si3 0.405672 0.142294 0.055121
Si Si4 0.470418 0.301208 0.679055
Si Si5 0.886512 0.570284 0.338495
Si Si6 0.581518 0.132493 0.759518
Si Si7 0.495513 0.559628 0.922047
Si Si8 0.129313 0.988993 0.998018
O O1 0.365528 0.018993 0.064951
O O2 0.335227 0.974129 0.590072
O O3 0.303421 0.134175 0.898661
O O4 0.002645 0.240598 0.112346
O O5 0.272533 0.692304 0.963994
O O6 0.317729 0.571419 0.422995
O O7 0.025709 0.853912 0.837118
O O8 0.253370 0.271616 0.429451
O O9 0.421255 0.191215 0.964550
O O10 0.264166 0.404537 0.659988
O O11 0.457251 0.274137 0.868464
O O12 0.681149 0.140588 0.344723
O O13 0.477116 0.380731 0.843986
O O14 0.000000 0.500000 0.500000
O O15 0.000000 0.500000 0.000000
O O16 0.780560 0.042389 0.787392
O O17 0.500000 0.500000 0.000000
O O18 0.000000 0.000000 0.000000
#
# Coordination Sequence:
#
# PCOD8033917 Si02
#       8
#     2   2   2   2   2   2   2   2
#     4  11  24  42  74  98 141 180 243 301 365 434
#     4  11  24  48  64 108 136 184 243 299 361 454
#     4  11  24  46  67 106 138 186 239 306 366 434
#     4  12  26  47  72 107 141 192 244 312 364 447
#     4  12  27  48  74 107 151 199 253 303 378 460
#     4  12  21  45  73 102 145 180 244 309 369 434
#     4  11  28  46  70  97 149 187 238 297 378 445
#     4  12  25  42  76 104 137 183 249 302 372 430
#
# _framework density 22.086683000000001
#
# number of rings (size 3 to 8) (size 9 to 14) (size 15 to 20)
#    0.000    0.500    5.000    2.625    5.250    3.000 
#    0.000    0.000    0.000    0.000    0.000    0.000 
#    0.000    0.000    0.000    0.000    0.000    0.000 
#
# Total GULP energy -198320.159263 kJ/mol
# GULP energy per Si atom -12395.009954 kJ/mol
# Density = 2.203641 g / cm^3
# Si number density = 22.086683 Si / 1000 Ang^3
#
#
#
# Elastic Constant Matrix: (Units=GPa)
#
#
# Indices 1 2 3 4 5 6 
#
# 1 184.6340 64.2061 43.2476 -2.9557 12.1706 -18.1094
# 2 64.2061 125.7985 38.7962 -4.8049 4.4659 -19.8211
# 3 43.2476 38.7962 60.4750 3.4015 -5.3024 -7.6264
# 4 -2.9557 -4.8049 3.4015 32.9281 -2.4930 -3.1143
# 5 12.1706 4.4659 -5.3024 -2.4930 42.8599 -0.6254
# 6 -18.1094 -19.8211 -7.6264 -3.1143 -0.6254 41.8379
#
#
#
# Elastic Compliance Matrix: (Units=1/GPa)
#
#
# Indices 1 2 3 4 5 6 
#
# 1 0.007420 -0.002238 -0.003929 0.000709 -0.002297 0.001454
# 2 -0.002238 0.011497 -0.005542 0.002312 -0.001061 0.003624
# 3 -0.003929 -0.005542 0.023441 -0.003271 0.004399 -0.000231
# 4 0.000709 0.002312 -0.003271 0.031485 0.001031 0.003165
# 5 -0.002297 -0.001061 0.004399 0.001031 0.024695 -0.000249
# 6 0.001454 0.003624 -0.000231 0.003165 -0.000249 0.026438
#
#
# Mechanical properties :
#
#
# Convention : Reuss Voigt Hill
#
# Bulk Modulus (GPa) = 52.79151 73.71190 63.25171
# Shear Modulus (GPa) = 32.31920 38.50237 35.41079
#
# Velocity S-wave (km/s) = 3.82945 4.17974 4.00842
# Velocity P-wave (km/s) = 6.59596 7.53260 7.07979
#
# Compressibility (1/GPa) = 0.01894244
#
# Stress axis : x y z
#
# Youngs Moduli (GPa) = 134.77307 86.97624 42.66045
#
# Poissons Ratio (x) = 0.19463 0.16760
# Poissons Ratio (y) = 0.30159 0.23640
# Poissons Ratio (z) = 0.52947 0.48198
#
# Static dielectric constant tensor:
#      x y z
#    x 4.046120 -0.421050 -0.117910 
#    y -0.421050 4.007640 -0.163850 
#    z -0.117910 -0.163850 4.095510 
# 
# 
# High freq. dielectric constant tensor:
#      x y z
#    x 1.887140 -0.012650 0.001920 
#    y -0.012650 1.872350 0.001990 
#    z 0.001920 0.001990 1.870810 
# 
# From -- ./inp_files/101299.got.cif
#   From: 2010.06.25/outbox.cif.g09.slc.cpg/sg2_51_cif.got.tgz:101299.got - 2010.06.27 13:26:56.
