data_PCOD8033635
_publ_section_title
;
Structure prediction by ZEFSAII (Michael W. Deem and Ramdas Pophale) SiO2 
 PCOD8033635
Probable space group: P -1
;
_chemical_formula_sum "Si O2"
_cell_formula_units_Z 16
_cell_length_a 8.501189
_cell_length_b 29.480612
_cell_length_c 10.283808
_cell_angle_alpha 30.847460
_cell_angle_beta 57.032012
_cell_angle_gamma 36.009145
_cell_volume 673.466381
_symmetry_space_group_name_H-M "P -1"
_symmetry_group_IT_number 2
_symmetry_cell_setting 'triclinic'
loop_
_space_group_symop_operation_xyz
x,y,z
-x,-y,-z
loop_
_atom_site_type_symbol
_atom_site_label
_atom_site_fract_x
_atom_site_fract_y
_atom_site_fract_z
Si Si1 0.290370 0.203892 0.685564
Si Si2 0.585050 0.493065 0.331559
Si Si3 0.085244 0.799958 0.698618
Si Si4 0.364903 0.481168 0.211105
Si Si5 0.308430 0.801327 0.351747
Si Si6 0.850901 0.074094 0.147739
Si Si7 0.384649 0.977896 0.263870
Si Si8 0.716132 0.777585 0.845099
O O1 0.522282 0.195587 0.634693
O O2 0.949596 0.369390 0.454840
O O3 0.350414 0.149709 0.644056
O O4 0.362177 0.091544 0.018338
O O5 0.500000 0.500000 0.500000
O O6 0.481015 0.457175 0.364277
O O7 0.411371 0.649754 0.986327
O O8 0.112413 0.806440 0.514772
O O9 0.841994 0.810860 0.796708
O O10 0.971530 0.932702 0.488663
O O11 0.450290 0.348829 0.467053
O O12 0.500000 0.500000 0.000000
O O13 0.993845 0.624023 0.025760
O O14 0.100880 0.930719 0.018620
O O15 0.482476 0.216104 0.992486
O O16 0.042149 0.076844 0.129718
O O17 0.465877 0.904897 0.542274
#
# Coordination Sequence:
#
# PCOD8033635 Si02
#       8
#     2   2   2   2   2   2   2   2
#     4  11  26  44  72 104 141 192 239 295 364 423
#     4  11  26  46  75 107 149 187 240 303 362 419
#     4  11  25  46  74 104 144 192 234 297 358 444
#     4  11  23  49  76 104 142 198 240 288 360 439
#     4  12  25  46  75 103 143 189 250 286 354 445
#     4  12  26  44  70 108 143 183 244 300 364 420
#     4  11  25  45  71 102 146 188 243 299 359 431
#     4  11  25  43  74 100 147 187 233 296 372 425
#
# _framework density 23.757681000000002
#
# number of rings (size 3 to 8) (size 9 to 14) (size 15 to 20)
#    0.000    0.750    3.750    3.375    8.750    2.000 
#    4.500    0.000    0.000    0.000    0.000    0.000 
#    0.000    0.000    0.000    0.000    0.000    0.000 
#
# Total GULP energy -198425.122072 kJ/mol
# GULP energy per Si atom -12401.570130 kJ/mol
# Density = 2.370361 g / cm^3
# Si number density = 23.757681 Si / 1000 Ang^3
#
#
#
# Elastic Constant Matrix: (Units=GPa)
#
#
# Indices 1 2 3 4 5 6 
#
# 1 69.9226 20.9510 12.5703 -0.4112 0.1496 -2.1748
# 2 20.9510 114.0110 28.9162 -4.3831 9.0718 -19.3656
# 3 12.5703 28.9162 94.0316 0.9688 11.7585 -0.2817
# 4 -0.4112 -4.3831 0.9688 38.4206 5.4230 3.0656
# 5 0.1496 9.0718 11.7585 5.4230 37.4169 -7.1098
# 6 -2.1748 -19.3656 -0.2817 3.0656 -7.1098 44.9059
#
#
#
# Elastic Compliance Matrix: (Units=1/GPa)
#
#
# Indices 1 2 3 4 5 6 
#
# 1 0.015314 -0.002589 -0.001373 -0.000220 0.000990 -0.000212
# 2 -0.002589 0.010823 -0.002848 0.001087 -0.001063 0.004282
# 3 -0.001373 -0.002848 0.012120 -0.000018 -0.003445 -0.001763
# 4 -0.000220 0.001087 -0.000018 0.026962 -0.004565 -0.002105
# 5 0.000990 -0.001063 -0.003445 -0.004565 0.029591 0.004565
# 6 -0.000212 0.004282 -0.001763 -0.002105 0.004565 0.024960
#
#
# Mechanical properties :
#
#
# Convention : Reuss Voigt Hill
#
# Bulk Modulus (GPa) = 40.58933 44.76001 42.67467
# Shear Modulus (GPa) = 35.31026 38.51719 36.91373
#
# Velocity S-wave (km/s) = 3.85940 4.03085 3.94605
# Velocity P-wave (km/s) = 6.08126 6.36748 6.22601
#
# Compressibility (1/GPa) = 0.02463701
#
# Stress axis : x y z
#
# Youngs Moduli (GPa) = 65.29907 92.39860 82.51068
#
# Poissons Ratio (x) = 0.23923 0.11330
# Poissons Ratio (y) = 0.16906 0.23495
# Poissons Ratio (z) = 0.08967 0.26311
#
# Static dielectric constant tensor:
#      x y z
#    x 4.011040 -0.047170 -0.053030 
#    y -0.047170 4.471000 -0.118850 
#    z -0.053030 -0.118850 4.417410 
# 
# 
# High freq. dielectric constant tensor:
#      x y z
#    x 1.928180 -0.001830 -0.001290 
#    y -0.001830 1.957030 -0.006670 
#    z -0.001290 -0.006670 1.947620 
# 
# From -- ./inp_files/227701.got.cif
#   From: 2010.06.25/outbox.cif.g09.slc.cpg/sg2_114_cif.got.tgz:227701.got - 2010.06.27 13:26:56.
