data_PCOD8033323
_publ_section_title
;
Structure prediction by ZEFSAII (Michael W. Deem and Ramdas Pophale) SiO2 
 PCOD8033323
Probable space group: P -1
;
_chemical_formula_sum "Si O2"
_cell_formula_units_Z 16
_cell_length_a 18.746701
_cell_length_b 9.378181
_cell_length_c 11.264536
_cell_angle_alpha 99.757387
_cell_angle_beta 54.771561
_cell_angle_gamma 144.137291
_cell_volume 741.546504
_symmetry_space_group_name_H-M "P -1"
_symmetry_group_IT_number 2
_symmetry_cell_setting 'triclinic'
loop_
_space_group_symop_operation_xyz
x,y,z
-x,-y,-z
loop_
_atom_site_type_symbol
_atom_site_label
_atom_site_fract_x
_atom_site_fract_y
_atom_site_fract_z
Si Si1 0.890003 0.979942 0.563130
Si Si2 0.036733 0.219548 0.024396
Si Si3 0.553904 0.103191 0.327638
Si Si4 0.605991 0.866694 0.660074
Si Si5 0.727867 0.014713 0.829679
Si Si6 0.630852 0.712890 0.289147
Si Si7 0.999607 0.675063 0.696447
Si Si8 0.485839 0.701067 0.242795
O O1 0.720077 0.670733 0.602501
O O2 0.814251 0.978335 0.737456
O O3 0.026769 0.283322 0.398012
O O4 0.000000 0.000000 0.500000
O O5 0.070547 0.305948 0.141933
O O6 0.853186 0.040454 0.140265
O O7 0.223093 0.544738 0.825171
O O8 0.000000 0.000000 0.000000
O O9 0.443331 0.069006 0.364048
O O10 0.500000 0.000000 0.500000
O O11 0.491195 0.880766 0.271472
O O12 0.425189 0.497035 0.777740
O O13 0.648770 0.956338 0.770814
O O14 0.783377 0.049713 0.453151
O O15 0.882387 0.356040 0.772099
O O16 0.566899 0.770705 0.048127
O O17 0.500000 0.500000 0.500000
O O18 0.596425 0.813095 0.269819
#
# Coordination Sequence:
#
# PCOD8033323 Si02
#       8
#     2   2   2   2   2   2   2   2
#     4  11  25  42  70 104 143 179 229 294 350 425
#     4  12  26  45  72 103 134 186 243 289 348 424
#     4  12  29  46  68 108 140 183 244 301 349 411
#     4  11  23  45  74  97 143 192 224 289 359 431
#     4  11  25  47  70 106 141 188 238 280 368 424
#     4  12  23  45  74  97 140 191 233 286 358 426
#     4  11  24  47  72 100 140 191 236 283 360 434
#     4  12  26  45  69 106 141 181 236 299 351 424
#
# _framework density 21.576530000000002
#
# number of rings (size 3 to 8) (size 9 to 14) (size 15 to 20)
#    0.000    0.500    6.250    2.625    5.250    4.000 
#    0.000    0.000    0.000    0.000    0.000    0.000 
#    0.000    0.000    0.000    0.000    0.000    0.000 
#
# Total GULP energy -198328.076598 kJ/mol
# GULP energy per Si atom -12395.504787 kJ/mol
# Density = 2.152742 g / cm^3
# Si number density = 21.576530 Si / 1000 Ang^3
#
#
#
# Elastic Constant Matrix: (Units=GPa)
#
#
# Indices 1 2 3 4 5 6 
#
# 1 142.4807 11.6236 52.0062 7.4561 -9.5387 -6.1714
# 2 11.6236 115.6354 31.3258 7.6781 -4.9126 -13.4413
# 3 52.0062 31.3258 123.1815 6.0071 9.0391 6.8118
# 4 7.4561 7.6781 6.0071 39.8221 -2.6773 0.2574
# 5 -9.5387 -4.9126 9.0391 -2.6773 28.0872 3.9774
# 6 -6.1714 -13.4413 6.8118 0.2574 3.9774 35.1364
#
#
#
# Elastic Compliance Matrix: (Units=1/GPa)
#
#
# Indices 1 2 3 4 5 6 
#
# 1 0.008978 0.000784 -0.004378 -0.000905 0.004189 0.002258
# 2 0.000784 0.010161 -0.003257 -0.001487 0.002326 0.004404
# 3 -0.004378 -0.003257 0.011412 -0.000605 -0.005273 -0.003626
# 4 -0.000905 -0.001487 -0.000605 0.025816 0.002237 -0.001053
# 5 0.004189 0.002326 -0.005273 0.002237 0.039605 -0.001852
# 6 0.002258 0.004404 -0.003626 -0.001053 -0.001852 0.031462
#
#
# Mechanical properties :
#
#
# Convention : Reuss Voigt Hill
#
# Bulk Modulus (GPa) = 59.35011 63.46763 61.40887
# Shear Modulus (GPa) = 34.07117 39.69861 36.88489
#
# Velocity S-wave (km/s) = 3.97808 4.29406 4.13909
# Velocity P-wave (km/s) = 6.97615 7.35284 7.16697
#
# Compressibility (1/GPa) = 0.01684917
#
# Stress axis : x y z
#
# Youngs Moduli (GPa) = 111.38171 98.41849 87.63017
#
# Poissons Ratio (x) = -0.07716 0.38365
# Poissons Ratio (y) = -0.08733 0.28538
# Poissons Ratio (z) = 0.48763 0.32051
#
# Static dielectric constant tensor:
#      x y z
#    x 3.893610 -0.058370 -0.066170 
#    y -0.058370 4.143540 -0.047600 
#    z -0.066170 -0.047600 4.043650 
# 
# 
# High freq. dielectric constant tensor:
#      x y z
#    x 1.842020 -0.007470 0.001120 
#    y -0.007470 1.867600 -0.000180 
#    z 0.001120 -0.000180 1.849650 
# 
# From -- ./inp_files/207987.got.cif
#   From: 2010.06.25/outbox.cif.g09.slc.cpg/sg2_104_cif.got.tgz:207987.got - 2010.06.27 13:26:56.
