data_PCOD8033088
_publ_section_title
;
Structure prediction by ZEFSAII (Michael W. Deem and Ramdas Pophale) SiO2 
 PCOD8033088
Probable space group: P -1
;
_chemical_formula_sum "Si O2"
_cell_formula_units_Z 14
_cell_length_a 15.704010
_cell_length_b 9.171406
_cell_length_c 12.576497
_cell_angle_alpha 48.257733
_cell_angle_beta 149.825836
_cell_angle_gamma 116.663428
_cell_volume 639.308932
_symmetry_space_group_name_H-M "P -1"
_symmetry_group_IT_number 2
_symmetry_cell_setting 'triclinic'
loop_
_space_group_symop_operation_xyz
x,y,z
-x,-y,-z
loop_
_atom_site_type_symbol
_atom_site_label
_atom_site_fract_x
_atom_site_fract_y
_atom_site_fract_z
Si Si1 0.019940 0.278291 0.177591
Si Si2 0.757795 0.482248 0.146191
Si Si3 0.641146 0.388040 0.417831
Si Si4 0.268964 0.862202 0.566832
Si Si5 0.356247 0.128745 0.021628
Si Si6 0.121581 0.327781 0.493447
Si Si7 0.646107 0.297293 0.710128
O O1 0.121755 0.239712 0.418715
O O2 0.135575 0.097318 0.312343
O O3 0.000000 0.500000 0.000000
O O4 0.824862 0.260436 0.989706
O O5 0.808201 0.294582 0.377064
O O6 0.916136 0.444520 0.249834
O O7 0.573509 0.496231 0.880426
O O8 0.744954 0.694680 0.088388
O O9 0.702566 0.190405 0.501892
O O10 0.757119 0.527337 0.439826
O O11 0.689441 0.318592 0.623849
O O12 0.462381 0.836912 0.839559
O O13 0.416195 0.901379 0.249011
O O14 0.221920 0.138672 0.773093
O O15 0.500000 0.500000 0.500000
#
# Coordination Sequence:
#
# PCOD8033088 Si02
#       7
#     2   2   2   2   2   2   2
#     4  12  27  44  65 103 141 180 235 279 345 415
#     4  11  23  44  73 109 134 176 243 286 332 420
#     4  11  24  46  74 101 140 183 229 284 355 398
#     4  11  24  45  72 104 140 178 234 291 334 421
#     4  11  24  44  73 102 138 181 232 287 347 403
#     4  12  24  44  76 100 138 188 228 284 349 406
#     4  12  27  46  68 102 143 183 229 289 346 413
#
# _framework density 21.898647
#
# number of rings (size 3 to 8) (size 9 to 14) (size 15 to 20)
#    0.000    0.571    4.286    3.857    2.000    8.000 
#    0.000    0.000    0.000    0.000    0.000    0.000 
#    0.000    0.000    0.000    0.000    0.000    0.000 
#
# Total GULP energy -173659.759801 kJ/mol
# GULP energy per Si atom -12404.268557 kJ/mol
# Density = 2.184880 g / cm^3
# Si number density = 21.898647 Si / 1000 Ang^3
#
#
#
# Elastic Constant Matrix: (Units=GPa)
#
#
# Indices 1 2 3 4 5 6 
#
# 1 106.2186 47.6082 45.4072 -4.0392 13.0691 -4.1016
# 2 47.6082 115.2256 45.4791 -15.7618 8.7342 -3.2198
# 3 45.4072 45.4791 101.8708 5.6199 15.4068 -12.9718
# 4 -4.0392 -15.7618 5.6199 48.7135 2.1049 3.9495
# 5 13.0691 8.7342 15.4068 2.1049 40.9816 -2.1019
# 6 -4.1016 -3.2198 -12.9718 3.9495 -2.1019 34.7607
#
#
#
# Elastic Compliance Matrix: (Units=1/GPa)
#
#
# Indices 1 2 3 4 5 6 
#
# 1 0.012956 -0.003587 -0.003968 0.000492 -0.001924 -0.000456
# 2 -0.003587 0.012447 -0.004351 0.004353 -0.000169 -0.001399
# 3 -0.003968 -0.004351 0.014799 -0.003714 -0.002929 0.004896
# 4 0.000492 0.004353 -0.003714 0.022740 -0.001039 -0.003572
# 5 -0.001924 -0.000169 -0.002929 -0.001039 0.026224 0.000368
# 6 -0.000456 -0.001399 0.004896 -0.003572 0.000368 0.030840
#
#
# Mechanical properties :
#
#
# Convention : Reuss Voigt Hill
#
# Bulk Modulus (GPa) = 61.00941 66.70046 63.85494
# Shear Modulus (GPa) = 33.49393 37.21252 35.35323
#
# Velocity S-wave (km/s) = 3.91512 4.12674 4.02232
# Velocity P-wave (km/s) = 6.95399 7.29599 7.12704
#
# Compressibility (1/GPa) = 0.01639091
#
# Stress axis : x y z
#
# Youngs Moduli (GPa) = 77.18292 80.34160 67.57327
#
# Poissons Ratio (x) = 0.28816 0.26813
# Poissons Ratio (y) = 0.27683 0.29400
# Poissons Ratio (z) = 0.30627 0.34955
#
# Static dielectric constant tensor:
#      x y z
#    x 3.882110 0.055180 0.035780 
#    y 0.055180 4.197490 -0.006640 
#    z 0.035780 -0.006640 4.125910 
# 
# 
# High freq. dielectric constant tensor:
#      x y z
#    x 1.862250 0.002960 0.007340 
#    y 0.002960 1.867740 0.010270 
#    z 0.007340 0.010270 1.867840 
# 
# From -- ./inp_files/156937.got.cif
#   From: 2010.06.25/outbox.cif.g09.slc.cpg/sg2_79_cif.got.tgz:156937.got - 2010.06.27 13:26:56.
