data_PCOD8033230
_publ_section_title
;
Structure prediction by ZEFSAII (Michael W. Deem and Ramdas Pophale) SiO2 
 PCOD8033230
Probable space group: P -1
;
_chemical_formula_sum "Si O2"
_cell_formula_units_Z 16
_cell_length_a 6.694374
_cell_length_b 23.920989
_cell_length_c 21.671656
_cell_angle_alpha 161.217817
_cell_angle_beta 46.953069
_cell_angle_gamma 123.353949
_cell_volume 744.832303
_symmetry_space_group_name_H-M "P -1"
_symmetry_group_IT_number 2
_symmetry_cell_setting 'triclinic'
loop_
_space_group_symop_operation_xyz
x,y,z
-x,-y,-z
loop_
_atom_site_type_symbol
_atom_site_label
_atom_site_fract_x
_atom_site_fract_y
_atom_site_fract_z
Si Si1 0.420375 0.103086 0.190677
Si Si2 0.660927 0.030660 0.605150
Si Si3 0.179503 0.590633 0.321153
Si Si4 0.172759 0.343878 0.961109
Si Si5 0.600602 0.274204 0.983004
Si Si6 0.311554 0.377621 0.837270
Si Si7 0.343729 0.240570 0.124606
Si Si8 0.671366 0.407052 0.428109
O O1 0.541750 0.267468 0.341038
O O2 0.065296 0.207441 0.391187
O O3 0.500000 0.000000 0.000000
O O4 0.572074 0.940562 0.038784
O O5 0.472585 0.165839 0.731370
O O6 0.608328 0.842883 0.416258
O O7 0.545927 0.127927 0.796554
O O8 0.000000 0.000000 0.500000
O O9 0.343225 0.480625 0.233863
O O10 0.425615 0.593927 0.224264
O O11 0.028520 0.481980 0.195260
O O12 0.279005 0.437974 0.979738
O O13 0.927948 0.275839 0.912795
O O14 0.571675 0.196014 0.974088
O O15 0.000000 0.500000 0.000000
O O16 0.360963 0.422809 0.342609
O O17 0.017574 0.284993 0.212230
O O18 0.500000 0.500000 0.500000
#
# Coordination Sequence:
#
# PCOD8033230 Si02
#       8
#     2   2   2   2   2   2   2   2
#     4  12  26  47  72 104 143 182 237 291 352 419
#     4  11  24  42  66  96 135 182 227 280 339 416
#     4  11  26  44  67 103 141 180 233 292 341 418
#     4  11  23  45  70  94 142 185 224 287 347 407
#     4  11  24  45  67  99 139 181 233 277 350 408
#     4  12  23  44  69 102 137 183 228 283 345 408
#     4  11  26  43  74 101 134 188 231 287 353 416
#     4  11  23  48  72  98 138 179 231 294 351 408
#
# _framework density 21.481342999999999
#
# number of rings (size 3 to 8) (size 9 to 14) (size 15 to 20)
#    0.000    0.750    3.750    3.375    3.500    3.000 
#    4.500    0.000    0.000    0.000    0.000    0.000 
#    0.000    0.000    0.000    0.000    0.000    0.000 
#
# Total GULP energy -198331.432642 kJ/mol
# GULP energy per Si atom -12395.714540 kJ/mol
# Density = 2.143245 g / cm^3
# Si number density = 21.481343 Si / 1000 Ang^3
#
#
#
# Elastic Constant Matrix: (Units=GPa)
#
#
# Indices 1 2 3 4 5 6 
#
# 1 114.1882 41.7548 41.6796 -0.5809 -18.7549 -20.1578
# 2 41.7548 134.8479 36.3262 3.7083 -9.2314 -20.2906
# 3 41.6796 36.3262 112.5979 -1.2928 -18.3521 -15.3056
# 4 -0.5809 3.7083 -1.2928 38.9589 0.1810 -2.4074
# 5 -18.7549 -9.2314 -18.3521 0.1810 32.3121 3.8920
# 6 -20.1578 -20.2906 -15.3056 -2.4074 3.8920 39.2976
#
#
#
# Elastic Compliance Matrix: (Units=1/GPa)
#
#
# Indices 1 2 3 4 5 6 
#
# 1 0.011804 -0.002167 -0.002462 0.000501 0.004401 0.003572
# 2 -0.002167 0.008996 -0.001727 -0.000772 -0.000003 0.002814
# 3 -0.002462 -0.001727 0.011306 0.000598 0.004271 0.001862
# 4 0.000501 -0.000772 0.000598 0.025872 0.000064 0.001670
# 5 0.004401 -0.000003 0.004271 0.000064 0.035883 0.000370
# 6 0.003572 0.002814 0.001862 0.001670 0.000370 0.029523
#
#
# Mechanical properties :
#
#
# Convention : Reuss Voigt Hill
#
# Bulk Modulus (GPa) = 51.55987 66.79505 59.17746
# Shear Modulus (GPa) = 35.07256 38.23860 36.65558
#
# Velocity S-wave (km/s) = 4.04505 4.22368 4.13533
# Velocity P-wave (km/s) = 6.77280 7.41269 7.09996
#
# Compressibility (1/GPa) = 0.01939493
#
# Stress axis : x y z
#
# Youngs Moduli (GPa) = 84.71359 111.15488 88.44982
#
# Poissons Ratio (x) = 0.24087 0.21775
# Poissons Ratio (y) = 0.18357 0.15277
# Poissons Ratio (z) = 0.20855 0.19198
#
# Static dielectric constant tensor:
#      x y z
#    x 4.082490 0.076930 0.098940 
#    y 0.076930 4.046420 0.119000 
#    z 0.098940 0.119000 4.186140 
# 
# 
# High freq. dielectric constant tensor:
#      x y z
#    x 1.858740 -0.006390 -0.001810 
#    y -0.006390 1.849950 -0.000550 
#    z -0.001810 -0.000550 1.847710 
# 
# From -- ./inp_files/38254.got.cif
#   From: 2010.06.25/outbox.cif.g09.slc.cpg/sg2_20_cif.got.tgz:38254.got - 2010.06.27 13:26:56.
