data_PCOD8033977
_publ_section_title
;
Structure prediction by ZEFSAII (Michael W. Deem and Ramdas Pophale) SiO2 
 PCOD8033977
Probable space group: P -1
;
_chemical_formula_sum "Si O2"
_cell_formula_units_Z 14
_cell_length_a 5.633908
_cell_length_b 11.861803
_cell_length_c 9.782655
_cell_angle_alpha 80.703799
_cell_angle_beta 72.586574
_cell_angle_gamma 86.066841
_cell_volume 615.461635
_symmetry_space_group_name_H-M "P -1"
_symmetry_group_IT_number 2
_symmetry_cell_setting 'triclinic'
loop_
_space_group_symop_operation_xyz
x,y,z
-x,-y,-z
loop_
_atom_site_type_symbol
_atom_site_label
_atom_site_fract_x
_atom_site_fract_y
_atom_site_fract_z
Si Si1 0.069929 0.679534 0.773341
Si Si2 0.476968 0.075258 0.230029
Si Si3 0.723938 0.472574 0.866254
Si Si4 0.816592 0.222209 0.992369
Si Si5 0.436833 0.427348 0.394822
Si Si6 0.004855 0.058989 0.763288
Si Si7 0.176139 0.208987 0.461662
O O1 0.350266 0.639003 0.711303
O O2 0.930574 0.563008 0.850139
O O3 0.995291 0.756860 0.643289
O O4 0.036386 0.761282 0.893992
O O5 0.400530 0.130941 0.377518
O O6 0.734712 0.006758 0.236053
O O7 0.544886 0.173406 0.088345
O O8 0.246210 0.009603 0.214508
O O9 0.805413 0.341915 0.893428
O O10 0.678436 0.483896 0.710352
O O11 0.500000 0.500000 0.000000
O O12 0.964412 0.131716 0.892606
O O13 0.500000 0.500000 0.500000
O O14 0.256101 0.327544 0.494662
O O15 0.027552 0.139041 0.611857
#
# Coordination Sequence:
#
# PCOD8033977 Si02
#       7
#     2   2   2   2   2   2   2
#     4  11  24  46  71 104 147 190 233 296 376 448
#     4  12  26  52  71 110 147 195 249 309 367 427
#     4  11  24  43  68 108 140 190 239 288 371 450
#     4  12  25  47  74 106 147 194 241 306 369 430
#     4  11  26  43  72 106 146 183 239 299 364 450
#     4  12  30  46  79 110 143 193 260 310 354 432
#     4  11  26  47  75 104 144 195 238 305 374 434
#
# _framework density 22.747153000000001
#
# number of rings (size 3 to 8) (size 9 to 14) (size 15 to 20)
#    0.000    0.571    2.857    3.857    6.000    3.429 
#    0.000    0.000    0.000    0.000    0.000    0.000 
#    0.000    0.000    0.000    0.000    0.000    0.000 
#
# Total GULP energy -173506.139603 kJ/mol
# GULP energy per Si atom -12393.295686 kJ/mol
# Density = 2.269538 g / cm^3
# Si number density = 22.747153 Si / 1000 Ang^3
#
#
#
# Elastic Constant Matrix: (Units=GPa)
#
#
# Indices 1 2 3 4 5 6 
#
# 1 118.9562 59.8048 38.1697 -7.2541 11.6498 17.2498
# 2 59.8048 127.6563 77.7494 4.0128 21.4502 19.8048
# 3 38.1697 77.7494 106.4272 8.7297 -11.8979 26.9701
# 4 -7.2541 4.0128 8.7297 50.9056 12.4531 2.2971
# 5 11.6498 21.4502 -11.8979 12.4531 22.6417 2.4380
# 6 17.2498 19.8048 26.9701 2.2971 2.4380 23.0708
#
#
#
# Elastic Compliance Matrix: (Units=1/GPa)
#
#
# Indices 1 2 3 4 5 6 
#
# 1 0.012026 -0.000162 -0.005575 0.005669 -0.011905 -0.001643
# 2 -0.000162 0.088302 -0.101913 0.049658 -0.170526 0.056534
# 3 -0.005575 -0.101913 0.136866 -0.065348 0.216403 -0.084706
# 4 0.005669 0.049658 -0.065348 0.055093 -0.118540 0.036568
# 5 -0.011905 -0.170526 0.216403 -0.118540 0.404611 -0.128646
# 6 -0.001643 0.056534 -0.084706 0.036568 -0.128646 0.105018
#
#
# Mechanical properties :
#
#
# Convention : Reuss Voigt Hill
#
# Bulk Modulus (GPa) = 45.67487 78.27639 61.97563
# Shear Modulus (GPa) = 4.88037 31.14467 18.01252
#
# Velocity S-wave (km/s) = 1.46634 3.70424 2.81705
# Velocity P-wave (km/s) = 4.79477 7.26508 6.15513
#
# Compressibility (1/GPa) = 0.02189388
#
# Stress axis : x y z
#
# Youngs Moduli (GPa) = 83.15054 11.32481 7.30644
#
# Poissons Ratio (x) = 0.00183 0.04073
# Poissons Ratio (y) = 0.01345 0.74462
# Poissons Ratio (z) = 0.46354 1.15415
#
# Static dielectric constant tensor:
#      x y z
#    x 4.164610 0.079410 -0.080180 
#    y 0.079410 4.573630 -0.213620 
#    z -0.080180 -0.213620 4.235090 
# 
# 
# High freq. dielectric constant tensor:
#      x y z
#    x 1.898150 0.007820 -0.002550 
#    y 0.007820 1.919330 -0.006410 
#    z -0.002550 -0.006410 1.911510 
# 
# From -- ./inp_files/46568.got.cif
#   From: 2010.06.25/outbox.cif.g09.slc.cpg/sg2_24_cif.got.tgz:46568.got - 2010.06.27 13:26:56.
