data_PCOD8033193
_publ_section_title
;
Structure prediction by ZEFSAII (Michael W. Deem and Ramdas Pophale) SiO2 
 PCOD8033193
Probable space group: P -1
;
_chemical_formula_sum "Si O2"
_cell_formula_units_Z 16
_cell_length_a 26.038726
_cell_length_b 15.138767
_cell_length_c 18.048420
_cell_angle_alpha 159.134019
_cell_angle_beta 19.056873
_cell_angle_gamma 159.694396
_cell_volume 730.353331
_symmetry_space_group_name_H-M "P -1"
_symmetry_group_IT_number 2
_symmetry_cell_setting 'triclinic'
loop_
_space_group_symop_operation_xyz
x,y,z
-x,-y,-z
loop_
_atom_site_type_symbol
_atom_site_label
_atom_site_fract_x
_atom_site_fract_y
_atom_site_fract_z
Si Si1 0.565707 0.269628 0.244944
Si Si2 0.526331 0.810714 0.213194
Si Si3 0.191229 0.764943 0.370646
Si Si4 0.949281 0.839826 0.367717
Si Si5 0.119324 0.708607 0.258036
Si Si6 0.217106 0.841145 0.743736
Si Si7 0.058118 0.154505 0.119920
Si Si8 0.286015 0.758878 0.820139
O O1 0.500000 0.500000 0.500000
O O2 0.664828 0.305642 0.216201
O O3 0.397605 0.964978 0.232495
O O4 0.695628 0.278774 0.009301
O O5 0.355739 0.768215 0.457173
O O6 0.710321 0.014100 0.163005
O O7 0.544047 0.974014 0.239056
O O8 0.500000 0.500000 0.000000
O O9 0.090612 0.666137 0.351939
O O10 0.170263 0.488574 0.223462
O O11 0.110391 0.923565 0.656929
O O12 0.781003 0.528929 0.361183
O O13 0.888437 0.006642 0.524775
O O14 0.000000 0.000000 0.500000
O O15 0.125409 0.834137 0.095813
O O16 0.963915 0.445113 0.220885
O O17 0.191844 0.061834 0.901052
O O18 0.000000 0.000000 0.000000
#
# Coordination Sequence:
#
# PCOD8033193 Si02
#       8
#     2   2   2   2   2   2   2   2
#     4  12  27  45  70 107 147 186 237 291 351 415
#     4  11  27  45  70 104 138 180 233 295 349 418
#     4  11  27  44  73 104 139 188 236 285 355 415
#     4  11  23  45  69 101 135 181 233 279 353 415
#     4  12  24  47  74 100 143 188 235 292 348 427
#     4  11  26  44  70 102 139 180 235 289 351 417
#     4  11  25  47  72 102 139 186 234 292 349 418
#     4  11  26  43  71 101 140 182 231 292 347 419
#
# _framework density 21.907204
#
# number of rings (size 3 to 8) (size 9 to 14) (size 15 to 20)
#    0.000    0.750    2.500    3.375    8.750    2.000 
#    0.000    0.000    0.000    0.000    0.000    0.000 
#    0.000    0.000    0.000    0.000    0.000    0.000 
#
# Total GULP energy -198447.115605 kJ/mol
# GULP energy per Si atom -12402.944725 kJ/mol
# Density = 2.185734 g / cm^3
# Si number density = 21.907204 Si / 1000 Ang^3
#
#
#
# Elastic Constant Matrix: (Units=GPa)
#
#
# Indices 1 2 3 4 5 6 
#
# 1 84.7928 23.1171 58.6414 0.5687 2.7373 -10.5382
# 2 23.1171 137.2379 51.6737 8.0107 3.5338 3.6034
# 3 58.6414 51.6737 134.9976 15.8476 -3.3097 1.9165
# 4 0.5687 8.0107 15.8476 36.7095 -6.2870 -5.8561
# 5 2.7373 3.5338 -3.3097 -6.2870 45.1947 4.1346
# 6 -10.5382 3.6034 1.9165 -5.8561 4.1346 36.3677
#
#
#
# Elastic Compliance Matrix: (Units=1/GPa)
#
#
# Indices 1 2 3 4 5 6 
#
# 1 0.018750 -0.000272 -0.008686 0.004301 -0.001775 0.006812
# 2 -0.000272 0.008586 -0.003083 -0.000823 -0.000922 -0.000795
# 3 -0.008686 -0.003083 0.013062 -0.005221 0.001354 -0.003894
# 4 0.004301 -0.000823 -0.005221 0.031151 0.003183 0.006257
# 5 -0.001775 -0.000922 0.001354 0.003183 0.023086 -0.002607
# 6 0.006812 -0.000795 -0.003894 0.006257 -0.002607 0.031059
#
#
# Mechanical properties :
#
#
# Convention : Reuss Voigt Hill
#
# Bulk Modulus (GPa) = 61.28935 69.32140 65.30538
# Shear Modulus (GPa) = 32.21363 38.56079 35.38721
#
# Velocity S-wave (km/s) = 3.83882 4.20001 4.02347
# Velocity P-wave (km/s) = 6.90552 7.43182 7.17350
#
# Compressibility (1/GPa) = 0.01631605
#
# Stress axis : x y z
#
# Youngs Moduli (GPa) = 53.33457 116.46942 76.55842
#
# Poissons Ratio (x) = 0.03170 0.66496
# Poissons Ratio (y) = 0.01451 0.23603
# Poissons Ratio (z) = 0.46324 0.35907
#
# Static dielectric constant tensor:
#      x y z
#    x 4.254300 -0.108400 0.034550 
#    y -0.108400 4.015450 0.018420 
#    z 0.034550 0.018420 3.939660 
# 
# 
# High freq. dielectric constant tensor:
#      x y z
#    x 1.870430 -0.003930 -0.001250 
#    y -0.003930 1.871460 0.010440 
#    z -0.001250 0.010440 1.873040 
# 
# From -- ./inp_files/101101.got.cif
#   From: 2010.06.25/outbox.cif.g09.slc.cpg/sg2_51_cif.got.tgz:101101.got - 2010.06.27 13:26:56.
