data_PCOD8033804
_publ_section_title
;
Structure prediction by ZEFSAII (Michael W. Deem and Ramdas Pophale) SiO2 
 PCOD8033804
Probable space group: P -1
;
_chemical_formula_sum "Si O2"
_cell_formula_units_Z 14
_cell_length_a 16.263083
_cell_length_b 12.377653
_cell_length_c 12.655579
_cell_angle_alpha 144.221565
_cell_angle_beta 156.065077
_cell_angle_gamma 42.468862
_cell_volume 604.180422
_symmetry_space_group_name_H-M "P -1"
_symmetry_group_IT_number 2
_symmetry_cell_setting 'triclinic'
loop_
_space_group_symop_operation_xyz
x,y,z
-x,-y,-z
loop_
_atom_site_type_symbol
_atom_site_label
_atom_site_fract_x
_atom_site_fract_y
_atom_site_fract_z
Si Si1 0.143731 0.244171 0.011060
Si Si2 0.019250 0.405874 0.782351
Si Si3 0.373094 0.711101 0.894161
Si Si4 0.050128 0.025437 0.275725
Si Si5 0.272284 0.776269 0.059565
Si Si6 0.758248 0.577133 0.142624
Si Si7 0.455049 0.893262 0.571504
O O1 0.076717 0.257627 0.821526
O O2 0.053188 0.407583 0.102604
O O3 0.390198 0.256233 0.317152
O O4 0.055516 0.051117 0.802327
O O5 0.850142 0.319188 0.437938
O O6 0.217228 0.447433 0.974771
O O7 0.371064 0.687517 0.999948
O O8 0.523130 0.573454 0.900329
O O9 0.450984 0.916377 0.125678
O O10 0.133394 0.233391 0.547800
O O11 0.874855 0.051483 0.002698
O O12 0.223020 0.880986 0.331098
O O13 0.151567 0.606465 0.841822
O O14 0.445475 0.863602 0.409974
#
# Coordination Sequence:
#
# PCOD8033804 Si02
#       7
#     2   2   2   2   2   2   2
#     4  11  25  46  69  94 129 172 220 271 324 384
#     4  11  25  46  69  94 129 172 220 271 324 384
#     4  11  24  42  67 100 132 172 215 266 326 384
#     4  11  24  42  67 100 132 172 215 266 326 384
#     4  12  22  44  66  98 140 170 212 266 322 392
#     4  11  24  42  67 101 131 172 216 265 326 384
#     4  11  24  42  67 101 131 172 216 265 326 384
#
# _framework density 23.171887000000002
#
# number of rings (size 3 to 8) (size 9 to 14) (size 15 to 20)
#    0.000    0.857    2.857    3.429    0.000    3.429 
#    0.000    6.429    0.000    0.000    0.000    0.000 
#    0.000    0.000    0.000    0.000    0.000    0.000 
#
# Total GULP energy -173493.317019 kJ/mol
# GULP energy per Si atom -12392.379787 kJ/mol
# Density = 2.311915 g / cm^3
# Si number density = 23.171887 Si / 1000 Ang^3
#
#
#
# Elastic Constant Matrix: (Units=GPa)
#
#
# Indices 1 2 3 4 5 6 
#
# 1 161.0687 61.6972 26.0990 -29.7365 6.2622 -5.9862
# 2 61.6972 101.9027 17.7229 -20.3007 11.3495 8.0053
# 3 26.0990 17.7229 48.1864 -13.8301 -0.2762 -7.6334
# 4 -29.7365 -20.3007 -13.8301 34.9785 -3.6561 2.8207
# 5 6.2622 11.3495 -0.2762 -3.6561 34.0000 -2.2743
# 6 -5.9862 8.0053 -7.6334 2.8207 -2.2743 36.9842
#
#
#
# Elastic Compliance Matrix: (Units=1/GPa)
#
#
# Indices 1 2 3 4 5 6 
#
# 1 0.009062 -0.004515 -0.001729 0.004299 0.000406 0.001784
# 2 -0.004515 0.014553 -0.002705 0.003520 -0.004001 -0.004954
# 3 -0.001729 -0.002705 0.025498 0.006886 0.002517 0.005198
# 4 0.004299 0.003520 0.006886 0.037329 0.002012 -0.001368
# 5 0.000406 -0.004001 0.002517 0.002012 0.031124 0.003212
# 6 0.001784 -0.004954 0.005198 -0.001368 0.003212 0.029774
#
#
# Mechanical properties :
#
#
# Convention : Reuss Voigt Hill
#
# Bulk Modulus (GPa) = 32.03442 58.02178 45.02810
# Shear Modulus (GPa) = 28.46652 34.90179 31.68415
#
# Velocity S-wave (km/s) = 3.50879 3.88521 3.70179
# Velocity P-wave (km/s) = 5.50183 6.72462 6.14372
#
# Compressibility (1/GPa) = 0.03121643
#
# Stress axis : x y z
#
# Youngs Moduli (GPa) = 110.34646 68.71263 39.21848
#
# Poissons Ratio (x) = 0.31024 0.06781
# Poissons Ratio (y) = 0.49823 0.10607
# Poissons Ratio (z) = 0.19079 0.18584
#
# Static dielectric constant tensor:
#      x y z
#    x 4.486350 -0.291400 0.205080 
#    y -0.291400 4.494700 -0.161420 
#    z 0.205080 -0.161420 4.027200 
# 
# 
# High freq. dielectric constant tensor:
#      x y z
#    x 1.919200 -0.014430 0.004220 
#    y -0.014430 1.922830 0.006480 
#    z 0.004220 0.006480 1.908200 
# 
# From -- ./inp_files/337632.got.cif
#   From: 2010.06.25/outbox.cif.g09.slc.cpg/sg2_169_cif.got.tgz:337632.got - 2010.06.27 13:26:56.
