data_PCOD8033326
_publ_section_title
;
Structure prediction by ZEFSAII (Michael W. Deem and Ramdas Pophale) SiO2 
 PCOD8033326
Probable space group: P -1
;
_chemical_formula_sum "Si O2"
_cell_formula_units_Z 16
_cell_length_a 15.161478
_cell_length_b 17.467013
_cell_length_c 9.078000
_cell_angle_alpha 30.936170
_cell_angle_beta 141.567545
_cell_angle_gamma 143.923393
_cell_volume 694.806306
_symmetry_space_group_name_H-M "P -1"
_symmetry_group_IT_number 2
_symmetry_cell_setting 'triclinic'
loop_
_space_group_symop_operation_xyz
x,y,z
-x,-y,-z
loop_
_atom_site_type_symbol
_atom_site_label
_atom_site_fract_x
_atom_site_fract_y
_atom_site_fract_z
Si Si1 0.301745 0.596273 0.397485
Si Si2 0.326107 0.098927 0.256241
Si Si3 0.208314 0.881947 0.721092
Si Si4 0.343938 0.609009 0.781254
Si Si5 0.169640 0.025094 0.720265
Si Si6 0.587242 0.621894 0.547554
Si Si7 0.926775 0.764962 0.337810
Si Si8 0.177685 0.818066 0.330215
O O1 0.310622 0.578117 0.615579
O O2 0.469355 0.661445 0.430983
O O3 0.197978 0.418390 0.487333
O O4 0.224809 0.716221 0.051900
O O5 0.474353 0.270480 0.155699
O O6 0.335744 0.999659 0.577257
O O7 0.323399 0.980288 0.314778
O O8 0.163477 0.121477 0.005156
O O9 0.032822 0.833938 0.508411
O O10 0.251362 0.996172 0.730919
O O11 0.228688 0.672990 0.603800
O O12 0.318571 0.445767 0.107359
O O13 0.283154 0.206014 0.634318
O O14 0.000000 0.000000 0.500000
O O15 0.132548 0.872327 0.030072
O O16 0.500000 0.500000 0.500000
O O17 0.032730 0.755653 0.355977
#
# Coordination Sequence:
#
# PCOD8033326 Si02
#       8
#     2   2   2   2   2   2   2   2
#     4  12  27  47  72 104 145 194 238 298 367 432
#     4  11  23  45  74  99 143 191 241 291 366 430
#     4  11  25  44  72 105 139 190 244 299 352 430
#     4  12  26  47  71 105 144 189 238 298 363 435
#     4  12  26  45  74 107 147 182 242 302 359 424
#     4  12  30  47  75 107 148 189 240 301 370 432
#     4  11  25  47  74 100 148 197 241 290 366 433
#     4  11  25  44  71 108 139 186 240 300 355 427
#
# _framework density 23.027999999999999
#
# number of rings (size 3 to 8) (size 9 to 14) (size 15 to 20)
#    0.000    0.500    2.500    5.625   10.500    2.500 
#    0.000    0.000    0.000    0.000    0.000    0.000 
#    0.000    0.000    0.000    0.000    0.000    0.000 
#
# Total GULP energy -198422.773620 kJ/mol
# GULP energy per Si atom -12401.423351 kJ/mol
# Density = 2.297559 g / cm^3
# Si number density = 23.028000 Si / 1000 Ang^3
#
#
#
# Elastic Constant Matrix: (Units=GPa)
#
#
# Indices 1 2 3 4 5 6 
#
# 1 9.4933 -45.0306 -20.4275 -17.5298 -1.2065 -5.8337
# 2 -45.0306 31.7604 -23.9942 -29.7768 -0.0820 5.1041
# 3 -20.4275 -23.9942 112.0530 -9.5064 -8.6135 -0.1973
# 4 -17.5298 -29.7768 -9.5064 18.1584 -5.7090 -1.2553
# 5 -1.2065 -0.0820 -8.6135 -5.7090 28.0942 -0.6196
# 6 -5.8337 5.1041 -0.1973 -1.2553 -0.6196 39.1098
#
#
#
# Elastic Compliance Matrix: (Units=1/GPa)
#
#
# Indices 1 2 3 4 5 6 
#
# 1 0.005447 -0.012422 -0.003568 -0.018298 -0.004576 0.001756
# 2 -0.012422 0.002918 -0.002750 -0.009910 -0.003439 -0.002620
# 3 -0.003568 -0.002750 0.007486 -0.003612 0.001395 -0.000229
# 4 -0.018298 -0.009910 -0.003612 0.019872 0.002099 -0.000783
# 5 -0.004576 -0.003439 0.001395 0.002099 0.036251 0.000415
# 6 0.001756 -0.002620 -0.000229 -0.000783 0.000415 0.026153
#
#
# Mechanical properties :
#
#
# Convention : Reuss Voigt Hill
#
# Bulk Modulus (GPa) = -46.23266 -2.84421 -24.53844
# Shear Modulus (GPa) = 38.94225 33.25641 36.09933
#
# Velocity S-wave (km/s) = 4.11674 3.80435 3.96362
# Velocity P-wave (km/s) = 1.57366 4.24966 3.20438
#
# Compressibility (1/GPa) = -0.02162973
#
# Stress axis : x y z
#
# Youngs Moduli (GPa) = 183.60310 342.73441 133.59142
#
# Poissons Ratio (x) = 4.25750 0.47666
# Poissons Ratio (y) = 2.28075 0.36731
# Poissons Ratio (z) = 0.65511 0.94235
#
# Static dielectric constant tensor:
#      x y z
#    x 4.225770 -0.176790 -0.045010 
#    y -0.176790 4.189620 0.006580 
#    z -0.045010 0.006580 4.249970 
# 
# 
# High freq. dielectric constant tensor:
#      x y z
#    x 1.915220 -0.006230 -0.004030 
#    y -0.006230 1.914720 -0.003140 
#    z -0.004030 -0.003140 1.924570 
# 
# From -- ./inp_files/317930.got.cif
#   From: 2010.06.25/outbox.cif.g09.slc.cpg/sg2_159_cif.got.tgz:317930.got - 2010.06.27 13:26:56.
