data_PCOD8033866
_publ_section_title
;
Structure prediction by ZEFSAII (Michael W. Deem and Ramdas Pophale) SiO2 
 PCOD8033866
Probable space group: P -1
;
_chemical_formula_sum "Si O2"
_cell_formula_units_Z 16
_cell_length_a 11.686914
_cell_length_b 24.933960
_cell_length_c 6.503872
_cell_angle_alpha 62.606917
_cell_angle_beta 87.289521
_cell_angle_gamma 35.514324
_cell_volume 755.603850
_symmetry_space_group_name_H-M "P -1"
_symmetry_group_IT_number 2
_symmetry_cell_setting 'triclinic'
loop_
_space_group_symop_operation_xyz
x,y,z
-x,-y,-z
loop_
_atom_site_type_symbol
_atom_site_label
_atom_site_fract_x
_atom_site_fract_y
_atom_site_fract_z
Si Si1 0.047524 0.375548 0.753732
Si Si2 0.022277 0.033481 0.629429
Si Si3 0.210926 0.149263 0.691012
Si Si4 0.140529 0.425363 0.330282
Si Si5 0.447341 0.136351 0.443078
Si Si6 0.809071 0.360794 0.720297
Si Si7 0.911474 0.867753 0.641802
Si Si8 0.651091 0.137074 0.741181
O O1 0.095080 0.379889 0.513960
O O2 0.898241 0.499722 0.654109
O O3 0.872263 0.398973 0.716438
O O4 0.310798 0.239114 0.094080
O O5 0.859791 0.084793 0.736079
O O6 0.946103 0.134890 0.370440
O O7 0.000000 0.000000 0.500000
O O8 0.295728 0.910418 0.943362
O O9 0.226336 0.203122 0.459593
O O10 0.141632 0.124714 0.601751
O O11 0.981327 0.265329 0.670806
O O12 0.500000 0.000000 0.000000
O O13 0.431577 0.289287 0.489624
O O14 0.000000 0.500000 0.000000
O O15 0.600589 0.105751 0.644157
O O16 0.651175 0.994652 0.573013
O O17 0.500000 0.500000 0.500000
O O18 0.898434 0.271133 0.039435
#
# Coordination Sequence:
#
# PCOD8033866 Si02
#       8
#     2   2   2   2   2   2   2   2
#     4  11  25  45  69 101 141 183 241 301 353 419
#     4  11  25  43  66 100 143 182 227 289 356 424
#     4  12  24  44  76 104 138 184 242 299 354 419
#     4  11  24  43  71 102 136 184 238 295 357 419
#     4  12  21  45  74 104 141 179 248 309 354 411
#     4  12  29  48  68 104 149 193 235 290 363 440
#     4  12  25  44  71 104 141 188 239 293 358 424
#     4  11  24  42  70 102 138 183 235 291 358 426
#
# _framework density 21.175118999999999
#
# number of rings (size 3 to 8) (size 9 to 14) (size 15 to 20)
#    0.000    0.500    5.000    3.375    0.000    3.500 
#    0.000    0.000    0.000    0.000    0.000    0.000 
#    0.000    0.000    0.000    0.000    0.000    0.000 
#
# Total GULP energy -198211.511532 kJ/mol
# GULP energy per Si atom -12388.219471 kJ/mol
# Density = 2.112692 g / cm^3
# Si number density = 21.175119 Si / 1000 Ang^3
#
#
#
# Elastic Constant Matrix: (Units=GPa)
#
#
# Indices 1 2 3 4 5 6 
#
# 1 150.8291 44.2767 60.7778 10.1347 -7.6887 14.0147
# 2 44.2767 120.6522 55.9960 -8.1338 7.1987 -3.5995
# 3 60.7778 55.9960 163.1232 1.8194 -2.9681 6.5578
# 4 10.1347 -8.1338 1.8194 35.5848 2.3388 -2.2388
# 5 -7.6887 7.1987 -2.9681 2.3388 37.6206 2.0194
# 6 14.0147 -3.5995 6.5578 -2.2388 2.0194 34.4377
#
#
#
# Elastic Compliance Matrix: (Units=1/GPa)
#
#
# Indices 1 2 3 4 5 6 
#
# 1 0.009078 -0.002847 -0.002158 -0.003551 0.002664 -0.003968
# 2 -0.002847 0.011334 -0.003073 0.003997 -0.003423 0.003389
# 3 -0.002158 -0.003073 0.008055 -0.000625 0.000879 -0.001069
# 4 -0.003551 0.003997 -0.000625 0.030563 -0.003664 0.004183
# 5 0.002664 -0.003423 0.000879 -0.003664 0.028266 -0.003505
# 6 -0.003968 0.003389 -0.001069 0.004183 -0.003505 0.031688
#
#
# Mechanical properties :
#
#
# Convention : Reuss Voigt Hill
#
# Bulk Modulus (GPa) = 81.21948 84.07840 82.64894
# Shear Modulus (GPa) = 35.90838 39.76556 37.83697
#
# Velocity S-wave (km/s) = 4.12245 4.33822 4.23171
# Velocity P-wave (km/s) = 7.81658 8.05518 7.93678
#
# Compressibility (1/GPa) = 0.01231232
#
# Stress axis : x y z
#
# Youngs Moduli (GPa) = 110.15381 88.22945 124.14485
#
# Poissons Ratio (x) = 0.25117 0.26786
# Poissons Ratio (y) = 0.31359 0.38151
# Poissons Ratio (z) = 0.23767 0.27114
#
# Static dielectric constant tensor:
#      x y z
#    x 4.084090 -0.183840 -0.068780 
#    y -0.183840 4.234760 0.022170 
#    z -0.068780 0.022170 4.156280 
# 
# 
# High freq. dielectric constant tensor:
#      x y z
#    x 1.839830 0.004690 -0.011950 
#    y 0.004690 1.835510 0.010760 
#    z -0.011950 0.010760 1.842130 
# 
# From -- ./inp_files/84315.got.cif
#   From: 2010.06.25/outbox.cif.g09.slc.cpg/sg2_43_cif.got.tgz:84315.got - 2010.06.27 13:26:56.
