data_PCOD8033294
_publ_section_title
;
Structure prediction by ZEFSAII (Michael W. Deem and Ramdas Pophale) SiO2 
 PCOD8033294
Probable space group: P -1
;
_chemical_formula_sum "Si O2"
_cell_formula_units_Z 14
_cell_length_a 9.468265
_cell_length_b 12.140989
_cell_length_c 8.284782
_cell_angle_alpha 126.294882
_cell_angle_beta 61.692925
_cell_angle_gamma 126.448041
_cell_volume 606.320704
_symmetry_space_group_name_H-M "P -1"
_symmetry_group_IT_number 2
_symmetry_cell_setting 'triclinic'
loop_
_space_group_symop_operation_xyz
x,y,z
-x,-y,-z
loop_
_atom_site_type_symbol
_atom_site_label
_atom_site_fract_x
_atom_site_fract_y
_atom_site_fract_z
Si Si1 0.310161 0.972844 0.648907
Si Si2 0.989483 0.145997 0.561858
Si Si3 0.938935 0.355365 0.018997
Si Si4 0.741044 0.492044 0.802004
Si Si5 0.429913 0.288894 0.000333
Si Si6 0.605421 0.681496 0.597260
Si Si7 0.685750 0.278685 0.365200
O O1 0.286925 0.868433 0.727928
O O2 0.145606 0.890635 0.545737
O O3 0.500000 0.000000 0.500000
O O4 0.310456 0.131539 0.836979
O O5 0.186558 0.269145 0.508179
O O6 0.913178 0.210804 0.802113
O O7 0.000000 0.000000 0.500000
O O8 0.080795 0.383042 0.107647
O O9 0.758646 0.326877 0.185987
O O10 0.000000 0.500000 0.000000
O O11 0.630301 0.361686 0.881458
O O12 0.785918 0.410668 0.556909
O O13 0.636953 0.583107 0.873413
O O14 0.421773 0.250607 0.159965
O O15 0.500000 0.500000 0.500000
O O16 0.521942 0.748623 0.560405
#
# Coordination Sequence:
#
# PCOD8033294 Si02
#       7
#     2   2   2   2   2   2   2
#     4  12  27  48  72 108 151 191 240 311 368 429
#     4  12  29  50  74 106 153 198 244 296 368 450
#     4  12  27  45  73 107 148 188 247 305 370 428
#     4  11  23  45  73 106 139 195 245 298 358 446
#     4  11  25  43  76  99 148 190 244 291 374 431
#     4  12  26  49  76 109 144 196 249 301 360 447
#     4  12  26  44  75 108 147 185 243 307 368 424
#
# _framework density 23.09009
#
# number of rings (size 3 to 8) (size 9 to 14) (size 15 to 20)
#    0.000    0.286    2.857    5.571    8.000    1.143 
#    0.000    0.000    0.000    0.000    0.000    0.000 
#    0.000    0.000    0.000    0.000    0.000    0.000 
#
# Total GULP energy -173641.649938 kJ/mol
# GULP energy per Si atom -12402.974996 kJ/mol
# Density = 2.303754 g / cm^3
# Si number density = 23.090090 Si / 1000 Ang^3
#
#
#
# Elastic Constant Matrix: (Units=GPa)
#
#
# Indices 1 2 3 4 5 6 
#
# 1 118.0494 24.6371 10.4745 -2.5133 7.6085 11.9424
# 2 24.6371 102.3122 41.7829 2.3421 -6.4009 0.0525
# 3 10.4745 41.7829 149.9484 3.3110 11.4253 6.1019
# 4 -2.5133 2.3421 3.3110 43.2839 0.0505 -0.2553
# 5 7.6085 -6.4009 11.4253 0.0505 34.2445 4.4269
# 6 11.9424 0.0525 6.1019 -0.2553 4.4269 43.4678
#
#
#
# Elastic Compliance Matrix: (Units=1/GPa)
#
#
# Indices 1 2 3 4 5 6 
#
# 1 0.009381 -0.002550 0.000317 0.000647 -0.002361 -0.002375
# 2 -0.002550 0.012074 -0.003503 -0.000533 0.003892 0.000778
# 3 0.000317 -0.003503 0.007915 -0.000399 -0.003253 -0.000865
# 4 0.000647 -0.000533 -0.000399 0.023201 -0.000149 0.000030
# 5 -0.002361 0.003892 -0.003253 -0.000149 0.031816 -0.002140
# 6 -0.002375 0.000778 -0.000865 0.000030 -0.002140 0.023997
#
#
# Mechanical properties :
#
#
# Convention : Reuss Voigt Hill
#
# Bulk Modulus (GPa) = 55.86793 58.23321 57.05057
# Shear Modulus (GPa) = 39.73929 43.76027 41.74978
#
# Velocity S-wave (km/s) = 4.15306 4.35811 4.25682
# Velocity P-wave (km/s) = 6.87353 7.11329 6.99444
#
# Compressibility (1/GPa) = 0.01789936
#
# Stress axis : x y z
#
# Youngs Moduli (GPa) = 106.59598 82.82386 126.34704
#
# Poissons Ratio (x) = 0.21120 -0.04011
# Poissons Ratio (y) = 0.27182 0.44255
# Poissons Ratio (z) = -0.03384 0.29011
#
# Static dielectric constant tensor:
#      x y z
#    x 4.375800 0.073680 0.084000 
#    y 0.073680 4.265150 -0.043820 
#    z 0.084000 -0.043820 4.260500 
# 
# 
# High freq. dielectric constant tensor:
#      x y z
#    x 1.924080 -0.005560 0.004500 
#    y -0.005560 1.910450 0.001030 
#    z 0.004500 0.001030 1.924050 
# 
# From -- ./inp_files/190620.got.cif
#   From: 2010.06.25/outbox.cif.g09.slc.cpg/sg2_96_cif.got.tgz:190620.got - 2010.06.27 13:26:56.
