data_PCOD8033431
_publ_section_title
;
Structure prediction by ZEFSAII (Michael W. Deem and Ramdas Pophale) SiO2 
 PCOD8033431
Probable space group: P -1
;
_chemical_formula_sum "Si O2"
_cell_formula_units_Z 12
_cell_length_a 9.293047
_cell_length_b 12.059740
_cell_length_c 9.825886
_cell_angle_alpha 120.897311
_cell_angle_beta 56.981058
_cell_angle_gamma 142.107590
_cell_volume 559.604133
_symmetry_space_group_name_H-M "P -1"
_symmetry_group_IT_number 2
_symmetry_cell_setting 'triclinic'
loop_
_space_group_symop_operation_xyz
x,y,z
-x,-y,-z
loop_
_atom_site_type_symbol
_atom_site_label
_atom_site_fract_x
_atom_site_fract_y
_atom_site_fract_z
Si Si1 0.366252 0.838981 0.358176
Si Si2 0.449850 0.305885 0.333770
Si Si3 0.127473 0.436738 0.927228
Si Si4 0.810550 0.589475 0.538720
Si Si5 0.662189 0.468984 0.842235
Si Si6 0.317102 0.947642 0.174576
O O1 0.463357 0.740982 0.244431
O O2 0.417033 0.932083 0.247304
O O3 0.078532 0.679790 0.431823
O O4 0.500000 0.000000 0.500000
O O5 0.609361 0.423351 0.191164
O O6 0.613039 0.393962 0.441942
O O7 0.229687 0.291480 0.434331
O O8 0.317004 0.100343 0.275233
O O9 0.963256 0.233968 0.826595
O O10 0.134525 0.434827 0.085627
O O11 0.000000 0.500000 0.000000
O O12 0.775965 0.573095 0.707556
O O13 0.500000 0.500000 0.000000
O O14 0.500000 0.000000 0.000000
#
# Coordination Sequence:
#
# PCOD8033431 Si02
#       6
#     2   2   2   2   2   2
#     4  12  27  45  69 104 143 188 240 288 354 426
#     4  11  23  46  71 104 139 186 237 289 356 421
#     4  12  22  45  70 102 141 184 236 289 355 420
#     4  11  25  46  71 100 147 187 231 297 355 421
#     4  12  25  45  73 103 141 184 234 295 356 415
#     4  12  25  41  73 103 136 186 237 289 350 422
#
# _framework density 21.443729999999999
#
# number of rings (size 3 to 8) (size 9 to 14) (size 15 to 20)
#    0.000    0.333    6.667    1.500    2.333    2.000 
#    0.000    1.667    0.000    0.000    0.000    0.000 
#    0.000    0.000    0.000    0.000    0.000    0.000 
#
# Total GULP energy -148760.462552 kJ/mol
# GULP energy per Si atom -12396.705213 kJ/mol
# Density = 2.139492 g / cm^3
# Si number density = 21.443730 Si / 1000 Ang^3
#
#
#
# Elastic Constant Matrix: (Units=GPa)
#
#
# Indices 1 2 3 4 5 6 
#
# 1 108.4207 52.2271 57.1963 17.2911 11.9092 -2.9148
# 2 52.2271 124.3819 49.4925 30.6498 -7.7294 -23.3152
# 3 57.1963 49.4925 134.7139 11.7740 16.6352 -12.4728
# 4 17.2911 30.6498 11.7740 53.5102 -9.8740 -3.1488
# 5 11.9092 -7.7294 16.6352 -9.8740 55.2955 4.1097
# 6 -2.9148 -23.3152 -12.4728 -3.1488 4.1097 25.0370
#
#
#
# Elastic Compliance Matrix: (Units=1/GPa)
#
#
# Indices 1 2 3 4 5 6 
#
# 1 0.014234 -0.004974 -0.004236 -0.001548 -0.002400 -0.004887
# 2 -0.004974 0.014323 -0.001933 -0.005179 0.001925 0.010829
# 3 -0.004236 -0.001933 0.010617 -0.000182 -0.002840 0.003439
# 4 -0.001548 -0.005179 -0.000182 0.022753 0.003941 -0.002879
# 5 -0.002400 0.001925 -0.002840 0.003941 0.020636 -0.002793
# 6 -0.004887 0.010829 0.003439 -0.002879 -0.002793 0.051266
#
#
# Mechanical properties :
#
#
# Convention : Reuss Voigt Hill
#
# Bulk Modulus (GPa) = 59.21885 76.14981 67.68433
# Shear Modulus (GPa) = 30.91297 40.67524 35.79410
#
# Velocity S-wave (km/s) = 3.80094 4.35999 4.09003
# Velocity P-wave (km/s) = 6.85119 7.80606 7.34416
#
# Compressibility (1/GPa) = 0.01688651
#
# Stress axis : x y z
#
# Youngs Moduli (GPa) = 70.25620 69.81686 94.18950
#
# Poissons Ratio (x) = 0.34730 0.39903
# Poissons Ratio (y) = 0.34949 0.18204
# Poissons Ratio (z) = 0.29764 0.13493
#
# Static dielectric constant tensor:
#      x y z
#    x 5.799580 0.200900 -0.502270 
#    y 0.200900 3.896060 -0.000930 
#    z -0.502270 -0.000930 4.361290 
# 
# 
# High freq. dielectric constant tensor:
#      x y z
#    x 1.853160 -0.015000 0.005820 
#    y -0.015000 1.827640 0.007790 
#    z 0.005820 0.007790 1.866940 
# 
# From -- ./inp_files/136450.got.cif
#   From: 2010.06.25/outbox.cif.g09.slc.cpg/sg2_69_cif.got.tgz:136450.got - 2010.06.27 13:26:56.
