data_PCOD8033382
_publ_section_title
;
Structure prediction by ZEFSAII (Michael W. Deem and Ramdas Pophale) SiO2 
 PCOD8033382
Probable space group: P -1
;
_chemical_formula_sum "Si O2"
_cell_formula_units_Z 16
_cell_length_a 20.949587
_cell_length_b 11.741298
_cell_length_c 8.985575
_cell_angle_alpha 51.505779
_cell_angle_beta 142.730688
_cell_angle_gamma 147.547594
_cell_volume 709.958500
_symmetry_space_group_name_H-M "P -1"
_symmetry_group_IT_number 2
_symmetry_cell_setting 'triclinic'
loop_
_space_group_symop_operation_xyz
x,y,z
-x,-y,-z
loop_
_atom_site_type_symbol
_atom_site_label
_atom_site_fract_x
_atom_site_fract_y
_atom_site_fract_z
Si Si1 0.452014 0.880509 0.162510
Si Si2 0.652219 0.873224 0.721789
Si Si3 0.376188 0.478961 0.989502
Si Si4 0.993846 0.727729 0.024161
Si Si5 0.890023 0.752337 0.532391
Si Si6 0.168232 0.453061 0.846686
Si Si7 0.029885 0.635534 0.704798
Si Si8 0.626405 0.937310 0.958334
O O1 0.564057 0.863155 0.431642
O O2 0.466767 0.010242 0.218458
O O3 0.274577 0.651595 0.997354
O O4 0.500000 0.000000 0.000000
O O5 0.832748 0.050527 0.875672
O O6 0.626138 0.921744 0.793446
O O7 0.583704 0.641961 0.787259
O O8 0.279692 0.381106 0.735992
O O9 0.272954 0.447192 0.953754
O O10 0.540297 0.721148 0.063748
O O11 0.956945 0.743287 0.111620
O O12 0.971131 0.532477 0.108075
O O13 0.880093 0.710263 0.723813
O O14 0.949741 0.659906 0.654380
O O15 0.000000 0.000000 0.500000
O O16 0.071692 0.462205 0.554423
O O17 0.202084 0.874905 0.806517
#
# Coordination Sequence:
#
# PCOD8033382 Si02
#       8
#     2   2   2   2   2   2   2   2
#     4  12  26  48  70 105 147 183 236 289 352 418
#     4  12  28  46  71 108 139 188 237 283 355 418
#     4  11  26  49  70 102 146 188 231 285 355 424
#     4  12  24  42  73 105 138 180 239 288 348 410
#     4  11  23  46  68 103 145 183 235 288 347 417
#     4  11  26  45  72 106 139 189 227 294 352 413
#     4  11  24  44  74 104 139 181 241 287 352 410
#     4  12  25  46  75 104 140 187 232 296 347 409
#
# _framework density 22.536528000000001
#
# number of rings (size 3 to 8) (size 9 to 14) (size 15 to 20)
#    0.000    0.500    5.000    2.250    5.250    1.000 
#    0.000    0.000    0.000    0.000    0.000    0.000 
#    0.000    0.000    0.000    0.000    0.000    0.000 
#
# Total GULP energy -198390.115180 kJ/mol
# GULP energy per Si atom -12399.382199 kJ/mol
# Density = 2.248523 g / cm^3
# Si number density = 22.536528 Si / 1000 Ang^3
#
#
#
# Elastic Constant Matrix: (Units=GPa)
#
#
# Indices 1 2 3 4 5 6 
#
# 1 76.7739 13.4233 32.3695 -7.9744 -21.8308 15.9155
# 2 13.4233 94.0494 44.8920 4.5117 -3.3959 -0.7301
# 3 32.3695 44.8920 135.8657 -20.5252 -9.6024 -0.9204
# 4 -7.9744 4.5117 -20.5252 32.1471 4.1693 -2.4578
# 5 -21.8308 -3.3959 -9.6024 4.1693 26.3792 -0.4318
# 6 15.9155 -0.7301 -0.9204 -2.4578 -0.4318 30.7850
#
#
#
# Elastic Compliance Matrix: (Units=1/GPa)
#
#
# Indices 1 2 3 4 5 6 
#
# 1 0.021723 -0.000775 -0.003830 0.000089 0.016287 -0.011128
# 2 -0.000775 0.013405 -0.005037 -0.005290 0.000090 0.000147
# 3 -0.003830 -0.005037 0.010962 0.007082 -0.000903 0.002741
# 4 0.000089 -0.005290 0.007082 0.037118 -0.003848 0.002950
# 5 0.016287 0.000090 -0.000903 -0.003848 0.051547 -0.008029
# 6 -0.011128 0.000147 0.002741 0.002950 -0.008029 0.038445
#
#
# Mechanical properties :
#
#
# Convention : Reuss Voigt Hill
#
# Bulk Modulus (GPa) = 37.30385 54.22873 45.76629
# Shear Modulus (GPa) = 24.82392 32.26254 28.54323
#
# Velocity S-wave (km/s) = 3.32248 3.78771 3.56270
# Velocity P-wave (km/s) = 5.59527 6.57600 6.10536
#
# Compressibility (1/GPa) = 0.02680688
#
# Stress axis : x y z
#
# Youngs Moduli (GPa) = 46.03419 74.59632 91.22750
#
# Poissons Ratio (x) = 0.05779 0.34943
# Poissons Ratio (y) = 0.03566 0.45948
# Poissons Ratio (z) = 0.17633 0.37571
#
# Static dielectric constant tensor:
#      x y z
#    x 4.200510 0.006670 -0.068610 
#    y 0.006670 4.344610 0.020510 
#    z -0.068610 0.020510 4.133370 
# 
# 
# High freq. dielectric constant tensor:
#      x y z
#    x 1.896330 0.003470 -0.001930 
#    y 0.003470 1.894550 0.000400 
#    z -0.001930 0.000400 1.890630 
# 
# From -- ./inp_files/158702.got.cif
#   From: 2010.06.25/outbox.cif.g09.slc.cpg/sg2_80_cif.got.tgz:158702.got - 2010.06.27 13:26:56.
