data_PCOD8033303
_publ_section_title
;
Structure prediction by ZEFSAII (Michael W. Deem and Ramdas Pophale) SiO2 
 PCOD8033303
Probable space group: P -1
;
_chemical_formula_sum "Si O2"
_cell_formula_units_Z 16
_cell_length_a 9.538605
_cell_length_b 12.138342
_cell_length_c 8.728366
_cell_angle_alpha 104.259659
_cell_angle_beta 94.542248
_cell_angle_gamma 48.546920
_cell_volume 729.192563
_symmetry_space_group_name_H-M "P -1"
_symmetry_group_IT_number 2
_symmetry_cell_setting 'triclinic'
loop_
_space_group_symop_operation_xyz
x,y,z
-x,-y,-z
loop_
_atom_site_type_symbol
_atom_site_label
_atom_site_fract_x
_atom_site_fract_y
_atom_site_fract_z
Si Si1 0.318576 0.007754 0.332697
Si Si2 0.153710 0.502669 0.945121
Si Si3 0.230745 0.900430 0.760485
Si Si4 0.090233 0.771894 0.521021
Si Si5 0.543188 0.831402 0.579006
Si Si6 0.584411 0.238629 0.956570
Si Si7 0.129659 0.758699 0.163829
Si Si8 0.842723 0.503734 0.419865
O O1 0.490089 0.887434 0.418945
O O2 0.349330 0.920247 0.151267
O O3 0.320391 0.141065 0.338352
O O4 0.125985 0.076353 0.422298
O O5 0.358827 0.367325 0.988544
O O6 0.158183 0.485004 0.758353
O O7 0.094072 0.662944 0.034387
O O8 0.000000 0.500000 0.000000
O O9 0.214232 0.809548 0.603243
O O10 0.364934 0.924016 0.707570
O O11 0.326536 0.793651 0.879981
O O12 0.031498 0.065236 0.838540
O O13 0.129708 0.728853 0.332458
O O14 0.136819 0.636456 0.576967
O O15 0.647917 0.654409 0.526054
O O16 0.668057 0.294384 0.876654
O O17 0.000000 0.500000 0.500000
#
# Coordination Sequence:
#
# PCOD8033303 Si02
#       8
#     2   2   2   2   2   2   2   2
#     4  11  23  45  74 101 138 185 232 291 349 406
#     4  12  30  48  70 104 145 185 229 287 358 416
#     4  12  27  44  74 107 136 184 240 289 350 416
#     4  12  25  45  75 103 138 187 236 289 344 416
#     4  11  25  44  72 104 138 180 240 288 343 417
#     4  12  27  48  71 101 146 184 229 293 353 415
#     4  12  26  48  72 103 145 184 232 291 350 413
#     4  12  26  46  72 103 141 184 232 287 347 418
#
# _framework density 21.942077999999999
#
# number of rings (size 3 to 8) (size 9 to 14) (size 15 to 20)
#    0.000    0.250    5.000    3.375    7.000    1.000 
#    0.000    0.000    0.000    0.000    0.000    0.000 
#    0.000    0.000    0.000    0.000    0.000    0.000 
#
# Total GULP energy -198509.725778 kJ/mol
# GULP energy per Si atom -12406.857861 kJ/mol
# Density = 2.189214 g / cm^3
# Si number density = 21.942078 Si / 1000 Ang^3
#
#
#
# Elastic Constant Matrix: (Units=GPa)
#
#
# Indices 1 2 3 4 5 6 
#
# 1 131.1154 31.4386 39.1768 6.6326 -5.3144 -3.0188
# 2 31.4386 100.3820 25.6627 4.1077 1.1343 -1.5325
# 3 39.1768 25.6627 87.2044 3.3784 9.1433 -2.8710
# 4 6.6326 4.1077 3.3784 36.4842 4.2919 3.9804
# 5 -5.3144 1.1343 9.1433 4.2919 39.5149 5.4715
# 6 -3.0188 -1.5325 -2.8710 3.9804 5.4715 35.9848
#
#
#
# Elastic Compliance Matrix: (Units=1/GPa)
#
#
# Indices 1 2 3 4 5 6 
#
# 1 0.009410 -0.001929 -0.003842 -0.001435 0.002338 0.000204
# 2 -0.001929 0.011212 -0.002401 -0.000714 0.000024 0.000199
# 3 -0.003842 -0.002401 0.014359 -0.000041 -0.003950 0.001326
# 4 -0.001435 -0.000714 -0.000041 0.028402 -0.002852 -0.002862
# 5 0.002338 0.000024 -0.003950 -0.002852 0.027394 -0.003968
# 6 0.000204 0.000199 0.001326 -0.002862 -0.003968 0.028841
#
#
# Mechanical properties :
#
#
# Convention : Reuss Voigt Hill
#
# Bulk Modulus (GPa) = 53.66054 56.80644 55.23349
# Shear Modulus (GPa) = 35.16810 37.22505 36.19658
#
# Velocity S-wave (km/s) = 4.00780 4.12334 4.06598
# Velocity P-wave (km/s) = 6.77682 6.97243 6.87532
#
# Compressibility (1/GPa) = 0.01863567
#
# Stress axis : x y z
#
# Youngs Moduli (GPa) = 106.27499 89.19019 69.64072
#
# Poissons Ratio (x) = 0.17207 0.26758
# Poissons Ratio (y) = 0.20503 0.16721
# Poissons Ratio (z) = 0.40834 0.21415
#
# Static dielectric constant tensor:
#      x y z
#    x 4.146280 0.045440 0.124220 
#    y 0.045440 4.061760 0.137670 
#    z 0.124220 0.137670 3.944860 
# 
# 
# High freq. dielectric constant tensor:
#      x y z
#    x 1.877770 -0.000840 0.005150 
#    y -0.000840 1.865830 0.006430 
#    z 0.005150 0.006430 1.867990 
# 
# From -- ./inp_files/186727.got.cif
#   From: 2010.06.25/outbox.cif.g09.slc.cpg/sg2_94_cif.got.tgz:186727.got - 2010.06.27 13:26:56.
