data_PCOD8033490
_publ_section_title
;
Structure prediction by ZEFSAII (Michael W. Deem and Ramdas Pophale) SiO2 
 PCOD8033490
Probable space group: P -1
;
_chemical_formula_sum "Si O2"
_cell_formula_units_Z 16
_cell_length_a 8.132301
_cell_length_b 20.784485
_cell_length_c 11.401219
_cell_angle_alpha 38.850648
_cell_angle_beta 41.640952
_cell_angle_gamma 68.645214
_cell_volume 684.779126
_symmetry_space_group_name_H-M "P -1"
_symmetry_group_IT_number 2
_symmetry_cell_setting 'triclinic'
loop_
_space_group_symop_operation_xyz
x,y,z
-x,-y,-z
loop_
_atom_site_type_symbol
_atom_site_label
_atom_site_fract_x
_atom_site_fract_y
_atom_site_fract_z
Si Si1 0.828784 0.231684 0.539529
Si Si2 0.762725 0.125360 0.130618
Si Si3 0.714914 0.616968 0.287022
Si Si4 0.447375 0.062168 0.171784
Si Si5 0.816980 0.368225 0.845553
Si Si6 0.927156 0.834616 0.701762
Si Si7 0.386520 0.278209 0.593916
Si Si8 0.338064 0.363069 0.246294
O O1 0.034497 0.200731 0.399602
O O2 0.682725 0.279966 0.457120
O O3 0.022826 0.321023 0.415995
O O4 0.549991 0.118473 0.908467
O O5 0.732006 0.099425 0.044177
O O6 0.500000 0.000000 0.500000
O O7 0.763407 0.250503 0.969656
O O8 0.078516 0.153528 0.968068
O O9 0.500000 0.500000 0.500000
O O10 0.590414 0.616966 0.483067
O O11 0.017110 0.623113 0.134114
O O12 0.745395 0.723549 0.041409
O O13 0.253661 0.099842 0.297538
O O14 0.249500 0.919059 0.463426
O O15 0.000000 0.500000 0.500000
O O16 0.503702 0.341356 0.084783
O O17 0.335122 0.294698 0.462484
O O18 0.500000 0.500000 0.000000
#
# Coordination Sequence:
#
# PCOD8033490 Si02
#       8
#     2   2   2   2   2   2   2   2
#     4  12  26  46  73 107 149 184 246 304 373 437
#     4  11  24  46  76 105 147 199 246 305 369 438
#     4  11  25  43  73 101 140 188 243 295 366 432
#     4  11  23  46  75 100 150 188 247 300 365 442
#     4  11  26  46  71 105 144 188 249 301 369 453
#     4  11  25  44  73 109 141 197 241 300 371 435
#     4  11  25  47  69 106 148 190 241 307 367 435
#     4  12  27  46  71 107 145 194 247 305 374 447
#
# _framework density 23.365200000000002
#
# number of rings (size 3 to 8) (size 9 to 14) (size 15 to 20)
#    0.000    0.750    2.500    4.875    8.750    0.500 
#    2.250    1.250    0.000    0.000    0.000    0.000 
#    0.000    0.000    0.000    0.000    0.000    0.000 
#
# Total GULP energy -198235.445881 kJ/mol
# GULP energy per Si atom -12389.715368 kJ/mol
# Density = 2.331202 g / cm^3
# Si number density = 23.365200 Si / 1000 Ang^3
#
#
#
# Elastic Constant Matrix: (Units=GPa)
#
#
# Indices 1 2 3 4 5 6 
#
# 1 131.0541 28.7151 38.0308 -8.3672 -17.4487 20.8443
# 2 28.7151 80.8986 36.4694 -0.7066 0.1874 14.0745
# 3 38.0308 36.4694 110.6831 -17.0531 1.5246 10.0657
# 4 -8.3672 -0.7066 -17.0531 47.6998 5.2202 -5.5408
# 5 -17.4487 0.1874 1.5246 5.2202 37.7997 -4.5808
# 6 20.8443 14.0745 10.0657 -5.5408 -4.5808 34.9905
#
#
#
# Elastic Compliance Matrix: (Units=1/GPa)
#
#
# Indices 1 2 3 4 5 6 
#
# 1 0.009933 -0.001686 -0.002575 -0.000127 0.004235 -0.003964
# 2 -0.001686 0.015760 -0.004515 -0.002096 -0.000929 -0.004489
# 3 -0.002575 -0.004515 0.012040 0.004053 -0.002182 0.000243
# 4 -0.000127 -0.002096 0.004053 0.023041 -0.003030 0.003005
# 5 0.004235 -0.000929 -0.002182 -0.003030 0.029141 0.001814
# 6 -0.003964 -0.004489 0.000243 0.003005 0.001814 0.033390
#
#
# Mechanical properties :
#
#
# Convention : Reuss Voigt Hill
#
# Bulk Modulus (GPa) = 49.55387 58.78514 54.16951
# Shear Modulus (GPa) = 33.87888 38.72601 36.30245
#
# Velocity S-wave (km/s) = 3.81198 4.07556 3.94597
# Velocity P-wave (km/s) = 6.37412 6.88192 6.63288
#
# Compressibility (1/GPa) = 0.02018006
#
# Stress axis : x y z
#
# Youngs Moduli (GPa) = 100.67108 63.45107 83.05845
#
# Poissons Ratio (x) = 0.10700 0.21386
# Poissons Ratio (y) = 0.16977 0.37504
# Poissons Ratio (z) = 0.25921 0.28651
#
# Static dielectric constant tensor:
#      x y z
#    x 4.283760 0.038700 -0.202410 
#    y 0.038700 4.331370 0.095620 
#    z -0.202410 0.095620 4.455350 
# 
# 
# High freq. dielectric constant tensor:
#      x y z
#    x 1.937780 0.017880 -0.013770 
#    y 0.017880 1.910830 -0.000160 
#    z -0.013770 -0.000160 1.932090 
# 
# From -- ./inp_files/405370.got.cif
#   From: 2010.06.25/outbox.cif.g09.slc.cpg/sg2_203_cif.got.tgz:405370.got - 2010.06.27 13:26:56.
