data_PCOD8033505
_publ_section_title
;
Structure prediction by ZEFSAII (Michael W. Deem and Ramdas Pophale) SiO2 
 PCOD8033505
Probable space group: P -1
;
_chemical_formula_sum "Si O2"
_cell_formula_units_Z 16
_cell_length_a 22.107283
_cell_length_b 7.998379
_cell_length_c 6.400154
_cell_angle_alpha 97.489353
_cell_angle_beta 57.830988
_cell_angle_gamma 130.616254
_cell_volume 684.749413
_symmetry_space_group_name_H-M "P -1"
_symmetry_group_IT_number 2
_symmetry_cell_setting 'triclinic'
loop_
_space_group_symop_operation_xyz
x,y,z
-x,-y,-z
loop_
_atom_site_type_symbol
_atom_site_label
_atom_site_fract_x
_atom_site_fract_y
_atom_site_fract_z
Si Si1 0.475317 0.259109 0.610668
Si Si2 0.224581 0.586625 0.541230
Si Si3 0.720061 0.979501 0.279326
Si Si4 0.865011 0.122934 0.691844
Si Si5 0.417559 0.975762 0.036728
Si Si6 0.038051 0.453894 0.724259
Si Si7 0.740245 0.727420 0.548742
Si Si8 0.534766 0.420713 0.115583
O O1 0.394540 0.210755 0.596878
O O2 0.559491 0.373571 0.294185
O O3 0.494546 0.429620 0.783476
O O4 0.443262 0.035523 0.750879
O O5 0.305675 0.726794 0.226189
O O6 0.111546 0.422108 0.646129
O O7 0.237608 0.425791 0.603934
O O8 0.245515 0.777370 0.683301
O O9 0.748555 0.880052 0.375692
O O10 0.769735 0.032995 0.972916
O O11 0.902486 0.326770 0.500693
O O12 0.948913 0.216491 0.724891
O O13 0.826691 0.902487 0.589351
O O14 0.433379 0.179371 0.159625
O O15 0.500000 0.000000 0.000000
O O16 0.000000 0.500000 0.000000
O O17 0.631169 0.546246 0.819111
#
# Coordination Sequence:
#
# PCOD8033505 Si02
#       8
#     2   2   2   2   2   2   2   2
#     4  11  25  40  71  97 134 202 241 281 366 415
#     4  12  25  46  72 104 143 191 232 297 362 414
#     4  12  24  48  71 104 146 187 238 299 350 432
#     4  11  23  46  76 103 139 185 230 297 360 424
#     4  12  25  45  63 100 148 180 234 298 345 418
#     4  11  23  47  80 104 141 184 237 299 362 427
#     4  12  26  45  69 106 148 184 242 299 352 421
#     4  11  24  40  66  98 136 186 245 288 343 425
#
# _framework density 23.366211
#
# number of rings (size 3 to 8) (size 9 to 14) (size 15 to 20)
#    0.000    0.500    6.250    1.875    3.500    1.000 
#    6.750    2.500    0.000    0.000    0.000    0.000 
#    0.000    0.000    0.000    0.000    0.000    0.000 
#
# Total GULP energy -198214.348713 kJ/mol
# GULP energy per Si atom -12388.396795 kJ/mol
# Density = 2.331303 g / cm^3
# Si number density = 23.366211 Si / 1000 Ang^3
#
#
#
# Elastic Constant Matrix: (Units=GPa)
#
#
# Indices 1 2 3 4 5 6 
#
# 1 125.8397 44.1117 41.5821 0.9257 -0.1186 -6.9701
# 2 44.1117 103.2300 5.6628 8.3998 5.6252 -4.4694
# 3 41.5821 5.6628 109.7307 -9.9561 11.7661 -23.9558
# 4 0.9257 8.3998 -9.9561 23.6683 1.6958 -0.8853
# 5 -0.1186 5.6252 11.7661 1.6958 22.5003 -9.6367
# 6 -6.9701 -4.4694 -23.9558 -0.8853 -9.6367 42.7220
#
#
#
# Elastic Compliance Matrix: (Units=1/GPa)
#
#
# Indices 1 2 3 4 5 6 
#
# 1 0.011028 -0.004595 -0.004495 -0.000954 0.003438 -0.000446
# 2 -0.004595 0.012047 0.001259 -0.003317 -0.003269 0.000410
# 3 -0.004495 0.001259 0.013075 0.005813 -0.005180 0.005682
# 4 -0.000954 -0.003317 0.005813 0.046337 -0.004556 0.002689
# 5 0.003438 -0.003269 -0.005180 -0.004556 0.052182 0.008990
# 6 -0.000446 0.000410 0.005682 0.002689 0.008990 0.028647
#
#
# Mechanical properties :
#
#
# Convention : Reuss Voigt Hill
#
# Bulk Modulus (GPa) = 48.80782 57.94595 53.37689
# Shear Modulus (GPa) = 26.90963 34.27437 30.59200
#
# Velocity S-wave (km/s) = 3.39727 3.83408 3.62227
# Velocity P-wave (km/s) = 6.02679 6.66732 6.35513
#
# Compressibility (1/GPa) = 0.02048852
#
# Stress axis : x y z
#
# Youngs Moduli (GPa) = 90.67807 83.00610 76.48341
#
# Poissons Ratio (x) = 0.38141 0.34376
# Poissons Ratio (y) = 0.41666 -0.09627
# Poissons Ratio (z) = 0.40755 -0.10447
#
# Static dielectric constant tensor:
#      x y z
#    x 4.318810 0.115390 0.150730 
#    y 0.115390 5.089570 -0.070610 
#    z 0.150730 -0.070610 4.531540 
# 
# 
# High freq. dielectric constant tensor:
#      x y z
#    x 1.911860 0.005720 0.014080 
#    y 0.005720 1.928060 -0.007370 
#    z 0.014080 -0.007370 1.939220 
# 
# From -- ./inp_files/122583.got.cif
#   From: 2010.06.25/outbox.cif.g09.slc.cpg/sg2_62_cif.got.tgz:122583.got - 2010.06.27 13:26:56.
