data_PCOD8033764
_publ_section_title
;
Structure prediction by ZEFSAII (Michael W. Deem and Ramdas Pophale) SiO2 
 PCOD8033764
Probable space group: P -1
;
_chemical_formula_sum "Si O2"
_cell_formula_units_Z 16
_cell_length_a 7.724366
_cell_length_b 11.087966
_cell_length_c 14.600692
_cell_angle_alpha 147.813800
_cell_angle_beta 88.226871
_cell_angle_gamma 103.099268
_cell_volume 616.804986
_symmetry_space_group_name_H-M "P -1"
_symmetry_group_IT_number 2
_symmetry_cell_setting 'triclinic'
loop_
_space_group_symop_operation_xyz
x,y,z
-x,-y,-z
loop_
_atom_site_type_symbol
_atom_site_label
_atom_site_fract_x
_atom_site_fract_y
_atom_site_fract_z
Si Si1 0.146121 0.281823 0.593666
Si Si2 0.764553 0.948639 0.167150
Si Si3 0.808760 0.506643 0.974138
Si Si4 0.739088 0.108712 0.576528
Si Si5 0.354676 0.688134 0.973814
Si Si6 0.654523 0.266703 0.504191
Si Si7 0.711961 0.851997 0.670557
Si Si8 0.915857 0.783148 0.789884
O O1 0.256597 0.567858 0.802330
O O2 0.140650 0.203511 0.435904
O O3 0.940593 0.218402 0.593913
O O4 0.275307 0.156075 0.560549
O O5 0.721775 0.066292 0.332990
O O6 0.848803 0.748243 0.066869
O O7 0.573112 0.816631 0.028400
O O8 0.906111 0.171847 0.249117
O O9 0.712904 0.261614 0.760434
O O10 0.682362 0.507521 0.066843
O O11 0.000000 0.500000 0.000000
O O12 0.590029 0.141893 0.526184
O O13 0.263333 0.867916 0.136127
O O14 0.492006 0.301505 0.468439
O O15 0.834415 0.523165 0.675963
O O16 0.741974 0.774809 0.723264
O O17 0.000000 0.000000 0.000000
#
# Coordination Sequence:
#
# PCOD8033764 Si02
#       8
#     2   2   2   2   2   2   2   2
#     4  11  24  42  73 105 152 189 234 294 363 433
#     4  11  26  45  69 101 143 189 243 294 362 425
#     4  12  22  41  67 104 151 188 235 297 352 430
#     4  11  24  41  71 110 142 195 239 284 366 434
#     4  11  24  44  69 109 145 190 234 298 361 431
#     4  11  26  48  73 104 144 191 244 300 357 430
#     4  11  26  49  73 109 145 186 242 301 363 430
#     4  12  27  49  76 102 141 191 245 302 361 424
#
# _framework density 25.940128000000001
#
# number of rings (size 3 to 8) (size 9 to 14) (size 15 to 20)
#    0.000    0.750    2.500    4.125    7.000    1.500 
#    0.000    1.250    0.000    0.000    0.000    0.000 
#    0.000    0.000    0.000    0.000    0.000    0.000 
#
# Total GULP energy -198252.435802 kJ/mol
# GULP energy per Si atom -12390.777238 kJ/mol
# Density = 2.588109 g / cm^3
# Si number density = 25.940128 Si / 1000 Ang^3
#
#
#
# Elastic Constant Matrix: (Units=GPa)
#
#
# Indices 1 2 3 4 5 6 
#
# 1 68.0281 -14.0165 0.9574 -12.4571 1.5592 -13.5588
# 2 -14.0165 75.5517 7.6461 -15.6421 1.8988 -8.2391
# 3 0.9574 7.6461 131.3159 -18.5613 5.0634 -10.9172
# 4 -12.4571 -15.6421 -18.5613 41.8864 1.0755 9.8215
# 5 1.5592 1.8988 5.0634 1.0755 38.4582 -5.8825
# 6 -13.5588 -8.2391 -10.9172 9.8215 -5.8825 26.9479
#
#
#
# Elastic Compliance Matrix: (Units=1/GPa)
#
#
# Indices 1 2 3 4 5 6 
#
# 1 0.018842 0.005655 0.001169 0.006000 0.000091 0.009516
# 2 0.005655 0.016227 0.000426 0.006663 -0.000438 0.005455
# 3 0.001169 0.000426 0.008342 0.003619 -0.000872 0.002589
# 4 0.006000 0.006663 0.003619 0.031089 -0.002745 -0.005408
# 5 0.000091 -0.000438 -0.000872 -0.002745 0.027206 0.006498
# 6 0.009516 0.005455 0.002589 -0.005408 0.006498 0.048003
#
#
# Mechanical properties :
#
#
# Convention : Reuss Voigt Hill
#
# Bulk Modulus (GPa) = 17.26782 29.34110 23.30446
# Shear Modulus (GPa) = 32.35992 40.14574 36.25283
#
# Velocity S-wave (km/s) = 3.53581 3.93826 3.74245
# Velocity P-wave (km/s) = 4.83120 5.65823 5.26099
#
# Compressibility (1/GPa) = 0.05791119
#
# Stress axis : x y z
#
# Youngs Moduli (GPa) = 53.07390 61.62449 119.87155
#
# Poissons Ratio (x) = -0.34848 -0.14013
# Poissons Ratio (y) = -0.30013 -0.05108
# Poissons Ratio (z) = -0.06204 -0.02626
#
# Static dielectric constant tensor:
#      x y z
#    x 4.979620 0.252380 0.083090 
#    y 0.252380 4.956560 -0.017580 
#    z 0.083090 -0.017580 4.638980 
# 
# 
# High freq. dielectric constant tensor:
#      x y z
#    x 2.049580 0.002990 0.009980 
#    y 0.002990 2.024980 -0.010240 
#    z 0.009980 -0.010240 2.048900 
# 
# From -- ./inp_files/501205.got.cif
#   From: 2010.06.25/outbox.cif.g09.slc.cpg/sg2_251_cif.got.tgz:501205.got - 2010.06.27 13:26:56.
