data_PCOD8033157
_publ_section_title
;
Structure prediction by ZEFSAII (Michael W. Deem and Ramdas Pophale) SiO2 
 PCOD8033157
Probable space group: P -1
;
_chemical_formula_sum "Si O2"
_cell_formula_units_Z 16
_cell_length_a 7.749365
_cell_length_b 23.249880
_cell_length_c 6.544476
_cell_angle_alpha 84.213015
_cell_angle_beta 119.272351
_cell_angle_gamma 132.622006
_cell_volume 706.471880
_symmetry_space_group_name_H-M "P -1"
_symmetry_group_IT_number 2
_symmetry_cell_setting 'triclinic'
loop_
_space_group_symop_operation_xyz
x,y,z
-x,-y,-z
loop_
_atom_site_type_symbol
_atom_site_label
_atom_site_fract_x
_atom_site_fract_y
_atom_site_fract_z
Si Si1 0.681362 0.653799 0.206366
Si Si2 0.202501 0.049537 0.293492
Si Si3 0.240554 0.628430 0.724076
Si Si4 0.286373 0.501035 0.283442
Si Si5 0.630246 0.236838 0.973625
Si Si6 0.016774 0.095155 0.504589
Si Si7 0.022844 0.629581 0.204749
Si Si8 0.788873 0.170385 0.364525
O O1 0.459493 0.595610 0.286486
O O2 0.795460 0.615906 0.215468
O O3 0.924268 0.747799 0.390077
O O4 0.520365 0.649798 0.924977
O O5 0.113191 0.088947 0.346187
O O6 0.530425 0.124015 0.389648
O O7 0.181428 0.991107 0.455186
O O8 0.000000 0.000000 0.000000
O O9 0.263593 0.696126 0.817863
O O10 0.957189 0.535592 0.678111
O O11 0.219345 0.632484 0.467561
O O12 0.500000 0.500000 0.500000
O O13 0.140112 0.446984 0.013036
O O14 0.724160 0.192638 0.113117
O O15 0.289943 0.168167 0.776155
O O16 0.779127 0.282387 0.828623
O O17 0.828737 0.112231 0.344318
#
# Coordination Sequence:
#
# PCOD8033157 Si02
#       8
#     2   2   2   2   2   2   2   2
#     4  12  23  42  69 101 132 183 234 285 354 413
#     4  11  25  49  74 104 146 181 230 291 347 428
#     4  11  24  43  68  95 140 181 227 291 343 408
#     4  11  23  45  68  91 142 184 231 291 345 411
#     4  11  23  45  66 103 139 179 229 290 341 416
#     4  11  25  46  75 104 140 184 232 282 358 424
#     4  11  24  43  66  97 138 185 234 286 351 401
#     4  12  24  47  75 103 145 186 232 292 358 416
#
# _framework density 22.647753999999999
#
# number of rings (size 3 to 8) (size 9 to 14) (size 15 to 20)
#    0.000    0.750    5.000    2.625    0.000    2.000 
#    9.000    0.000    0.000    0.000    0.000    0.000 
#    0.000    0.000    0.000    0.000    0.000    0.000 
#
# Total GULP energy -198508.780273 kJ/mol
# GULP energy per Si atom -12406.798767 kJ/mol
# Density = 2.259621 g / cm^3
# Si number density = 22.647754 Si / 1000 Ang^3
#
#
#
# Elastic Constant Matrix: (Units=GPa)
#
#
# Indices 1 2 3 4 5 6 
#
# 1 75.5087 44.1510 32.7071 -12.6402 7.2004 -0.0979
# 2 44.1510 144.2201 48.5117 -10.4924 1.0079 16.6945
# 3 32.7071 48.5117 137.9142 -19.4234 10.1309 3.2123
# 4 -12.6402 -10.4924 -19.4234 35.3560 -3.6932 6.3304
# 5 7.2004 1.0079 10.1309 -3.6932 34.5917 -9.0426
# 6 -0.0979 16.6945 3.2123 6.3304 -9.0426 31.1625
#
#
#
# Elastic Compliance Matrix: (Units=1/GPa)
#
#
# Indices 1 2 3 4 5 6 
#
# 1 0.017565 -0.004630 -0.001933 0.003359 -0.002229 0.001405
# 2 -0.004630 0.009721 -0.002056 0.001037 0.000031 -0.005212
# 3 -0.001933 -0.002056 0.009142 0.003716 -0.002138 -0.001222
# 4 0.003359 0.001037 0.003716 0.033191 -0.000302 -0.007758
# 5 -0.002229 0.000031 -0.002138 -0.000302 0.032498 0.009688
# 6 0.001405 -0.005212 -0.001222 -0.007758 0.009688 0.039400
#
#
# Mechanical properties :
#
#
# Convention : Reuss Voigt Hill
#
# Bulk Modulus (GPa) = 52.11218 67.59805 59.85512
# Shear Modulus (GPa) = 30.27527 35.70694 32.99110
#
# Velocity S-wave (km/s) = 3.66018 3.97498 3.82082
# Velocity P-wave (km/s) = 6.39706 7.14000 6.77872
#
# Compressibility (1/GPa) = 0.01918937
#
# Stress axis : x y z
#
# Youngs Moduli (GPa) = 56.93299 102.86551 109.39096
#
# Poissons Ratio (x) = 0.47623 0.21144
# Poissons Ratio (y) = 0.26358 0.22496
# Poissons Ratio (z) = 0.11005 0.21154
#
# Static dielectric constant tensor:
#      x y z
#    x 4.012280 0.129690 0.112770 
#    y 0.129690 4.376370 -0.049530 
#    z 0.112770 -0.049530 4.071560 
# 
# 
# High freq. dielectric constant tensor:
#      x y z
#    x 1.884730 0.002570 0.010740 
#    y 0.002570 1.908670 -0.002820 
#    z 0.010740 -0.002820 1.901280 
# 
# From -- ./inp_files/56408.got.cif
#   From: 2010.06.25/outbox.cif.g09.slc.cpg/sg2_29_cif.got.tgz:56408.got - 2010.06.27 13:26:56.
