data_PCOD8033810
_publ_section_title
;
Structure prediction by ZEFSAII (Michael W. Deem and Ramdas Pophale) SiO2 
 PCOD8033810
Probable space group: P -1
;
_chemical_formula_sum "Si O2"
_cell_formula_units_Z 16
_cell_length_a 6.836440
_cell_length_b 9.682197
_cell_length_c 22.416665
_cell_angle_alpha 43.489559
_cell_angle_beta 49.399582
_cell_angle_gamma 53.246229
_cell_volume 752.384983
_symmetry_space_group_name_H-M "P -1"
_symmetry_group_IT_number 2
_symmetry_cell_setting 'triclinic'
loop_
_space_group_symop_operation_xyz
x,y,z
-x,-y,-z
loop_
_atom_site_type_symbol
_atom_site_label
_atom_site_fract_x
_atom_site_fract_y
_atom_site_fract_z
Si Si1 0.882737 0.386298 0.925056
Si Si2 0.566828 0.816248 0.882708
Si Si3 0.876705 0.388927 0.787766
Si Si4 0.458278 0.172345 0.711788
Si Si5 0.379664 0.821046 0.453308
Si Si6 0.178246 0.255952 0.402108
Si Si7 0.515515 0.863355 0.097906
Si Si8 0.289359 0.475489 0.425004
O O1 0.812439 0.613106 0.899191
O O2 0.793008 0.421191 0.863143
O O3 0.188899 0.273626 0.906424
O O4 0.712411 0.245055 0.034590
O O5 0.570430 0.931772 0.782265
O O6 0.597082 0.979877 0.875673
O O7 0.886253 0.605287 0.687707
O O8 0.668412 0.295153 0.822298
O O9 0.164085 0.235660 0.776326
O O10 0.447790 0.206185 0.632368
O O11 0.642586 0.303880 0.666306
O O12 0.503428 0.647352 0.530214
O O13 0.087623 0.795684 0.502645
O O14 0.380944 0.042549 0.411243
O O15 0.320376 0.361652 0.391072
O O16 0.500000 0.000000 0.000000
O O17 0.000000 0.500000 0.500000
#
# Coordination Sequence:
#
# PCOD8033810 Si02
#       8
#     2   2   2   2   2   2   2   2
#     4  11  25  48  69 101 143 173 223 282 334 400
#     4  11  24  46  73 101 135 181 222 278 339 398
#     4  12  24  44  70  97 136 179 226 276 335 401
#     4  12  23  44  69  96 133 178 228 275 332 405
#     4  11  24  44  64  96 136 170 223 280 335 397
#     4  11  24  42  67  96 132 176 219 281 335 393
#     4  12  24  45  70 101 136 179 226 273 338 401
#     4  12  23  43  66  94 131 174 224 272 337 398
#
# _framework density 21.265706999999999
#
# number of rings (size 3 to 8) (size 9 to 14) (size 15 to 20)
#    0.000    0.500    5.000    4.125    0.000    0.500 
#    6.750    0.000    0.000    0.000    0.000    0.000 
#    0.000    0.000    0.000    0.000    0.000    0.000 
#
# Total GULP energy -198489.009523 kJ/mol
# GULP energy per Si atom -12405.563095 kJ/mol
# Density = 2.121731 g / cm^3
# Si number density = 21.265707 Si / 1000 Ang^3
#
#
#
# Elastic Constant Matrix: (Units=GPa)
#
#
# Indices 1 2 3 4 5 6 
#
# 1 92.9752 45.9232 30.9606 2.4281 -4.6165 11.4927
# 2 45.9232 128.5435 38.7053 -2.8937 -6.7324 9.4286
# 3 30.9606 38.7053 113.7166 -16.3453 7.7685 9.6830
# 4 2.4281 -2.8937 -16.3453 26.4849 -0.2481 2.6870
# 5 -4.6165 -6.7324 7.7685 -0.2481 36.2661 -2.0522
# 6 11.4927 9.4286 9.6830 2.6870 -2.0522 24.9614
#
#
#
# Elastic Compliance Matrix: (Units=1/GPa)
#
#
# Indices 1 2 3 4 5 6 
#
# 1 0.014232 -0.003989 -0.002756 -0.003070 0.001441 -0.003527
# 2 -0.003989 0.010085 -0.002378 0.000110 0.001823 -0.000912
# 3 -0.002756 -0.002378 0.012014 0.007742 -0.003518 -0.003616
# 4 -0.003070 0.000110 0.007742 0.043467 -0.002098 -0.006483
# 5 0.001441 0.001823 -0.003518 -0.002098 0.028983 0.002621
# 6 -0.003527 -0.000912 -0.003616 -0.006483 0.002621 0.044347
#
#
# Mechanical properties :
#
#
# Convention : Reuss Voigt Hill
#
# Bulk Modulus (GPa) = 55.29434 62.93483 59.11459
# Shear Modulus (GPa) = 28.18442 32.18556 30.18499
#
# Velocity S-wave (km/s) = 3.64448 3.89459 3.77161
# Velocity P-wave (km/s) = 6.61572 7.06276 6.84289
#
# Compressibility (1/GPa) = 0.01808503
#
# Stress axis : x y z
#
# Youngs Moduli (GPa) = 70.26625 99.15232 83.23309
#
# Poissons Ratio (x) = 0.39555 0.22941
# Poissons Ratio (y) = 0.28032 0.19790
# Poissons Ratio (z) = 0.19367 0.23575
#
# Static dielectric constant tensor:
#      x y z
#    x 3.761880 0.172340 0.011560 
#    y 0.172340 3.949790 -0.075670 
#    z 0.011560 -0.075670 4.003490 
# 
# 
# High freq. dielectric constant tensor:
#      x y z
#    x 1.825150 0.006380 0.003280 
#    y 0.006380 1.842580 -0.005940 
#    z 0.003280 -0.005940 1.854120 
# 
# From -- ./inp_files/48739.got.cif
#   From: 2010.06.25/outbox.cif.g09.slc.cpg/sg2_25_cif.got.tgz:48739.got - 2010.06.27 13:26:56.
