data_PCOD8033145
_publ_section_title
;
Structure prediction by ZEFSAII (Michael W. Deem and Ramdas Pophale) SiO2 
 PCOD8033145
Probable space group: P -1
;
_chemical_formula_sum "Si O2"
_cell_formula_units_Z 16
_cell_length_a 11.392883
_cell_length_b 5.309965
_cell_length_c 22.507306
_cell_angle_alpha 67.862015
_cell_angle_beta 147.793198
_cell_angle_gamma 103.816521
_cell_volume 663.307047
_symmetry_space_group_name_H-M "P -1"
_symmetry_group_IT_number 2
_symmetry_cell_setting 'triclinic'
loop_
_space_group_symop_operation_xyz
x,y,z
-x,-y,-z
loop_
_atom_site_type_symbol
_atom_site_label
_atom_site_fract_x
_atom_site_fract_y
_atom_site_fract_z
Si Si1 0.365423 0.374190 0.405261
Si Si2 0.943266 0.106206 0.779141
Si Si3 0.413703 0.287985 0.309001
Si Si4 0.601247 0.419232 0.113927
Si Si5 0.387281 0.899625 0.060633
Si Si6 0.037919 0.044072 0.332148
Si Si7 0.858008 0.297565 0.925723
Si Si8 0.906959 0.212409 0.493485
O O1 0.500000 0.500000 0.500000
O O2 0.140638 0.575493 0.270642
O O3 0.513591 0.329356 0.413444
O O4 0.291394 0.104791 0.427146
O O5 0.743971 0.944911 0.729638
O O6 0.005937 0.099839 0.736261
O O7 0.164042 0.005236 0.919390
O O8 0.254017 0.563964 0.193968
O O9 0.637139 0.225924 0.370026
O O10 0.553026 0.685875 0.111319
O O11 0.866640 0.331629 0.236074
O O12 0.495992 0.150830 0.111175
O O13 0.500000 0.500000 0.000000
O O14 0.342324 0.731301 0.113927
O O15 0.014253 0.882361 0.397597
O O16 0.000000 0.500000 0.000000
O O17 0.000000 0.000000 0.000000
O O18 0.000000 0.500000 0.500000
O O19 0.000000 0.000000 0.500000
#
# Coordination Sequence:
#
# PCOD8033145 Si02
#       8
#     2   2   2   2   2   2   2   2
#     4  11  24  45  81 106 143 184 259 317 373 426
#     4  11  23  44  78 106 145 183 248 317 365 443
#     4  11  27  48  73 112 146 198 251 313 377 436
#     4  12  26  45  71 108 152 192 240 302 368 452
#     4  12  26  44  70 110 148 194 239 295 380 438
#     4  11  27  46  74 108 145 196 253 304 377 430
#     4  12  26  46  75 109 151 191 245 305 376 451
#     4  12  32  52  74 104 150 200 251 300 366 454
#
# _framework density 24.121559999999999
#
# number of rings (size 3 to 8) (size 9 to 14) (size 15 to 20)
#    0.000    0.500    2.500    4.125   12.250    2.000 
#    0.000    0.000    0.000    0.000    0.000    0.000 
#    0.000    0.000    0.000    0.000    0.000    0.000 
#
# Total GULP energy -198257.484471 kJ/mol
# GULP energy per Si atom -12391.092779 kJ/mol
# Density = 2.406666 g / cm^3
# Si number density = 24.121560 Si / 1000 Ang^3
#
#
#
# Elastic Constant Matrix: (Units=GPa)
#
#
# Indices 1 2 3 4 5 6 
#
# 1 138.3680 40.7521 42.4837 -7.8965 -3.2171 14.3614
# 2 40.7521 107.7009 21.0656 -2.7162 -3.9014 6.7600
# 3 42.4837 21.0656 96.7546 -10.2006 -4.7731 6.5858
# 4 -7.8965 -2.7162 -10.2006 45.8179 1.3785 4.3692
# 5 -3.2171 -3.9014 -4.7731 1.3785 46.0023 -8.4331
# 6 14.3614 6.7600 6.5858 4.3692 -8.4331 42.2746
#
#
#
# Elastic Compliance Matrix: (Units=1/GPa)
#
#
# Indices 1 2 3 4 5 6 
#
# 1 0.009326 -0.002731 -0.003254 0.000961 -0.000386 -0.002401
# 2 -0.002731 0.010572 -0.001049 -0.000046 0.000508 -0.000493
# 3 -0.003254 -0.001049 0.012307 0.002162 0.000765 -0.000715
# 4 0.000961 -0.000046 0.002162 0.022805 -0.000984 -0.003209
# 5 -0.000386 0.000508 0.000765 -0.000984 0.022699 0.004561
# 6 -0.002401 -0.000493 -0.000715 -0.003209 0.004561 0.025902
#
#
# Mechanical properties :
#
#
# Convention : Reuss Voigt Hill
#
# Bulk Modulus (GPa) = 55.13923 61.26960 58.20441
# Shear Modulus (GPa) = 40.41213 42.72043 41.56628
#
# Velocity S-wave (km/s) = 4.09755 4.21295 4.15565
# Velocity P-wave (km/s) = 6.73016 7.00862 6.87080
#
# Compressibility (1/GPa) = 0.01813591
#
# Stress axis : x y z
#
# Youngs Moduli (GPa) = 107.22936 94.59190 81.25415
#
# Poissons Ratio (x) = 0.25835 0.26444
# Poissons Ratio (y) = 0.29287 0.08521
# Poissons Ratio (z) = 0.34897 0.09919
#
# Static dielectric constant tensor:
#      x y z
#    x 4.762920 -0.312870 0.253140 
#    y -0.312870 5.432340 -0.619190 
#    z 0.253140 -0.619190 4.698290 
# 
# 
# High freq. dielectric constant tensor:
#      x y z
#    x 1.973340 0.008200 0.004540 
#    y 0.008200 1.964660 -0.012020 
#    z 0.004540 -0.012020 1.973490 
# 
# From -- ./inp_files/609147.got.cif
#   From: 2010.06.25/outbox.cif.g09.slc.cpg/sg2_305_cif.got.tgz:609147.got - 2010.06.27 13:26:56.
