data_PCOD8033965
_publ_section_title
;
Structure prediction by ZEFSAII (Michael W. Deem and Ramdas Pophale) SiO2 
 PCOD8033965
Probable space group: P -1
;
_chemical_formula_sum "Si O2"
_cell_formula_units_Z 14
_cell_length_a 8.825754
_cell_length_b 14.228591
_cell_length_c 9.129497
_cell_angle_alpha 97.865412
_cell_angle_beta 43.674118
_cell_angle_gamma 120.013449
_cell_volume 635.182108
_symmetry_space_group_name_H-M "P -1"
_symmetry_group_IT_number 2
_symmetry_cell_setting 'triclinic'
loop_
_space_group_symop_operation_xyz
x,y,z
-x,-y,-z
loop_
_atom_site_type_symbol
_atom_site_label
_atom_site_fract_x
_atom_site_fract_y
_atom_site_fract_z
Si Si1 0.707369 0.467847 0.181838
Si Si2 0.742976 0.687265 0.297071
Si Si3 0.896064 0.176011 0.425379
Si Si4 0.491748 0.388374 0.007868
Si Si5 0.512254 0.247943 0.745495
Si Si6 0.967699 0.965368 0.845816
Si Si7 0.822649 0.101589 0.792203
O O1 0.736117 0.589259 0.186363
O O2 0.495668 0.378583 0.431231
O O3 0.612641 0.397911 0.082369
O O4 0.000000 0.500000 0.000000
O O5 0.674966 0.759033 0.255277
O O6 0.044887 0.778988 0.176848
O O7 0.710042 0.219769 0.532648
O O8 0.905542 0.145254 0.579245
O O9 0.183352 0.280652 0.189760
O O10 0.818850 0.063446 0.357241
O O11 0.500000 0.500000 0.000000
O O12 0.655427 0.370797 0.762139
O O13 0.339820 0.150765 0.971032
O O14 0.986076 0.052823 0.731248
O O15 0.000000 0.000000 0.000000
O O16 0.500000 0.000000 0.000000
#
# Coordination Sequence:
#
# PCOD8033965 Si02
#       7
#     2   2   2   2   2   2   2
#     4  11  26  44  70 103 138 184 227 286 355 408
#     4  11  25  46  67 102 143 175 234 291 339 418
#     4  11  26  44  69 101 137 185 226 287 354 403
#     4  11  24  44  68 102 141 176 231 287 342 417
#     4  11  24  43  68 100 136 181 231 281 348 411
#     4  11  24  45  66  99 138 174 232 285 335 415
#     4  12  24  47  71  99 142 189 229 287 346 413
#
# _framework density 22.040924
#
# number of rings (size 3 to 8) (size 9 to 14) (size 15 to 20)
#    0.000    0.857    5.714    0.429    4.000    1.143 
#    2.571    0.000    0.000    0.000    0.000    0.000 
#    0.000    0.000    0.000    0.000    0.000    0.000 
#
# Total GULP energy -173435.837420 kJ/mol
# GULP energy per Si atom -12388.274101 kJ/mol
# Density = 2.199076 g / cm^3
# Si number density = 22.040924 Si / 1000 Ang^3
#
#
#
# Elastic Constant Matrix: (Units=GPa)
#
#
# Indices 1 2 3 4 5 6 
#
# 1 97.4360 36.5995 30.1464 21.2099 7.1085 -8.3062
# 2 36.5995 113.6985 38.5991 24.0825 -2.9946 0.1623
# 3 30.1464 38.5991 67.9153 16.1595 -9.6491 0.0053
# 4 21.2099 24.0825 16.1595 51.5184 -2.1152 4.2009
# 5 7.1085 -2.9946 -9.6491 -2.1152 37.2869 1.8019
# 6 -8.3062 0.1623 0.0053 4.2009 1.8019 40.9365
#
#
#
# Elastic Compliance Matrix: (Units=1/GPa)
#
#
# Indices 1 2 3 4 5 6 
#
# 1 0.013974 -0.002250 -0.004674 -0.003696 -0.004429 0.003419
# 2 -0.002250 0.011870 -0.005038 -0.003030 -0.000084 -0.000188
# 3 -0.004674 -0.005038 0.020963 -0.001976 0.005847 -0.000986
# 4 -0.003696 -0.003030 -0.001976 0.023287 0.001425 -0.003190
# 5 -0.004429 -0.000084 0.005847 0.001425 0.029364 -0.002338
# 6 0.003419 -0.000188 -0.000986 -0.003190 -0.002338 0.025553
#
#
# Mechanical properties :
#
#
# Convention : Reuss Voigt Hill
#
# Bulk Modulus (GPa) = 43.70306 54.41554 49.05930
# Shear Modulus (GPa) = 31.93629 37.52868 34.73249
#
# Velocity S-wave (km/s) = 3.81064 4.13083 3.97396
# Velocity P-wave (km/s) = 6.26359 6.89157 6.58507
#
# Compressibility (1/GPa) = 0.02288170
#
# Stress axis : x y z
#
# Youngs Moduli (GPa) = 71.56403 84.24765 47.70252
#
# Poissons Ratio (x) = 0.18956 0.22296
# Poissons Ratio (y) = 0.16102 0.24034
# Poissons Ratio (z) = 0.33449 0.42447
#
# Static dielectric constant tensor:
#      x y z
#    x 0.000000 0.000000 0.000000 
#    y 0.000000 0.000000 0.000000 
#    z 0.000000 0.000000 0.000000 
# 
# 
# High freq. dielectric constant tensor:
#      x y z
#    x 1.866410 -0.003430 0.015130 
#    y -0.003430 1.893650 0.003150 
#    z 0.015130 0.003150 1.857370 
# 
# From -- ./inp_files/40037.got.cif
#   From: 2010.06.25/outbox.cif.g09.slc.cpg/sg2_21_cif.got.tgz:40037.got - 2010.06.27 13:26:56.
