data_PCOD8033209
_publ_section_title
;
Structure prediction by ZEFSAII (Michael W. Deem and Ramdas Pophale) SiO2 
 PCOD8033209
Probable space group: P -1
;
_chemical_formula_sum "Si O2"
_cell_formula_units_Z 14
_cell_length_a 15.106800
_cell_length_b 11.794102
_cell_length_c 12.500499
_cell_angle_alpha 140.627274
_cell_angle_beta 131.261986
_cell_angle_gamma 26.853217
_cell_volume 634.654372
_symmetry_space_group_name_H-M "P -1"
_symmetry_group_IT_number 2
_symmetry_cell_setting 'triclinic'
loop_
_space_group_symop_operation_xyz
x,y,z
-x,-y,-z
loop_
_atom_site_type_symbol
_atom_site_label
_atom_site_fract_x
_atom_site_fract_y
_atom_site_fract_z
Si Si1 0.359597 0.620545 0.677118
Si Si2 0.239615 0.688885 0.241949
Si Si3 0.073517 0.691546 0.449912
Si Si4 0.511337 0.776832 0.313726
Si Si5 0.012798 0.277071 0.830081
Si Si6 0.088718 0.333971 0.336312
Si Si7 0.167293 0.664688 0.929554
O O1 0.553527 0.475611 0.676368
O O2 0.258726 0.596645 0.500274
O O3 0.403173 0.458522 0.700801
O O4 0.197342 0.974465 0.824032
O O5 0.190906 0.568506 0.181988
O O6 0.249937 0.625701 0.080207
O O7 0.069678 0.040026 0.383046
O O8 0.150745 0.422660 0.374970
O O9 0.955610 0.796401 0.324138
O O10 0.644255 0.581423 0.174709
O O11 0.500000 0.000000 0.500000
O O12 0.289767 0.979727 0.260010
O O13 0.000000 0.500000 0.000000
O O14 0.000000 0.500000 0.500000
O O15 0.932997 0.408344 0.199135
O O16 0.000000 0.000000 0.000000
#
# Coordination Sequence:
#
# PCOD8033209 Si02
#       7
#     2   2   2   2   2   2   2
#     4  11  23  45  69  98 140 175 231 284 344 412
#     4  11  25  43  68 100 135 183 230 282 353 408
#     4  11  24  43  71  98 136 183 227 287 347 412
#     4  12  24  42  69 108 139 183 230 282 350 414
#     4  11  26  48  69 100 134 180 235 288 346 411
#     4  12  23  43  71 103 143 182 232 288 348 420
#     4  12  25  41  66 101 144 184 231 283 347 417
#
# _framework density 22.059251
#
# number of rings (size 3 to 8) (size 9 to 14) (size 15 to 20)
#    0.000    0.571    2.857    6.857    0.000    8.571 
#    0.000    0.000    0.000    0.000    0.000    0.000 
#    0.000    0.000    0.000    0.000    0.000    0.000 
#
# Total GULP energy -173589.803058 kJ/mol
# GULP energy per Si atom -12399.271647 kJ/mol
# Density = 2.200904 g / cm^3
# Si number density = 22.059251 Si / 1000 Ang^3
#
#
#
# Elastic Constant Matrix: (Units=GPa)
#
#
# Indices 1 2 3 4 5 6 
#
# 1 123.0067 62.3699 49.2952 7.5542 11.8834 -6.2576
# 2 62.3699 138.3171 53.2741 6.3857 4.4460 -7.9663
# 3 49.2952 53.2741 121.7375 4.1940 -4.7815 -1.0658
# 4 7.5542 6.3857 4.1940 29.3290 -3.2838 7.4314
# 5 11.8834 4.4460 -4.7815 -3.2838 44.9000 1.1052
# 6 -6.2576 -7.9663 -1.0658 7.4314 1.1052 52.1223
#
#
#
# Elastic Compliance Matrix: (Units=1/GPa)
#
#
# Indices 1 2 3 4 5 6 
#
# 1 0.011879 -0.003852 -0.003160 -0.002441 -0.003307 0.001191
# 2 -0.003852 0.010211 -0.002874 -0.001174 -0.000414 0.001216
# 3 -0.003160 -0.002874 0.010825 0.000326 0.002315 -0.000693
# 4 -0.002441 -0.001174 0.000326 0.036808 0.003632 -0.005791
# 5 -0.003307 -0.000414 0.002315 0.003632 0.023735 -0.001434
# 6 0.001191 0.001216 -0.000693 -0.005791 -0.001434 0.020356
#
#
# Mechanical properties :
#
#
# Convention : Reuss Voigt Hill
#
# Bulk Modulus (GPa) = 76.08054 79.21554 77.64804
# Shear Modulus (GPa) = 36.24051 39.81173 38.02612
#
# Velocity S-wave (km/s) = 4.05763 4.25286 4.15639
# Velocity P-wave (km/s) = 7.51775 7.75268 7.63612
#
# Compressibility (1/GPa) = 0.01314397
#
# Stress axis : x y z
#
# Youngs Moduli (GPa) = 84.18220 97.93288 92.37691
#
# Poissons Ratio (x) = 0.37722 0.29190
# Poissons Ratio (y) = 0.32425 0.26549
# Poissons Ratio (z) = 0.26601 0.28145
#
# Static dielectric constant tensor:
#      x y z
#    x 4.242050 -0.115740 0.257740 
#    y -0.115740 4.251590 -0.153970 
#    z 0.257740 -0.153970 4.096740 
# 
# 
# High freq. dielectric constant tensor:
#      x y z
#    x 1.879310 -0.003310 0.015040 
#    y -0.003310 1.870760 -0.004600 
#    z 0.015040 -0.004600 1.867650 
# 
# From -- ./inp_files/451932.got.cif
#   From: 2010.06.25/outbox.cif.g09.slc.cpg/sg2_226_cif.got.tgz:451932.got - 2010.06.27 13:26:56.
