data_PCOD8033982
_publ_section_title
;
Structure prediction by ZEFSAII (Michael W. Deem and Ramdas Pophale) SiO2 
 PCOD8033982
Probable space group: P -1
;
_chemical_formula_sum "Si O2"
_cell_formula_units_Z 16
_cell_length_a 9.981581
_cell_length_b 15.781123
_cell_length_c 6.937428
_cell_angle_alpha 90.346918
_cell_angle_beta 136.574784
_cell_angle_gamma 91.464707
_cell_volume 750.462500
_symmetry_space_group_name_H-M "P -1"
_symmetry_group_IT_number 2
_symmetry_cell_setting 'triclinic'
loop_
_space_group_symop_operation_xyz
x,y,z
-x,-y,-z
loop_
_atom_site_type_symbol
_atom_site_label
_atom_site_fract_x
_atom_site_fract_y
_atom_site_fract_z
Si Si1 0.907453 0.586199 0.838323
Si Si2 0.486341 0.203293 0.428464
Si Si3 0.197012 0.916823 0.360349
Si Si4 0.787237 0.692793 0.082268
Si Si5 0.737955 0.307493 0.967336
Si Si6 0.935140 0.179790 0.421709
Si Si7 0.850557 0.888356 0.707824
Si Si8 0.414969 0.417010 0.808873
O O1 0.840847 0.638624 0.952412
O O2 0.715139 0.561808 0.512378
O O3 0.059515 0.642888 0.871287
O O4 0.000000 0.500000 0.000000
O O5 0.598039 0.120885 0.482037
O O6 0.384001 0.243230 0.137720
O O7 0.324339 0.176884 0.417437
O O8 0.631604 0.277467 0.660665
O O9 0.154455 0.894855 0.538458
O O10 0.223309 0.017145 0.366799
O O11 0.027129 0.878895 0.042515
O O12 0.976447 0.747420 0.346175
O O13 0.724167 0.632549 0.188974
O O14 0.771171 0.222515 0.123305
O O15 0.602140 0.366528 0.946872
O O16 0.091104 0.137562 0.446093
O O17 0.500000 0.500000 0.000000
#
# Coordination Sequence:
#
# PCOD8033982 Si02
#       8
#     2   2   2   2   2   2   2   2
#     4  12  28  47  67 101 138 174 217 275 338 395
#     4  12  23  45  70  99 131 180 223 274 330 391
#     4  11  24  43  68  98 138 181 214 275 342 385
#     4  12  25  45  72  96 137 174 224 277 326 393
#     4  12  25  45  72  96 137 174 224 277 326 393
#     4  12  23  45  70  99 131 180 223 274 330 391
#     4  11  24  44  65 101 141 171 222 279 328 397
#     4  12  28  46  68 102 135 174 223 273 328 401
#
# _framework density 21.320186
#
# number of rings (size 3 to 8) (size 9 to 14) (size 15 to 20)
#    0.000    0.250    5.000    4.500    3.500    2.000 
#    0.000    1.250    0.000    0.000    0.000    0.000 
#    0.000    0.000    0.000    0.000    0.000    0.000 
#
# Total GULP energy -198510.757483 kJ/mol
# GULP energy per Si atom -12406.922343 kJ/mol
# Density = 2.127166 g / cm^3
# Si number density = 21.320186 Si / 1000 Ang^3
#
#
#
# Elastic Constant Matrix: (Units=GPa)
#
#
# Indices 1 2 3 4 5 6 
#
# 1 90.3146 21.4102 29.5531 -5.0336 -8.0549 -23.6229
# 2 21.4102 83.1347 23.4598 -6.2801 -0.0611 -15.7393
# 3 29.5531 23.4598 79.7006 -2.5639 -2.9576 -10.0258
# 4 -5.0336 -6.2801 -2.5639 44.4397 -0.7165 3.9135
# 5 -8.0549 -0.0611 -2.9576 -0.7165 34.1821 -3.3002
# 6 -23.6229 -15.7393 -10.0258 3.9135 -3.3002 53.8671
#
#
#
# Elastic Compliance Matrix: (Units=1/GPa)
#
#
# Indices 1 2 3 4 5 6 
#
# 1 0.014536 -0.001511 -0.004116 0.000784 0.003598 0.005331
# 2 -0.001511 0.013926 -0.003167 0.001371 -0.000316 0.002698
# 3 -0.004116 -0.003167 0.015028 -0.000049 0.000332 0.000090
# 4 0.000784 0.001371 -0.000049 0.022870 0.000576 -0.000891
# 5 0.003598 -0.000316 0.000332 0.000576 0.030469 0.003372
# 6 0.005331 0.002698 0.000090 -0.000891 0.003372 0.021978
#
#
# Mechanical properties :
#
#
# Convention : Reuss Voigt Hill
#
# Bulk Modulus (GPa) = 38.60791 44.66625 41.63708
# Shear Modulus (GPa) = 34.47603 38.41291 36.44447
#
# Velocity S-wave (km/s) = 4.02563 4.24927 4.13896
# Velocity P-wave (km/s) = 6.30520 6.71347 6.51254
#
# Compressibility (1/GPa) = 0.02590143
#
# Stress axis : x y z
#
# Youngs Moduli (GPa) = 68.79306 71.81011 66.54457
#
# Poissons Ratio (x) = 0.10851 0.27390
# Poissons Ratio (y) = 0.10395 0.21074
# Poissons Ratio (z) = 0.28316 0.22742
#
# Static dielectric constant tensor:
#      x y z
#    x 3.900950 -0.034630 -0.051260 
#    y -0.034630 4.006360 -0.179040 
#    z -0.051260 -0.179040 4.027260 
# 
# 
# High freq. dielectric constant tensor:
#      x y z
#    x 1.846130 -0.005370 -0.002010 
#    y -0.005370 1.847350 -0.006940 
#    z -0.002010 -0.006940 1.846540 
# 
# From -- ./inp_files/45278.got.cif
#   From: 2010.06.25/outbox.cif.g09.slc.cpg/sg2_23_cif.got.tgz:45278.got - 2010.06.27 13:26:56.
