data_PCOD8033603
_publ_section_title
;
Structure prediction by ZEFSAII (Michael W. Deem and Ramdas Pophale) SiO2 
 PCOD8033603
Probable space group: P -1
;
_chemical_formula_sum "Si O2"
_cell_formula_units_Z 16
_cell_length_a 17.507393
_cell_length_b 13.179820
_cell_length_c 9.447765
_cell_angle_alpha 35.699570
_cell_angle_beta 69.157039
_cell_angle_gamma 43.730512
_cell_volume 720.892546
_symmetry_space_group_name_H-M "P -1"
_symmetry_group_IT_number 2
_symmetry_cell_setting 'triclinic'
loop_
_space_group_symop_operation_xyz
x,y,z
-x,-y,-z
loop_
_atom_site_type_symbol
_atom_site_label
_atom_site_fract_x
_atom_site_fract_y
_atom_site_fract_z
Si Si1 0.768741 0.656150 0.188775
Si Si2 0.367151 0.201332 0.168678
Si Si3 0.300173 0.674293 0.780286
Si Si4 0.404207 0.570669 0.109302
Si Si5 0.677157 0.658910 0.526372
Si Si6 0.594134 0.275144 0.568980
Si Si7 0.049098 0.314169 0.315205
Si Si8 0.259354 0.154997 0.522736
O O1 0.728229 0.587034 0.413301
O O2 0.927744 0.421819 0.351226
O O3 0.727268 0.646688 0.077221
O O4 0.692772 0.965590 0.918529
O O5 0.353179 0.052662 0.442911
O O6 0.520712 0.979389 0.278971
O O7 0.309884 0.450787 0.025142
O O8 0.323820 0.700210 0.575050
O O9 0.157210 0.983916 0.577908
O O10 0.421629 0.549374 0.945908
O O11 0.300858 0.577942 0.170687
O O12 0.517465 0.320011 0.432330
O O13 0.330657 0.869039 0.875371
O O14 0.762251 0.652710 0.570222
O O15 0.500000 0.500000 0.500000
O O16 0.113428 0.345294 0.344899
O O17 0.000000 0.500000 0.000000
#
# Coordination Sequence:
#
# PCOD8033603 Si02
#       8
#     2   2   2   2   2   2   2   2
#     4  12  25  45  67  99 142 183 217 284 339 400
#     4  12  23  41  70 104 138 172 226 288 339 404
#     4  11  24  41  70  99 132 182 234 271 336 403
#     4  11  24  41  68 101 137 182 217 282 344 401
#     4  12  26  42  67 108 141 171 226 281 355 400
#     4  12  24  40  68 103 140 173 220 279 352 408
#     4  11  23  48  70  94 133 188 233 272 328 404
#     4  11  24  45  71  98 136 181 232 277 332 408
#
# _framework density 22.194710000000001
#
# number of rings (size 3 to 8) (size 9 to 14) (size 15 to 20)
#    0.000    0.500    5.000    4.125    3.500    1.000 
#    0.000    2.500    0.000    0.000    0.000    0.000 
#    0.000    0.000    0.000    0.000    0.000    0.000 
#
# Total GULP energy -198434.204995 kJ/mol
# GULP energy per Si atom -12402.137812 kJ/mol
# Density = 2.214419 g / cm^3
# Si number density = 22.194710 Si / 1000 Ang^3
#
#
#
# Elastic Constant Matrix: (Units=GPa)
#
#
# Indices 1 2 3 4 5 6 
#
# 1 108.1481 33.9893 22.3905 -13.3169 8.2961 9.1333
# 2 33.9893 114.1845 26.6774 -3.0429 2.3992 -3.0205
# 3 22.3905 26.6774 58.9757 -9.5200 1.8049 0.8670
# 4 -13.3169 -3.0429 -9.5200 36.5615 -1.4270 -0.9738
# 5 8.2961 2.3992 1.8049 -1.4270 39.9972 -7.5490
# 6 9.1333 -3.0205 0.8670 -0.9738 -7.5490 32.2636
#
#
#
# Elastic Compliance Matrix: (Units=1/GPa)
#
#
# Indices 1 2 3 4 5 6 
#
# 1 0.011587 -0.002838 -0.002467 0.003126 -0.002772 -0.004034
# 2 -0.002838 0.010528 -0.003906 -0.001104 0.000466 0.001970
# 3 -0.002467 -0.003906 0.020318 0.004063 -0.000045 -0.000101
# 4 0.003126 -0.001104 0.004063 0.029462 0.000258 -0.000148
# 5 -0.002772 0.000466 -0.000045 0.000258 0.026906 0.007133
# 6 -0.004034 0.001970 -0.000101 -0.000148 0.007133 0.033988
#
#
# Mechanical properties :
#
#
# Convention : Reuss Voigt Hill
#
# Bulk Modulus (GPa) = 41.64616 49.71363 45.67989
# Shear Modulus (GPa) = 31.40388 34.98121 33.19255
#
# Velocity S-wave (km/s) = 3.76563 3.97433 3.87139
# Velocity P-wave (km/s) = 6.14096 6.59605 6.37257
#
# Compressibility (1/GPa) = 0.02401182
#
# Stress axis : x y z
#
# Youngs Moduli (GPa) = 86.29999 94.98386 49.21688
#
# Poissons Ratio (x) = 0.26957 0.12140
# Poissons Ratio (y) = 0.24493 0.19225
# Poissons Ratio (z) = 0.21287 0.37103
#
# Static dielectric constant tensor:
#      x y z
#    x 4.270920 0.003730 -0.093580 
#    y 0.003730 3.777700 0.216190 
#    z -0.093580 0.216190 4.065810 
# 
# 
# High freq. dielectric constant tensor:
#      x y z
#    x 1.884220 0.011010 -0.014320 
#    y 0.011010 1.861860 0.018510 
#    z -0.014320 0.018510 1.876630 
# 
# From -- ./inp_files/332733.got.cif
#   From: 2010.06.25/outbox.cif.g09.slc.cpg/sg2_167_cif.got.tgz:332733.got - 2010.06.27 13:26:56.
