data_PCOD8033752
_publ_section_title
;
Structure prediction by ZEFSAII (Michael W. Deem and Ramdas Pophale) SiO2 
 PCOD8033752
Probable space group: P -1
;
_chemical_formula_sum "Si O2"
_cell_formula_units_Z 14
_cell_length_a 10.466642
_cell_length_b 19.795102
_cell_length_c 8.342836
_cell_angle_alpha 32.243028
_cell_angle_beta 42.969622
_cell_angle_gamma 38.925433
_cell_volume 565.237617
_symmetry_space_group_name_H-M "P -1"
_symmetry_group_IT_number 2
_symmetry_cell_setting 'triclinic'
loop_
_space_group_symop_operation_xyz
x,y,z
-x,-y,-z
loop_
_atom_site_type_symbol
_atom_site_label
_atom_site_fract_x
_atom_site_fract_y
_atom_site_fract_z
Si Si1 0.188492 0.920295 0.132488
Si Si2 0.673033 0.691022 0.643325
Si Si3 0.452191 0.542043 0.276706
Si Si4 0.975573 0.223310 0.882006
Si Si5 0.067590 0.188849 0.228567
Si Si6 0.622303 0.056932 0.389304
Si Si7 0.388142 0.289274 0.705927
O O1 0.434668 0.842522 0.102548
O O2 0.097224 0.809002 0.489921
O O3 0.184539 0.940499 0.901100
O O4 0.093066 0.067081 0.018901
O O5 0.903912 0.681419 0.461327
O O6 0.537023 0.793525 0.702180
O O7 0.581482 0.740639 0.451468
O O8 0.655794 0.546773 0.995429
O O9 0.500000 0.500000 0.500000
O O10 0.392579 0.435190 0.448860
O O11 0.257428 0.697039 0.132107
O O12 0.960860 0.205852 0.120839
O O13 0.270680 0.038102 0.363200
O O14 0.158898 0.303673 0.940794
O O15 0.500000 0.000000 0.500000
#
# Coordination Sequence:
#
# PCOD8033752 Si02
#       7
#     2   2   2   2   2   2   2
#     4  12  23  42  73 107 145 182 233 290 353 413
#     4  11  24  46  72 101 145 188 234 288 352 424
#     4  12  28  47  70 103 144 185 238 294 356 418
#     4  11  25  46  73 105 139 187 237 289 352 428
#     4  11  24  41  70 104 144 182 235 284 354 419
#     4  12  22  41  69 108 151 176 228 295 355 404
#     4  11  25  46  72 104 144 189 233 291 350 421
#
# _framework density 24.768345
#
# number of rings (size 3 to 8) (size 9 to 14) (size 15 to 20)
#    0.000    0.571    2.857    4.714    0.000    7.429 
#    0.000    0.000    0.000    0.000    0.000    0.000 
#    0.000    0.000    0.000    0.000    0.000    0.000 
#
# Total GULP energy -173585.765336 kJ/mol
# GULP energy per Si atom -12398.983238 kJ/mol
# Density = 2.471197 g / cm^3
# Si number density = 24.768345 Si / 1000 Ang^3
#
#
#
# Elastic Constant Matrix: (Units=GPa)
#
#
# Indices 1 2 3 4 5 6 
#
# 1 107.4710 15.0567 57.9102 8.1446 -4.0852 -1.0591
# 2 15.0567 60.1726 20.8510 8.4596 -6.3804 10.1932
# 3 57.9102 20.8510 182.8631 32.6968 -13.2287 7.3054
# 4 8.1446 8.4596 32.6968 37.7625 -4.2347 1.0868
# 5 -4.0852 -6.3804 -13.2287 -4.2347 49.4356 -6.5707
# 6 -1.0591 10.1932 7.3054 1.0868 -6.5707 35.4040
#
#
#
# Elastic Compliance Matrix: (Units=1/GPa)
#
#
# Indices 1 2 3 4 5 6 
#
# 1 0.011503 -0.002041 -0.003674 0.001112 0.000020 0.001659
# 2 -0.002041 0.018746 -0.000691 -0.002887 0.001152 -0.005013
# 3 -0.003674 -0.000691 0.007853 -0.005700 0.001066 -0.001158
# 4 0.001112 -0.002887 -0.005700 0.031910 0.001096 0.001264
# 5 0.000020 0.001152 0.001066 0.001096 0.021203 0.003350
# 6 0.001659 -0.005013 -0.001158 0.001264 0.003350 0.030560
#
#
# Mechanical properties :
#
#
# Convention : Reuss Voigt Hill
#
# Bulk Modulus (GPa) = 39.53928 59.79360 49.66644
# Shear Modulus (GPa) = 34.96044 41.63301 38.29672
#
# Velocity S-wave (km/s) = 3.76107 4.10432 3.93644
# Velocity P-wave (km/s) = 5.90416 6.83038 6.38409
#
# Compressibility (1/GPa) = 0.02529131
#
# Stress axis : x y z
#
# Youngs Moduli (GPa) = 86.93217 53.34358 127.33280
#
# Poissons Ratio (x) = 0.10885 0.46780
# Poissons Ratio (y) = 0.17739 0.08804
# Poissons Ratio (z) = 0.31938 0.03688
#
# Static dielectric constant tensor:
#      x y z
#    x 4.794400 -0.013440 -0.347680 
#    y -0.013440 4.310480 0.211890 
#    z -0.347680 0.211890 5.056790 
# 
# 
# High freq. dielectric constant tensor:
#      x y z
#    x 2.006560 -0.003890 -0.012500 
#    y -0.003890 1.957760 0.013520 
#    z -0.012500 0.013520 2.015150 
# 
# From -- ./inp_files/281367.got.cif
#   From: 2010.06.25/outbox.cif.g09.slc.cpg/sg2_141_cif.got.tgz:281367.got - 2010.06.27 13:26:56.
