data_PCOD8033001
_publ_section_title
;
Structure prediction by ZEFSAII (Michael W. Deem and Ramdas Pophale) SiO2 
 PCOD8033001
Probable space group: P -1
;
_chemical_formula_sum "Si O2"
_cell_formula_units_Z 14
_cell_length_a 14.884326
_cell_length_b 6.672174
_cell_length_c 12.995410
_cell_angle_alpha 132.822370
_cell_angle_beta 53.474998
_cell_angle_gamma 134.261833
_cell_volume 659.753885
_symmetry_space_group_name_H-M "P -1"
_symmetry_group_IT_number 2
_symmetry_cell_setting 'triclinic'
loop_
_space_group_symop_operation_xyz
x,y,z
-x,-y,-z
loop_
_atom_site_type_symbol
_atom_site_label
_atom_site_fract_x
_atom_site_fract_y
_atom_site_fract_z
Si Si1 0.882847 0.135524 0.727287
Si Si2 0.301678 0.906639 0.875671
Si Si3 0.551009 0.816938 0.333158
Si Si4 0.235717 0.222793 0.719770
Si Si5 0.403104 0.141586 0.097572
Si Si6 0.949539 0.159796 0.458086
Si Si7 0.080319 0.833443 0.877974
O O1 0.890333 0.138475 0.601663
O O2 0.990815 0.462335 0.814593
O O3 0.741971 0.073270 0.834652
O O4 0.926051 0.888582 0.651011
O O5 0.252344 0.566820 0.843027
O O6 0.177911 0.941937 0.946019
O O7 0.373424 0.953389 0.733860
O O8 0.390165 0.164305 0.990508
O O9 0.625253 0.736878 0.341888
O O10 0.451063 0.481292 0.234006
O O11 0.500000 0.000000 0.500000
O O12 0.175603 0.103264 0.607678
O O13 0.149273 0.948860 0.762673
O O14 0.500000 0.000000 0.000000
O O15 0.000000 0.500000 0.500000
O O16 0.000000 0.000000 0.000000
#
# Coordination Sequence:
#
# PCOD8033001 Si02
#       7
#     2   2   2   2   2   2   2
#     4  11  26  42  71 105 144 180 235 294 355 429
#     4  11  25  47  73  97 143 184 233 300 351 417
#     4  11  28  47  71 102 138 191 247 290 345 429
#     4  11  23  44  70  99 137 178 233 291 357 418
#     4  12  27  49  70 103 148 193 239 284 356 432
#     4  11  24  44  70 107 141 182 231 299 367 416
#     4  11  24  41  69 104 134 173 231 287 358 418
#
# _framework density 21.220034999999999
#
# number of rings (size 3 to 8) (size 9 to 14) (size 15 to 20)
#    0.000    0.857    4.286    1.286    8.000    2.857 
#    0.000    0.000    0.000    0.000    0.000    0.000 
#    0.000    0.000    0.000    0.000    0.000    0.000 
#
# Total GULP energy -173467.656345 kJ/mol
# GULP energy per Si atom -12390.546882 kJ/mol
# Density = 2.117174 g / cm^3
# Si number density = 21.220035 Si / 1000 Ang^3
#
#
#
# Elastic Constant Matrix: (Units=GPa)
#
#
# Indices 1 2 3 4 5 6 
#
# 1 179.2552 48.0237 85.6477 -5.5974 5.6102 -4.5994
# 2 48.0237 101.5857 36.2357 12.4582 -9.5238 -3.6490
# 3 85.6477 36.2357 138.6120 8.9144 2.0847 -0.9188
# 4 -5.5974 12.4582 8.9144 32.6918 3.2666 -0.7063
# 5 5.6102 -9.5238 2.0847 3.2666 41.9375 7.0773
# 6 -4.5994 -3.6490 -0.9188 -0.7063 7.0773 34.0162
#
#
#
# Elastic Compliance Matrix: (Units=1/GPa)
#
#
# Indices 1 2 3 4 5 6 
#
# 1 0.009071 -0.003206 -0.005007 0.004394 -0.002256 0.001308
# 2 -0.003206 0.012770 -0.001061 -0.005507 0.003810 0.000001
# 3 -0.005007 -0.001061 0.010798 -0.003438 0.000265 -0.000626
# 4 0.004394 -0.005507 -0.003438 0.034877 -0.004655 0.001603
# 5 -0.002256 0.003810 0.000265 -0.004655 0.026282 -0.005454
# 6 0.001308 0.000001 -0.000626 0.001603 -0.005454 0.030726
#
#
# Mechanical properties :
#
#
# Convention : Reuss Voigt Hill
#
# Bulk Modulus (GPa) = 70.95681 84.36302 77.65991
# Shear Modulus (GPa) = 33.83669 38.36548 36.10109
#
# Velocity S-wave (km/s) = 3.99753 4.25665 4.12912
# Velocity P-wave (km/s) = 7.40393 8.00009 7.70777
#
# Compressibility (1/GPa) = 0.01409308
#
# Stress axis : x y z
#
# Youngs Moduli (GPa) = 110.24013 78.30655 92.60612
#
# Poissons Ratio (x) = 0.25102 0.46368
# Poissons Ratio (y) = 0.35339 0.09824
# Poissons Ratio (z) = 0.55197 0.08307
#
# Static dielectric constant tensor:
#      x y z
#    x 4.198140 0.118490 -0.174660 
#    y 0.118490 3.859790 0.149190 
#    z -0.174660 0.149190 3.721170 
# 
# 
# High freq. dielectric constant tensor:
#      x y z
#    x 1.855030 -0.004730 0.009920 
#    y -0.004730 1.833650 0.008270 
#    z 0.009920 0.008270 1.835230 
# 
# From -- ./inp_files/69526.got.cif
#   From: 2010.06.25/outbox.cif.g09.slc.cpg/sg2_35_cif.got.tgz:69526.got - 2010.06.27 13:26:56.
