data_PCOD8033533
_publ_section_title
;
Structure prediction by ZEFSAII (Michael W. Deem and Ramdas Pophale) SiO2 
 PCOD8033533
Probable space group: P -1
;
_chemical_formula_sum "Si O2"
_cell_formula_units_Z 14
_cell_length_a 6.498866
_cell_length_b 16.067552
_cell_length_c 15.261915
_cell_angle_alpha 29.803662
_cell_angle_beta 109.268520
_cell_angle_gamma 122.808659
_cell_volume 627.148125
_symmetry_space_group_name_H-M "P -1"
_symmetry_group_IT_number 2
_symmetry_cell_setting 'triclinic'
loop_
_space_group_symop_operation_xyz
x,y,z
-x,-y,-z
loop_
_atom_site_type_symbol
_atom_site_label
_atom_site_fract_x
_atom_site_fract_y
_atom_site_fract_z
Si Si1 0.376472 0.706414 0.199506
Si Si2 0.212578 0.650114 0.564852
Si Si3 0.539558 0.586795 0.174972
Si Si4 0.847400 0.355942 0.030665
Si Si5 0.391562 0.002858 0.388442
Si Si6 0.473650 0.108266 0.766890
Si Si7 0.058889 0.146792 0.149372
O O1 0.529943 0.626774 0.240690
O O2 0.486217 0.755484 0.268288
O O3 0.068655 0.549923 0.300863
O O4 0.438015 0.902222 0.978021
O O5 0.431083 0.599862 0.658362
O O6 0.220838 0.780297 0.528702
O O7 0.280121 0.773976 0.370649
O O8 0.272299 0.540536 0.135904
O O9 0.782270 0.777636 0.987891
O O10 0.036966 0.324312 0.025187
O O11 0.629767 0.136663 0.234260
O O12 0.000000 0.500000 0.000000
O O13 0.500000 0.000000 0.500000
O O14 0.210808 0.092018 0.289681
O O15 0.214401 0.054778 0.727697
#
# Coordination Sequence:
#
# PCOD8033533 Si02
#       7
#     2   2   2   2   2   2   2
#     4  11  25  46  70 101 141 183 235 279 340 411
#     4  12  25  46  68 103 143 178 231 286 340 408
#     4  11  24  43  70 101 136 183 226 287 341 406
#     4  11  25  44  71  99 136 184 228 282 348 407
#     4  11  28  42  69 104 135 182 229 282 346 410
#     4  11  23  47  70 101 139 186 230 282 344 402
#     4  11  23  49  68  98 146 176 227 288 338 412
#
# _framework density 22.323274999999999
#
# number of rings (size 3 to 8) (size 9 to 14) (size 15 to 20)
#    0.000    0.857    4.286    1.286    8.000    2.857 
#    2.571    0.000    0.000    0.000    0.000    0.000 
#    0.000    0.000    0.000    0.000    0.000    0.000 
#
# Total GULP energy -173658.179867 kJ/mol
# GULP energy per Si atom -12404.155705 kJ/mol
# Density = 2.227247 g / cm^3
# Si number density = 22.323275 Si / 1000 Ang^3
#
#
#
# Elastic Constant Matrix: (Units=GPa)
#
#
# Indices 1 2 3 4 5 6 
#
# 1 123.3766 53.1613 37.8070 -1.9543 13.0125 -12.8892
# 2 53.1613 150.4679 37.7160 -3.1266 3.6343 -8.4897
# 3 37.8070 37.7160 94.5925 1.1225 -0.6606 0.0937
# 4 -1.9543 -3.1266 1.1225 33.5573 -6.8160 -1.0607
# 5 13.0125 3.6343 -0.6606 -6.8160 31.4476 2.5889
# 6 -12.8892 -8.4897 0.0937 -1.0607 2.5889 30.5831
#
#
#
# Elastic Compliance Matrix: (Units=1/GPa)
#
#
# Indices 1 2 3 4 5 6 
#
# 1 0.011331 -0.002777 -0.003456 -0.000334 -0.004876 0.004416
# 2 -0.002777 0.008250 -0.002188 0.000761 0.000221 0.001134
# 3 -0.003456 -0.002188 0.012848 -0.000494 0.002034 -0.002293
# 4 -0.000334 0.000761 -0.000494 0.031261 0.006767 0.000583
# 5 -0.004876 0.000221 0.002034 0.006767 0.035695 -0.004787
# 6 0.004416 0.001134 -0.002293 0.000583 -0.004787 0.035306
#
#
# Mechanical properties :
#
#
# Convention : Reuss Voigt Hill
#
# Bulk Modulus (GPa) = 64.15803 69.53397 66.84600
# Shear Modulus (GPa) = 31.90215 35.10113 33.50164
#
# Velocity S-wave (km/s) = 3.78444 3.96965 3.87815
# Velocity P-wave (km/s) = 6.92090 7.22683 7.07552
#
# Compressibility (1/GPa) = 0.01558651
#
# Stress axis : x y z
#
# Youngs Moduli (GPa) = 88.25051 121.21167 77.83436
#
# Poissons Ratio (x) = 0.33662 0.26900
# Poissons Ratio (y) = 0.24508 0.17031
# Poissons Ratio (z) = 0.30500 0.26522
#
# Static dielectric constant tensor:
#      x y z
#    x 4.157850 -0.061750 -0.074760 
#    y -0.061750 4.107870 0.075800 
#    z -0.074760 0.075800 4.098970 
# 
# 
# High freq. dielectric constant tensor:
#      x y z
#    x 1.882330 -0.007130 -0.006630 
#    y -0.007130 1.877740 0.003210 
#    z -0.006630 0.003210 1.887210 
# 
# From -- ./inp_files/44340.got.cif
#   From: 2010.06.25/outbox.cif.g09.slc.cpg/sg2_23_cif.got.tgz:44340.got - 2010.06.27 13:26:56.
