data_PCOD8033980
_publ_section_title
;
Structure prediction by ZEFSAII (Michael W. Deem and Ramdas Pophale) SiO2 
 PCOD8033980
Probable space group: P -1
;
_chemical_formula_sum "Si O2"
_cell_formula_units_Z 16
_cell_length_a 9.495350
_cell_length_b 11.337871
_cell_length_c 9.635299
_cell_angle_alpha 122.505195
_cell_angle_beta 103.751469
_cell_angle_gamma 59.161576
_cell_volume 750.100898
_symmetry_space_group_name_H-M "P -1"
_symmetry_group_IT_number 2
_symmetry_cell_setting 'triclinic'
loop_
_space_group_symop_operation_xyz
x,y,z
-x,-y,-z
loop_
_atom_site_type_symbol
_atom_site_label
_atom_site_fract_x
_atom_site_fract_y
_atom_site_fract_z
Si Si1 0.562534 0.707805 0.494100
Si Si2 0.024519 0.186436 0.721407
Si Si3 0.290179 0.173157 0.168760
Si Si4 0.507781 0.820580 0.026806
Si Si5 0.272788 0.288223 0.734744
Si Si6 0.199318 0.827029 0.561225
Si Si7 0.932783 0.345993 0.092800
Si Si8 0.685053 0.344647 0.238826
O O1 0.657646 0.718384 0.658355
O O2 0.624968 0.773626 0.422340
O O3 0.369274 0.814712 0.538343
O O4 0.593498 0.530649 0.364498
O O5 0.182936 0.185030 0.686131
O O6 0.875545 0.246519 0.614814
O O7 0.073599 0.010480 0.672909
O O8 0.959153 0.300653 0.909784
O O9 0.094687 0.257344 0.167844
O O10 0.358927 0.995815 0.135278
O O11 0.356764 0.159589 0.019552
O O12 0.594036 0.729507 0.129448
O O13 0.447934 0.713411 0.860290
O O14 0.131151 0.467249 0.797104
O O15 0.213587 0.740337 0.654591
O O16 0.801333 0.302164 0.104680
#
# Coordination Sequence:
#
# PCOD8033980 Si02
#       8
#     2   2   2   2   2   2   2   2
#     4  11  26  43  68  98 133 172 220 270 328 390
#     4  11  25  43  65  97 135 173 215 269 331 391
#     4  11  24  43  68  97 131 176 224 267 320 391
#     4  11  24  43  68  97 131 176 224 267 320 391
#     4  11  26  43  68  98 133 172 220 270 328 390
#     4  11  25  43  65  97 135 173 215 269 331 391
#     4  11  26  43  68  98 133 172 220 270 328 390
#     4  11  26  43  68  98 133 172 220 270 328 390
#
# _framework density 21.330463999999999
#
# number of rings (size 3 to 8) (size 9 to 14) (size 15 to 20)
#    0.000    1.000    2.500    2.250    7.000    6.000 
#    0.000    0.000    0.000    0.000    0.000    0.000 
#    0.000    0.000    0.000    0.000    0.000    0.000 
#
# Total GULP energy -198501.784362 kJ/mol
# GULP energy per Si atom -12406.361523 kJ/mol
# Density = 2.128192 g / cm^3
# Si number density = 21.330464 Si / 1000 Ang^3
#
#
#
# Elastic Constant Matrix: (Units=GPa)
#
#
# Indices 1 2 3 4 5 6 
#
# 1 63.8278 11.6945 25.3659 -8.4479 -0.5355 5.3527
# 2 11.6945 71.2503 24.0855 -6.7027 -9.7488 -6.7943
# 3 25.3659 24.0855 73.2259 -13.9478 9.3664 0.3291
# 4 -8.4479 -6.7027 -13.9478 37.6348 3.9864 3.0147
# 5 -0.5355 -9.7488 9.3664 3.9864 36.0141 -8.5705
# 6 5.3527 -6.7943 0.3291 3.0147 -8.5705 32.3946
#
#
#
# Elastic Compliance Matrix: (Units=1/GPa)
#
#
# Indices 1 2 3 4 5 6 
#
# 1 0.018729 -0.001207 -0.005729 0.002093 0.000406 -0.003377
# 2 -0.001207 0.018201 -0.006843 -0.000956 0.008311 0.006374
# 3 -0.005729 -0.006843 0.020204 0.006195 -0.008730 -0.003580
# 4 0.002093 -0.000956 0.006195 0.030255 -0.006406 -0.005120
# 5 0.000406 0.008311 -0.008730 -0.006406 0.035819 0.011837
# 6 -0.003377 0.006374 -0.003580 -0.005120 0.011837 0.036409
#
#
# Mechanical properties :
#
#
# Convention : Reuss Voigt Hill
#
# Bulk Modulus (GPa) = 33.80947 36.73287 35.27117
# Shear Modulus (GPa) = 25.37642 31.01925 28.19784
#
# Velocity S-wave (km/s) = 3.45292 3.81756 3.63981
# Velocity P-wave (km/s) = 5.63751 6.05722 5.85113
#
# Compressibility (1/GPa) = 0.02957751
#
# Stress axis : x y z
#
# Youngs Moduli (GPa) = 53.39417 54.94114 49.49472
#
# Poissons Ratio (x) = 0.06631 0.28355
# Poissons Ratio (y) = 0.06444 0.33867
# Poissons Ratio (z) = 0.30588 0.37594
#
# Static dielectric constant tensor:
#      x y z
#    x 3.855160 -0.026900 -0.062940 
#    y -0.026900 3.845190 -0.092990 
#    z -0.062940 -0.092990 3.848730 
# 
# 
# High freq. dielectric constant tensor:
#      x y z
#    x 1.839110 -0.002420 0.000830 
#    y -0.002420 1.844930 -0.004200 
#    z 0.000830 -0.004200 1.843460 
# 
# From -- ./inp_files/190166.got.cif
#   From: 2010.06.25/outbox.cif.g09.slc.cpg/sg2_96_cif.got.tgz:190166.got - 2010.06.27 13:26:56.
