data_PCOD8033099
_publ_section_title
;
Structure prediction by ZEFSAII (Michael W. Deem and Ramdas Pophale) SiO2 
 PCOD8033099
Probable space group: P -1
;
_chemical_formula_sum "Si O2"
_cell_formula_units_Z 16
_cell_length_a 8.996703
_cell_length_b 9.122261
_cell_length_c 12.075700
_cell_angle_alpha 83.838489
_cell_angle_beta 84.108216
_cell_angle_gamma 45.693233
_cell_volume 704.579132
_symmetry_space_group_name_H-M "P -1"
_symmetry_group_IT_number 2
_symmetry_cell_setting 'triclinic'
loop_
_space_group_symop_operation_xyz
x,y,z
-x,-y,-z
loop_
_atom_site_type_symbol
_atom_site_label
_atom_site_fract_x
_atom_site_fract_y
_atom_site_fract_z
Si Si1 0.664142 0.736684 0.914353
Si Si2 0.497022 0.440276 0.128414
Si Si3 0.400721 0.178047 0.843011
Si Si4 0.633588 0.141683 0.484169
Si Si5 0.012652 0.592210 0.762695
Si Si6 0.850726 0.170853 0.271673
Si Si7 0.312918 0.796934 0.282074
Si Si8 0.203142 0.290653 0.449704
O O1 0.659944 0.589408 0.856428
O O2 0.881985 0.672388 0.881080
O O3 0.454791 0.971068 0.878235
O O4 0.649527 0.705222 0.047325
O O5 0.730577 0.229503 0.160009
O O6 0.435101 0.588917 0.222159
O O7 0.500000 0.500000 0.000000
O O8 0.199271 0.342420 0.766996
O O9 0.607941 0.100141 0.776957
O O10 0.721154 0.187670 0.379479
O O11 0.645481 0.232036 0.587315
O O12 0.396599 0.260793 0.468130
O O13 0.767519 0.899320 0.499711
O O14 0.116888 0.677239 0.722444
O O15 0.833750 0.678744 0.680888
O O16 0.071348 0.939744 0.263224
O O17 0.000000 0.500000 0.500000
#
# Coordination Sequence:
#
# PCOD8033099 Si02
#       8
#     2   2   2   2   2   2   2   2
#     4  11  24  45  70 101 141 182 241 296 356 419
#     4  12  27  48  70 108 145 185 243 303 360 426
#     4  11  23  44  74 100 136 190 237 295 354 423
#     4  11  26  47  71 109 147 189 241 295 364 429
#     4  12  23  44  70 103 136 186 237 288 359 427
#     4  12  26  44  74 105 146 190 239 296 355 435
#     4  12  24  46  74 102 148 189 237 299 360 426
#     4  11  25  45  74 103 145 187 241 301 355 433
#
# _framework density 22.708593
#
# number of rings (size 3 to 8) (size 9 to 14) (size 15 to 20)
#    0.000    0.500    5.000    2.250    0.000    7.000 
#    0.000    0.000    0.000    0.000    0.000    0.000 
#    0.000    0.000    0.000    0.000    0.000    0.000 
#
# Total GULP energy -198378.891054 kJ/mol
# GULP energy per Si atom -12398.680691 kJ/mol
# Density = 2.265691 g / cm^3
# Si number density = 22.708593 Si / 1000 Ang^3
#
#
#
# Elastic Constant Matrix: (Units=GPa)
#
#
# Indices 1 2 3 4 5 6 
#
# 1 123.3363 54.4041 70.3126 -9.4804 1.4024 -16.7906
# 2 54.4041 92.4263 41.2012 -2.4501 0.8130 -11.5549
# 3 70.3126 41.2012 142.8117 -10.0373 -3.9387 -11.1276
# 4 -9.4804 -2.4501 -10.0373 35.9552 -1.7215 4.9486
# 5 1.4024 0.8130 -3.9387 -1.7215 32.7879 5.4312
# 6 -16.7906 -11.5549 -11.1276 4.9486 5.4312 37.6322
#
#
#
# Elastic Compliance Matrix: (Units=1/GPa)
#
#
# Indices 1 2 3 4 5 6 
#
# 1 0.013928 -0.005554 -0.004957 0.001416 -0.001488 0.003072
# 2 -0.005554 0.014992 -0.001542 -0.001172 -0.000700 0.001924
# 3 -0.004957 -0.001542 0.010024 0.001480 0.001555 -0.000140
# 4 0.001416 -0.001172 0.001480 0.029100 0.002244 -0.003441
# 5 -0.001488 -0.000700 0.001555 0.002244 0.031762 -0.005298
# 6 0.003072 0.001924 -0.000140 -0.003441 -0.005298 0.029710
#
#
# Mechanical properties :
#
#
# Convention : Reuss Voigt Hill
#
# Bulk Modulus (GPa) = 67.40128 76.71222 72.05675
# Shear Modulus (GPa) = 31.53229 34.11880 32.82555
#
# Velocity S-wave (km/s) = 3.73038 3.88037 3.80611
# Velocity P-wave (km/s) = 6.94980 7.34376 7.14949
#
# Compressibility (1/GPa) = 0.01483651
#
# Stress axis : x y z
#
# Youngs Moduli (GPa) = 71.79993 66.70344 99.76253
#
# Poissons Ratio (x) = 0.37045 0.49453
# Poissons Ratio (y) = 0.39876 0.15388
# Poissons Ratio (z) = 0.35592 0.10289
#
# Static dielectric constant tensor:
#      x y z
#    x 4.197310 -0.134960 0.143790 
#    y -0.134960 4.092310 -0.185760 
#    z 0.143790 -0.185760 4.326820 
# 
# 
# High freq. dielectric constant tensor:
#      x y z
#    x 1.897260 -0.010520 -0.004780 
#    y -0.010520 1.899370 -0.012280 
#    z -0.004780 -0.012280 1.906170 
# 
# From -- ./inp_files/381964.got.cif
#   From: 2010.06.25/outbox.cif.g09.slc.cpg/sg2_191_cif.got.tgz:381964.got - 2010.06.27 13:26:56.
