data_PCOD8033378
_publ_section_title
;
Structure prediction by ZEFSAII (Michael W. Deem and Ramdas Pophale) SiO2 
 PCOD8033378
Probable space group: P -1
;
_chemical_formula_sum "Si O2"
_cell_formula_units_Z 16
_cell_length_a 9.125988
_cell_length_b 8.640141
_cell_length_c 13.108433
_cell_angle_alpha 131.537354
_cell_angle_beta 86.118524
_cell_angle_gamma 103.561217
_cell_volume 746.607616
_symmetry_space_group_name_H-M "P -1"
_symmetry_group_IT_number 2
_symmetry_cell_setting 'triclinic'
loop_
_space_group_symop_operation_xyz
x,y,z
-x,-y,-z
loop_
_atom_site_type_symbol
_atom_site_label
_atom_site_fract_x
_atom_site_fract_y
_atom_site_fract_z
Si Si1 0.055871 0.310437 0.963682
Si Si2 0.445584 0.410034 0.353795
Si Si3 0.625195 0.213800 0.110787
Si Si4 0.436049 0.203512 0.602873
Si Si5 0.109730 0.162864 0.285638
Si Si6 0.049534 0.646970 0.797215
Si Si7 0.887986 0.793073 0.460945
Si Si8 0.369577 0.424235 0.892782
O O1 0.219862 0.313200 0.913889
O O2 0.940077 0.088455 0.842099
O O3 0.000000 0.500000 0.000000
O O4 0.064262 0.343139 0.099921
O O5 0.500000 0.500000 0.500000
O O6 0.576358 0.311861 0.258984
O O7 0.431450 0.603580 0.364904
O O8 0.287972 0.233313 0.284812
O O9 0.790963 0.177192 0.110475
O O10 0.646044 0.374323 0.084552
O O11 0.500000 0.000000 0.000000
O O12 0.282859 0.186704 0.538161
O O13 0.407023 0.241839 0.739629
O O14 0.500000 0.000000 0.500000
O O15 0.077219 0.219931 0.427311
O O16 0.019993 0.293042 0.277097
O O17 0.083755 0.414325 0.687562
O O18 0.000000 0.000000 0.500000
O O19 0.500000 0.500000 0.000000
#
# Coordination Sequence:
#
# PCOD8033378 Si02
#       8
#     2   2   2   2   2   2   2   2
#     4  12  25  48  70 103 147 185 239 290 356 424
#     4  11  23  46  68 100 142 180 237 289 354 419
#     4  11  24  45  69  99 141 184 230 292 356 415
#     4  11  25  47  70 100 141 184 238 294 352 423
#     4  12  27  43  74 106 140 194 238 293 359 423
#     4  12  25  47  72 105 145 188 238 294 351 430
#     4  12  25  49  70 103 144 186 237 297 357 421
#     4  11  26  45  69 103 138 184 239 292 352 422
#
# _framework density 21.430267000000001
#
# number of rings (size 3 to 8) (size 9 to 14) (size 15 to 20)
#    0.000    0.500    5.000    3.000    7.000    2.000 
#    2.250    0.000    0.000    0.000    0.000    0.000 
#    0.000    0.000    0.000    0.000    0.000    0.000 
#
# Total GULP energy -198467.742436 kJ/mol
# GULP energy per Si atom -12404.233902 kJ/mol
# Density = 2.138149 g / cm^3
# Si number density = 21.430267 Si / 1000 Ang^3
#
#
#
# Elastic Constant Matrix: (Units=GPa)
#
#
# Indices 1 2 3 4 5 6 
#
# 1 125.4027 69.9242 64.9613 -8.0513 6.9748 13.0048
# 2 69.9242 115.7637 69.6282 -1.4541 -1.6591 22.6186
# 3 64.9613 69.6282 159.1951 -15.1958 -5.2050 3.8751
# 4 -8.0513 -1.4541 -15.1958 52.2921 -0.1580 1.4642
# 5 6.9748 -1.6591 -5.2050 -0.1580 42.8084 -1.7266
# 6 13.0048 22.6186 3.8751 1.4642 -1.7266 42.4884
#
#
#
# Elastic Compliance Matrix: (Units=1/GPa)
#
#
# Indices 1 2 3 4 5 6 
#
# 1 0.013080 -0.006270 -0.002564 0.001102 -0.002705 -0.000580
# 2 -0.006270 0.016416 -0.004599 -0.001666 0.000838 -0.006309
# 3 -0.002564 -0.004599 0.009540 0.002188 0.001502 0.002349
# 4 0.001102 -0.001666 0.002188 0.019892 0.000082 -0.000332
# 5 -0.002705 0.000838 0.001502 0.000082 0.024065 0.001220
# 6 -0.000580 -0.006309 0.002349 -0.000332 0.001220 0.026919
#
#
# Mechanical properties :
#
#
# Convention : Reuss Voigt Hill
#
# Bulk Modulus (GPa) = 82.17618 89.93211 86.05415
# Shear Modulus (GPa) = 35.50223 40.57427 38.03825
#
# Velocity S-wave (km/s) = 4.07460 4.35595 4.21762
# Velocity P-wave (km/s) = 7.78239 8.20702 7.99752
#
# Compressibility (1/GPa) = 0.01216898
#
# Stress axis : x y z
#
# Youngs Moduli (GPa) = 76.45131 60.91732 104.81696
#
# Poissons Ratio (x) = 0.38196 0.26877
# Poissons Ratio (y) = 0.47936 0.48209
# Poissons Ratio (z) = 0.19604 0.28018
#
# Static dielectric constant tensor:
#      x y z
#    x 3.819890 0.260530 -0.037560 
#    y 0.260530 4.059880 -0.045190 
#    z -0.037560 -0.045190 4.167570 
# 
# 
# High freq. dielectric constant tensor:
#      x y z
#    x 1.844420 0.016430 0.000920 
#    y 0.016430 1.849800 -0.005880 
#    z 0.000920 -0.005880 1.859260 
# 
# From -- ./inp_files/306545.got.cif
#   From: 2010.06.25/outbox.cif.g09.slc.cpg/sg2_154_cif.got.tgz:306545.got - 2010.06.27 13:26:56.
