data_PCOD8033914
_publ_section_title
;
Structure prediction by ZEFSAII (Michael W. Deem and Ramdas Pophale) SiO2 
 PCOD8033914
Probable space group: P -1
;
_chemical_formula_sum "Si O2"
_cell_formula_units_Z 16
_cell_length_a 9.965357
_cell_length_b 11.689951
_cell_length_c 8.107317
_cell_angle_alpha 107.675482
_cell_angle_beta 117.824835
_cell_angle_gamma 58.503692
_cell_volume 709.962955
_symmetry_space_group_name_H-M "P -1"
_symmetry_group_IT_number 2
_symmetry_cell_setting 'triclinic'
loop_
_space_group_symop_operation_xyz
x,y,z
-x,-y,-z
loop_
_atom_site_type_symbol
_atom_site_label
_atom_site_fract_x
_atom_site_fract_y
_atom_site_fract_z
Si Si1 0.971094 0.960252 0.743419
Si Si2 0.300433 0.409376 0.537958
Si Si3 0.519808 0.007817 0.319928
Si Si4 0.161339 0.369121 0.088434
Si Si5 0.870191 0.296579 0.504150
Si Si6 0.783900 0.717195 0.254662
Si Si7 0.644909 0.204567 0.543981
Si Si8 0.848693 0.896703 0.966363
O O1 0.032419 0.839751 0.599189
O O2 0.973013 0.892603 0.888718
O O3 0.778611 0.074906 0.661971
O O4 0.100682 0.026791 0.827240
O O5 0.248797 0.388525 0.312582
O O6 0.244706 0.567220 0.605661
O O7 0.215117 0.362218 0.613321
O O8 0.504318 0.318062 0.631164
O O9 0.676513 0.875543 0.286205
O O10 0.500000 0.000000 0.500000
O O11 0.546590 0.139566 0.346691
O O12 0.351544 0.020535 0.140842
O O13 0.098124 0.256528 0.031740
O O14 0.280063 0.326643 0.969997
O O15 0.000000 0.500000 0.000000
O O16 0.738002 0.279688 0.540860
O O17 0.019645 0.318295 0.687166
#
# Coordination Sequence:
#
# PCOD8033914 Si02
#       8
#     2   2   2   2   2   2   2   2
#     4  11  24  42  74 101 144 194 238 302 371 428
#     4  12  26  49  73 105 149 196 241 303 365 443
#     4  12  21  44  74 104 143 193 248 300 363 441
#     4  12  26  42  69 108 144 184 247 302 356 433
#     4  12  25  42  70 105 142 191 243 291 366 441
#     4  12  25  44  78 106 140 198 248 297 368 436
#     4  12  24  44  72 102 146 190 238 297 374 422
#     4  11  24  44  67 107 148 181 240 315 356 426
#
# _framework density 22.536387999999999
#
# number of rings (size 3 to 8) (size 9 to 14) (size 15 to 20)
#    0.000    0.250    6.250    2.625    3.500    1.500 
#    0.000    0.000    0.000    3.750    0.000    0.000 
#    0.000    0.000    0.000    0.000    0.000    0.000 
#
# Total GULP energy -198257.496148 kJ/mol
# GULP energy per Si atom -12391.093509 kJ/mol
# Density = 2.248509 g / cm^3
# Si number density = 22.536388 Si / 1000 Ang^3
#
#
#
# Elastic Constant Matrix: (Units=GPa)
#
#
# Indices 1 2 3 4 5 6 
#
# 1 120.7440 34.3479 31.4183 -1.2734 11.9911 12.5172
# 2 34.3479 132.3506 20.9446 -19.0007 16.9180 7.9813
# 3 31.4183 20.9446 84.8785 3.2508 2.2841 0.5000
# 4 -1.2734 -19.0007 3.2508 22.6171 -0.1157 0.2996
# 5 11.9911 16.9180 2.2841 -0.1157 33.5595 -5.2160
# 6 12.5172 7.9813 0.5000 0.2996 -5.2160 36.2376
#
#
#
# Elastic Compliance Matrix: (Units=1/GPa)
#
#
# Indices 1 2 3 4 5 6 
#
# 1 0.010276 -0.001541 -0.003307 -0.000210 -0.003234 -0.003628
# 2 -0.001541 0.010358 -0.002182 0.008937 -0.004880 -0.002495
# 3 -0.003307 -0.002182 0.013644 -0.003994 0.001603 0.001698
# 4 -0.000210 0.008937 -0.003994 0.052301 -0.004431 -0.002911
# 5 -0.003234 -0.004880 0.001603 -0.004431 0.034402 0.007158
# 6 -0.003628 -0.002495 0.001698 -0.002911 0.007158 0.030429
#
#
# Mechanical properties :
#
#
# Convention : Reuss Voigt Hill
#
# Bulk Modulus (GPa) = 49.46094 56.82163 53.14128
# Shear Modulus (GPa) = 29.03449 35.23365 32.13407
#
# Velocity S-wave (km/s) = 3.59324 3.95829 3.78017
# Velocity P-wave (km/s) = 6.26178 6.79402 6.53333
#
# Compressibility (1/GPa) = 0.02021797
#
# Stress axis : x y z
#
# Youngs Moduli (GPa) = 97.31349 96.54209 73.29320
#
# Poissons Ratio (x) = 0.14881 0.24238
# Poissons Ratio (y) = 0.15000 0.15990
# Poissons Ratio (z) = 0.32181 0.21063
#
# Static dielectric constant tensor:
#      x y z
#    x 3.507220 0.277770 0.716190 
#    y 0.277770 4.421680 -0.181130 
#    z 0.716190 -0.181130 3.543220 
# 
# 
# High freq. dielectric constant tensor:
#      x y z
#    x 1.889970 0.001300 0.000910 
#    y 0.001300 1.913810 -0.005180 
#    z 0.000910 -0.005180 1.872800 
# 
# From -- ./inp_files/188791.got.cif
#   From: 2010.06.25/outbox.cif.g09.slc.cpg/sg2_95_cif.got.tgz:188791.got - 2010.06.27 13:26:56.
