data_PCOD8033535
_publ_section_title
;
Structure prediction by ZEFSAII (Michael W. Deem and Ramdas Pophale) SiO2 
 PCOD8033535
Probable space group: P -1
;
_chemical_formula_sum "Si O2"
_cell_formula_units_Z 14
_cell_length_a 11.490030
_cell_length_b 8.895532
_cell_length_c 16.796581
_cell_angle_alpha 41.320616
_cell_angle_beta 147.313154
_cell_angle_gamma 125.998449
_cell_volume 607.416541
_symmetry_space_group_name_H-M "P -1"
_symmetry_group_IT_number 2
_symmetry_cell_setting 'triclinic'
loop_
_space_group_symop_operation_xyz
x,y,z
-x,-y,-z
loop_
_atom_site_type_symbol
_atom_site_label
_atom_site_fract_x
_atom_site_fract_y
_atom_site_fract_z
Si Si1 0.400991 0.762457 0.041102
Si Si2 0.208256 0.476009 0.575470
Si Si3 0.184115 0.161748 0.541891
Si Si4 0.701146 0.069865 0.635278
Si Si5 0.110556 0.763365 0.021009
Si Si6 0.911534 0.472029 0.141648
Si Si7 0.347534 0.040143 0.169740
O O1 0.600936 0.560027 0.234322
O O2 0.304535 0.714375 0.091062
O O3 0.234723 0.729385 0.886945
O O4 0.500000 0.000000 0.000000
O O5 0.216380 0.252555 0.613029
O O6 0.231892 0.689178 0.448605
O O7 0.000000 0.500000 0.500000
O O8 0.094266 0.378101 0.347995
O O9 0.407921 0.014045 0.701208
O O10 0.000000 0.000000 0.500000
O O11 0.500000 0.000000 0.500000
O O12 0.647893 0.075569 0.695413
O O13 0.905174 0.884838 0.806152
O O14 0.042358 0.533907 0.113446
O O15 0.175415 0.926139 0.063726
O O16 0.743549 0.688776 0.989270
#
# Coordination Sequence:
#
# PCOD8033535 Si02
#       7
#     2   2   2   2   2   2   2
#     4  12  26  45  68 104 144 188 231 295 358 423
#     4  12  26  46  71 103 144 187 234 291 363 419
#     4  12  28  46  73 108 144 186 241 298 350 428
#     4  11  25  43  75 107 139 182 238 301 346 425
#     4  11  23  47  70 103 142 181 240 291 355 423
#     4  11  26  45  75 102 142 187 235 296 357 419
#     4  11  25  48  74 105 142 186 242 292 357 422
#
# _framework density 23.048432999999999
#
# number of rings (size 3 to 8) (size 9 to 14) (size 15 to 20)
#    0.000    0.571    1.429    7.286    8.000    1.714 
#    0.000    0.000    0.000    0.000    0.000    0.000 
#    0.000    0.000    0.000    0.000    0.000    0.000 
#
# Total GULP energy -173591.923346 kJ/mol
# GULP energy per Si atom -12399.423096 kJ/mol
# Density = 2.299597 g / cm^3
# Si number density = 23.048433 Si / 1000 Ang^3
#
#
#
# Elastic Constant Matrix: (Units=GPa)
#
#
# Indices 1 2 3 4 5 6 
#
# 1 107.3892 26.0909 36.5186 -1.8497 31.8867 4.3998
# 2 26.0909 117.4039 18.4424 10.7037 4.3919 12.5184
# 3 36.5186 18.4424 129.3328 8.3119 11.2693 5.8085
# 4 -1.8497 10.7037 8.3119 43.0783 -0.9031 -4.8617
# 5 31.8867 4.3919 11.2693 -0.9031 37.2619 5.9687
# 6 4.3998 12.5184 5.8085 -4.8617 5.9687 35.7776
#
#
#
# Elastic Compliance Matrix: (Units=1/GPa)
#
#
# Indices 1 2 3 4 5 6 
#
# 1 0.014217 -0.002640 -0.002852 0.001779 -0.011230 0.001754
# 2 -0.002640 0.009762 -0.000453 -0.002832 0.001770 -0.003697
# 3 -0.002852 -0.000453 0.008774 -0.001834 -0.000018 -0.001162
# 4 0.001779 -0.002832 -0.001834 0.024848 -0.000765 0.004574
# 5 -0.011230 0.001770 -0.000018 -0.000765 0.037111 -0.005530
# 6 0.001754 -0.003697 -0.001162 0.004574 -0.005530 0.030761
#
#
# Mechanical properties :
#
#
# Convention : Reuss Voigt Hill
#
# Bulk Modulus (GPa) = 47.93614 57.35886 52.64750
# Shear Modulus (GPa) = 34.64617 41.42849 38.03733
#
# Velocity S-wave (km/s) = 3.88131 4.24424 4.06682
# Velocity P-wave (km/s) = 6.39759 6.99702 6.70401
#
# Compressibility (1/GPa) = 0.02086109
#
# Stress axis : x y z
#
# Youngs Moduli (GPa) = 70.34020 102.44106 113.97954
#
# Poissons Ratio (x) = 0.27049 0.32511
# Poissons Ratio (y) = 0.18573 0.05158
# Poissons Ratio (z) = 0.20063 0.04636
#
# Static dielectric constant tensor:
#      x y z
#    x 6.404280 -0.444100 2.468160 
#    y -0.444100 4.265070 -0.400610 
#    z 2.468160 -0.400610 7.397030 
# 
# 
# High freq. dielectric constant tensor:
#      x y z
#    x 1.914000 0.007060 0.001210 
#    y 0.007060 1.919890 0.012090 
#    z 0.001210 0.012090 1.932190 
# 
# From -- ./inp_files/159377.got.cif
#   From: 2010.06.25/outbox.cif.g09.slc.cpg/sg2_80_cif.got.tgz:159377.got - 2010.06.27 13:26:56.
