data_PCOD8033632
_publ_section_title
;
Structure prediction by ZEFSAII (Michael W. Deem and Ramdas Pophale) SiO2 
 PCOD8033632
Probable space group: P -1
;
_chemical_formula_sum "Si O2"
_cell_formula_units_Z 16
_cell_length_a 18.534626
_cell_length_b 20.863912
_cell_length_c 9.101881
_cell_angle_alpha 131.480641
_cell_angle_beta 58.960824
_cell_angle_gamma 161.377435
_cell_volume 743.960265
_symmetry_space_group_name_H-M "P -1"
_symmetry_group_IT_number 2
_symmetry_cell_setting 'triclinic'
loop_
_space_group_symop_operation_xyz
x,y,z
-x,-y,-z
loop_
_atom_site_type_symbol
_atom_site_label
_atom_site_fract_x
_atom_site_fract_y
_atom_site_fract_z
Si Si1 0.565533 0.937292 0.118116
Si Si2 0.942092 0.039130 0.174164
Si Si3 0.880748 0.072960 0.987038
Si Si4 0.755484 0.287994 0.344027
Si Si5 0.587571 0.487093 0.391600
Si Si6 0.565792 0.919295 0.411856
Si Si7 0.592519 0.425095 0.971098
Si Si8 0.922211 0.509211 0.187557
O O1 0.540017 0.947231 0.327926
O O2 0.594973 0.046210 0.142032
O O3 0.291167 0.638970 0.899315
O O4 0.796958 0.091933 0.094413
O O5 0.161769 0.283898 0.423116
O O6 0.654357 0.763017 0.128538
O O7 0.917382 0.080807 0.128299
O O8 0.000000 0.000000 0.000000
O O9 0.656212 0.801894 0.733303
O O10 0.154089 0.319757 0.001981
O O11 0.614284 0.226475 0.487941
O O12 0.822336 0.384783 0.261468
O O13 0.000000 0.500000 0.500000
O O14 0.500000 0.500000 0.500000
O O15 0.662206 0.529001 0.214559
O O16 0.492399 0.753738 0.192338
O O17 0.852646 0.206158 0.603551
O O18 0.000000 0.500000 0.000000
#
# Coordination Sequence:
#
# PCOD8033632 Si02
#       8
#     2   2   2   2   2   2   2   2
#     4  12  24  47  68  99 145 185 235 297 348 417
#     4  11  23  49  74 100 142 182 230 293 355 426
#     4  11  26  46  69 108 146 182 236 294 355 419
#     4  12  24  44  71  98 138 187 240 286 352 420
#     4  11  23  49  74 101 140 182 231 294 354 426
#     4  12  25  47  68 100 145 185 235 296 353 414
#     4  11  26  45  70 108 142 186 238 290 359 419
#     4  12  27  46  71 102 135 193 245 292 354 414
#
# _framework density 21.506525
#
# number of rings (size 3 to 8) (size 9 to 14) (size 15 to 20)
#    0.000    0.500    7.500    2.250    1.750    2.000 
#    2.250    0.000    0.000    0.000    0.000    0.000 
#    0.000    0.000    0.000    0.000    0.000    0.000 
#
# Total GULP energy -198330.106805 kJ/mol
# GULP energy per Si atom -12395.631675 kJ/mol
# Density = 2.145757 g / cm^3
# Si number density = 21.506525 Si / 1000 Ang^3
#
#
#
# Elastic Constant Matrix: (Units=GPa)
#
#
# Indices 1 2 3 4 5 6 
#
# 1 70.9376 40.5053 35.5541 -9.3462 3.9586 25.0232
# 2 40.5053 174.8032 65.4220 -3.1465 16.2015 17.5780
# 3 35.5541 65.4220 147.8323 10.6239 14.5092 15.2677
# 4 -9.3462 -3.1465 10.6239 42.9508 17.7361 4.3448
# 5 3.9586 16.2015 14.5092 17.7361 39.5011 9.6384
# 6 25.0232 17.5780 15.2677 4.3448 9.6384 32.9211
#
#
#
# Elastic Compliance Matrix: (Units=1/GPa)
#
#
# Indices 1 2 3 4 5 6 
#
# 1 0.024046 -0.002514 -0.003563 0.007323 0.000654 -0.016440
# 2 -0.002514 0.007583 -0.002580 0.001763 -0.002601 -0.000413
# 3 -0.003563 -0.002580 0.008990 -0.002957 -0.000683 0.000507
# 4 0.007323 0.001763 -0.002957 0.031785 -0.013317 -0.005432
# 5 0.000654 -0.002601 -0.000683 -0.013317 0.034272 -0.007068
# 6 -0.016440 -0.000413 0.000507 -0.005432 -0.007068 0.045643
#
#
# Mechanical properties :
#
#
# Convention : Reuss Voigt Hill
#
# Bulk Modulus (GPa) = 42.90879 75.17064 59.03972
# Shear Modulus (GPa) = 28.18470 39.88072 34.03271
#
# Velocity S-wave (km/s) = 3.62404 4.31089 3.98230
# Velocity P-wave (km/s) = 6.12424 7.73348 6.97543
#
# Compressibility (1/GPa) = 0.02330525
#
# Stress axis : x y z
#
# Youngs Moduli (GPa) = 41.58747 131.87102 111.23079
#
# Poissons Ratio (x) = 0.33151 0.39632
# Poissons Ratio (y) = 0.10455 0.28698
# Poissons Ratio (z) = 0.14818 0.34023
#
# Static dielectric constant tensor:
#      x y z
#    x 3.633090 0.367070 0.237540 
#    y 0.367070 4.177880 0.181910 
#    z 0.237540 0.181910 4.490110 
# 
# 
# High freq. dielectric constant tensor:
#      x y z
#    x 1.835550 0.015100 -0.000410 
#    y 0.015100 1.858790 0.012060 
#    z -0.000410 0.012060 1.860560 
# 
# From -- ./inp_files/337804.got.cif
#   From: 2010.06.25/outbox.cif.g09.slc.cpg/sg2_169_cif.got.tgz:337804.got - 2010.06.27 13:26:56.
