data_PCOD8033064
_publ_section_title
;
Structure prediction by ZEFSAII (Michael W. Deem and Ramdas Pophale) SiO2 
 PCOD8033064
Probable space group: P -1
;
_chemical_formula_sum "Si O2"
_cell_formula_units_Z 16
_cell_length_a 9.716122
_cell_length_b 15.395075
_cell_length_c 9.025426
_cell_angle_alpha 67.629932
_cell_angle_beta 48.026836
_cell_angle_gamma 102.920489
_cell_volume 666.948537
_symmetry_space_group_name_H-M "P -1"
_symmetry_group_IT_number 2
_symmetry_cell_setting 'triclinic'
loop_
_space_group_symop_operation_xyz
x,y,z
-x,-y,-z
loop_
_atom_site_type_symbol
_atom_site_label
_atom_site_fract_x
_atom_site_fract_y
_atom_site_fract_z
Si Si1 0.405775 0.821038 0.131443
Si Si2 0.557427 0.474222 0.627157
Si Si3 0.479803 0.403327 0.178413
Si Si4 0.958589 0.812904 0.778792
Si Si5 0.873961 0.024129 0.191183
Si Si6 0.757919 0.845320 0.651740
Si Si7 0.527903 0.967111 0.221527
Si Si8 0.971512 0.464383 0.374125
O O1 0.584991 0.908555 0.090872
O O2 0.140589 0.681007 0.469749
O O3 0.519334 0.777967 0.977257
O O4 0.363585 0.897694 0.010991
O O5 0.500000 0.500000 0.500000
O O6 0.631581 0.592363 0.593180
O O7 0.786311 0.480111 0.431402
O O8 0.298964 0.336784 0.973999
O O9 0.269966 0.256458 0.363872
O O10 0.500000 0.500000 0.000000
O O11 0.752307 0.442624 0.968418
O O12 0.986163 0.904841 0.570271
O O13 0.223535 0.850631 0.544606
O O14 0.933017 0.835387 0.956994
O O15 0.772921 0.937634 0.469021
O O16 0.652668 0.996412 0.273831
O O17 0.000000 0.000000 0.000000
O O18 0.000000 0.500000 0.500000
#
# Coordination Sequence:
#
# PCOD8033064 Si02
#       8
#     2   2   2   2   2   2   2   2
#     4  11  23  44  73 101 139 178 240 274 362 414
#     4  12  29  46  72 109 146 186 235 302 357 415
#     4  12  24  47  73 107 140 188 245 286 350 427
#     4  12  24  48  68 100 138 183 231 287 350 420
#     4  12  29  44  67 104 142 180 235 291 356 411
#     4  12  25  44  75  98 139 188 230 291 346 427
#     4  11  27  43  71 103 137 185 230 295 349 424
#     4  12  23  44  76 104 139 188 237 290 347 431
#
# _framework density 23.989858000000002
#
# number of rings (size 3 to 8) (size 9 to 14) (size 15 to 20)
#    0.000    0.250    6.250    2.250    5.250    2.500 
#    0.000    0.000    0.000    0.000    0.000    0.000 
#    0.000    0.000    0.000    0.000    0.000    0.000 
#
# Total GULP energy -198225.627763 kJ/mol
# GULP energy per Si atom -12389.101735 kJ/mol
# Density = 2.393526 g / cm^3
# Si number density = 23.989858 Si / 1000 Ang^3
#
#
#
# Elastic Constant Matrix: (Units=GPa)
#
#
# Indices 1 2 3 4 5 6 
#
# 1 183.2470 39.4851 27.5087 2.4453 9.5273 11.5851
# 2 39.4851 125.4428 1.2972 20.2734 7.1420 16.1330
# 3 27.5087 1.2972 43.6302 20.4885 -3.8259 -5.4390
# 4 2.4453 20.2734 20.4885 31.1732 -0.1953 1.9653
# 5 9.5273 7.1420 -3.8259 -0.1953 39.2508 12.2072
# 6 11.5851 16.1330 -5.4390 1.9653 12.2072 39.4022
#
#
#
# Elastic Compliance Matrix: (Units=1/GPa)
#
#
# Indices 1 2 3 4 5 6 
#
# 1 0.007455 -0.003044 -0.008232 0.006922 -0.001404 -0.001992
# 2 -0.003044 0.010913 0.006490 -0.010990 -0.000007 -0.002127
# 3 -0.008232 0.006490 0.044659 -0.033330 0.002926 0.006684
# 4 0.006922 -0.010990 -0.033330 0.060886 -0.001126 -0.004825
# 5 -0.001404 -0.000007 0.002926 -0.001126 0.028580 -0.007979
# 6 -0.001992 -0.002127 0.006684 -0.004825 -0.007979 0.030471
#
#
# Mechanical properties :
#
#
# Convention : Reuss Voigt Hill
#
# Bulk Modulus (GPa) = 18.70783 54.32246 36.51515
# Shear Modulus (GPa) = 23.76925 40.90048 32.33486
#
# Velocity S-wave (km/s) = 3.15112 4.13353 3.67530
# Velocity P-wave (km/s) = 4.58852 6.74348 5.76754
#
# Compressibility (1/GPa) = 0.05345356
#
# Stress axis : x y z
#
# Youngs Moduli (GPa) = 134.12968 91.63451 22.39206
#
# Poissons Ratio (x) = 0.27895 0.18434
# Poissons Ratio (y) = 0.40832 -0.14532
# Poissons Ratio (z) = 1.10421 -0.59469
#
# Static dielectric constant tensor:
#      x y z
#    x 5.010610 0.166070 0.321000 
#    y 0.166070 4.331910 0.513020 
#    z 0.321000 0.513020 3.383740 
# 
# 
# High freq. dielectric constant tensor:
#      x y z
#    x 1.954090 0.008180 -0.002140 
#    y 0.008180 1.976910 0.011010 
#    z -0.002140 0.011010 1.933240 
# 
# From -- ./inp_files/206195.got.cif
#   From: 2010.06.25/outbox.cif.g09.slc.cpg/sg2_104_cif.got.tgz:206195.got - 2010.06.27 13:26:56.
