data_PCOD8033838
_publ_section_title
;
Structure prediction by ZEFSAII (Michael W. Deem and Ramdas Pophale) SiO2 
 PCOD8033838
Probable space group: P -1
;
_chemical_formula_sum "Si O2"
_cell_formula_units_Z 16
_cell_length_a 6.739581
_cell_length_b 22.242536
_cell_length_c 8.337093
_cell_angle_alpha 61.836908
_cell_angle_beta 57.118225
_cell_angle_gamma 44.220807
_cell_volume 724.613907
_symmetry_space_group_name_H-M "P -1"
_symmetry_group_IT_number 2
_symmetry_cell_setting 'triclinic'
loop_
_space_group_symop_operation_xyz
x,y,z
-x,-y,-z
loop_
_atom_site_type_symbol
_atom_site_label
_atom_site_fract_x
_atom_site_fract_y
_atom_site_fract_z
Si Si1 0.427646 0.164181 0.168557
Si Si2 0.921979 0.179782 0.880984
Si Si3 0.718330 0.933909 0.855156
Si Si4 0.504413 0.939029 0.449907
Si Si5 0.822293 0.472982 0.198418
Si Si6 0.218934 0.658275 0.804670
Si Si7 0.856101 0.591680 0.529195
Si Si8 0.788495 0.353668 0.804187
O O1 0.452206 0.095235 0.128612
O O2 0.540633 0.123111 0.351887
O O3 0.081245 0.248066 0.228740
O O4 0.622840 0.188755 0.968691
O O5 0.850948 0.272422 0.786028
O O6 0.180245 0.117563 0.716578
O O7 0.993312 0.147439 0.076661
O O8 0.767474 0.990924 0.642819
O O9 0.500000 0.000000 0.000000
O O10 0.500000 0.000000 0.500000
O O11 0.799487 0.414624 0.160069
O O12 0.486901 0.559921 0.275941
O O13 0.001194 0.420399 0.344406
O O14 0.000000 0.500000 0.000000
O O15 0.496703 0.648737 0.615912
O O16 0.287254 0.645259 0.979401
O O17 0.000000 0.500000 0.500000
O O18 0.922642 0.648126 0.327449
#
# Coordination Sequence:
#
# PCOD8033838 Si02
#       8
#     2   2   2   2   2   2   2   2
#     4  11  24  42  69 101 140 179 224 284 343 404
#     4  11  24  43  69 100 143 178 223 285 344 408
#     4   9  20  44  67  98 135 172 227 274 338 416
#     4   9  22  42  69 101 133 174 227 271 339 418
#     4  12  24  44  71  97 139 183 229 282 343 408
#     4  12  26  45  67 102 139 183 235 283 343 406
#     4  12  27  46  71  99 137 185 234 290 338 409
#     4  12  25  45  68 101 138 185 235 279 349 404
#
# _framework density 22.080725999999999
#
# number of rings (size 3 to 8) (size 9 to 14) (size 15 to 20)
#    0.000    1.000    3.750    2.250    1.750    6.000 
#    0.000    2.500    0.000    0.000    0.000    0.000 
#    0.000    0.000    0.000    0.000    0.000    0.000 
#
# Total GULP energy -198310.555339 kJ/mol
# GULP energy per Si atom -12394.409709 kJ/mol
# Density = 2.203047 g / cm^3
# Si number density = 22.080726 Si / 1000 Ang^3
#
#
#
# Elastic Constant Matrix: (Units=GPa)
#
#
# Indices 1 2 3 4 5 6 
#
# 1 73.1225 38.1699 26.1111 1.5303 -16.1040 17.4914
# 2 38.1699 124.3757 33.3533 -5.8220 -5.3599 27.3386
# 3 26.1111 33.3533 91.2244 2.0310 -22.9259 16.4763
# 4 1.5303 -5.8220 2.0310 33.5186 -2.0089 5.7445
# 5 -16.1040 -5.3599 -22.9259 -2.0089 49.3858 -6.7065
# 6 17.4914 27.3386 16.4763 5.7445 -6.7065 22.5419
#
#
#
# Elastic Compliance Matrix: (Units=1/GPa)
#
#
# Indices 1 2 3 4 5 6 
#
# 1 0.018850 -0.003326 -0.001719 0.000314 0.003878 -0.008263
# 2 -0.003326 0.012572 -0.001942 0.004560 -0.002210 -0.013067
# 3 -0.001719 -0.001942 0.014435 0.000093 0.005209 -0.005336
# 4 0.000314 0.004560 0.000093 0.033052 0.000050 -0.014251
# 5 0.003878 -0.002210 0.005209 0.000050 0.024104 0.003023
# 6 -0.008263 -0.013067 -0.005336 -0.014251 0.003023 0.075052
#
#
# Mechanical properties :
#
#
# Convention : Reuss Voigt Hill
#
# Bulk Modulus (GPa) = 31.36473 53.77679 42.57076
# Shear Modulus (GPa) = 24.67133 33.82848 29.24990
#
# Velocity S-wave (km/s) = 3.34627 3.91837 3.64356
# Velocity P-wave (km/s) = 5.40050 6.69918 6.08459
#
# Compressibility (1/GPa) = 0.03188294
#
# Stress axis : x y z
#
# Youngs Moduli (GPa) = 53.05135 79.54265 69.27774
#
# Poissons Ratio (x) = 0.26454 0.11912
# Poissons Ratio (y) = 0.17643 0.13450
# Poissons Ratio (z) = 0.09122 0.15443
#
# Static dielectric constant tensor:
#      x y z
#    x 4.129010 -0.086480 0.223670 
#    y -0.086480 4.547110 -0.557840 
#    z 0.223670 -0.557840 4.685790 
# 
# 
# High freq. dielectric constant tensor:
#      x y z
#    x 1.863470 0.005890 0.007480 
#    y 0.005890 1.878760 -0.005620 
#    z 0.007480 -0.005620 1.879720 
# 
# From -- ./inp_files/55512.got.cif
#   From: 2010.06.25/outbox.cif.g09.slc.cpg/sg2_28_cif.got.tgz:55512.got - 2010.06.27 13:26:56.
