data_PCOD8033641
_publ_section_title
;
Structure prediction by ZEFSAII (Michael W. Deem and Ramdas Pophale) SiO2 
 PCOD8033641
Probable space group: P -1
;
_chemical_formula_sum "Si O2"
_cell_formula_units_Z 16
_cell_length_a 11.791693
_cell_length_b 8.492357
_cell_length_c 17.708047
_cell_angle_alpha 127.168664
_cell_angle_beta 148.525849
_cell_angle_gamma 63.854802
_cell_volume 725.806697
_symmetry_space_group_name_H-M "P -1"
_symmetry_group_IT_number 2
_symmetry_cell_setting 'triclinic'
loop_
_space_group_symop_operation_xyz
x,y,z
-x,-y,-z
loop_
_atom_site_type_symbol
_atom_site_label
_atom_site_fract_x
_atom_site_fract_y
_atom_site_fract_z
Si Si1 0.227295 0.315011 0.356443
Si Si2 0.956235 0.716014 0.513397
Si Si3 0.999560 0.981387 0.238085
Si Si4 0.020682 0.769693 0.954912
Si Si5 0.536319 0.286822 0.750599
Si Si6 0.295547 0.300500 0.112398
Si Si7 0.634701 0.139041 0.505911
Si Si8 0.281668 0.736465 0.576014
O O1 0.107902 0.357890 0.223285
O O2 0.482435 0.304102 0.480595
O O3 0.222577 0.496347 0.462867
O O4 0.103010 0.109768 0.262468
O O5 0.698487 0.699125 0.340135
O O6 0.000000 0.500000 0.500000
O O7 0.097534 0.798319 0.544057
O O8 0.037103 0.873235 0.671989
O O9 0.157756 0.827205 0.310141
O O10 0.774728 0.840524 0.041609
O O11 0.915005 0.690403 0.951688
O O12 0.273706 0.733665 0.086302
O O13 0.000000 0.000000 0.000000
O O14 0.603251 0.475455 0.789327
O O15 0.500608 0.086222 0.620417
O O16 0.476765 0.203192 0.232326
O O17 0.719710 0.147982 0.470201
#
# Coordination Sequence:
#
# PCOD8033641 Si02
#       8
#     2   2   2   2   2   2   2   2
#     4  12  23  42  70 101 142 179 221 285 352 412
#     4  11  23  50  71  95 138 187 236 276 330 417
#     4  11  25  41  71 102 137 177 230 284 343 408
#     4  12  23  42  67 108 145 171 224 290 351 407
#     4  11  24  43  70  97 140 184 225 279 343 406
#     4  12  24  42  69 106 139 181 220 289 351 406
#     4  11  24  44  67 105 137 178 230 283 347 411
#     4  12  25  45  74  97 136 191 228 278 346 405
#
# _framework density 22.044436999999999
#
# number of rings (size 3 to 8) (size 9 to 14) (size 15 to 20)
#    0.000    0.500    6.250    1.875    1.750    4.500 
#    0.000    0.625    2.750    0.000    0.000    0.000 
#    0.000    0.000    0.000    0.000    0.000    0.000 
#
# Total GULP energy -198465.101917 kJ/mol
# GULP energy per Si atom -12404.068870 kJ/mol
# Density = 2.199426 g / cm^3
# Si number density = 22.044437 Si / 1000 Ang^3
#
#
#
# Elastic Constant Matrix: (Units=GPa)
#
#
# Indices 1 2 3 4 5 6 
#
# 1 120.0184 26.8590 38.5819 0.7333 1.8214 -4.9603
# 2 26.8590 77.0582 37.0508 -11.1586 2.8975 1.3423
# 3 38.5819 37.0508 140.5351 -18.7067 -5.7642 -6.8124
# 4 0.7333 -11.1586 -18.7067 35.6822 -0.3638 6.8519
# 5 1.8214 2.8975 -5.7642 -0.3638 31.6414 -1.6240
# 6 -4.9603 1.3423 -6.8124 6.8519 -1.6240 41.1765
#
#
#
# Elastic Compliance Matrix: (Units=1/GPa)
#
#
# Indices 1 2 3 4 5 6 
#
# 1 0.009733 -0.002656 -0.002268 -0.002470 -0.000694 0.001268
# 2 -0.002656 0.016097 -0.003191 0.003795 -0.001966 -0.002082
# 3 -0.002268 -0.003191 0.009207 0.003741 0.002185 0.000818
# 4 -0.002470 0.003795 0.003741 0.032217 0.000583 -0.005140
# 5 -0.000694 -0.001966 0.002185 0.000583 0.032307 0.001519
# 6 0.001268 -0.002082 0.000818 -0.005140 0.001519 0.025557
#
#
# Mechanical properties :
#
#
# Convention : Reuss Voigt Hill
#
# Bulk Modulus (GPa) = 53.16965 60.28835 56.72900
# Shear Modulus (GPa) = 33.87162 37.37470 35.62316
#
# Velocity S-wave (km/s) = 3.92409 4.12202 4.02427
# Velocity P-wave (km/s) = 6.68603 7.07550 6.88352
#
# Compressibility (1/GPa) = 0.01880772
#
# Stress axis : x y z
#
# Youngs Moduli (GPa) = 102.73864 62.12337 108.61669
#
# Poissons Ratio (x) = 0.16500 0.24631
# Poissons Ratio (y) = 0.27287 0.34660
# Poissons Ratio (z) = 0.23298 0.19824
#
# Static dielectric constant tensor:
#      x y z
#    x 3.901030 0.059430 0.039500 
#    y 0.059430 3.995640 -0.147570 
#    z 0.039500 -0.147570 4.198220 
# 
# 
# High freq. dielectric constant tensor:
#      x y z
#    x 1.854600 0.013910 -0.000040 
#    y 0.013910 1.874260 -0.003270 
#    z -0.000040 -0.003270 1.874010 
# 
# From -- ./inp_files/262594.got.cif
#   From: 2010.06.25/outbox.cif.g09.slc.cpg/sg2_132_cif.got.tgz:262594.got - 2010.06.27 13:26:56.
