data_PCOD8033191
_publ_section_title
;
Structure prediction by ZEFSAII (Michael W. Deem and Ramdas Pophale) SiO2 
 PCOD8033191
Probable space group: P -1
;
_chemical_formula_sum "Si O2"
_cell_formula_units_Z 14
_cell_length_a 15.914238
_cell_length_b 15.554672
_cell_length_c 9.362985
_cell_angle_alpha 29.574137
_cell_angle_beta 145.394838
_cell_angle_gamma 141.431623
_cell_volume 631.373033
_symmetry_space_group_name_H-M "P -1"
_symmetry_group_IT_number 2
_symmetry_cell_setting 'triclinic'
loop_
_space_group_symop_operation_xyz
x,y,z
-x,-y,-z
loop_
_atom_site_type_symbol
_atom_site_label
_atom_site_fract_x
_atom_site_fract_y
_atom_site_fract_z
Si Si1 0.190663 0.685962 0.117585
Si Si2 0.526763 0.473973 0.239023
Si Si3 0.243621 0.811929 0.699622
Si Si4 0.979717 0.576254 0.516496
Si Si5 0.538547 0.691774 0.204139
Si Si6 0.763097 0.805159 0.783761
Si Si7 0.825098 0.942274 0.375326
O O1 0.313777 0.571053 0.449958
O O2 0.052772 0.574420 0.185112
O O3 0.156447 0.721113 0.852790
O O4 0.247995 0.884067 0.978698
O O5 0.522276 0.652070 0.067959
O O6 0.397089 0.302769 0.350170
O O7 0.500000 0.500000 0.000000
O O8 0.140396 0.714095 0.568248
O O9 0.253568 0.023433 0.395600
O O10 0.416828 0.795542 0.944573
O O11 0.000000 0.500000 0.500000
O O12 0.843901 0.680706 0.173229
O O13 0.500000 0.500000 0.500000
O O14 0.712880 0.797776 0.327132
O O15 0.853806 0.868386 0.676766
O O16 0.000000 0.000000 0.500000
#
# Coordination Sequence:
#
# PCOD8033191 Si02
#       7
#     2   2   2   2   2   2   2
#     4  11  24  43  70  98 138 183 234 281 350 407
#     4  12  24  44  70 101 140 179 231 288 347 415
#     4  11  25  44  70 101 137 185 238 283 348 416
#     4  12  25  42  69 101 144 188 230 287 350 410
#     4  12  24  44  75 101 134 186 239 284 345 414
#     4  11  23  45  69 100 144 184 225 294 350 405
#     4  11  25  45  72 105 140 178 236 290 341 415
#
# _framework density 22.173893
#
# number of rings (size 3 to 8) (size 9 to 14) (size 15 to 20)
#    0.000    0.571    4.286    3.429    2.000    4.571 
#    5.143    1.429    0.000    0.000    0.000    0.000 
#    0.000    0.000    0.000    0.000    0.000    0.000 
#
# Total GULP energy -173501.118977 kJ/mol
# GULP energy per Si atom -12392.937070 kJ/mol
# Density = 2.212342 g / cm^3
# Si number density = 22.173893 Si / 1000 Ang^3
#
#
#
# Elastic Constant Matrix: (Units=GPa)
#
#
# Indices 1 2 3 4 5 6 
#
# 1 117.5965 55.1718 29.5205 -6.8419 1.7625 -8.4902
# 2 55.1718 181.2381 30.2859 -1.6473 7.3790 -8.3327
# 3 29.5205 30.2859 84.7985 -13.1865 3.5684 -13.1703
# 4 -6.8419 -1.6473 -13.1865 30.9851 0.9831 3.0206
# 5 1.7625 7.3790 3.5684 0.9831 27.3219 -0.1731
# 6 -8.4902 -8.3327 -13.1703 3.0206 -0.1731 41.0033
#
#
#
# Elastic Compliance Matrix: (Units=1/GPa)
#
#
# Indices 1 2 3 4 5 6 
#
# 1 0.010518 -0.002770 -0.002402 0.001067 0.000350 0.000766
# 2 -0.002770 0.006667 -0.001433 -0.000859 -0.001401 0.000379
# 3 -0.002402 -0.001433 0.014572 0.005303 -0.001530 0.003495
# 4 0.001067 -0.000859 0.005303 0.034858 -0.001789 -0.000826
# 5 0.000350 -0.001401 -0.001530 -0.001789 0.037218 -0.000415
# 6 0.000766 0.000379 0.003495 -0.000826 -0.000415 0.025806
#
#
# Mechanical properties :
#
#
# Convention : Reuss Voigt Hill
#
# Bulk Modulus (GPa) = 53.91360 68.17661 61.04510
# Shear Modulus (GPa) = 33.55002 37.77238 35.66120
#
# Velocity S-wave (km/s) = 3.89400 4.13178 4.01465
# Velocity P-wave (km/s) = 6.67716 7.31951 7.00570
#
# Compressibility (1/GPa) = 0.01854820
#
# Stress axis : x y z
#
# Youngs Moduli (GPa) = 95.07176 149.99581 68.62271
#
# Poissons Ratio (x) = 0.41547 0.16485
# Poissons Ratio (y) = 0.26333 0.09831
# Poissons Ratio (z) = 0.22838 0.21490
#
# Static dielectric constant tensor:
#      x y z
#    x 4.794490 0.382770 -0.288450 
#    y 0.382770 3.931650 -0.609760 
#    z -0.288450 -0.609760 3.953100 
# 
# 
# High freq. dielectric constant tensor:
#      x y z
#    x 1.882930 -0.002420 0.001270 
#    y -0.002420 1.879950 -0.008240 
#    z 0.001270 -0.008240 1.870540 
# 
# From -- ./inp_files/216976.got.cif
#   From: 2010.06.25/outbox.cif.g09.slc.cpg/sg2_109_cif.got.tgz:216976.got - 2010.06.27 13:26:56.
