data_PCOD8033471
_publ_section_title
;
Structure prediction by ZEFSAII (Michael W. Deem and Ramdas Pophale) SiO2 
 PCOD8033471
Probable space group: P -1
;
_chemical_formula_sum "Si O2"
_cell_formula_units_Z 12
_cell_length_a 9.719189
_cell_length_b 10.600462
_cell_length_c 8.901510
_cell_angle_alpha 70.895683
_cell_angle_beta 50.135707
_cell_angle_gamma 45.878976
_cell_volume 493.422266
_symmetry_space_group_name_H-M "P -1"
_symmetry_group_IT_number 2
_symmetry_cell_setting 'triclinic'
loop_
_space_group_symop_operation_xyz
x,y,z
-x,-y,-z
loop_
_atom_site_type_symbol
_atom_site_label
_atom_site_fract_x
_atom_site_fract_y
_atom_site_fract_z
Si Si1 0.251806 0.429099 0.303313
Si Si2 0.640141 0.119214 0.611765
Si Si3 0.529183 0.396539 0.375243
Si Si4 0.822767 0.126894 0.767647
Si Si5 0.877797 0.290178 0.927894
Si Si6 0.645793 0.005772 0.143037
O O1 0.322275 0.507220 0.348669
O O2 0.202856 0.521318 0.139225
O O3 0.451750 0.214082 0.245019
O O4 0.000000 0.500000 0.500000
O O5 0.523922 0.247235 0.498582
O O6 0.635725 0.221923 0.720436
O O7 0.496268 0.057088 0.777812
O O8 0.919818 0.952001 0.442883
O O9 0.500000 0.500000 0.500000
O O10 0.781501 0.307127 0.154756
O O11 0.750121 0.255837 0.909347
O O12 0.803941 0.983661 0.900771
O O13 0.168352 0.121122 0.800137
#
# Coordination Sequence:
#
# PCOD8033471 Si02
#       6
#     2   2   2   2   2   2
#     4  12  27  47  75 110 146 192 246 302 367 437
#     4  11  25  44  74 109 148 189 242 305 364 433
#     4  12  26  47  72 107 149 195 244 306 365 431
#     4  11  23  46  73 106 146 194 242 297 367 434
#     4  12  25  50  76 105 147 198 246 299 367 437
#     4  12  25  48  78 108 146 192 246 299 366 438
#
# _framework density 24.319939999999999
#
# number of rings (size 3 to 8) (size 9 to 14) (size 15 to 20)
#    0.000    0.333    3.333    5.500    2.333    3.333 
#    3.000    1.667    0.000    0.000    0.000    0.000 
#    0.000    0.000    0.000    0.000    0.000    0.000 
#
# Total GULP energy -148717.840241 kJ/mol
# GULP energy per Si atom -12393.153353 kJ/mol
# Density = 2.426459 g / cm^3
# Si number density = 24.319940 Si / 1000 Ang^3
#
#
#
# Elastic Constant Matrix: (Units=GPa)
#
#
# Indices 1 2 3 4 5 6 
#
# 1 132.8914 44.1001 62.5187 7.3664 -0.0068 -5.2321
# 2 44.1001 118.0976 41.4847 -0.8601 2.0918 -24.8296
# 3 62.5187 41.4847 131.5892 -8.4803 -7.2738 2.8257
# 4 7.3664 -0.8601 -8.4803 38.3350 2.5578 5.8846
# 5 -0.0068 2.0918 -7.2738 2.5578 50.4374 -0.5378
# 6 -5.2321 -24.8296 2.8257 5.8846 -0.5378 39.8889
#
#
#
# Elastic Compliance Matrix: (Units=1/GPa)
#
#
# Indices 1 2 3 4 5 6 
#
# 1 0.010630 -0.002195 -0.004605 -0.003210 -0.000400 0.000822
# 2 -0.002195 0.011918 -0.002988 -0.001068 -0.000791 0.007489
# 3 -0.004605 -0.002988 0.011136 0.003763 0.001498 -0.003787
# 4 -0.003210 -0.001068 0.003763 0.028425 -0.000914 -0.005558
# 5 -0.000400 -0.000791 0.001498 -0.000914 0.020119 -0.000245
# 6 0.000822 0.007489 -0.003787 -0.005558 -0.000245 0.030924
#
#
# Mechanical properties :
#
#
# Convention : Reuss Voigt Hill
#
# Bulk Modulus (GPa) = 70.88300 75.42057 73.15178
# Shear Modulus (GPa) = 36.38212 41.36393 38.87303
#
# Velocity S-wave (km/s) = 3.87199 4.12858 4.00234
# Velocity P-wave (km/s) = 7.01420 7.33526 7.17653
#
# Compressibility (1/GPa) = 0.01410776
#
# Stress axis : x y z
#
# Youngs Moduli (GPa) = 94.07186 83.90986 89.80114
#
# Poissons Ratio (x) = 0.18421 0.41353
# Poissons Ratio (y) = 0.20652 0.26828
# Poissons Ratio (z) = 0.43320 0.25068
#
# Static dielectric constant tensor:
#      x y z
#    x 4.464390 -0.248140 0.054180 
#    y -0.248140 4.448820 -0.340860 
#    z 0.054180 -0.340860 4.678220 
# 
# 
# High freq. dielectric constant tensor:
#      x y z
#    x 1.965450 -0.014950 -0.001570 
#    y -0.014950 1.958610 -0.020500 
#    z -0.001570 -0.020500 1.982370 
# 
# From -- ./inp_files/175686.got.cif
#   From: 2010.06.25/outbox.cif.g09.slc.cpg/sg2_88_cif.got.tgz:175686.got - 2010.06.27 13:26:56.
