data_PCOD8033441
_publ_section_title
;
Structure prediction by ZEFSAII (Michael W. Deem and Ramdas Pophale) SiO2 
 PCOD8033441
Probable space group: P -1
;
_chemical_formula_sum "Si O2"
_cell_formula_units_Z 16
_cell_length_a 9.347134
_cell_length_b 16.124593
_cell_length_c 9.309250
_cell_angle_alpha 117.741686
_cell_angle_beta 110.798575
_cell_angle_gamma 35.256552
_cell_volume 715.955703
_symmetry_space_group_name_H-M "P -1"
_symmetry_group_IT_number 2
_symmetry_cell_setting 'triclinic'
loop_
_space_group_symop_operation_xyz
x,y,z
-x,-y,-z
loop_
_atom_site_type_symbol
_atom_site_label
_atom_site_fract_x
_atom_site_fract_y
_atom_site_fract_z
Si Si1 0.132404 0.871702 0.096056
Si Si2 0.193345 0.966145 0.454057
Si Si3 0.883254 0.659223 0.081506
Si Si4 0.212711 0.161323 0.550831
Si Si5 0.209547 0.638486 0.997329
Si Si6 0.598580 0.181353 0.091343
Si Si7 0.039609 0.632257 0.647479
Si Si8 0.617254 0.693842 0.583141
O O1 0.191779 0.934779 0.262713
O O2 0.132194 0.781325 0.125456
O O3 0.351940 0.760292 0.962263
O O4 0.859383 0.001296 0.033135
O O5 0.463450 0.816507 0.498604
O O6 0.110190 0.115200 0.549422
O O7 0.000000 0.000000 0.500000
O O8 0.830575 0.727268 0.274397
O O9 0.623314 0.781163 0.002643
O O10 0.000000 0.500000 0.000000
O O11 0.083892 0.626959 0.050248
O O12 0.073190 0.251126 0.425982
O O13 0.500000 0.000000 0.500000
O O14 0.125859 0.661729 0.823309
O O15 0.500000 0.500000 0.000000
O O16 0.548027 0.243884 0.283431
O O17 0.280305 0.457344 0.543548
O O18 0.842304 0.655748 0.665959
#
# Coordination Sequence:
#
# PCOD8033441 Si02
#       8
#     2   2   2   2   2   2   2   2
#     4  11  26  43  71 105 145 183 234 292 366 421
#     4  12  24  45  71 103 148 186 233 299 361 424
#     4  12  27  48  75 104 147 190 240 296 365 434
#     4  12  27  45  74 112 144 186 246 300 358 434
#     4  12  27  47  72 105 143 188 241 297 360 432
#     4  11  24  44  72 100 140 187 236 290 358 423
#     4  11  26  44  74 104 143 190 244 297 359 431
#     4  11  23  46  72 102 143 192 240 295 364 426
#
# _framework density 22.347749
#
# number of rings (size 3 to 8) (size 9 to 14) (size 15 to 20)
#    0.000    0.500    3.750    3.750    7.000    0.500 
#    0.000    1.875    0.000    0.000    0.000    0.000 
#    0.000    0.000    0.000    0.000    0.000    0.000 
#
# Total GULP energy -198395.873042 kJ/mol
# GULP energy per Si atom -12399.742065 kJ/mol
# Density = 2.229688 g / cm^3
# Si number density = 22.347749 Si / 1000 Ang^3
#
#
#
# Elastic Constant Matrix: (Units=GPa)
#
#
# Indices 1 2 3 4 5 6 
#
# 1 115.2988 32.5661 28.1686 12.2249 -13.0616 0.1659
# 2 32.5661 108.3788 40.0847 0.5728 1.4622 0.9256
# 3 28.1686 40.0847 123.2939 -1.7131 -4.5668 -0.6100
# 4 12.2249 0.5728 -1.7131 37.9499 -0.7532 7.9654
# 5 -13.0616 1.4622 -4.5668 -0.7532 42.1130 0.3109
# 6 0.1659 0.9256 -0.6100 7.9654 0.3109 48.2615
#
#
#
# Elastic Compliance Matrix: (Units=1/GPa)
#
#
# Indices 1 2 3 4 5 6 
#
# 1 0.010498 -0.002639 -0.001470 -0.003461 0.003122 0.000547
# 2 -0.002639 0.011180 -0.003082 0.000581 -0.001528 -0.000330
# 3 -0.001470 -0.003082 0.009488 0.000958 0.000697 0.000022
# 4 -0.003461 0.000581 0.000958 0.028474 -0.000446 -0.004684
# 5 0.003122 -0.001528 0.000697 -0.000446 0.024835 -0.000059
# 6 0.000547 -0.000330 0.000022 -0.004684 -0.000059 0.021499
#
#
# Mechanical properties :
#
#
# Convention : Reuss Voigt Hill
#
# Bulk Modulus (GPa) = 59.58390 60.95670 60.27030
# Shear Modulus (GPa) = 39.69823 42.07503 40.88663
#
# Velocity S-wave (km/s) = 4.21929 4.34376 4.28198
# Velocity P-wave (km/s) = 7.10328 7.24523 7.17461
#
# Compressibility (1/GPa) = 0.01678306
#
# Stress axis : x y z
#
# Youngs Moduli (GPa) = 95.26024 89.44382 105.39836
#
# Poissons Ratio (x) = 0.23605 0.15494
# Poissons Ratio (y) = 0.25141 0.32484
# Poissons Ratio (z) = 0.14004 0.27567
#
# Static dielectric constant tensor:
#      x y z
#    x 1.325080 -1.405830 -1.644080 
#    y -1.405830 3.586170 -0.831550 
#    z -1.644080 -0.831550 3.423940 
# 
# 
# High freq. dielectric constant tensor:
#      x y z
#    x 1.890740 -0.005800 -0.004610 
#    y -0.005800 1.888220 -0.007820 
#    z -0.004610 -0.007820 1.884720 
# 
# From -- ./inp_files/208362.got.cif
#   From: 2010.06.25/outbox.cif.g09.slc.cpg/sg2_105_cif.got.tgz:208362.got - 2010.06.27 13:26:56.
