data_PCOD8033305
_publ_section_title
;
Structure prediction by ZEFSAII (Michael W. Deem and Ramdas Pophale) SiO2 
 PCOD8033305
Probable space group: P -1
;
_chemical_formula_sum "Si O2"
_cell_formula_units_Z 16
_cell_length_a 9.422397
_cell_length_b 13.008404
_cell_length_c 9.901447
_cell_angle_alpha 129.791808
_cell_angle_beta 111.548603
_cell_angle_gamma 51.742081
_cell_volume 731.396291
_symmetry_space_group_name_H-M "P -1"
_symmetry_group_IT_number 2
_symmetry_cell_setting 'triclinic'
loop_
_space_group_symop_operation_xyz
x,y,z
-x,-y,-z
loop_
_atom_site_type_symbol
_atom_site_label
_atom_site_fract_x
_atom_site_fract_y
_atom_site_fract_z
Si Si1 0.299242 0.642239 0.538913
Si Si2 0.859236 0.611278 0.156126
Si Si3 0.211054 0.883288 0.951934
Si Si4 0.121160 0.124164 0.737732
Si Si5 0.472785 0.666493 0.095282
Si Si6 0.296003 0.114598 0.064736
Si Si7 0.258508 0.808845 0.396020
Si Si8 0.093754 0.467949 0.364796
O O1 0.500000 0.500000 0.500000
O O2 0.249926 0.788332 0.744247
O O3 0.287563 0.681475 0.409986
O O4 0.170028 0.580047 0.472915
O O5 0.860296 0.771430 0.283196
O O6 0.658906 0.645579 0.090270
O O7 0.932078 0.522433 0.248245
O O8 0.000000 0.500000 0.000000
O O9 0.318159 0.757958 0.004099
O O10 0.270754 0.009351 0.075740
O O11 0.000000 0.000000 0.000000
O O12 0.927894 0.142987 0.701751
O O13 0.262899 0.946474 0.591442
O O14 0.166022 0.161261 0.930231
O O15 0.411589 0.756918 0.292654
O O16 0.500000 0.500000 0.000000
O O17 0.251846 0.281602 0.250889
O O18 0.500000 0.000000 0.000000
O O19 0.000000 0.500000 0.500000
#
# Coordination Sequence:
#
# PCOD8033305 Si02
#       8
#     2   2   2   2   2   2   2   2
#     4  12  26  47  75 107 146 196 246 302 373 449
#     4  12  26  47  75 100 148 197 249 300 375 452
#     4  12  27  47  76 109 148 193 248 307 372 444
#     4  11  23  45  74 102 140 197 240 298 373 441
#     4  12  29  46  76 111 147 194 252 311 370 448
#     4  12  25  45  73 103 145 190 242 299 371 439
#     4  11  25  45  74 105 143 187 249 302 366 442
#     4  12  29  45  74 110 148 191 245 311 371 433
#
# _framework density 21.875966999999999
#
# number of rings (size 3 to 8) (size 9 to 14) (size 15 to 20)
#    0.000    0.250    3.750    4.500    8.750    1.500 
#    0.000    0.000    0.000    0.000    0.000    0.000 
#    0.000    0.000    0.000    0.000    0.000    0.000 
#
# Total GULP energy -198377.617327 kJ/mol
# GULP energy per Si atom -12398.601083 kJ/mol
# Density = 2.182618 g / cm^3
# Si number density = 21.875967 Si / 1000 Ang^3
#
#
#
# Elastic Constant Matrix: (Units=GPa)
#
#
# Indices 1 2 3 4 5 6 
#
# 1 131.4199 40.8928 29.8738 4.1919 -17.5079 -1.4875
# 2 40.8928 134.1311 36.0191 -3.4244 -8.6732 2.4445
# 3 29.8738 36.0191 102.6516 -4.1935 -22.5251 -2.9857
# 4 4.1919 -3.4244 -4.1935 45.9285 5.5221 2.1815
# 5 -17.5079 -8.6732 -22.5251 5.5221 38.6713 6.6642
# 6 -1.4875 2.4445 -2.9857 2.1815 6.6642 44.5445
#
#
#
# Elastic Compliance Matrix: (Units=1/GPa)
#
#
# Indices 1 2 3 4 5 6 
#
# 1 0.009052 -0.002269 -0.001220 -0.001477 0.003097 -0.000046
# 2 -0.002269 0.008827 -0.002540 0.000728 -0.000512 -0.000689
# 3 -0.001220 -0.002540 0.012319 0.000324 0.006006 0.000010
# 4 -0.001477 0.000728 0.000324 0.022432 -0.003407 -0.000656
# 5 0.003097 -0.000512 0.006006 -0.003407 0.031831 -0.004061
# 6 -0.000046 -0.000689 0.000010 -0.000656 -0.004061 0.023126
#
#
# Mechanical properties :
#
#
# Convention : Reuss Voigt Hill
#
# Bulk Modulus (GPa) = 55.12359 64.64156 59.88258
# Shear Modulus (GPa) = 39.77992 43.25666 41.51829
#
# Velocity S-wave (km/s) = 4.26893 4.45158 4.36121
# Velocity P-wave (km/s) = 7.03927 7.48567 7.26590
#
# Compressibility (1/GPa) = 0.01814105
#
# Stress axis : x y z
#
# Youngs Moduli (GPa) = 110.47685 113.28805 81.17321
#
# Poissons Ratio (x) = 0.25699 0.09905
# Poissons Ratio (y) = 0.25062 0.20616
# Poissons Ratio (z) = 0.13481 0.28772
#
# Static dielectric constant tensor:
#      x y z
#    x 4.879290 -0.286190 0.033500 
#    y -0.286190 4.345420 -0.102460 
#    z 0.033500 -0.102460 3.844610 
# 
# 
# High freq. dielectric constant tensor:
#      x y z
#    x 1.867470 0.004210 -0.003150 
#    y 0.004210 1.884150 0.005290 
#    z -0.003150 0.005290 1.863730 
# 
# From -- ./inp_files/190168.got.cif
#   From: 2010.06.25/outbox.cif.g09.slc.cpg/sg2_96_cif.got.tgz:190168.got - 2010.06.27 13:26:56.
