data_PCOD8033774
_publ_section_title
;
Structure prediction by ZEFSAII (Michael W. Deem and Ramdas Pophale) SiO2 
 PCOD8033774
Probable space group: P -1
;
_chemical_formula_sum "Si O2"
_cell_formula_units_Z 16
_cell_length_a 6.551277
_cell_length_b 20.196484
_cell_length_c 10.333711
_cell_angle_alpha 34.012722
_cell_angle_beta 112.073963
_cell_angle_gamma 111.148207
_cell_volume 705.554674
_symmetry_space_group_name_H-M "P -1"
_symmetry_group_IT_number 2
_symmetry_cell_setting 'triclinic'
loop_
_space_group_symop_operation_xyz
x,y,z
-x,-y,-z
loop_
_atom_site_type_symbol
_atom_site_label
_atom_site_fract_x
_atom_site_fract_y
_atom_site_fract_z
Si Si1 0.848291 0.730745 0.872945
Si Si2 0.586594 0.597562 0.466635
Si Si3 0.465640 0.870434 0.645193
Si Si4 0.010323 0.827825 0.487768
Si Si5 0.054119 0.716055 0.412533
Si Si6 0.696870 0.210172 0.998565
Si Si7 0.278010 0.953581 0.947869
Si Si8 0.606456 0.479276 0.196833
O O1 0.679230 0.829455 0.693570
O O2 0.928943 0.746096 0.720636
O O3 0.748692 0.597286 0.086849
O O4 0.041614 0.753839 0.986596
O O5 0.500000 0.500000 0.500000
O O6 0.415543 0.697536 0.267144
O O7 0.580339 0.546727 0.694442
O O8 0.833792 0.651000 0.398135
O O9 0.271014 0.865966 0.500951
O O10 0.500000 0.000000 0.500000
O O11 0.407753 0.785541 0.891435
O O12 0.968965 0.747853 0.481981
O O13 0.885883 0.945245 0.256230
O O14 0.242818 0.627917 0.609027
O O15 0.148606 0.835910 0.169099
O O16 0.660067 0.080906 0.128891
O O17 0.500000 0.000000 0.000000
O O18 0.500000 0.500000 0.000000
#
# Coordination Sequence:
#
# PCOD8033774 Si02
#       8
#     2   2   2   2   2   2   2   2
#     4  11  25  46  74 105 146 188 237 298 359 429
#     4  12  27  46  74 108 145 190 243 296 363 431
#     4  11  24  41  73 103 144 190 234 296 360 428
#     4  11  26  45  70 107 141 189 241 291 364 431
#     4  12  28  47  73 106 144 190 238 300 362 425
#     4  11  25  44  69 106 142 182 243 289 358 430
#     4  12  27  46  74 101 146 190 239 299 359 431
#     4  12  27  47  76 104 145 191 244 301 361 433
#
# _framework density 22.677191000000001
#
# number of rings (size 3 to 8) (size 9 to 14) (size 15 to 20)
#    0.000    0.500    1.250    5.625   10.500    7.000 
#    0.000    0.000    0.000    0.000    0.000    0.000 
#    0.000    0.000    0.000    0.000    0.000    0.000 
#
# Total GULP energy -198469.165422 kJ/mol
# GULP energy per Si atom -12404.322839 kJ/mol
# Density = 2.262558 g / cm^3
# Si number density = 22.677191 Si / 1000 Ang^3
#
#
#
# Elastic Constant Matrix: (Units=GPa)
#
#
# Indices 1 2 3 4 5 6 
#
# 1 90.2203 24.8445 24.6902 3.8807 6.0751 7.7253
# 2 24.8445 121.8401 17.2734 0.6484 -3.9066 10.0638
# 3 24.6902 17.2734 99.4232 -2.1420 5.7248 10.1660
# 4 3.8807 0.6484 -2.1420 43.7147 0.4727 3.7955
# 5 6.0751 -3.9066 5.7248 0.4727 36.4121 -4.3340
# 6 7.7253 10.0638 10.1660 3.7955 -4.3340 51.7778
#
#
#
# Elastic Compliance Matrix: (Units=1/GPa)
#
#
# Indices 1 2 3 4 5 6 
#
# 1 0.012665 -0.002192 -0.002562 -0.001104 -0.002056 -0.001052
# 2 -0.002192 0.008926 -0.000968 0.000097 0.001342 -0.001113
# 3 -0.002562 -0.000968 0.011166 0.000966 -0.001663 -0.001832
# 4 -0.001104 0.000097 0.000966 0.023179 -0.000470 -0.001782
# 5 -0.002056 0.001342 -0.001663 -0.000470 0.028551 0.002797
# 6 -0.001052 -0.001113 -0.001832 -0.001782 0.002797 0.020411
#
#
# Mechanical properties :
#
#
# Convention : Reuss Voigt Hill
#
# Bulk Modulus (GPa) = 46.92033 49.45554 48.18793
# Shear Modulus (GPa) = 40.50317 42.69262 41.59789
#
# Velocity S-wave (km/s) = 4.23078 4.34363 4.28758
# Velocity P-wave (km/s) = 6.67843 6.85653 6.76807
#
# Compressibility (1/GPa) = 0.02131272
#
# Stress axis : x y z
#
# Youngs Moduli (GPa) = 78.95860 112.03037 89.55547
#
# Poissons Ratio (x) = 0.24562 0.22945
# Poissons Ratio (y) = 0.17311 0.08667
# Poissons Ratio (z) = 0.20230 0.10842
#
# Static dielectric constant tensor:
#      x y z
#    x 4.262090 -0.055020 -0.106220 
#    y -0.055020 4.327570 0.077740 
#    z -0.106220 0.077740 4.205570 
# 
# 
# High freq. dielectric constant tensor:
#      x y z
#    x 1.906330 -0.004140 -0.000290 
#    y -0.004140 1.912130 0.000550 
#    z -0.000290 0.000550 1.904520 
# 
# From -- ./inp_files/371029.got.cif
#   From: 2010.06.25/outbox.cif.g09.slc.cpg/sg2_186_cif.got.tgz:371029.got - 2010.06.27 13:26:56.
