data_PCOD8033761
_publ_section_title
;
Structure prediction by ZEFSAII (Michael W. Deem and Ramdas Pophale) SiO2 
 PCOD8033761
Probable space group: P -1
;
_chemical_formula_sum "Si O2"
_cell_formula_units_Z 16
_cell_length_a 12.199381
_cell_length_b 16.008793
_cell_length_c 15.481762
_cell_angle_alpha 35.990652
_cell_angle_beta 120.954521
_cell_angle_gamma 149.578330
_cell_volume 708.594866
_symmetry_space_group_name_H-M "P -1"
_symmetry_group_IT_number 2
_symmetry_cell_setting 'triclinic'
loop_
_space_group_symop_operation_xyz
x,y,z
-x,-y,-z
loop_
_atom_site_type_symbol
_atom_site_label
_atom_site_fract_x
_atom_site_fract_y
_atom_site_fract_z
Si Si1 0.936005 0.141918 0.007323
Si Si2 0.456208 0.158670 0.763140
Si Si3 0.538598 0.691791 0.815090
Si Si4 0.833145 0.760586 0.208449
Si Si5 0.236471 0.778565 0.240310
Si Si6 0.735300 0.874933 0.452936
Si Si7 0.821625 0.164516 0.653987
Si Si8 0.051032 0.200424 0.470730
O O1 0.804634 0.102929 0.909557
O O2 0.258938 0.466510 0.845561
O O3 0.837964 0.117107 0.078054
O O4 0.841354 0.883615 0.187363
O O5 0.532337 0.068305 0.853905
O O6 0.420069 0.179819 0.633560
O O7 0.688335 0.463336 0.662462
O O8 0.571373 0.835683 0.785338
O O9 0.799797 0.959867 0.635746
O O10 0.500000 0.500000 0.000000
O O11 0.511391 0.427519 0.332629
O O12 0.955868 0.730544 0.309741
O O13 0.000000 0.000000 0.000000
O O14 0.311464 0.871208 0.294073
O O15 0.967351 0.411523 0.436231
O O16 0.882813 0.898722 0.437078
O O17 0.951207 0.163034 0.366523
#
# Coordination Sequence:
#
# PCOD8033761 Si02
#       8
#     2   2   2   2   2   2   2   2
#     4  12  26  42  73 102 138 184 237 291 357 412
#     4  12  24  50  69  97 150 192 231 288 356 424
#     4  12  24  43  70 110 139 174 239 307 349 411
#     4  12  21  41  70 104 136 178 235 300 347 409
#     4  11  25  46  69  99 142 197 231 278 358 433
#     4  11  24  41  71 106 138 187 237 293 356 418
#     4  11  24  43  71 102 141 187 233 289 359 422
#     4  11  24  42  70 107 141 183 236 294 357 418
#
# _framework density 22.579898
#
# number of rings (size 3 to 8) (size 9 to 14) (size 15 to 20)
#    0.000    0.500    6.250    2.250    0.000    0.500 
#    4.500    0.625    0.000    0.000    0.000    0.000 
#    0.000    0.000    0.000    0.000    0.000    0.000 
#
# Total GULP energy -198276.883250 kJ/mol
# GULP energy per Si atom -12392.305203 kJ/mol
# Density = 2.252850 g / cm^3
# Si number density = 22.579898 Si / 1000 Ang^3
#
#
#
# Elastic Constant Matrix: (Units=GPa)
#
#
# Indices 1 2 3 4 5 6 
#
# 1 123.7734 15.7253 16.9579 -2.1665 -7.3119 -2.3555
# 2 15.7253 108.9593 6.7743 -4.0568 5.6654 -2.5371
# 3 16.9579 6.7743 58.1746 1.7499 -7.7149 1.0665
# 4 -2.1665 -4.0568 1.7499 24.8604 -3.4841 -2.5060
# 5 -7.3119 5.6654 -7.7149 -3.4841 43.1247 -8.1863
# 6 -2.3555 -2.5371 1.0665 -2.5060 -8.1863 31.2608
#
#
#
# Elastic Compliance Matrix: (Units=1/GPa)
#
#
# Indices 1 2 3 4 5 6 
#
# 1 0.008659 -0.001123 -0.002245 0.001054 0.001511 0.001118
# 2 -0.001123 0.009540 -0.001023 0.001377 -0.001428 0.000461
# 3 -0.002245 -0.001023 0.018390 -0.001273 0.002899 -0.000223
# 4 0.001054 0.001377 -0.001273 0.041660 0.004014 0.004625
# 5 0.001511 -0.001428 0.002899 0.004014 0.025800 0.006977
# 6 0.001118 0.000461 -0.000223 0.004625 0.006977 0.034316
#
#
# Mechanical properties :
#
#
# Convention : Reuss Voigt Hill
#
# Bulk Modulus (GPa) = 35.96311 41.09138 38.52725
# Shear Modulus (GPa) = 31.96640 36.61249 34.28945
#
# Velocity S-wave (km/s) = 3.76666 4.03111 3.90113
# Velocity P-wave (km/s) = 5.90581 6.31697 6.11485
#
# Compressibility (1/GPa) = 0.02780627
#
# Stress axis : x y z
#
# Youngs Moduli (GPa) = 115.49233 104.82510 54.37773
#
# Poissons Ratio (x) = 0.11776 0.12207
# Poissons Ratio (y) = 0.12974 0.05561
# Poissons Ratio (z) = 0.25927 0.10720
#
# Static dielectric constant tensor:
#      x y z
#    x 4.374030 -0.090690 -0.048720 
#    y -0.090690 4.175260 -0.094000 
#    z -0.048720 -0.094000 4.021880 
# 
# 
# High freq. dielectric constant tensor:
#      x y z
#    x 1.914820 -0.005900 -0.012580 
#    y -0.005900 1.879790 0.003010 
#    z -0.012580 0.003010 1.873190 
# 
# From -- ./inp_files/494223.got.cif
#   From: 2010.06.25/outbox.cif.g09.slc.cpg/sg2_248_cif.got.tgz:494223.got - 2010.06.27 13:26:56.
