data_PCOD8033335
_publ_section_title
;
Structure prediction by ZEFSAII (Michael W. Deem and Ramdas Pophale) SiO2 
 PCOD8033335
Probable space group: P -1
;
_chemical_formula_sum "Si O2"
_cell_formula_units_Z 16
_cell_length_a 9.212823
_cell_length_b 15.326522
_cell_length_c 19.223476
_cell_angle_alpha 149.274246
_cell_angle_beta 33.277393
_cell_angle_gamma 143.960783
_cell_volume 720.721516
_symmetry_space_group_name_H-M "P -1"
_symmetry_group_IT_number 2
_symmetry_cell_setting 'triclinic'
loop_
_space_group_symop_operation_xyz
x,y,z
-x,-y,-z
loop_
_atom_site_type_symbol
_atom_site_label
_atom_site_fract_x
_atom_site_fract_y
_atom_site_fract_z
Si Si1 0.022208 0.318427 0.902755
Si Si2 0.289679 0.816892 0.928273
Si Si3 0.978489 0.484585 0.416419
Si Si4 0.121180 0.842823 0.861371
Si Si5 0.570662 0.211963 0.630252
Si Si6 0.566431 0.494558 0.390226
Si Si7 0.122051 0.791146 0.362249
Si Si8 0.256306 0.972685 0.291178
O O1 0.330935 0.296835 0.761482
O O2 0.801761 0.155745 0.839685
O O3 0.000000 0.500000 0.000000
O O4 0.926802 0.298925 0.007291
O O5 0.102319 0.824388 0.940380
O O6 0.497939 0.710048 0.748768
O O7 0.500000 0.000000 0.000000
O O8 0.055538 0.331855 0.234195
O O9 0.645360 0.426658 0.508791
O O10 0.000000 0.500000 0.500000
O O11 0.150424 0.679258 0.449440
O O12 0.442065 0.882271 0.738446
O O13 0.000000 0.000000 0.000000
O O14 0.641704 0.236680 0.700705
O O15 0.500000 0.000000 0.500000
O O16 0.500000 0.500000 0.500000
O O17 0.884043 0.601192 0.316600
O O18 0.264512 0.857097 0.277041
O O19 0.983147 0.933919 0.546293
#
# Coordination Sequence:
#
# PCOD8033335 Si02
#       8
#     2   2   2   2   2   2   2   2
#     4  12  29  48  72 110 159 197 249 309 389 463
#     4  12  27  47  78 106 145 201 245 308 384 449
#     4  12  30  45  78 110 146 194 255 313 367 446
#     4  12  28  49  72 113 155 194 250 314 380 455
#     4  12  28  46  74 112 149 194 260 310 377 454
#     4  12  23  49  75 100 143 190 256 301 368 441
#     4  11  23  45  75 104 140 198 246 310 371 439
#     4  11  24  45  73 105 147 193 247 306 379 441
#
# _framework density 22.199974999999998
#
# number of rings (size 3 to 8) (size 9 to 14) (size 15 to 20)
#    0.000    0.250    6.250    0.750   12.250    0.000 
#    0.000    1.875    0.000    0.000    0.000    0.000 
#    0.000    0.000    0.000    0.000    0.000    0.000 
#
# Total GULP energy -198279.716283 kJ/mol
# GULP energy per Si atom -12392.482268 kJ/mol
# Density = 2.214945 g / cm^3
# Si number density = 22.199975 Si / 1000 Ang^3
#
#
#
# Elastic Constant Matrix: (Units=GPa)
#
#
# Indices 1 2 3 4 5 6 
#
# 1 165.5067 47.2506 56.4148 3.9708 11.4914 -19.3209
# 2 47.2506 115.3355 37.1966 8.3683 15.0613 -11.6306
# 3 56.4148 37.1966 123.0505 23.0687 13.2739 -5.7607
# 4 3.9708 8.3683 23.0687 42.4483 -0.9053 6.9697
# 5 11.4914 15.0613 13.2739 -0.9053 51.0233 -3.5940
# 6 -19.3209 -11.6306 -5.7607 6.9697 -3.5940 42.9885
#
#
#
# Elastic Compliance Matrix: (Units=1/GPa)
#
#
# Indices 1 2 3 4 5 6 
#
# 1 0.007950 -0.002066 -0.003058 0.000921 -0.000197 0.002439
# 2 -0.002066 0.010615 -0.001706 -0.001305 -0.002124 0.001749
# 3 -0.003058 -0.001706 0.011319 -0.005641 -0.001821 0.000443
# 4 0.000921 -0.001305 -0.005641 0.027659 0.001782 -0.005030
# 5 -0.000197 -0.002124 -0.001821 0.001782 0.020814 0.000544
# 6 0.002439 0.001749 0.000443 -0.005030 0.000544 0.025752
#
#
# Mechanical properties :
#
#
# Convention : Reuss Voigt Hill
#
# Bulk Modulus (GPa) = 61.63220 76.17964 68.90592
# Shear Modulus (GPa) = 40.59191 44.82738 42.70964
#
# Velocity S-wave (km/s) = 4.28070 4.49849 4.39094
# Velocity P-wave (km/s) = 7.22876 7.83400 7.53746
#
# Compressibility (1/GPa) = 0.01622528
#
# Stress axis : x y z
#
# Youngs Moduli (GPa) = 125.77916 94.20241 88.34738
#
# Poissons Ratio (x) = 0.19464 0.27013
# Poissons Ratio (y) = 0.25988 0.15072
# Poissons Ratio (z) = 0.38458 0.16071
#
# Static dielectric constant tensor:
#      x y z
#    x 4.124110 -0.177660 0.002100 
#    y -0.177660 4.080740 0.049560 
#    z 0.002100 0.049560 3.970480 
# 
# 
# High freq. dielectric constant tensor:
#      x y z
#    x 1.888100 -0.006420 0.012760 
#    y -0.006420 1.880370 0.011360 
#    z 0.012760 0.011360 1.877580 
# 
# From -- ./inp_files/561412.got.cif
#   From: 2010.06.25/outbox.cif.g09.slc.cpg/sg2_281_cif.got.tgz:561412.got - 2010.06.27 13:26:56.
