data_PCOD8033436
_publ_section_title
;
Structure prediction by ZEFSAII (Michael W. Deem and Ramdas Pophale) SiO2 
 PCOD8033436
Probable space group: P -1
;
_chemical_formula_sum "Si O2"
_cell_formula_units_Z 16
_cell_length_a 11.468971
_cell_length_b 9.090602
_cell_length_c 8.882020
_cell_angle_alpha 54.661746
_cell_angle_beta 86.827079
_cell_angle_gamma 85.815457
_cell_volume 753.304919
_symmetry_space_group_name_H-M "P -1"
_symmetry_group_IT_number 2
_symmetry_cell_setting 'triclinic'
loop_
_space_group_symop_operation_xyz
x,y,z
-x,-y,-z
loop_
_atom_site_type_symbol
_atom_site_label
_atom_site_fract_x
_atom_site_fract_y
_atom_site_fract_z
Si Si1 0.769323 0.769821 0.516565
Si Si2 0.716592 0.789725 0.844784
Si Si3 0.527812 0.320529 0.013555
Si Si4 0.879438 0.446219 0.109063
Si Si5 0.796381 0.143312 0.772190
Si Si6 0.024872 0.647936 0.531459
Si Si7 0.386199 0.552443 0.382261
Si Si8 0.232665 0.864034 0.866623
O O1 0.713347 0.833788 0.641050
O O2 0.695155 0.614717 0.539931
O O3 0.902145 0.705830 0.583423
O O4 0.776187 0.928028 0.301582
O O5 0.779560 0.939620 0.845171
O O6 0.584302 0.799615 0.907924
O O7 0.776561 0.592544 0.987762
O O8 0.561336 0.373445 0.815023
O O9 0.500000 0.500000 0.000000
O O10 0.635742 0.203570 0.144415
O O11 0.888232 0.429144 0.298980
O O12 0.853459 0.252141 0.156736
O O13 0.000000 0.500000 0.000000
O O14 0.918353 0.189939 0.658879
O O15 0.694199 0.284807 0.633870
O O16 0.802866 0.156985 0.944140
O O17 0.000000 0.500000 0.500000
O O18 0.500000 0.500000 0.500000
#
# Coordination Sequence:
#
# PCOD8033436 Si02
#       8
#     2   2   2   2   2   2   2   2
#     4  12  26  47  69 101 141 179 228 283 337 403
#     4  12  26  45  72 104 135 182 228 280 343 404
#     4  11  23  46  71  96 139 179 226 279 339 406
#     4  12  25  45  72  97 139 180 226 281 341 399
#     4  11  27  45  68 104 140 174 233 280 337 408
#     4  12  26  46  72  99 139 182 228 281 336 404
#     4  11  26  45  69 100 139 178 227 283 339 401
#     4  11  27  46  68 103 139 179 227 284 338 403
#
# _framework density 21.239740999999999
#
# number of rings (size 3 to 8) (size 9 to 14) (size 15 to 20)
#    0.000    0.500    5.000    2.250    8.750    4.000 
#    0.000    0.000    0.000    0.000    0.000    0.000 
#    0.000    0.000    0.000    0.000    0.000    0.000 
#
# Total GULP energy -198458.887007 kJ/mol
# GULP energy per Si atom -12403.680438 kJ/mol
# Density = 2.119140 g / cm^3
# Si number density = 21.239741 Si / 1000 Ang^3
#
#
#
# Elastic Constant Matrix: (Units=GPa)
#
#
# Indices 1 2 3 4 5 6 
#
# 1 111.5545 16.5296 42.8237 -0.1925 -18.3003 10.0307
# 2 16.5296 94.5141 30.2795 -3.8022 -9.5330 14.3377
# 3 42.8237 30.2795 110.0904 -1.2881 -11.0122 13.3202
# 4 -0.1925 -3.8022 -1.2881 25.7125 6.6191 -2.1306
# 5 -18.3003 -9.5330 -11.0122 6.6191 47.7697 -2.6531
# 6 10.0307 14.3377 13.3202 -2.1306 -2.6531 33.3299
#
#
#
# Elastic Compliance Matrix: (Units=1/GPa)
#
#
# Indices 1 2 3 4 5 6 
#
# 1 0.011139 -0.000208 -0.003757 -0.001148 0.003432 -0.001562
# 2 -0.000208 0.012251 -0.002657 0.000989 0.001395 -0.003971
# 3 -0.003757 -0.002657 0.011616 -0.000188 0.000605 -0.002333
# 4 -0.001148 0.000989 -0.000188 0.040691 -0.005806 0.002134
# 5 0.003432 0.001395 0.000605 -0.005806 0.023450 -0.000379
# 6 -0.001562 -0.003971 -0.002333 0.002134 -0.000379 0.033220
#
#
# Mechanical properties :
#
#
# Convention : Reuss Voigt Hill
#
# Bulk Modulus (GPa) = 45.95039 55.04716 50.49878
# Shear Modulus (GPa) = 32.70878 36.46418 34.58648
#
# Velocity S-wave (km/s) = 3.92852 4.14791 4.03970
# Velocity P-wave (km/s) = 6.50067 6.99382 6.75175
#
# Compressibility (1/GPa) = 0.02176260
#
# Stress axis : x y z
#
# Youngs Moduli (GPa) = 89.77760 81.62633 86.08691
#
# Poissons Ratio (x) = 0.01694 0.32342
# Poissons Ratio (y) = 0.01864 0.22874
# Poissons Ratio (z) = 0.33728 0.21689
#
# Static dielectric constant tensor:
#      x y z
#    x 3.660750 0.034250 -0.184930 
#    y 0.034250 3.810740 -0.012400 
#    z -0.184930 -0.012400 4.112820 
# 
# 
# High freq. dielectric constant tensor:
#      x y z
#    x 1.846590 0.002160 -0.011990 
#    y 0.002160 1.836500 0.000470 
#    z -0.011990 0.000470 1.844800 
# 
# From -- ./inp_files/179900.got.cif
#   From: 2010.06.25/outbox.cif.g09.slc.cpg/sg2_90_cif.got.tgz:179900.got - 2010.06.27 13:26:56.
