data_PCOD8033542
_publ_section_title
;
Structure prediction by ZEFSAII (Michael W. Deem and Ramdas Pophale) SiO2 
 PCOD8033542
Probable space group: P -1
;
_chemical_formula_sum "Si O2"
_cell_formula_units_Z 16
_cell_length_a 11.840241
_cell_length_b 9.352303
_cell_length_c 9.176801
_cell_angle_alpha 44.826526
_cell_angle_beta 103.705453
_cell_angle_gamma 96.653519
_cell_volume 693.948535
_symmetry_space_group_name_H-M "P -1"
_symmetry_group_IT_number 2
_symmetry_cell_setting 'triclinic'
loop_
_space_group_symop_operation_xyz
x,y,z
-x,-y,-z
loop_
_atom_site_type_symbol
_atom_site_label
_atom_site_fract_x
_atom_site_fract_y
_atom_site_fract_z
Si Si1 0.607501 0.742461 0.826494
Si Si2 0.776561 0.688986 0.176196
Si Si3 0.370032 0.697954 0.920909
Si Si4 0.020682 0.623447 0.150539
Si Si5 0.254124 0.947037 0.466774
Si Si6 0.955472 0.795072 0.696615
Si Si7 0.232992 0.703685 0.362856
Si Si8 0.369243 0.930327 0.034074
O O1 0.491944 0.783153 0.854953
O O2 0.623027 0.955282 0.596045
O O3 0.715495 0.684067 0.006587
O O4 0.607471 0.543492 0.867277
O O5 0.738513 0.510544 0.396954
O O6 0.914294 0.677438 0.190990
O O7 0.730513 0.888632 0.106199
O O8 0.275018 0.758529 0.721447
O O9 0.325335 0.809419 0.970685
O O10 0.027609 0.382013 0.291128
O O11 0.133600 0.690944 0.220310
O O12 0.015877 0.736477 0.911810
O O13 0.194125 0.866812 0.360098
O O14 0.180595 0.145951 0.362002
O O15 0.000000 0.000000 0.500000
O O16 0.353601 0.776720 0.276679
O O17 0.500000 0.000000 0.000000
#
# Coordination Sequence:
#
# PCOD8033542 Si02
#       8
#     2   2   2   2   2   2   2   2
#     4  11  23  47  71 100 139 190 226 292 346 425
#     4  12  24  48  70 100 148 184 237 291 354 420
#     4  11  26  43  73 102 140 181 238 283 357 421
#     4  11  27  47  71 105 143 190 240 293 355 421
#     4  12  24  45  72 101 138 185 235 286 350 420
#     4  11  26  44  71 103 145 181 238 296 352 416
#     4  12  27  44  75 105 144 190 236 290 355 423
#     4  12  27  47  70 109 144 181 236 298 355 422
#
# _framework density 23.056467000000001
#
# number of rings (size 3 to 8) (size 9 to 14) (size 15 to 20)
#    0.000    0.500    5.000    1.500    5.250    2.500 
#    0.000    0.000    0.000    0.000    0.000    0.000 
#    0.000    0.000    0.000    0.000    0.000    0.000 
#
# Total GULP energy -198314.507211 kJ/mol
# GULP energy per Si atom -12394.656701 kJ/mol
# Density = 2.300399 g / cm^3
# Si number density = 23.056467 Si / 1000 Ang^3
#
#
#
# Elastic Constant Matrix: (Units=GPa)
#
#
# Indices 1 2 3 4 5 6 
#
# 1 83.4293 44.2149 16.9716 1.9546 -11.5083 -10.9901
# 2 44.2149 136.7039 29.0000 -11.5429 -17.1422 -29.3788
# 3 16.9716 29.0000 92.3883 -12.8145 -29.6733 -3.9133
# 4 1.9546 -11.5429 -12.8145 31.6754 2.3350 3.4676
# 5 -11.5083 -17.1422 -29.6733 2.3350 31.0964 -2.6114
# 6 -10.9901 -29.3788 -3.9133 3.4676 -2.6114 35.1444
#
#
#
# Elastic Compliance Matrix: (Units=1/GPa)
#
#
# Indices 1 2 3 4 5 6 
#
# 1 0.015103 -0.004285 -0.000947 -0.003246 0.002698 0.001556
# 2 -0.004285 0.011410 -0.000542 0.002963 0.004652 0.008191
# 3 -0.000947 -0.000542 0.016863 0.005375 0.015184 0.001726
# 4 -0.003246 0.002963 0.005375 0.034944 0.002838 -0.001176
# 5 0.002698 0.004652 0.015184 0.002838 0.050829 0.009920
# 6 0.001556 0.008191 0.001726 -0.001176 0.009920 0.036833
#
#
# Mechanical properties :
#
#
# Convention : Reuss Voigt Hill
#
# Bulk Modulus (GPa) = 31.41998 54.76603 43.09300
# Shear Modulus (GPa) = 26.57568 34.40556 30.49062
#
# Velocity S-wave (km/s) = 3.39873 3.86713 3.64047
# Velocity P-wave (km/s) = 5.39062 6.61394 6.03336
#
# Compressibility (1/GPa) = 0.03182689
#
# Stress axis : x y z
#
# Youngs Moduli (GPa) = 66.21150 87.64244 59.30018
#
# Poissons Ratio (x) = 0.37558 0.05617
# Poissons Ratio (y) = 0.28374 0.03215
# Poissons Ratio (z) = 0.06271 0.04752
#
# Static dielectric constant tensor:
#      x y z
#    x 4.564970 -0.325310 -0.312540 
#    y -0.325310 4.387630 -0.046230 
#    z -0.312540 -0.046230 4.337230 
# 
# 
# High freq. dielectric constant tensor:
#      x y z
#    x 1.912460 -0.005310 -0.015440 
#    y -0.005310 1.921630 -0.009850 
#    z -0.015440 -0.009850 1.913310 
# 
# From -- ./inp_files/207175.got.cif
#   From: 2010.06.25/outbox.cif.g09.slc.cpg/sg2_104_cif.got.tgz:207175.got - 2010.06.27 13:26:56.
