data_PCOD8033502
_publ_section_title
;
Structure prediction by ZEFSAII (Michael W. Deem and Ramdas Pophale) SiO2 
 PCOD8033502
Probable space group: P -1
;
_chemical_formula_sum "Si O2"
_cell_formula_units_Z 14
_cell_length_a 9.337513
_cell_length_b 16.218943
_cell_length_c 19.098963
_cell_angle_alpha 159.292828
_cell_angle_beta 142.473422
_cell_angle_gamma 48.420737
_cell_volume 580.489289
_symmetry_space_group_name_H-M "P -1"
_symmetry_group_IT_number 2
_symmetry_cell_setting 'triclinic'
loop_
_space_group_symop_operation_xyz
x,y,z
-x,-y,-z
loop_
_atom_site_type_symbol
_atom_site_label
_atom_site_fract_x
_atom_site_fract_y
_atom_site_fract_z
Si Si1 0.046990 0.132606 0.698198
Si Si2 0.330060 0.451027 0.250951
Si Si3 0.629747 0.099560 0.282420
Si Si4 0.901227 0.993949 0.776895
Si Si5 0.235469 0.702863 0.655691
Si Si6 0.135953 0.828827 0.948454
Si Si7 0.634273 0.336500 0.718745
O O1 0.795483 0.159987 0.654235
O O2 0.126460 0.961537 0.648534
O O3 0.262920 0.410685 0.994393
O O4 0.000000 0.000000 0.500000
O O5 0.366720 0.636595 0.477680
O O6 0.566187 0.357594 0.266009
O O7 0.328580 0.593224 0.292656
O O8 0.064889 0.222333 0.972788
O O9 0.614605 0.112341 0.202412
O O10 0.390794 0.871594 0.038368
O O11 0.658041 0.817768 0.498997
O O12 0.075758 0.836798 0.743824
O O13 0.799558 0.093281 0.884070
O O14 0.039066 0.458308 0.349495
O O15 0.000000 0.000000 0.000000
#
# Coordination Sequence:
#
# PCOD8033502 Si02
#       7
#     2   2   2   2   2   2   2
#     4  11  23  46  75  94 130 182 225 283 345 395
#     4  12  23  44  70  99 144 179 221 279 337 403
#     4  12  23  45  70  99 140 183 222 279 341 396
#     4  12  25  42  67 103 137 178 230 276 335 407
#     4  12  26  43  68 104 142 185 221 273 342 404
#     4  12  23  41  67  98 141 181 226 274 328 405
#     4  11  25  46  70 101 133 174 233 284 333 401
#
# _framework density 24.117587
#
# number of rings (size 3 to 8) (size 9 to 14) (size 15 to 20)
#    0.000    0.286    5.714    3.429    0.000    3.429 
#    0.000    8.571    0.000    0.000    0.000    0.000 
#    0.000    0.000    0.000    0.000    0.000    0.000 
#
# Total GULP energy -173678.974233 kJ/mol
# GULP energy per Si atom -12405.641017 kJ/mol
# Density = 2.406269 g / cm^3
# Si number density = 24.117587 Si / 1000 Ang^3
#
#
#
# Elastic Constant Matrix: (Units=GPa)
#
#
# Indices 1 2 3 4 5 6 
#
# 1 75.4981 9.1482 19.0942 -1.2071 12.2563 -8.1633
# 2 9.1482 104.2368 -12.4236 -0.1932 21.2004 -17.1021
# 3 19.0942 -12.4236 123.6132 -7.1522 23.1654 -19.6051
# 4 -1.2071 -0.1932 -7.1522 35.5921 -9.0035 -2.7874
# 5 12.2563 21.2004 23.1654 -9.0035 41.8443 -5.6053
# 6 -8.1633 -17.1021 -19.6051 -2.7874 -5.6053 32.7583
#
#
#
# Elastic Compliance Matrix: (Units=1/GPa)
#
#
# Indices 1 2 3 4 5 6 
#
# 1 0.014353 -0.000510 -0.001430 -0.000409 -0.002987 0.001909
# 2 -0.000510 0.012941 0.004012 -0.000490 -0.007706 0.007670
# 3 -0.001430 0.004012 0.011185 0.001139 -0.006569 0.007405
# 4 -0.000409 -0.000490 0.001139 0.030351 0.006813 0.004073
# 5 -0.002987 -0.007706 -0.006569 0.006813 0.033459 -0.002394
# 6 0.001909 0.007670 0.007405 0.004073 -0.002394 0.039375
#
#
# Mechanical properties :
#
#
# Convention : Reuss Voigt Hill
#
# Bulk Modulus (GPa) = 23.46126 37.22064 30.34095
# Shear Modulus (GPa) = 32.95343 41.20757 37.08050
#
# Velocity S-wave (km/s) = 3.70045 4.13802 3.92534
# Velocity P-wave (km/s) = 5.29214 6.18849 5.75778
#
# Compressibility (1/GPa) = 0.04262346
#
# Stress axis : x y z
#
# Youngs Moduli (GPa) = 69.66960 77.27243 89.40420
#
# Poissons Ratio (x) = 0.03943 0.12782
# Poissons Ratio (y) = 0.03555 -0.35866
# Poissons Ratio (z) = 0.09960 -0.30999
#
# Static dielectric constant tensor:
#      x y z
#    x 4.329930 -0.323590 -0.033420 
#    y -0.323590 4.395540 -0.049030 
#    z -0.033420 -0.049030 4.986250 
# 
# 
# High freq. dielectric constant tensor:
#      x y z
#    x 1.946220 -0.016300 -0.010880 
#    y -0.016300 1.952760 0.001020 
#    z -0.010880 0.001020 1.981140 
# 
# From -- ./inp_files/591129.got.cif
#   From: 2010.06.25/outbox.cif.g09.slc.cpg/sg2_296_cif.got.tgz:591129.got - 2010.06.27 13:26:56.
