data_PCOD8033300
_publ_section_title
;
Structure prediction by ZEFSAII (Michael W. Deem and Ramdas Pophale) SiO2 
 PCOD8033300
Probable space group: P -1
;
_chemical_formula_sum "Si O2"
_cell_formula_units_Z 16
_cell_length_a 19.585672
_cell_length_b 9.251149
_cell_length_c 11.998401
_cell_angle_alpha 108.229028
_cell_angle_beta 136.191822
_cell_angle_gamma 37.372385
_cell_volume 716.418992
_symmetry_space_group_name_H-M "P -1"
_symmetry_group_IT_number 2
_symmetry_cell_setting 'triclinic'
loop_
_space_group_symop_operation_xyz
x,y,z
-x,-y,-z
loop_
_atom_site_type_symbol
_atom_site_label
_atom_site_fract_x
_atom_site_fract_y
_atom_site_fract_z
Si Si1 0.262373 0.245155 0.714465
Si Si2 0.779422 0.354003 0.305483
Si Si3 0.091899 0.276579 0.953947
Si Si4 0.429597 0.394421 0.094936
Si Si5 0.999548 0.420429 0.298220
Si Si6 0.853140 0.323831 0.757266
Si Si7 0.862750 0.315171 0.005159
Si Si8 0.457193 0.423828 0.702799
O O1 0.229009 0.453893 0.672763
O O2 0.148304 0.374203 0.724366
O O3 0.205370 0.202886 0.537193
O O4 0.473898 0.891572 0.909268
O O5 0.624687 0.517266 0.259046
O O6 0.718810 0.354781 0.117739
O O7 0.000000 0.000000 0.500000
O O8 0.322461 0.925562 0.154381
O O9 0.078272 0.370416 0.841310
O O10 0.000000 0.500000 0.000000
O O11 0.954318 0.310782 0.792677
O O12 0.559283 0.370234 0.271077
O O13 0.335724 0.452063 0.107941
O O14 0.010383 0.235704 0.220053
O O15 0.681697 0.462629 0.527530
O O16 0.782848 0.487449 0.833133
O O17 0.023360 0.994202 0.930916
#
# Coordination Sequence:
#
# PCOD8033300 Si02
#       8
#     2   2   2   2   2   2   2   2
#     4  11  26  42  72 104 139 189 239 293 363 430
#     4  12  27  45  74 106 152 192 235 298 367 432
#     4  12  26  47  72 104 146 193 239 300 359 430
#     4  12  25  45  71 107 141 187 246 293 359 435
#     4  11  24  44  68  99 143 183 237 290 362 420
#     4  11  25  48  70 103 138 190 243 297 362 422
#     4  11  23  45  73  95 145 185 238 304 355 425
#     4  12  28  45  74 105 146 189 244 298 361 428
#
# _framework density 22.333297000000002
#
# number of rings (size 3 to 8) (size 9 to 14) (size 15 to 20)
#    0.000    0.500    3.750    3.750    7.000    2.000 
#    0.000    0.000    0.000    0.000    0.000    0.000 
#    0.000    0.000    0.000    0.000    0.000    0.000 
#
# Total GULP energy -198230.574306 kJ/mol
# GULP energy per Si atom -12389.410894 kJ/mol
# Density = 2.228246 g / cm^3
# Si number density = 22.333297 Si / 1000 Ang^3
#
#
#
# Elastic Constant Matrix: (Units=GPa)
#
#
# Indices 1 2 3 4 5 6 
#
# 1 654.2145 198.9325 457.0927 -64.6358 -75.4250 -216.4929
# 2 198.9325 145.6453 155.7336 -24.7592 -19.5374 -57.7997
# 3 457.0927 155.7336 410.3329 -51.3747 -62.9706 -183.7434
# 4 -64.6358 -24.7592 -51.3747 59.6381 10.5242 32.8268
# 5 -75.4250 -19.5374 -62.9706 10.5242 45.3025 37.5746
# 6 -216.4929 -57.7997 -183.7434 32.8268 37.5746 137.9181
#
#
#
# Elastic Compliance Matrix: (Units=1/GPa)
#
#
# Indices 1 2 3 4 5 6 
#
# 1 0.007543 -0.002503 -0.006407 0.000405 0.000889 0.001917
# 2 -0.002503 0.012916 -0.003610 0.001613 -0.001180 -0.003388
# 3 -0.006407 -0.003610 0.014422 -0.000319 0.001930 0.007194
# 4 0.000405 0.001613 -0.000319 0.019713 -0.000642 -0.003632
# 5 0.000889 -0.001180 0.001930 -0.000642 0.029547 -0.004424
# 6 0.001917 -0.003388 0.007194 -0.003632 -0.004424 0.020493
#
#
# Mechanical properties :
#
#
# Convention : Reuss Voigt Hill
#
# Bulk Modulus (GPa) = 101.61957 314.85670 208.23814
# Shear Modulus (GPa) = 37.60620 75.13401 56.37010
#
# Velocity S-wave (km/s) = 4.10794 5.80648 5.02943
# Velocity P-wave (km/s) = 8.25230 13.64700 11.27699
#
# Compressibility (1/GPa) = 0.00984062
#
# Stress axis : x y z
#
# Youngs Moduli (GPa) = 132.56635 77.42073 69.33794
#
# Poissons Ratio (x) = 0.19380 0.44428
# Poissons Ratio (y) = 0.33184 0.25031
# Poissons Ratio (z) = 0.84941 0.27949
#
# Static dielectric constant tensor:
#      x y z
#    x 4.408880 -0.149590 0.014520 
#    y -0.149590 4.509880 0.234410 
#    z 0.014520 0.234410 4.204820 
# 
# 
# High freq. dielectric constant tensor:
#      x y z
#    x 1.899650 0.001060 -0.002360 
#    y 0.001060 1.890030 0.014070 
#    z -0.002360 0.014070 1.883280 
# 
# From -- ./inp_files/462239.got.cif
#   From: 2010.06.25/outbox.cif.g09.slc.cpg/sg2_232_cif.got.tgz:462239.got - 2010.06.27 13:26:56.
