data_PCOD8033913
_publ_section_title
;
Structure prediction by ZEFSAII (Michael W. Deem and Ramdas Pophale) SiO2 
 PCOD8033913
Probable space group: P -1
;
_chemical_formula_sum "Si O2"
_cell_formula_units_Z 14
_cell_length_a 16.673193
_cell_length_b 4.999449
_cell_length_c 25.570093
_cell_angle_alpha 90.034434
_cell_angle_beta 17.504186
_cell_angle_gamma 99.038956
_cell_volume 547.424873
_symmetry_space_group_name_H-M "P -1"
_symmetry_group_IT_number 2
_symmetry_cell_setting 'triclinic'
loop_
_space_group_symop_operation_xyz
x,y,z
-x,-y,-z
loop_
_atom_site_type_symbol
_atom_site_label
_atom_site_fract_x
_atom_site_fract_y
_atom_site_fract_z
Si Si1 0.225501 0.630225 0.409222
Si Si2 0.902559 0.889157 0.843963
Si Si3 0.251491 0.377666 0.213423
Si Si4 0.758788 0.741184 0.512948
Si Si5 0.079180 0.926258 0.051846
Si Si6 0.014371 0.475360 0.711535
Si Si7 0.825203 0.302546 0.158767
O O1 0.307379 0.387275 0.386087
O O2 0.000000 0.500000 0.500000
O O3 0.046766 0.699413 0.564984
O O4 0.552562 0.927683 0.187521
O O5 0.993674 0.983362 0.846775
O O6 0.134682 0.790141 0.672653
O O7 0.893988 0.171200 0.822011
O O8 0.565044 0.564866 0.051600
O O9 0.272768 0.556404 0.145670
O O10 0.130103 0.013482 0.275994
O O11 0.539626 0.870276 0.630105
O O12 0.714320 0.480855 0.496871
O O13 0.924369 0.049875 0.106995
O O14 0.914169 0.550550 0.151015
O O15 0.000000 0.500000 0.000000
#
# Coordination Sequence:
#
# PCOD8033913 Si02
#       7
#     2   2   2   2   2   2   2
#     4  11  24  43  68 111 143 175 223 297 364 413
#     4  12  25  45  70 103 146 182 228 293 354 418
#     4  11  24  42  74 101 142 181 236 289 353 421
#     4  11  26  44  74 104 137 188 240 290 341 418
#     4  12  27  47  71 108 142 187 231 289 358 410
#     4  11  25  44  70 104 137 188 236 282 353 413
#     4  12  26  48  75 100 143 188 242 281 340 426
#
# _framework density 25.574285
#
# number of rings (size 3 to 8) (size 9 to 14) (size 15 to 20)
#    0.000    0.571    4.286    3.000    8.000    1.714 
#    0.000    4.286    0.000    0.000    0.000    0.000 
#    0.000    0.000    0.000    0.000    0.000    0.000 
#
# Total GULP energy -173490.895666 kJ/mol
# GULP energy per Si atom -12392.206833 kJ/mol
# Density = 2.551608 g / cm^3
# Si number density = 25.574285 Si / 1000 Ang^3
#
#
#
# Elastic Constant Matrix: (Units=GPa)
#
#
# Indices 1 2 3 4 5 6 
#
# 1 117.1662 14.8919 24.3137 1.1832 9.6936 9.0971
# 2 14.8919 90.9426 4.2428 -0.5750 3.0552 3.1904
# 3 24.3137 4.2428 37.9043 -3.3008 -11.3554 -4.6862
# 4 1.1832 -0.5750 -3.3008 37.1644 1.7411 0.4679
# 5 9.6936 3.0552 -11.3554 1.7411 38.5803 2.1155
# 6 9.0971 3.1904 -4.6862 0.4679 2.1155 41.9210
#
#
#
# Elastic Compliance Matrix: (Units=1/GPa)
#
#
# Indices 1 2 3 4 5 6 
#
# 1 0.011251 -0.001139 -0.009112 -0.000902 -0.005208 -0.003101
# 2 -0.001139 0.011274 -0.000845 0.000183 -0.000827 -0.000666
# 3 -0.009112 -0.000845 0.037103 0.002901 0.012844 0.005509
# 4 -0.000902 0.000183 0.002901 0.027202 -0.000173 0.000211
# 5 -0.005208 -0.000827 0.012844 -0.000173 0.031024 0.001065
# 6 -0.003101 -0.000666 0.005509 0.000211 0.001065 0.025138
#
#
# Mechanical properties :
#
#
# Convention : Reuss Voigt Hill
#
# Bulk Modulus (GPa) = 26.71228 36.98998 31.85113
# Shear Modulus (GPa) = 28.14314 37.03745 32.59030
#
# Velocity S-wave (km/s) = 3.32090 3.80969 3.57366
# Velocity P-wave (km/s) = 5.01718 5.81780 5.43226
#
# Compressibility (1/GPa) = 0.03743597
#
# Stress axis : x y z
#
# Youngs Moduli (GPa) = 88.87946 88.69780 26.95195
#
# Poissons Ratio (x) = 0.10105 0.24558
# Poissons Ratio (y) = 0.10126 0.02278
# Poissons Ratio (z) = 0.80984 0.07498
#
# Static dielectric constant tensor:
#      x y z
#    x 4.812700 0.275990 0.125630 
#    y 0.275990 5.073560 0.174970 
#    z 0.125630 0.174970 4.644500 
# 
# 
# High freq. dielectric constant tensor:
#      x y z
#    x 2.023920 0.009360 0.011990 
#    y 0.009360 2.034430 0.008410 
#    z 0.011990 0.008410 2.011310 
# 
# From -- ./inp_files/108810.got.cif
#   From: 2010.06.25/outbox.cif.g09.slc.cpg/sg2_55_cif.got.tgz:108810.got - 2010.06.27 13:26:56.
