data_PCOD8033288
_publ_section_title
;
Structure prediction by ZEFSAII (Michael W. Deem and Ramdas Pophale) SiO2 
 PCOD8033288
Probable space group: P -1
;
_chemical_formula_sum "Si O2"
_cell_formula_units_Z 16
_cell_length_a 16.389561
_cell_length_b 12.292708
_cell_length_c 9.090789
_cell_angle_alpha 148.713093
_cell_angle_beta 59.573289
_cell_angle_gamma 130.447017
_cell_volume 718.489400
_symmetry_space_group_name_H-M "P -1"
_symmetry_group_IT_number 2
_symmetry_cell_setting 'triclinic'
loop_
_space_group_symop_operation_xyz
x,y,z
-x,-y,-z
loop_
_atom_site_type_symbol
_atom_site_label
_atom_site_fract_x
_atom_site_fract_y
_atom_site_fract_z
Si Si1 0.153970 0.644475 0.393513
Si Si2 0.025261 0.849475 0.920506
Si Si3 0.395628 0.781123 0.412864
Si Si4 0.107841 0.047350 0.381139
Si Si5 0.451163 0.780323 0.674932
Si Si6 0.383558 0.380771 0.782169
Si Si7 0.789470 0.128062 0.691862
Si Si8 0.692915 0.449001 0.211925
O O1 0.105767 0.764797 0.684011
O O2 0.282798 0.749527 0.415046
O O3 0.133522 0.696008 0.303056
O O4 0.088668 0.361962 0.159577
O O5 0.092710 0.011612 0.180737
O O6 0.000000 0.000000 0.000000
O O7 0.394014 0.830397 0.645716
O O8 0.500000 0.000000 0.500000
O O9 0.406223 0.540771 0.093723
O O10 0.144887 0.870094 0.220105
O O11 0.191626 0.322922 0.645551
O O12 0.000000 0.000000 0.500000
O O13 0.531610 0.704491 0.437693
O O14 0.362298 0.553519 0.584934
O O15 0.500000 0.000000 0.000000
O O16 0.382797 0.552206 0.851478
O O17 0.269780 0.140667 0.629390
O O18 0.702614 0.208325 0.914089
#
# Coordination Sequence:
#
# PCOD8033288 Si02
#       8
#     2   2   2   2   2   2   2   2
#     4  11  26  46  73 101 145 191 239 305 353 438
#     4  11  27  46  71 105 145 191 242 297 368 427
#     4  12  27  46  74 108 145 192 245 292 371 438
#     4  11  26  42  70 106 138 187 237 296 366 423
#     4  12  25  44  71 102 146 186 238 303 354 435
#     4  11  24  46  71 102 144 193 235 294 365 428
#     4  11  23  45  73 101 144 182 243 293 358 428
#     4  11  24  42  71 103 139 185 235 299 357 429
#
# _framework density 22.268944000000001
#
# number of rings (size 3 to 8) (size 9 to 14) (size 15 to 20)
#    0.000    0.750    2.500    3.750    7.000    4.000 
#    0.000    0.000    0.000    0.000    0.000    0.000 
#    0.000    0.000    0.000    0.000    0.000    0.000 
#
# Total GULP energy -198376.581299 kJ/mol
# GULP energy per Si atom -12398.536331 kJ/mol
# Density = 2.221826 g / cm^3
# Si number density = 22.268944 Si / 1000 Ang^3
#
#
#
# Elastic Constant Matrix: (Units=GPa)
#
#
# Indices 1 2 3 4 5 6 
#
# 1 94.3232 37.5095 35.9813 6.9311 1.7589 -12.9993
# 2 37.5095 143.2833 29.2687 4.0333 8.7488 -10.9964
# 3 35.9813 29.2687 104.1216 -2.8432 6.6547 -10.6733
# 4 6.9311 4.0333 -2.8432 38.4156 -5.4560 1.0479
# 5 1.7589 8.7488 6.6547 -5.4560 34.7342 -5.4988
# 6 -12.9993 -10.9964 -10.6733 1.0479 -5.4988 50.8231
#
#
#
# Elastic Compliance Matrix: (Units=1/GPa)
#
#
# Indices 1 2 3 4 5 6 
#
# 1 0.013563 -0.002566 -0.003846 -0.002428 0.000668 0.002228
# 2 -0.002566 0.008076 -0.001228 -0.000732 -0.001679 0.000667
# 3 -0.003846 -0.001228 0.011504 0.001461 -0.001313 0.000994
# 4 -0.002428 -0.000732 0.001461 0.027269 0.004219 -0.000579
# 5 0.000668 -0.001679 -0.001313 0.004219 0.030528 0.002748
# 6 0.002228 0.000667 0.000994 -0.000579 0.002748 0.020908
#
#
# Mechanical properties :
#
#
# Convention : Reuss Voigt Hill
#
# Bulk Modulus (GPa) = 55.98260 60.80523 58.39392
# Shear Modulus (GPa) = 37.57055 40.72583 39.14819
#
# Velocity S-wave (km/s) = 4.11192 4.28111 4.19737
# Velocity P-wave (km/s) = 6.90925 7.19732 7.05476
#
# Compressibility (1/GPa) = 0.01786269
#
# Stress axis : x y z
#
# Youngs Moduli (GPa) = 73.73225 123.82287 86.92565
#
# Poissons Ratio (x) = 0.31776 0.33432
# Poissons Ratio (y) = 0.18922 0.10672
# Poissons Ratio (z) = 0.28357 0.15202
#
# Static dielectric constant tensor:
#      x y z
#    x 4.612890 -0.340520 0.686460 
#    y -0.340520 4.419240 -0.327510 
#    z 0.686460 -0.327510 5.193280 
# 
# 
# High freq. dielectric constant tensor:
#      x y z
#    x 1.878780 -0.003960 -0.002700 
#    y -0.003960 1.894190 -0.003050 
#    z -0.002700 -0.003050 1.879800 
# 
# From -- ./inp_files/49075.got.cif
#   From: 2010.06.25/outbox.cif.g09.slc.cpg/sg2_25_cif.got.tgz:49075.got - 2010.06.27 13:26:56.
