data_PCOD8033194
_publ_section_title
;
Structure prediction by ZEFSAII (Michael W. Deem and Ramdas Pophale) SiO2 
 PCOD8033194
Probable space group: P -1
;
_chemical_formula_sum "Si O2"
_cell_formula_units_Z 16
_cell_length_a 19.602504
_cell_length_b 11.551678
_cell_length_c 8.429311
_cell_angle_alpha 56.112168
_cell_angle_beta 147.337994
_cell_angle_gamma 135.132435
_cell_volume 722.875725
_symmetry_space_group_name_H-M "P -1"
_symmetry_group_IT_number 2
_symmetry_cell_setting 'triclinic'
loop_
_space_group_symop_operation_xyz
x,y,z
-x,-y,-z
loop_
_atom_site_type_symbol
_atom_site_label
_atom_site_fract_x
_atom_site_fract_y
_atom_site_fract_z
Si Si1 0.895781 0.569525 0.278363
Si Si2 0.474889 0.976109 0.653983
Si Si3 0.620961 0.533893 0.339115
Si Si4 0.918859 0.096236 0.759296
Si Si5 0.876028 0.561434 0.598052
Si Si6 0.586614 0.327637 0.718324
Si Si7 0.127540 0.764539 0.136787
Si Si8 0.609292 0.813380 0.254313
O O1 0.824484 0.556056 0.322115
O O2 0.000000 0.500000 0.500000
O O3 0.995386 0.764795 0.309170
O O4 0.758345 0.472632 0.964016
O O5 0.570010 0.152748 0.789759
O O6 0.500000 0.000000 0.500000
O O7 0.299983 0.904755 0.372805
O O8 0.516278 0.853698 0.914388
O O9 0.753413 0.529002 0.514634
O O10 0.539772 0.389535 0.424394
O O11 0.676838 0.714889 0.380333
O O12 0.500000 0.500000 0.000000
O O13 0.947751 0.189246 0.910086
O O14 0.744357 0.983761 0.458632
O O15 0.000000 0.000000 0.000000
O O16 0.904687 0.414675 0.759728
O O17 0.032101 0.736605 0.809382
O O18 0.492748 0.303692 0.711559
#
# Coordination Sequence:
#
# PCOD8033194 Si02
#       8
#     2   2   2   2   2   2   2   2
#     4  12  25  44  74 105 138 190 243 289 352 431
#     4  12  26  43  72 107 144 190 237 299 358 422
#     4  12  26  48  73 106 146 191 239 297 361 431
#     4  12  26  46  69 105 146 186 233 299 361 420
#     4  11  25  44  72 103 141 191 237 293 351 429
#     4  12  25  46  75 106 141 191 244 291 359 431
#     4  11  23  45  69 101 145 185 235 290 356 419
#     4  12  26  47  73 108 146 188 243 296 361 429
#
# _framework density 22.13382
#
# number of rings (size 3 to 8) (size 9 to 14) (size 15 to 20)
#    0.000    0.250    2.500    7.500    5.250    1.000 
#    2.250    1.250    0.000    0.000    0.000    0.000 
#    0.000    0.000    0.000    0.000    0.000    0.000 
#
# Total GULP energy -198297.091681 kJ/mol
# GULP energy per Si atom -12393.568230 kJ/mol
# Density = 2.208344 g / cm^3
# Si number density = 22.133820 Si / 1000 Ang^3
#
#
#
# Elastic Constant Matrix: (Units=GPa)
#
#
# Indices 1 2 3 4 5 6 
#
# 1 148.7033 50.0524 44.3184 -14.0517 -7.4473 -9.2894
# 2 50.0524 122.2635 40.7697 -1.9691 1.1646 -2.6168
# 3 44.3184 40.7697 111.7634 2.6999 -5.8492 7.5181
# 4 -14.0517 -1.9691 2.6999 46.7410 0.7928 -0.1106
# 5 -7.4473 1.1646 -5.8492 0.7928 37.0183 -5.4366
# 6 -9.2894 -2.6168 7.5181 -0.1106 -5.4366 47.5321
#
#
#
# Elastic Compliance Matrix: (Units=1/GPa)
#
#
# Indices 1 2 3 4 5 6 
#
# 1 0.008904 -0.002677 -0.002678 0.002695 0.001720 0.002219
# 2 -0.002677 0.010206 -0.002744 -0.000195 -0.001241 0.000330
# 3 -0.002678 -0.002744 0.011260 -0.001594 0.001017 -0.002343
# 4 0.002695 -0.000195 -0.001594 0.022291 -0.000062 0.000813
# 5 0.001720 -0.001241 0.001017 -0.000062 0.028048 0.003315
# 6 0.002219 0.000330 -0.002343 0.000813 0.003315 0.022242
#
#
# Mechanical properties :
#
#
# Convention : Reuss Voigt Hill
#
# Bulk Modulus (GPa) = 70.56969 72.55679 71.56324
# Shear Modulus (GPa) = 40.36414 42.76426 41.56420
#
# Velocity S-wave (km/s) = 4.27504 4.40031 4.33813
# Velocity P-wave (km/s) = 7.50469 7.65957 7.58253
#
# Compressibility (1/GPa) = 0.01417039
#
# Stress axis : x y z
#
# Youngs Moduli (GPa) = 112.31345 97.98373 88.81239
#
# Poissons Ratio (x) = 0.26234 0.23787
# Poissons Ratio (y) = 0.30071 0.24367
# Poissons Ratio (z) = 0.30081 0.26884
#
# Static dielectric constant tensor:
#      x y z
#    x 4.645470 -0.207620 -0.125230 
#    y -0.207620 4.118360 0.208170 
#    z -0.125230 0.208170 4.245540 
# 
# 
# High freq. dielectric constant tensor:
#      x y z
#    x 1.885860 -0.011090 -0.007180 
#    y -0.011090 1.877300 0.012760 
#    z -0.007180 0.012760 1.877010 
# 
# From -- ./inp_files/298668.got.cif
#   From: 2010.06.25/outbox.cif.g09.slc.cpg/sg2_150_cif.got.tgz:298668.got - 2010.06.27 13:26:56.
