data_PCOD8033872
_publ_section_title
;
Structure prediction by ZEFSAII (Michael W. Deem and Ramdas Pophale) SiO2 
 PCOD8033872
Probable space group: P -1
;
_chemical_formula_sum "Si O2"
_cell_formula_units_Z 16
_cell_length_a 5.290408
_cell_length_b 11.286590
_cell_length_c 13.328784
_cell_angle_alpha 78.354327
_cell_angle_beta 84.174821
_cell_angle_gamma 63.681600
_cell_volume 698.623586
_symmetry_space_group_name_H-M "P -1"
_symmetry_group_IT_number 2
_symmetry_cell_setting 'triclinic'
loop_
_space_group_symop_operation_xyz
x,y,z
-x,-y,-z
loop_
_atom_site_type_symbol
_atom_site_label
_atom_site_fract_x
_atom_site_fract_y
_atom_site_fract_z
Si Si1 0.920527 0.379591 0.002272
Si Si2 0.711479 0.500032 0.792098
Si Si3 0.582328 0.880596 0.940795
Si Si4 0.928010 0.765566 0.552981
Si Si5 0.669822 0.237978 0.167667
Si Si6 0.747272 0.527061 0.327635
Si Si7 0.818104 0.937425 0.715828
Si Si8 0.561640 0.212523 0.575238
O O1 0.791510 0.345077 0.113099
O O2 0.194393 0.245172 0.986399
O O3 0.712340 0.420310 0.907914
O O4 0.000000 0.500000 0.000000
O O5 0.631127 0.658932 0.790451
O O6 0.481474 0.490972 0.729419
O O7 0.029790 0.434482 0.747067
O O8 0.335319 0.840893 0.920899
O O9 0.684014 0.914512 0.826258
O O10 0.500000 0.000000 0.000000
O O11 0.770876 0.856544 0.639178
O O12 0.684752 0.801990 0.474048
O O13 0.067931 0.607690 0.596080
O O14 0.174437 0.805137 0.501085
O O15 0.845807 0.129272 0.263367
O O16 0.567944 0.643691 0.391578
O O17 0.685544 0.095371 0.673360
#
# Coordination Sequence:
#
# PCOD8033872 Si02
#       8
#     2   2   2   2   2   2   2   2
#     4  11  24  42  70 108 140 192 252 301 355 437
#     4  12  24  42  75 106 143 192 244 291 365 439
#     4  11  27  45  71 105 151 191 237 306 369 434
#     4  12  25  49  74 105 144 190 244 301 367 438
#     4  11  24  45  72 101 149 194 247 304 358 434
#     4  12  26  45  74 108 145 186 234 313 372 430
#     4  11  27  46  73 104 142 195 244 289 369 444
#     4  12  28  46  75 110 144 186 245 308 365 436
#
# _framework density 22.902176000000001
#
# number of rings (size 3 to 8) (size 9 to 14) (size 15 to 20)
#    0.000    0.500    2.500    4.875    7.000    3.000 
#    0.000    0.000    0.000    0.000    0.000    0.000 
#    0.000    0.000    0.000    0.000    0.000    0.000 
#
# Total GULP energy -198351.334885 kJ/mol
# GULP energy per Si atom -12396.958430 kJ/mol
# Density = 2.285005 g / cm^3
# Si number density = 22.902176 Si / 1000 Ang^3
#
#
#
# Elastic Constant Matrix: (Units=GPa)
#
#
# Indices 1 2 3 4 5 6 
#
# 1 102.5031 28.8773 35.1805 3.8866 15.1606 -2.4524
# 2 28.8773 161.5735 56.5085 5.9572 13.6341 -2.5845
# 3 35.1805 56.5085 105.7012 -1.8068 18.0738 -7.6214
# 4 3.8866 5.9572 -1.8068 53.7709 -1.6913 8.9766
# 5 15.1606 13.6341 18.0738 -1.6913 42.7070 -2.4316
# 6 -2.4524 -2.5845 -7.6214 8.9766 -2.4316 28.5822
#
#
#
# Elastic Compliance Matrix: (Units=1/GPa)
#
#
# Indices 1 2 3 4 5 6 
#
# 1 0.011404 -0.000748 -0.002956 -0.000956 -0.002585 0.000203
# 2 -0.000748 0.007740 -0.003805 -0.000928 -0.000640 -0.000142
# 3 -0.002956 -0.003805 0.013208 0.000566 -0.003162 0.002477
# 4 -0.000956 -0.000928 0.000566 0.019846 0.000830 -0.006177
# 5 -0.002585 -0.000640 -0.003162 0.000830 0.025955 0.000825
# 6 0.000203 -0.000142 0.002477 -0.006177 0.000825 0.037662
#
#
# Mechanical properties :
#
#
# Convention : Reuss Voigt Hill
#
# Bulk Modulus (GPa) = 57.69045 67.87892 62.78468
# Shear Modulus (GPa) = 36.60040 41.62611 39.11325
#
# Velocity S-wave (km/s) = 4.00198 4.26791 4.13709
# Velocity P-wave (km/s) = 6.82636 7.34777 7.09186
#
# Compressibility (1/GPa) = 0.01733389
#
# Stress axis : x y z
#
# Youngs Moduli (GPa) = 87.68579 129.20519 75.71343
#
# Poissons Ratio (x) = 0.09664 0.22377
# Poissons Ratio (y) = 0.06558 0.28812
# Poissons Ratio (z) = 0.25916 0.49168
#
# Static dielectric constant tensor:
#      x y z
#    x 4.242960 0.010520 -0.008640 
#    y 0.010520 4.184910 0.050940 
#    z -0.008640 0.050940 4.126510 
# 
# 
# High freq. dielectric constant tensor:
#      x y z
#    x 1.911270 -0.008950 0.009020 
#    y -0.008950 1.911640 -0.009030 
#    z 0.009020 -0.009030 1.910910 
# 
# From -- ./inp_files/70274.got.cif
#   From: 2010.06.25/outbox.cif.g09.slc.cpg/sg2_36_cif.got.tgz:70274.got - 2010.06.27 13:26:56.
