data_PCOD8033862
_publ_section_title
;
Structure prediction by ZEFSAII (Michael W. Deem and Ramdas Pophale) SiO2 
 PCOD8033862
Probable space group: P -1
;
_chemical_formula_sum "Si O2"
_cell_formula_units_Z 16
_cell_length_a 17.580488
_cell_length_b 9.816978
_cell_length_c 10.981826
_cell_angle_alpha 64.237306
_cell_angle_beta 51.649572
_cell_angle_gamma 30.148820
_cell_volume 721.115941
_symmetry_space_group_name_H-M "P -1"
_symmetry_group_IT_number 2
_symmetry_cell_setting 'triclinic'
loop_
_space_group_symop_operation_xyz
x,y,z
-x,-y,-z
loop_
_atom_site_type_symbol
_atom_site_label
_atom_site_fract_x
_atom_site_fract_y
_atom_site_fract_z
Si Si1 0.728207 0.302596 0.386264
Si Si2 0.349820 0.810526 0.070468
Si Si3 0.158584 0.387651 0.447386
Si Si4 0.890303 0.776775 0.064126
Si Si5 0.078739 0.055136 0.440103
Si Si6 0.136887 0.691535 0.955068
Si Si7 0.395552 0.262486 0.072462
Si Si8 0.645871 0.114052 0.397185
O O1 0.783916 0.379664 0.228980
O O2 0.698301 0.213878 0.348545
O O3 0.567914 0.582221 0.519080
O O4 0.874478 0.032902 0.431466
O O5 0.256101 0.873136 0.261648
O O6 0.500000 0.500000 0.000000
O O7 0.450944 0.836816 0.978704
O O8 0.195172 0.016060 0.041528
O O9 0.262614 0.360288 0.262379
O O10 0.000000 0.500000 0.500000
O O11 0.068556 0.616472 0.549013
O O12 0.301221 0.083907 0.480875
O O13 0.726159 0.953009 0.250503
O O14 0.000000 0.500000 0.000000
O O15 0.032758 0.670906 0.052615
O O16 0.000000 0.000000 0.500000
O O17 0.281853 0.504193 0.991964
O O18 0.000000 0.000000 0.000000
O O19 0.500000 0.000000 0.000000
#
# Coordination Sequence:
#
# PCOD8033862 Si02
#       8
#     2   2   2   2   2   2   2   2
#     4  11  24  42  70 102 135 176 235 281 347 407
#     4  12  26  45  68  99 142 180 227 282 346 410
#     4  12  23  44  68 102 137 179 233 284 342 409
#     4  12  25  46  68 101 139 184 229 285 351 409
#     4  12  25  45  70 102 140 184 229 284 350 416
#     4  12  23  43  70 101 135 180 235 280 339 421
#     4  12  26  43  68 103 137 179 228 282 346 408
#     4  11  24  42  70 100 135 182 225 289 341 411
#
# _framework density 22.187832
#
# number of rings (size 3 to 8) (size 9 to 14) (size 15 to 20)
#    0.000    0.250    2.500    7.500    3.500    0.000 
#    0.000    1.875    0.000    0.000    0.000    0.000 
#    0.000    0.000    0.000    0.000    0.000    0.000 
#
# Total GULP energy -198328.333637 kJ/mol
# GULP energy per Si atom -12395.520852 kJ/mol
# Density = 2.213733 g / cm^3
# Si number density = 22.187832 Si / 1000 Ang^3
#
#
#
# Elastic Constant Matrix: (Units=GPa)
#
#
# Indices 1 2 3 4 5 6 
#
# 1 84.2567 19.6474 21.9921 11.3488 -9.5072 12.4532
# 2 19.6474 141.7935 26.7739 15.2738 10.5583 17.4679
# 3 21.9921 26.7739 145.7086 10.6549 -1.4001 9.4761
# 4 11.3488 15.2738 10.6549 45.2286 0.9188 17.6531
# 5 -9.5072 10.5583 -1.4001 0.9188 40.0231 -2.7953
# 6 12.4532 17.4679 9.4761 17.6531 -2.7953 47.1750
#
#
#
# Elastic Compliance Matrix: (Units=1/GPa)
#
#
# Indices 1 2 3 4 5 6 
#
# 1 0.013503 -0.001416 -0.001486 -0.001920 0.003446 -0.001819
# 2 -0.001416 0.008033 -0.001061 -0.001244 -0.002609 -0.002077
# 3 -0.001486 -0.001061 0.007371 -0.000868 0.000180 -0.000360
# 4 -0.001920 -0.001244 -0.000868 0.026736 -0.001397 -0.008946
# 5 0.003446 -0.002609 0.000180 -0.001397 0.026679 0.002124
# 6 -0.001819 -0.002077 -0.000360 -0.008946 0.002124 0.025992
#
#
# Mechanical properties :
#
#
# Convention : Reuss Voigt Hill
#
# Bulk Modulus (GPa) = 47.66452 56.50953 52.08702
# Shear Modulus (GPa) = 40.57276 46.70837 43.64057
#
# Velocity S-wave (km/s) = 4.28086 4.59315 4.43975
# Velocity P-wave (km/s) = 6.77962 7.32485 7.05750
#
# Compressibility (1/GPa) = 0.02097996
#
# Stress axis : x y z
#
# Youngs Moduli (GPa) = 74.05835 124.48239 135.66767
#
# Poissons Ratio (x) = 0.17628 0.20160
# Poissons Ratio (y) = 0.10488 0.14400
# Poissons Ratio (z) = 0.11005 0.13213
#
# Static dielectric constant tensor:
#      x y z
#    x 2.653030 0.501750 0.049990 
#    y 0.501750 3.990350 0.183340 
#    z 0.049990 0.183340 3.957720 
# 
# 
# High freq. dielectric constant tensor:
#      x y z
#    x 1.866730 0.003710 0.002890 
#    y 0.003710 1.895320 0.007920 
#    z 0.002890 0.007920 1.887370 
# 
# From -- ./inp_files/299410.got.cif
#   From: 2010.06.25/outbox.cif.g09.slc.cpg/sg2_150_cif.got.tgz:299410.got - 2010.06.27 13:26:56.
