data_PCOD8033510
_publ_section_title
;
Structure prediction by ZEFSAII (Michael W. Deem and Ramdas Pophale) SiO2 
 PCOD8033510
Probable space group: P -1
;
_chemical_formula_sum "Si O2"
_cell_formula_units_Z 12
_cell_length_a 8.523934
_cell_length_b 4.936658
_cell_length_c 12.323046
_cell_angle_alpha 84.446160
_cell_angle_beta 57.190965
_cell_angle_gamma 75.118456
_cell_volume 420.640209
_symmetry_space_group_name_H-M "P -1"
_symmetry_group_IT_number 2
_symmetry_cell_setting 'triclinic'
loop_
_space_group_symop_operation_xyz
x,y,z
-x,-y,-z
loop_
_atom_site_type_symbol
_atom_site_label
_atom_site_fract_x
_atom_site_fract_y
_atom_site_fract_z
Si Si1 0.067068 0.885253 0.821709
Si Si2 0.377067 0.397783 0.676695
Si Si3 0.649816 0.780777 0.533372
Si Si4 0.312377 0.041052 0.257049
Si Si5 0.057176 0.641339 0.311648
Si Si6 0.282592 0.082193 0.917418
O O1 0.190836 0.653336 0.699876
O O2 0.026585 0.200132 0.774978
O O3 0.861112 0.818215 0.931104
O O4 0.194235 0.875167 0.883340
O O5 0.568314 0.512197 0.600187
O O6 0.401377 0.147861 0.581699
O O7 0.312678 0.340577 0.823755
O O8 0.599765 0.994605 0.648144
O O9 0.881883 0.688324 0.461211
O O10 0.143846 0.309229 0.279571
O O11 0.231719 0.769815 0.280403
O O12 0.500555 0.057586 0.114508
#
# Coordination Sequence:
#
# PCOD8033510 Si02
#       6
#     2   2   2   2   2   2
#     4  11  25  47  75 104 143 194 251 304 358 431
#     4  11  23  46  76 110 145 183 256 308 360 427
#     4  11  24  45  73 109 145 194 238 304 367 436
#     4  12  27  48  72 111 154 192 240 297 372 441
#     4  12  27  48  72 111 154 192 240 297 372 441
#     4  11  25  47  75 104 143 194 251 304 358 431
#
# _framework density 28.527943
#
# number of rings (size 3 to 8) (size 9 to 14) (size 15 to 20)
#    0.000    0.667    3.333    3.500    0.000    8.000 
#    0.000    0.000    0.000    0.000    0.000    0.000 
#    0.000    0.000    0.000    0.000    0.000    0.000 
#
# Total GULP energy -148735.245198 kJ/mol
# GULP energy per Si atom -12394.603767 kJ/mol
# Density = 2.846301 g / cm^3
# Si number density = 28.527943 Si / 1000 Ang^3
#
#
#
# Elastic Constant Matrix: (Units=GPa)
#
#
# Indices 1 2 3 4 5 6 
#
# 1 77.4525 -0.1828 42.1888 12.4178 -32.9033 -3.8333
# 2 -0.1828 78.9501 32.7378 -0.3137 0.7681 -14.7807
# 3 42.1888 32.7378 175.5281 5.1580 -53.8954 1.6853
# 4 12.4178 -0.3137 5.1580 37.2349 2.6306 1.0704
# 5 -32.9033 0.7681 -53.8954 2.6306 66.6534 -5.7825
# 6 -3.8333 -14.7807 1.6853 1.0704 -5.7825 38.8420
#
#
#
# Elastic Compliance Matrix: (Units=1/GPa)
#
#
# Indices 1 2 3 4 5 6 
#
# 1 0.018802 0.001572 -0.002162 -0.006645 0.008119 0.003939
# 2 0.001572 0.015435 -0.003962 0.000134 -0.002100 0.005884
# 3 -0.002162 -0.003962 0.008861 -0.000935 0.006078 -0.001175
# 4 -0.006645 0.000134 -0.000935 0.029647 -0.005398 -0.002185
# 5 0.008119 -0.002100 0.006078 -0.005398 0.024469 0.003530
# 6 0.003939 0.005884 -0.001175 -0.002185 0.003530 0.029010
#
#
# Mechanical properties :
#
#
# Convention : Reuss Voigt Hill
#
# Bulk Modulus (GPa) = 29.41649 53.49092 41.45371
# Shear Modulus (GPa) = 34.09249 45.69185 39.89217
#
# Velocity S-wave (km/s) = 3.46071 4.00641 3.74351
# Velocity P-wave (km/s) = 5.12860 6.33978 5.76608
#
# Compressibility (1/GPa) = 0.03399453
#
# Stress axis : x y z
#
# Youngs Moduli (GPa) = 53.18588 64.78615 112.85764
#
# Poissons Ratio (x) = -0.10185 0.24398
# Poissons Ratio (y) = -0.08362 0.44715
# Poissons Ratio (z) = 0.11498 0.25668
#
# Static dielectric constant tensor:
#      x y z
#    x 5.421000 -0.333930 -0.389390 
#    y -0.333930 4.981840 0.274910 
#    z -0.389390 0.274910 5.560470 
# 
# 
# High freq. dielectric constant tensor:
#      x y z
#    x 2.181410 -0.014900 -0.028120 
#    y -0.014900 2.156500 0.009750 
#    z -0.028120 0.009750 2.167160 
# 
# From -- ./inp_files/487656.got.cif
#   From: 2010.06.25/outbox.cif.g09.slc.cpg/sg2_244_cif.got.tgz:487656.got - 2010.06.27 13:26:56.
