data_PCOD8033836
_publ_section_title
;
Structure prediction by ZEFSAII (Michael W. Deem and Ramdas Pophale) SiO2 
 PCOD8033836
Probable space group: P -1
;
_chemical_formula_sum "Si O2"
_cell_formula_units_Z 14
_cell_length_a 19.070582
_cell_length_b 9.665967
_cell_length_c 12.804442
_cell_angle_alpha 135.488875
_cell_angle_beta 150.664489
_cell_angle_gamma 33.787021
_cell_volume 642.501944
_symmetry_space_group_name_H-M "P -1"
_symmetry_group_IT_number 2
_symmetry_cell_setting 'triclinic'
loop_
_space_group_symop_operation_xyz
x,y,z
-x,-y,-z
loop_
_atom_site_type_symbol
_atom_site_label
_atom_site_fract_x
_atom_site_fract_y
_atom_site_fract_z
Si Si1 0.332810 0.053055 0.751941
Si Si2 0.970040 0.947443 0.548978
Si Si3 0.973822 0.250359 0.075238
Si Si4 0.578508 0.642636 0.692082
Si Si5 0.534118 0.992789 0.662922
Si Si6 0.084036 0.214295 0.972856
Si Si7 0.811833 0.621147 0.444790
O O1 0.221969 0.002088 0.657651
O O2 0.210869 0.319997 0.677983
O O3 0.413983 0.877602 0.664231
O O4 0.500000 0.000000 0.000000
O O5 0.122535 0.658710 0.615342
O O6 0.000000 0.000000 0.500000
O O7 0.971612 0.133747 0.728807
O O8 0.046260 0.336582 0.304582
O O9 0.765963 0.486146 0.914162
O O10 0.091474 0.181044 0.088058
O O11 0.000000 0.000000 0.000000
O O12 0.500000 0.500000 0.500000
O O13 0.593690 0.730348 0.645542
O O14 0.368776 0.225268 0.636485
O O15 0.500000 0.000000 0.500000
O O16 0.710502 0.979690 0.904946
O O17 0.000000 0.500000 0.000000
#
# Coordination Sequence:
#
# PCOD8033836 Si02
#       7
#     2   2   2   2   2   2   2
#     4  11  26  48  71  99 140 188 229 290 351 423
#     4  12  28  46  71 105 143 187 235 291 358 417
#     4  12  23  43  73 103 135 184 235 292 348 421
#     4  11  24  42  69 101 138 176 241 286 345 413
#     4  11  24  43  71 103 138 183 230 296 346 415
#     4  12  25  45  71 101 145 184 233 289 355 414
#     4  11  25  47  70 102 142 181 241 285 354 426
#
# _framework density 21.789818
#
# number of rings (size 3 to 8) (size 9 to 14) (size 15 to 20)
#    0.000    0.571    2.857    5.571    4.000    1.714 
#    0.000    0.000    0.000    0.000    0.000    0.000 
#    0.000    0.000    0.000    0.000    0.000    0.000 
#
# Total GULP energy -173533.550544 kJ/mol
# GULP energy per Si atom -12395.253610 kJ/mol
# Density = 2.174022 g / cm^3
# Si number density = 21.789818 Si / 1000 Ang^3
#
#
#
# Elastic Constant Matrix: (Units=GPa)
#
#
# Indices 1 2 3 4 5 6 
#
# 1 146.0731 40.2423 55.0341 -5.8596 7.5505 28.8608
# 2 40.2423 135.2248 49.7401 2.6488 1.8569 25.7409
# 3 55.0341 49.7401 145.2761 -4.8358 10.0642 12.8040
# 4 -5.8596 2.6488 -4.8358 41.3054 -3.9783 0.5120
# 5 7.5505 1.8569 10.0642 -3.9783 47.9553 -9.7489
# 6 28.8608 25.7409 12.8040 0.5120 -9.7489 41.2256
#
#
#
# Elastic Compliance Matrix: (Units=1/GPa)
#
#
# Indices 1 2 3 4 5 6 
#
# 1 0.009296 -0.000707 -0.002605 0.000940 -0.001978 -0.005736
# 2 -0.000707 0.009485 -0.002535 -0.001022 -0.000787 -0.004813
# 3 -0.002605 -0.002535 0.008812 0.000704 -0.001206 0.000376
# 4 0.000940 -0.001022 0.000704 0.024663 0.001764 -0.000128
# 5 -0.001978 -0.000787 -0.001206 0.001764 0.023161 0.007706
# 6 -0.005736 -0.004813 0.000376 -0.000128 0.007706 0.032985
#
#
# Mechanical properties :
#
#
# Convention : Reuss Voigt Hill
#
# Bulk Modulus (GPa) = 62.90195 79.62298 71.26246
# Shear Modulus (GPa) = 39.87393 44.86775 42.37084
#
# Velocity S-wave (km/s) = 4.28241 4.54267 4.41446
# Velocity P-wave (km/s) = 7.30632 8.00844 7.66543
#
# Compressibility (1/GPa) = 0.01589776
#
# Stress axis : x y z
#
# Youngs Moduli (GPa) = 107.57807 105.42893 113.47933
#
# Poissons Ratio (x) = 0.07457 0.29566
# Poissons Ratio (y) = 0.07609 0.28765
# Poissons Ratio (z) = 0.28028 0.26724
#
# Static dielectric constant tensor:
#      x y z
#    x 4.242560 0.040910 0.073610 
#    y 0.040910 4.020630 -0.189790 
#    z 0.073610 -0.189790 3.968940 
# 
# 
# High freq. dielectric constant tensor:
#      x y z
#    x 1.879990 0.001320 0.008430 
#    y 0.001320 1.865220 -0.010320 
#    z 0.008430 -0.010320 1.859820 
# 
# From -- ./inp_files/186200.got.cif
#   From: 2010.06.25/outbox.cif.g09.slc.cpg/sg2_94_cif.got.tgz:186200.got - 2010.06.27 13:26:56.
