data_PCOD8033006
_publ_section_title
;
Structure prediction by ZEFSAII (Michael W. Deem and Ramdas Pophale) SiO2 
 PCOD8033006
Probable space group: P -1
;
_chemical_formula_sum "Si O2"
_cell_formula_units_Z 14
_cell_length_a 11.630712
_cell_length_b 9.811691
_cell_length_c 10.359498
_cell_angle_alpha 139.764684
_cell_angle_beta 128.010919
_cell_angle_gamma 63.186816
_cell_volume 601.224922
_symmetry_space_group_name_H-M "P -1"
_symmetry_group_IT_number 2
_symmetry_cell_setting 'triclinic'
loop_
_space_group_symop_operation_xyz
x,y,z
-x,-y,-z
loop_
_atom_site_type_symbol
_atom_site_label
_atom_site_fract_x
_atom_site_fract_y
_atom_site_fract_z
Si Si1 0.173947 0.309925 0.995315
Si Si2 0.132260 0.729403 0.153271
Si Si3 0.617803 0.008066 0.201978
Si Si4 0.343357 0.530078 0.472196
Si Si5 0.036339 0.756682 0.832775
Si Si6 0.381374 0.083413 0.578416
Si Si7 0.244579 0.472620 0.640960
O O1 0.219946 0.529897 0.116025
O O2 0.233793 0.344148 0.208206
O O3 0.250583 0.134132 0.842951
O O4 0.003445 0.240987 0.821609
O O5 0.233641 0.938557 0.361412
O O6 0.055263 0.659852 0.916418
O O7 0.552447 0.933820 0.242874
O O8 0.698107 0.237511 0.435282
O O9 0.500000 0.000000 0.000000
O O10 0.500000 0.500000 0.500000
O O11 0.346310 0.521861 0.623235
O O12 0.190434 0.695518 0.824382
O O13 0.902164 0.655165 0.589817
O O14 0.000000 0.000000 0.000000
O O15 0.339446 0.325862 0.695482
O O16 0.500000 0.000000 0.500000
#
# Coordination Sequence:
#
# PCOD8033006 Si02
#       7
#     2   2   2   2   2   2   2
#     4  11  25  45  73 104 144 186 245 301 359 425
#     4  11  24  46  71 102 148 188 234 309 360 422
#     4  12  27  46  76 105 140 195 249 296 366 430
#     4  12  24  45  71 104 144 187 244 300 352 435
#     4  11  23  44  71 102 143 183 238 297 363 435
#     4  12  27  47  74 108 152 193 243 303 369 444
#     4  11  26  42  73 107 143 191 238 295 374 431
#
# _framework density 23.285793000000002
#
# number of rings (size 3 to 8) (size 9 to 14) (size 15 to 20)
#    0.000    0.571    5.714    1.714    2.000    1.714 
#    0.000    2.143    0.000    0.000    0.000    0.000 
#    0.000    0.000    0.000    0.000    0.000    0.000 
#
# Total GULP energy -173514.923631 kJ/mol
# GULP energy per Si atom -12393.923117 kJ/mol
# Density = 2.323279 g / cm^3
# Si number density = 23.285793 Si / 1000 Ang^3
#
#
#
# Elastic Constant Matrix: (Units=GPa)
#
#
# Indices 1 2 3 4 5 6 
#
# 1 151.3796 75.6839 43.1747 17.3199 -25.8856 -9.7416
# 2 75.6839 140.9378 40.6943 1.1349 -29.8775 -4.1822
# 3 43.1747 40.6943 79.5181 3.4201 -18.5583 -9.5088
# 4 17.3199 1.1349 3.4201 49.0401 -1.6049 -12.1881
# 5 -25.8856 -29.8775 -18.5583 -1.6049 42.4359 0.9786
# 6 -9.7416 -4.1822 -9.5088 -12.1881 0.9786 40.9315
#
#
#
# Elastic Compliance Matrix: (Units=1/GPa)
#
#
# Indices 1 2 3 4 5 6 
#
# 1 0.010233 -0.004259 -0.002749 -0.003169 0.001913 0.000372
# 2 -0.004259 0.010931 -0.002400 0.001529 0.004109 -0.000097
# 3 -0.002749 -0.002400 0.016522 0.000763 0.003817 0.003075
# 4 -0.003169 0.001529 0.000763 0.023027 0.000200 0.006431
# 5 0.001913 0.004109 0.003817 0.000200 0.029275 0.001121
# 6 0.000372 -0.000097 0.003075 0.006431 0.001121 0.027112
#
#
# Mechanical properties :
#
#
# Convention : Reuss Voigt Hill
#
# Bulk Modulus (GPa) = 52.99553 76.77128 64.88341
# Shear Modulus (GPa) = 35.15968 40.63368 37.89668
#
# Velocity S-wave (km/s) = 3.88998 4.18185 4.03855
# Velocity P-wave (km/s) = 6.55623 7.50719 7.04777
#
# Compressibility (1/GPa) = 0.01886952
#
# Stress axis : x y z
#
# Youngs Moduli (GPa) = 97.72261 91.47927 60.52412
#
# Poissons Ratio (x) = 0.38965 0.16639
# Poissons Ratio (y) = 0.41624 0.14527
# Poissons Ratio (z) = 0.26865 0.21956
#
# Static dielectric constant tensor:
#      x y z
#    x 4.176500 -0.240130 -0.445850 
#    y -0.240130 4.074120 -0.504900 
#    z -0.445850 -0.504900 4.013180 
# 
# 
# High freq. dielectric constant tensor:
#      x y z
#    x 1.924780 -0.007180 -0.013760 
#    y -0.007180 1.932670 -0.005290 
#    z -0.013760 -0.005290 1.917830 
# 
# From -- ./inp_files/246174.got.cif
#   From: 2010.06.25/outbox.cif.g09.slc.cpg/sg2_124_cif.got.tgz:246174.got - 2010.06.27 13:26:56.
