data_PCOD8033624
_publ_section_title
;
Structure prediction by ZEFSAII (Michael W. Deem and Ramdas Pophale) SiO2 
 PCOD8033624
Probable space group: P -1
;
_chemical_formula_sum "Si O2"
_cell_formula_units_Z 14
_cell_length_a 11.158661
_cell_length_b 9.800411
_cell_length_c 7.879670
_cell_angle_alpha 121.996962
_cell_angle_beta 82.596834
_cell_angle_gamma 64.199766
_cell_volume 580.473750
_symmetry_space_group_name_H-M "P -1"
_symmetry_group_IT_number 2
_symmetry_cell_setting 'triclinic'
loop_
_space_group_symop_operation_xyz
x,y,z
-x,-y,-z
loop_
_atom_site_type_symbol
_atom_site_label
_atom_site_fract_x
_atom_site_fract_y
_atom_site_fract_z
Si Si1 0.147496 0.664004 0.785373
Si Si2 0.467743 0.343039 0.425662
Si Si3 0.611088 0.057387 0.917991
Si Si4 0.407170 0.028661 0.695888
Si Si5 0.188909 0.857787 0.227373
Si Si6 0.893240 0.277552 0.546218
Si Si7 0.853243 0.687433 0.865163
O O1 0.303933 0.440549 0.603221
O O2 0.136300 0.760821 0.666187
O O3 0.012944 0.646457 0.832957
O O4 0.151010 0.794016 0.017851
O O5 0.500000 0.500000 0.500000
O O6 0.593481 0.164875 0.412446
O O7 0.487050 0.252538 0.177066
O O8 0.512872 0.995028 0.813216
O O9 0.666798 0.142734 0.824613
O O10 0.755370 0.866232 0.864081
O O11 0.500000 0.000000 0.500000
O O12 0.238876 0.234703 0.885572
O O13 0.218506 0.711250 0.283523
O O14 0.057072 0.088450 0.450902
O O15 0.882243 0.480144 0.673326
#
# Coordination Sequence:
#
# PCOD8033624 Si02
#       7
#     2   2   2   2   2   2   2
#     4  12  24  45  75 103 142 185 235 286 356 419
#     4  11  24  44  73 103 138 187 232 284 354 423
#     4  11  23  49  68 101 143 186 234 287 351 428
#     4  11  27  46  70 104 141 184 233 292 352 419
#     4  11  26  42  70 105 142 179 235 292 346 413
#     4  11  25  43  67 106 137 185 232 292 347 407
#     4  11  25  46  74  98 139 189 233 284 358 415
#
# _framework density 24.118233
#
# number of rings (size 3 to 8) (size 9 to 14) (size 15 to 20)
#    0.000    0.857    2.857    4.286    4.000    4.000 
#    0.000    2.143    0.000    0.000    0.000    0.000 
#    0.000    0.000    0.000    0.000    0.000    0.000 
#
# Total GULP energy -173467.445553 kJ/mol
# GULP energy per Si atom -12390.531825 kJ/mol
# Density = 2.406334 g / cm^3
# Si number density = 24.118233 Si / 1000 Ang^3
#
#
#
# Elastic Constant Matrix: (Units=GPa)
#
#
# Indices 1 2 3 4 5 6 
#
# 1 87.7896 31.3755 34.6506 6.8486 -20.2148 26.5597
# 2 31.3755 99.5712 53.9406 -8.6464 11.6054 31.4598
# 3 34.6506 53.9406 144.7480 -1.9883 -21.2101 13.2338
# 4 6.8486 -8.6464 -1.9883 48.3947 5.9204 -7.0980
# 5 -20.2148 11.6054 -21.2101 5.9204 38.8641 -2.6242
# 6 26.5597 31.4598 13.2338 -7.0980 -2.6242 36.8873
#
#
#
# Elastic Compliance Matrix: (Units=1/GPa)
#
#
# Indices 1 2 3 4 5 6 
#
# 1 0.019517 -0.004525 -0.000424 -0.006539 0.011561 -0.010477
# 2 -0.004525 0.021972 -0.008042 0.004163 -0.014806 -0.012848
# 3 -0.000424 -0.008042 0.010921 -0.001456 0.008605 0.003578
# 4 -0.006539 0.004163 -0.001456 0.024179 -0.008736 0.005711
# 5 0.011561 -0.014806 0.008605 -0.008736 0.042364 0.002549
# 6 -0.010477 -0.012848 0.003578 0.005711 0.002549 0.045608
#
#
# Mechanical properties :
#
#
# Convention : Reuss Voigt Hill
#
# Bulk Modulus (GPa) = 37.83982 63.56026 50.70004
# Shear Modulus (GPa) = 25.08107 38.97201 32.02654
#
# Velocity S-wave (km/s) = 3.22828 4.02415 3.64799
# Velocity P-wave (km/s) = 5.44234 6.92839 6.22983
#
# Compressibility (1/GPa) = 0.02642719
#
# Stress axis : x y z
#
# Youngs Moduli (GPa) = 51.23673 45.51154 91.56893
#
# Poissons Ratio (x) = 0.20596 0.03880
# Poissons Ratio (y) = 0.23187 0.73644
# Poissons Ratio (z) = 0.02171 0.36602
#
# Static dielectric constant tensor:
#      x y z
#    x 4.304840 0.087820 -0.375840 
#    y 0.087820 4.614410 -0.326070 
#    z -0.375840 -0.326070 5.210470 
# 
# 
# High freq. dielectric constant tensor:
#      x y z
#    x 1.945480 0.026960 -0.013050 
#    y 0.026960 1.955070 0.000270 
#    z -0.013050 0.000270 1.982190 
# 
# From -- ./inp_files/245409.got.cif
#   From: 2010.06.25/outbox.cif.g09.slc.cpg/sg2_123_cif.got.tgz:245409.got - 2010.06.27 13:26:56.
