data_PCOD8033220
_publ_section_title
;
Structure prediction by ZEFSAII (Michael W. Deem and Ramdas Pophale) SiO2 
 PCOD8033220
Probable space group: P -1
;
_chemical_formula_sum "Si O2"
_cell_formula_units_Z 14
_cell_length_a 21.231438
_cell_length_b 16.259310
_cell_length_c 8.693270
_cell_angle_alpha 147.766727
_cell_angle_beta 135.059506
_cell_angle_gamma 24.378355
_cell_volume 633.384290
_symmetry_space_group_name_H-M "P -1"
_symmetry_group_IT_number 2
_symmetry_cell_setting 'triclinic'
loop_
_space_group_symop_operation_xyz
x,y,z
-x,-y,-z
loop_
_atom_site_type_symbol
_atom_site_label
_atom_site_fract_x
_atom_site_fract_y
_atom_site_fract_z
Si Si1 0.249273 0.106923 0.932516
Si Si2 0.330062 0.296147 0.242676
Si Si3 0.160156 0.670574 0.257060
Si Si4 0.592710 0.563289 0.188697
Si Si5 0.045555 0.498577 0.739715
Si Si6 0.718030 0.076401 0.609865
Si Si7 0.457678 0.395190 0.186899
O O1 0.269108 0.941058 0.581135
O O2 0.409336 0.908996 0.993686
O O3 0.218344 0.307189 0.097094
O O4 0.108820 0.256514 0.036400
O O5 0.236745 0.544131 0.358737
O O6 0.340962 0.364215 0.536054
O O7 0.500000 0.000000 0.000000
O O8 0.282514 0.587116 0.228991
O O9 0.000000 0.000000 0.500000
O O10 0.133410 0.536561 0.932800
O O11 0.456019 0.734301 0.348829
O O12 0.731353 0.236378 0.936659
O O13 0.521418 0.647194 0.027610
O O14 0.000000 0.500000 0.500000
O O15 0.150987 0.215801 0.549279
O O16 0.500000 0.500000 0.500000
#
# Coordination Sequence:
#
# PCOD8033220 Si02
#       7
#     2   2   2   2   2   2   2
#     4  12  24  46  76  97 144 194 236 293 361 430
#     4  12  24  47  72 106 141 188 242 294 355 431
#     4  12  28  46  72 105 149 186 238 301 361 421
#     4  11  25  41  75 106 141 183 244 296 354 438
#     4  12  28  47  70 105 149 190 238 298 362 427
#     4  11  23  45  70 103 140 191 239 293 360 425
#     4  12  25  45  73 106 142 186 242 296 362 421
#
# _framework density 22.103486
#
# number of rings (size 3 to 8) (size 9 to 14) (size 15 to 20)
#    0.000    0.286    5.714    2.143    6.000    0.571 
#    0.000    1.429    0.000    0.000    0.000    0.000 
#    0.000    0.000    0.000    0.000    0.000    0.000 
#
# Total GULP energy -173591.230055 kJ/mol
# GULP energy per Si atom -12399.373575 kJ/mol
# Density = 2.205318 g / cm^3
# Si number density = 22.103486 Si / 1000 Ang^3
#
#
#
# Elastic Constant Matrix: (Units=GPa)
#
#
# Indices 1 2 3 4 5 6 
#
# 1 111.1294 34.8871 48.0920 -4.8908 -14.6043 -13.0933
# 2 34.8871 124.5807 65.7381 9.5823 -7.6191 10.5316
# 3 48.0920 65.7381 134.1034 -20.5715 -23.0545 -0.0251
# 4 -4.8908 9.5823 -20.5715 48.4963 0.5413 0.2402
# 5 -14.6043 -7.6191 -23.0545 0.5413 32.4400 -2.4236
# 6 -13.0933 10.5316 -0.0251 0.2402 -2.4236 42.9977
#
#
#
# Elastic Compliance Matrix: (Units=1/GPa)
#
#
# Indices 1 2 3 4 5 6 
#
# 1 0.011718 -0.002160 -0.002500 0.000490 0.003303 0.004279
# 2 -0.002160 0.012869 -0.006929 -0.005646 -0.003076 -0.003956
# 3 -0.002500 -0.006929 0.014066 0.006996 0.007225 0.001312
# 4 0.000490 -0.005646 0.006996 0.024705 0.003574 0.001600
# 5 0.003303 -0.003076 0.007225 0.003574 0.036952 0.003826
# 6 0.004279 -0.003956 0.001312 0.001600 0.003826 0.025737
#
#
# Mechanical properties :
#
#
# Convention : Reuss Voigt Hill
#
# Bulk Modulus (GPa) = 64.62147 74.13867 69.38007
# Shear Modulus (GPa) = 32.38715 39.52655 35.95685
#
# Velocity S-wave (km/s) = 3.83201 4.23336 4.03767
# Velocity P-wave (km/s) = 6.99131 7.58350 7.29342
#
# Compressibility (1/GPa) = 0.01547473
#
# Stress axis : x y z
#
# Youngs Moduli (GPa) = 85.33714 77.70733 71.09483
#
# Poissons Ratio (x) = 0.16784 0.17771
# Poissons Ratio (y) = 0.18432 0.49264
# Poissons Ratio (z) = 0.21332 0.53846
#
# Static dielectric constant tensor:
#      x y z
#    x 3.950050 0.059540 0.167810 
#    y 0.059540 4.038240 0.113400 
#    z 0.167810 0.113400 4.176610 
# 
# 
# High freq. dielectric constant tensor:
#      x y z
#    x 1.873000 0.012490 0.003870 
#    y 0.012490 1.869620 0.002060 
#    z 0.003870 0.002060 1.885180 
# 
# From -- ./inp_files/157406.got.cif
#   From: 2010.06.25/outbox.cif.g09.slc.cpg/sg2_79_cif.got.tgz:157406.got - 2010.06.27 13:26:56.
