data_PCOD8033019
_publ_section_title
;
Structure prediction by ZEFSAII (Michael W. Deem and Ramdas Pophale) SiO2 
 PCOD8033019
Probable space group: P -1
;
_chemical_formula_sum "Si O2"
_cell_formula_units_Z 16
_cell_length_a 15.699976
_cell_length_b 10.023799
_cell_length_c 11.582370
_cell_angle_alpha 141.946233
_cell_angle_beta 132.939148
_cell_angle_gamma 48.845963
_cell_volume 792.062594
_symmetry_space_group_name_H-M "P -1"
_symmetry_group_IT_number 2
_symmetry_cell_setting 'triclinic'
loop_
_space_group_symop_operation_xyz
x,y,z
-x,-y,-z
loop_
_atom_site_type_symbol
_atom_site_label
_atom_site_fract_x
_atom_site_fract_y
_atom_site_fract_z
Si Si1 0.018419 0.334020 0.010048
Si Si2 0.360265 0.098717 0.967955
Si Si3 0.173510 0.367997 0.799752
Si Si4 0.706551 0.723790 0.735669
Si Si5 0.337024 0.508059 0.877957
Si Si6 0.541882 0.131319 0.731167
Si Si7 0.994858 0.088721 0.425843
Si Si8 0.271126 0.675158 0.674466
O O1 0.151717 0.296281 0.158166
O O2 0.998016 0.101373 0.791479
O O3 0.000000 0.500000 0.000000
O O4 0.918536 0.436134 0.082061
O O5 0.291192 0.237188 0.890733
O O6 0.302047 0.900206 0.815112
O O7 0.338459 0.277554 0.174868
O O8 0.500000 0.000000 0.000000
O O9 0.213863 0.490464 0.810883
O O10 0.107333 0.186827 0.570484
O O11 0.672122 0.522474 0.498840
O O12 0.637789 0.961122 0.781468
O O13 0.426463 0.256431 0.787019
O O14 0.320104 0.601043 0.795748
O O15 0.394962 0.675460 0.120917
O O16 0.500000 0.000000 0.500000
O O17 0.872543 0.284461 0.430443
O O18 0.000000 0.000000 0.500000
#
# Coordination Sequence:
#
# PCOD8033019 Si02
#       8
#     2   2   2   2   2   2   2   2
#     4  12  21  41  68  98 132 175 223 280 338 403
#     4  12  26  43  68 102 138 173 226 285 334 399
#     4  12  26  41  69 104 138 171 227 286 333 403
#     4  12  22  42  72  97 129 179 233 268 341 404
#     4  11  26  45  66 101 139 178 228 278 340 400
#     4  11  23  44  71  93 135 187 224 271 335 406
#     4  12  21  41  69  97 132 176 222 277 343 396
#     4  12  23  44  72  95 135 185 221 276 342 407
#
# _framework density 20.200423000000001
#
# number of rings (size 3 to 8) (size 9 to 14) (size 15 to 20)
#    0.000    0.250    8.750    0.750    1.750    2.000 
#    0.000    1.250    0.000    0.000    0.000    0.000 
#    0.000    0.000    0.000    0.000    0.000    0.000 
#
# Total GULP energy -198438.430246 kJ/mol
# GULP energy per Si atom -12402.401890 kJ/mol
# Density = 2.015445 g / cm^3
# Si number density = 20.200423 Si / 1000 Ang^3
#
#
#
# Elastic Constant Matrix: (Units=GPa)
#
#
# Indices 1 2 3 4 5 6 
#
# 1 105.5064 15.6688 39.7842 -0.0853 0.7215 -9.0410
# 2 15.6688 95.2796 16.7398 -7.5374 -6.8873 -18.5947
# 3 39.7842 16.7398 133.2678 5.4155 -13.0732 4.1484
# 4 -0.0853 -7.5374 5.4155 32.0939 -10.7649 2.5596
# 5 0.7215 -6.8873 -13.0732 -10.7649 28.3315 2.2172
# 6 -9.0410 -18.5947 4.1484 2.5596 2.2172 36.6240
#
#
#
# Elastic Compliance Matrix: (Units=1/GPa)
#
#
# Indices 1 2 3 4 5 6 
#
# 1 0.011221 -0.000895 -0.003559 -0.000699 -0.002640 0.002928
# 2 -0.000895 0.012568 -0.001308 0.003877 0.003492 0.005826
# 3 -0.003559 -0.001308 0.009237 -0.000255 0.004159 -0.002823
# 4 -0.000699 0.003877 -0.000255 0.037331 0.015160 -0.001702
# 5 -0.002640 0.003492 0.004159 0.015160 0.044133 -0.003081
# 6 0.002928 0.005826 -0.002823 -0.001702 -0.003081 0.031611
#
#
# Mechanical properties :
#
#
# Convention : Reuss Voigt Hill
#
# Bulk Modulus (GPa) = 46.50610 53.15992 49.83301
# Shear Modulus (GPa) = 30.34119 36.86729 33.60424
#
# Velocity S-wave (km/s) = 3.87978 4.27672 4.08308
# Velocity P-wave (km/s) = 6.56830 7.12464 6.85212
#
# Compressibility (1/GPa) = 0.02150256
#
# Stress axis : x y z
#
# Youngs Moduli (GPa) = 89.11478 79.56410 108.26341
#
# Poissons Ratio (x) = 0.07120 0.38534
# Poissons Ratio (y) = 0.07974 0.14161
# Poissons Ratio (z) = 0.31718 0.10407
#
# Static dielectric constant tensor:
#      x y z
#    x 3.398300 -0.131990 -0.070950 
#    y -0.131990 3.852690 -0.040320 
#    z -0.070950 -0.040320 3.991910 
# 
# 
# High freq. dielectric constant tensor:
#      x y z
#    x 1.773090 -0.020200 -0.005980 
#    y -0.020200 1.801720 -0.001200 
#    z -0.005980 -0.001200 1.806870 
# 
# From -- ./inp_files/306153.got.cif
#   From: 2010.06.25/outbox.cif.g09.slc.cpg/sg2_154_cif.got.tgz:306153.got - 2010.06.27 13:26:56.
