data_PCOD8033252
_publ_section_title
;
Structure prediction by ZEFSAII (Michael W. Deem and Ramdas Pophale) SiO2 
 PCOD8033252
Probable space group: P -1
;
_chemical_formula_sum "Si O2"
_cell_formula_units_Z 12
_cell_length_a 8.383376
_cell_length_b 13.615739
_cell_length_c 10.986082
_cell_angle_alpha 31.848080
_cell_angle_beta 98.242601
_cell_angle_gamma 78.645172
_cell_volume 518.810646
_symmetry_space_group_name_H-M "P -1"
_symmetry_group_IT_number 2
_symmetry_cell_setting 'triclinic'
loop_
_space_group_symop_operation_xyz
x,y,z
-x,-y,-z
loop_
_atom_site_type_symbol
_atom_site_label
_atom_site_fract_x
_atom_site_fract_y
_atom_site_fract_z
Si Si1 0.646316 0.823878 0.597819
Si Si2 0.230222 0.381374 0.617200
Si Si3 0.490057 0.896276 0.256151
Si Si4 0.131853 0.979272 0.696474
Si Si5 0.787351 0.175021 0.855948
Si Si6 0.734446 0.368238 0.132663
O O1 0.508408 0.830742 0.467924
O O2 0.781350 0.892870 0.486220
O O3 0.500000 0.000000 0.500000
O O4 0.780436 0.557672 0.942227
O O5 0.285592 0.252861 0.626105
O O6 0.279615 0.563986 0.431634
O O7 0.000000 0.500000 0.500000
O O8 0.377243 0.175969 0.946657
O O9 0.372989 0.826020 0.238572
O O10 0.885552 0.163143 0.462732
O O11 0.216835 0.743991 0.878317
O O12 0.199026 0.907315 0.917972
O O13 0.000000 0.000000 0.000000
O O14 0.500000 0.500000 0.000000
#
# Coordination Sequence:
#
# PCOD8033252 Si02
#       6
#     2   2   2   2   2   2
#     4  12  26  48  75 102 140 190 237 292 352 415
#     4  11  23  45  71 106 139 187 230 284 357 418
#     4  11  26  46  70 104 145 182 238 288 354 421
#     4  11  26  48  71 105 145 181 238 291 349 418
#     4  12  26  45  73 107 143 189 229 293 356 415
#     4  11  25  47  76 105 139 189 236 289 351 417
#
# _framework density 23.129828
#
# number of rings (size 3 to 8) (size 9 to 14) (size 15 to 20)
#    0.000    0.667    3.333    4.000    2.333    2.667 
#    3.000    0.000    0.000    0.000    0.000    0.000 
#    0.000    0.000    0.000    0.000    0.000    0.000 
#
# Total GULP energy -148781.840042 kJ/mol
# GULP energy per Si atom -12398.486670 kJ/mol
# Density = 2.307718 g / cm^3
# Si number density = 23.129828 Si / 1000 Ang^3
#
#
#
# Elastic Constant Matrix: (Units=GPa)
#
#
# Indices 1 2 3 4 5 6 
#
# 1 115.3484 45.1415 47.7425 -11.2853 3.3571 -9.2881
# 2 45.1415 137.3331 57.1108 -4.8866 21.4278 -0.3777
# 3 47.7425 57.1108 132.0519 -32.6373 -3.5428 -2.1388
# 4 -11.2853 -4.8866 -32.6373 42.9188 4.9983 5.1027
# 5 3.3571 21.4278 -3.5428 4.9983 48.5852 -7.6482
# 6 -9.2881 -0.3777 -2.1388 5.1027 -7.6482 38.8265
#
#
#
# Elastic Compliance Matrix: (Units=1/GPa)
#
#
# Indices 1 2 3 4 5 6 
#
# 1 0.011021 -0.002528 -0.002809 0.000108 0.000539 0.002549
# 2 -0.002528 0.010583 -0.004312 -0.002007 -0.004825 -0.001426
# 3 -0.002809 -0.004312 0.012504 0.008121 0.002064 -0.000686
# 4 0.000108 -0.002007 0.008121 0.030003 -0.002235 -0.003930
# 5 0.000539 -0.004825 0.002064 -0.002235 0.023871 0.005192
# 6 0.002549 -0.001426 -0.000686 -0.003930 0.005192 0.027853
#
#
# Mechanical properties :
#
#
# Convention : Reuss Voigt Hill
#
# Bulk Modulus (GPa) = 67.51326 76.08034 71.79680
# Shear Modulus (GPa) = 35.69654 41.71535 38.70594
#
# Velocity S-wave (km/s) = 3.93276 4.25141 4.09518
# Velocity P-wave (km/s) = 7.06218 7.55403 7.31224
#
# Compressibility (1/GPa) = 0.01481190
#
# Stress axis : x y z
#
# Youngs Moduli (GPa) = 90.73217 94.49065 79.97181
#
# Poissons Ratio (x) = 0.23885 0.22464
# Poissons Ratio (y) = 0.22935 0.34482
# Poissons Ratio (z) = 0.25486 0.40742
#
# Static dielectric constant tensor:
#      x y z
#    x 4.908580 -0.272450 -0.378600 
#    y -0.272450 4.396100 -0.047330 
#    z -0.378600 -0.047330 4.563730 
# 
# 
# High freq. dielectric constant tensor:
#      x y z
#    x 1.919990 -0.003540 -0.006110 
#    y -0.003540 1.918470 -0.018530 
#    z -0.006110 -0.018530 1.932870 
# 
# From -- ./inp_files/396865.got.cif
#   From: 2010.06.25/outbox.cif.g09.slc.cpg/sg2_199_cif.got.tgz:396865.got - 2010.06.27 13:26:56.
