data_PCOD8033359
_publ_section_title
;
Structure prediction by ZEFSAII (Michael W. Deem and Ramdas Pophale) SiO2 
 PCOD8033359
Probable space group: P -1
;
_chemical_formula_sum "Si O2"
_cell_formula_units_Z 16
_cell_length_a 8.691695
_cell_length_b 9.437253
_cell_length_c 12.155812
_cell_angle_alpha 103.561027
_cell_angle_beta 50.057945
_cell_angle_gamma 104.959259
_cell_volume 735.365782
_symmetry_space_group_name_H-M "P -1"
_symmetry_group_IT_number 2
_symmetry_cell_setting 'triclinic'
loop_
_space_group_symop_operation_xyz
x,y,z
-x,-y,-z
loop_
_atom_site_type_symbol
_atom_site_label
_atom_site_fract_x
_atom_site_fract_y
_atom_site_fract_z
Si Si1 0.460293 0.130118 0.121843
Si Si2 0.382116 0.367330 0.736223
Si Si3 0.846331 0.376991 0.488297
Si Si4 0.996844 0.922898 0.605325
Si Si5 0.125634 0.070640 0.790192
Si Si6 0.097844 0.530808 0.766422
Si Si7 0.650180 0.443375 0.005866
Si Si8 0.188051 0.832430 0.888060
O O1 0.227241 0.131028 0.256663
O O2 0.549752 0.280868 0.050593
O O3 0.574972 0.122344 0.184113
O O4 0.500000 0.000000 0.000000
O O5 0.621798 0.405709 0.625337
O O6 0.322545 0.191178 0.741789
O O7 0.263788 0.422522 0.695046
O O8 0.312897 0.445708 0.889594
O O9 0.866402 0.389271 0.351312
O O10 0.000000 0.500000 0.500000
O O11 0.884668 0.217088 0.483111
O O12 0.000000 0.000000 0.500000
O O13 0.104252 0.041219 0.664734
O O14 0.145656 0.918163 0.813500
O O15 0.930327 0.128819 0.941562
O O16 0.125987 0.658771 0.868420
O O17 0.873034 0.438494 0.852202
O O18 0.500000 0.500000 0.000000
#
# Coordination Sequence:
#
# PCOD8033359 Si02
#       8
#     2   2   2   2   2   2   2   2
#     4  12  26  44  73 105 141 186 237 295 364 420
#     4  12  26  45  73 102 141 190 239 290 360 424
#     4  12  29  50  67 102 149 192 237 291 359 434
#     4  12  29  48  70 104 151 190 236 290 363 437
#     4  11  25  45  73 107 140 185 239 304 357 420
#     4  12  24  48  76 105 138 189 242 302 351 426
#     4  12  26  43  73 108 142 182 239 297 358 424
#     4  11  23  45  77 105 142 177 245 308 352 416
#
# _framework density 21.75788
#
# number of rings (size 3 to 8) (size 9 to 14) (size 15 to 20)
#    0.000    0.250    5.000    3.750    5.250    1.500 
#    0.000    0.000    0.000    0.000    0.000    0.000 
#    0.000    0.000    0.000    0.000    0.000    0.000 
#
# Total GULP energy -198477.542212 kJ/mol
# GULP energy per Si atom -12404.846388 kJ/mol
# Density = 2.170836 g / cm^3
# Si number density = 21.757880 Si / 1000 Ang^3
#
#
#
# Elastic Constant Matrix: (Units=GPa)
#
#
# Indices 1 2 3 4 5 6 
#
# 1 126.7612 34.8456 34.5637 1.7644 -10.0567 0.4850
# 2 34.8456 110.6132 34.0927 2.9759 0.1323 14.5457
# 3 34.5637 34.0927 69.0883 -3.6884 -0.6907 -8.6854
# 4 1.7644 2.9759 -3.6884 29.4792 2.7540 -1.9188
# 5 -10.0567 0.1323 -0.6907 2.7540 52.1864 -1.0491
# 6 0.4850 14.5457 -8.6854 -1.9188 -1.0491 40.7498
#
#
#
# Elastic Compliance Matrix: (Units=1/GPa)
#
#
# Indices 1 2 3 4 5 6 
#
# 1 0.009630 -0.001703 -0.004065 -0.001111 0.001857 -0.000378
# 2 -0.001703 0.012258 -0.006044 -0.002226 -0.000438 -0.005759
# 3 -0.004065 -0.006044 0.020543 0.003916 -0.000567 0.006754
# 4 -0.001111 -0.002226 0.003916 0.035096 -0.001944 0.003245
# 5 0.001857 -0.000438 -0.000567 -0.001944 0.019625 0.000427
# 6 -0.000378 -0.005759 0.006754 0.003245 0.000427 0.028204
#
#
# Mechanical properties :
#
#
# Convention : Reuss Voigt Hill
#
# Bulk Modulus (GPa) = 53.17587 57.05185 55.11386
# Shear Modulus (GPa) = 32.20642 38.01378 35.11010
#
# Velocity S-wave (km/s) = 3.85154 4.18440 4.02141
# Velocity P-wave (km/s) = 6.65372 7.04441 6.85185
#
# Compressibility (1/GPa) = 0.01880552
#
# Stress axis : x y z
#
# Youngs Moduli (GPa) = 103.84413 81.58172 48.67839
#
# Poissons Ratio (x) = 0.13896 0.19789
# Poissons Ratio (y) = 0.17687 0.29420
# Poissons Ratio (z) = 0.42216 0.49307
#
# Static dielectric constant tensor:
#      x y z
#    x 3.332800 0.411530 0.096750 
#    y 0.411530 3.752130 -0.030250 
#    z 0.096750 -0.030250 3.853840 
# 
# 
# High freq. dielectric constant tensor:
#      x y z
#    x 1.876360 0.000660 -0.000820 
#    y 0.000660 1.869260 0.001270 
#    z -0.000820 0.001270 1.847640 
# 
# From -- ./inp_files/184220.got.cif
#   From: 2010.06.25/outbox.cif.g09.slc.cpg/sg2_93_cif.got.tgz:184220.got - 2010.06.27 13:26:56.
