data_PCOD8033167
_publ_section_title
;
Structure prediction by ZEFSAII (Michael W. Deem and Ramdas Pophale) SiO2 
 PCOD8033167
Probable space group: P -1
;
_chemical_formula_sum "Si O2"
_cell_formula_units_Z 14
_cell_length_a 13.377508
_cell_length_b 21.258008
_cell_length_c 8.467691
_cell_angle_alpha 42.533613
_cell_angle_beta 65.518021
_cell_angle_gamma 31.847489
_cell_volume 691.624732
_symmetry_space_group_name_H-M "P -1"
_symmetry_group_IT_number 2
_symmetry_cell_setting 'triclinic'
loop_
_space_group_symop_operation_xyz
x,y,z
-x,-y,-z
loop_
_atom_site_type_symbol
_atom_site_label
_atom_site_fract_x
_atom_site_fract_y
_atom_site_fract_z
Si Si1 0.607595 0.186686 0.260806
Si Si2 0.908077 0.814033 0.901263
Si Si3 0.189086 0.419236 0.938433
Si Si4 0.582831 0.902459 0.796721
Si Si5 0.969801 0.922527 0.237725
Si Si6 0.661443 0.444686 0.099796
Si Si7 0.106857 0.195242 0.705744
O O1 0.770039 0.014972 0.602536
O O2 0.394224 0.277577 0.194037
O O3 0.520344 0.350071 0.078463
O O4 0.749397 0.095734 0.176201
O O5 0.759864 0.841812 0.871750
O O6 0.156526 0.633600 0.981975
O O7 0.953437 0.763042 0.148492
O O8 0.091543 0.593186 0.636550
O O9 0.279383 0.298055 0.947204
O O10 0.000000 0.500000 0.000000
O O11 0.500000 0.000000 0.500000
O O12 0.362150 0.050169 0.782110
O O13 0.204082 0.716376 0.558455
O O14 0.907559 0.895798 0.191351
O O15 0.000000 0.000000 0.000000
O O16 0.500000 0.500000 0.000000
#
# Coordination Sequence:
#
# PCOD8033167 Si02
#       7
#     2   2   2   2   2   2   2
#     4  11  23  45  67  94 130 178 218 264 330 393
#     4  11  26  42  67  99 137 170 218 274 327 389
#     4  12  22  38  71  94 130 174 214 264 321 393
#     4  12  21  42  68  95 133 175 216 261 329 394
#     4  11  26  44  69  97 131 173 222 272 327 390
#     4  11  26  45  68  96 130 175 226 268 328 392
#     4  12  25  42  65 105 133 168 221 273 329 388
#
# _framework density 20.242189
#
# number of rings (size 3 to 8) (size 9 to 14) (size 15 to 20)
#    0.000    0.571    5.714    2.143    4.000    4.571 
#    0.000    0.000    0.000    0.000    0.000    0.000 
#    0.000    0.000    0.000    0.000    0.000    0.000 
#
# Total GULP energy -173671.078541 kJ/mol
# GULP energy per Si atom -12405.077039 kJ/mol
# Density = 2.019612 g / cm^3
# Si number density = 20.242189 Si / 1000 Ang^3
#
#
#
# Elastic Constant Matrix: (Units=GPa)
#
#
# Indices 1 2 3 4 5 6 
#
# 1 142.8757 23.3669 32.0085 -4.7830 -1.8376 4.4156
# 2 23.3669 48.0913 25.4598 -1.3833 -5.5491 9.3353
# 3 32.0085 25.4598 72.7277 1.8130 -11.6596 8.1430
# 4 -4.7830 -1.3833 1.8130 41.2475 4.7142 -3.7766
# 5 -1.8376 -5.5491 -11.6596 4.7142 39.5999 -5.2043
# 6 4.4156 9.3353 8.1430 -3.7766 -5.2043 39.3063
#
#
#
# Elastic Compliance Matrix: (Units=1/GPa)
#
#
# Indices 1 2 3 4 5 6 
#
# 1 0.008073 -0.002529 -0.002874 0.001108 -0.000922 0.000273
# 2 -0.002529 0.027089 -0.007768 0.000468 0.000758 -0.004395
# 3 -0.002874 -0.007768 0.018626 -0.002028 0.004331 -0.001312
# 4 0.001108 0.000468 -0.002028 0.025039 -0.003176 0.002170
# 5 -0.000922 0.000758 0.004331 -0.003176 0.027276 0.002333
# 6 0.000273 -0.004395 -0.001312 0.002170 0.002333 0.027243
#
#
# Mechanical properties :
#
#
# Convention : Reuss Voigt Hill
#
# Bulk Modulus (GPa) = 36.43439 47.26278 41.84858
# Shear Modulus (GPa) = 29.61434 36.22137 32.91785
#
# Velocity S-wave (km/s) = 3.82907 4.23472 4.03699
# Velocity P-wave (km/s) = 6.13085 6.87821 6.51526
#
# Compressibility (1/GPa) = 0.02744660
#
# Stress axis : x y z
#
# Youngs Moduli (GPa) = 123.86494 36.91533 53.68835
#
# Poissons Ratio (x) = 0.09335 0.15430
# Poissons Ratio (y) = 0.31323 0.41706
# Poissons Ratio (z) = 0.35598 0.28676
#
# Static dielectric constant tensor:
#      x y z
#    x 3.616180 0.058370 -0.115510 
#    y 0.058370 3.869730 -0.231320 
#    z -0.115510 -0.231320 3.932210 
# 
# 
# High freq. dielectric constant tensor:
#      x y z
#    x 1.803990 -0.000280 -0.005920 
#    y -0.000280 1.799780 -0.013650 
#    z -0.005920 -0.013650 1.793060 
# 
# From -- ./inp_files/27473.got.cif
#   From: 2010.06.25/outbox.cif.g09.slc.cpg/sg2_14_cif.got.tgz:27473.got - 2010.06.27 13:26:56.
