data_PCOD8033401
_publ_section_title
;
Structure prediction by ZEFSAII (Michael W. Deem and Ramdas Pophale) SiO2 
 PCOD8033401
Probable space group: P -1
;
_chemical_formula_sum "Si O2"
_cell_formula_units_Z 14
_cell_length_a 8.267276
_cell_length_b 6.732170
_cell_length_c 20.721104
_cell_angle_alpha 112.199740
_cell_angle_beta 135.159424
_cell_angle_gamma 93.704972
_cell_volume 647.944896
_symmetry_space_group_name_H-M "P -1"
_symmetry_group_IT_number 2
_symmetry_cell_setting 'triclinic'
loop_
_space_group_symop_operation_xyz
x,y,z
-x,-y,-z
loop_
_atom_site_type_symbol
_atom_site_label
_atom_site_fract_x
_atom_site_fract_y
_atom_site_fract_z
Si Si1 0.530208 0.510793 0.586865
Si Si2 0.962136 0.941708 0.556651
Si Si3 0.325796 0.487742 0.748183
Si Si4 0.610354 0.208024 0.321627
Si Si5 0.137292 0.735865 0.825255
Si Si6 0.694090 0.315817 0.881138
Si Si7 0.463830 0.730753 0.026803
O O1 0.500000 0.500000 0.500000
O O2 0.341685 0.234121 0.528550
O O3 0.446070 0.702609 0.615102
O O4 0.827460 0.594506 0.703447
O O5 0.119312 0.800463 0.602648
O O6 0.000000 0.000000 0.500000
O O7 0.076199 0.208949 0.655870
O O8 0.350026 0.586292 0.694510
O O9 0.300870 0.669624 0.812885
O O10 0.590703 0.476204 0.834268
O O11 0.362145 0.930565 0.204154
O O12 0.268212 0.033278 0.896199
O O13 0.194270 0.673616 0.905642
O O14 0.551338 0.215308 0.896488
O O15 0.000000 0.500000 0.000000
O O16 0.500000 0.500000 0.000000
#
# Coordination Sequence:
#
# PCOD8033401 Si02
#       7
#     2   2   2   2   2   2   2
#     4  12  28  45  72 106 141 186 238 295 346 420
#     4  11  25  46  72  98 135 188 234 286 352 414
#     4  11  23  46  69  97 141 187 225 289 356 419
#     4  11  25  47  69  98 148 180 235 290 358 418
#     4  11  26  44  70 101 140 183 229 286 359 413
#     4  11  26  42  73 103 134 184 239 288 346 426
#     4  11  24  46  68 101 143 181 223 290 357 413
#
# _framework density 21.606777000000001
#
# number of rings (size 3 to 8) (size 9 to 14) (size 15 to 20)
#    0.000    0.857    4.286    1.286    8.000    1.143 
#    0.000    0.000    0.000    0.000    0.000    0.000 
#    0.000    0.000    0.000    0.000    0.000    0.000 
#
# Total GULP energy -173636.151966 kJ/mol
# GULP energy per Si atom -12402.582283 kJ/mol
# Density = 2.155760 g / cm^3
# Si number density = 21.606777 Si / 1000 Ang^3
#
#
#
# Elastic Constant Matrix: (Units=GPa)
#
#
# Indices 1 2 3 4 5 6 
#
# 1 78.2055 51.8067 41.8317 10.4890 -14.3568 2.1324
# 2 51.8067 151.5745 74.0706 -4.0806 8.4563 -2.2928
# 3 41.8317 74.0706 159.0926 2.3518 18.7412 4.7560
# 4 10.4890 -4.0806 2.3518 44.5600 5.3181 -12.1172
# 5 -14.3568 8.4563 18.7412 5.3181 47.4487 3.5222
# 6 2.1324 -2.2928 4.7560 -12.1172 3.5222 35.3774
#
#
#
# Elastic Compliance Matrix: (Units=1/GPa)
#
#
# Indices 1 2 3 4 5 6 
#
# 1 0.022577 -0.006787 -0.003775 -0.008469 0.010873 -0.005276
# 2 -0.006787 0.010709 -0.002946 0.004027 -0.003489 0.003226
# 3 -0.003775 -0.002946 0.009161 0.000476 -0.004243 -0.000610
# 4 -0.008469 0.004027 0.000476 0.028752 -0.007530 0.011305
# 5 0.010873 -0.003489 -0.004243 -0.007530 0.027928 -0.005671
# 6 -0.005276 0.003226 -0.000610 0.011305 -0.005671 0.033312
#
#
# Mechanical properties :
#
#
# Convention : Reuss Voigt Hill
#
# Bulk Modulus (GPa) = 64.80038 80.47672 72.63855
# Shear Modulus (GPa) = 30.37712 40.22148 35.29930
#
# Velocity S-wave (km/s) = 3.75361 4.31922 4.04631
# Velocity P-wave (km/s) = 6.98870 7.88677 7.45128
#
# Compressibility (1/GPa) = 0.01543201
#
# Stress axis : x y z
#
# Youngs Moduli (GPa) = 44.29237 93.38283 109.15911
#
# Poissons Ratio (x) = 0.63374 0.41204
# Poissons Ratio (y) = 0.30059 0.32161
# Poissons Ratio (z) = 0.16719 0.27513
#
# Static dielectric constant tensor:
#      x y z
#    x 3.673140 -0.072350 -0.285350 
#    y -0.072350 4.082530 0.053530 
#    z -0.285350 0.053530 4.707910 
# 
# 
# High freq. dielectric constant tensor:
#      x y z
#    x 1.833410 -0.003540 -0.015110 
#    y -0.003540 1.863850 0.003850 
#    z -0.015110 0.003850 1.869330 
# 
# From -- ./inp_files/46626.got.cif
#   From: 2010.06.25/outbox.cif.g09.slc.cpg/sg2_24_cif.got.tgz:46626.got - 2010.06.27 13:26:56.
