data_PCOD8033895
_publ_section_title
;
Structure prediction by ZEFSAII (Michael W. Deem and Ramdas Pophale) SiO2 
 PCOD8033895
Probable space group: P -1
;
_chemical_formula_sum "Si O2"
_cell_formula_units_Z 12
_cell_length_a 5.309098
_cell_length_b 12.137640
_cell_length_c 20.860317
_cell_angle_alpha 21.322480
_cell_angle_beta 74.115621
_cell_angle_gamma 74.100333
_cell_volume 469.429617
_symmetry_space_group_name_H-M "P -1"
_symmetry_group_IT_number 2
_symmetry_cell_setting 'triclinic'
loop_
_space_group_symop_operation_xyz
x,y,z
-x,-y,-z
loop_
_atom_site_type_symbol
_atom_site_label
_atom_site_fract_x
_atom_site_fract_y
_atom_site_fract_z
Si Si1 0.129543 0.678937 0.449239
Si Si2 0.203269 0.750219 0.840870
Si Si3 0.328944 0.624667 0.039311
Si Si4 0.982582 0.360733 0.302735
Si Si5 0.512620 0.774677 0.264865
Si Si6 0.416671 0.658306 0.200104
O O1 0.369787 0.823380 0.316713
O O2 0.236790 0.466542 0.614818
O O3 0.000000 0.500000 0.500000
O O4 0.932336 0.946234 0.345605
O O5 0.441822 0.640766 0.837709
O O6 0.294854 0.807820 0.875889
O O7 0.000000 0.500000 0.000000
O O8 0.071389 0.464832 0.168846
O O9 0.397036 0.887562 0.943209
O O10 0.174916 0.529490 0.247429
O O11 0.678913 0.449786 0.284100
O O12 0.000000 0.000000 0.500000
O O13 0.337804 0.647867 0.287578
O O14 0.500000 0.000000 0.000000
#
# Coordination Sequence:
#
# PCOD8033895 Si02
#       6
#     2   2   2   2   2   2
#     4  11  24  42  72 106 154 193 253 321 388 457
#     4  11  24  43  73 109 145 205 248 318 395 466
#     4  11  25  46  74 107 153 199 263 315 392 466
#     4  12  30  54  78 118 158 208 263 330 392 464
#     4  11  25  45  71 113 147 199 260 321 383 467
#     4  12  28  51  84 113 150 212 268 316 393 469
#
# _framework density 25.562936000000001
#
# number of rings (size 3 to 8) (size 9 to 14) (size 15 to 20)
#    0.000    0.667    5.000    1.000    7.000    2.667 
#    0.000    0.000    0.000    0.000    0.000    0.000 
#    0.000    0.000    0.000    0.000    0.000    0.000 
#
# Total GULP energy -148729.868319 kJ/mol
# GULP energy per Si atom -12394.155693 kJ/mol
# Density = 2.550475 g / cm^3
# Si number density = 25.562936 Si / 1000 Ang^3
#
#
#
# Elastic Constant Matrix: (Units=GPa)
#
#
# Indices 1 2 3 4 5 6 
#
# 1 86.4127 13.2438 9.4291 -13.9981 10.6857 1.8886
# 2 13.2438 82.9051 24.7698 -6.8067 10.1299 -6.0145
# 3 9.4291 24.7698 119.0946 -32.0956 12.6483 -3.4799
# 4 -13.9981 -6.8067 -32.0956 37.2583 -6.3029 -2.3517
# 5 10.6857 10.1299 12.6483 -6.3029 53.2055 -13.1990
# 6 1.8886 -6.0145 -3.4799 -2.3517 -13.1990 46.6422
#
#
#
# Elastic Compliance Matrix: (Units=1/GPa)
#
#
# Indices 1 2 3 4 5 6 
#
# 1 0.012807 -0.001715 0.000829 0.004785 -0.002134 -0.001040
# 2 -0.001715 0.013319 -0.002626 -0.000627 -0.001349 0.001178
# 3 0.000829 -0.002626 0.011630 0.009704 -0.001116 0.000669
# 4 0.004785 -0.000627 0.009704 0.037404 0.002002 0.002902
# 5 -0.002134 -0.001349 -0.001116 0.002002 0.021473 0.006007
# 6 -0.001040 0.001178 0.000669 0.002902 0.006007 0.023530
#
#
# Mechanical properties :
#
#
# Convention : Reuss Voigt Hill
#
# Bulk Modulus (GPa) = 32.53956 42.58863 37.56410
# Shear Modulus (GPa) = 36.38168 43.48585 39.93377
#
# Velocity S-wave (km/s) = 3.77665 4.12895 3.95672
# Velocity P-wave (km/s) = 5.63687 6.27913 5.96665
#
# Compressibility (1/GPa) = 0.03073182
#
# Stress axis : x y z
#
# Youngs Moduli (GPa) = 78.08468 75.07909 85.98150
#
# Poissons Ratio (x) = 0.12878 -0.07125
# Poissons Ratio (y) = 0.13394 0.22576
# Poissons Ratio (z) = -0.06470 0.19713
#
# Static dielectric constant tensor:
#      x y z
#    x 2.195460 -0.123670 1.476770 
#    y -0.123670 5.538730 0.503720 
#    z 1.476770 0.503720 3.655890 
# 
# 
# High freq. dielectric constant tensor:
#      x y z
#    x 2.026800 0.003480 -0.004190 
#    y 0.003480 2.024040 -0.010240 
#    z -0.004190 -0.010240 2.029890 
# 
# From -- ./inp_files/26463.got.cif
#   From: 2010.06.25/outbox.cif.g09.slc.cpg/sg2_14_cif.got.tgz:26463.got - 2010.06.27 13:26:56.
