data_PCOD8033181
_publ_section_title
;
Structure prediction by ZEFSAII (Michael W. Deem and Ramdas Pophale) SiO2 
 PCOD8033181
Probable space group: P -1
;
_chemical_formula_sum "Si O2"
_cell_formula_units_Z 14
_cell_length_a 12.967417
_cell_length_b 22.897642
_cell_length_c 22.070940
_cell_angle_alpha 162.602057
_cell_angle_beta 25.536802
_cell_angle_gamma 163.036001
_cell_volume 567.631702
_symmetry_space_group_name_H-M "P -1"
_symmetry_group_IT_number 2
_symmetry_cell_setting 'triclinic'
loop_
_space_group_symop_operation_xyz
x,y,z
-x,-y,-z
loop_
_atom_site_type_symbol
_atom_site_label
_atom_site_fract_x
_atom_site_fract_y
_atom_site_fract_z
Si Si1 0.581103 0.131186 0.153145
Si Si2 0.553678 0.534538 0.434290
Si Si3 0.672340 0.112100 0.643642
Si Si4 0.821726 0.962975 0.941941
Si Si5 0.357689 0.650861 0.992238
Si Si6 0.728526 0.466554 0.876221
Si Si7 0.590459 0.607479 0.194236
O O1 0.375562 0.195840 0.351852
O O2 0.996064 0.442156 0.229497
O O3 0.500000 0.000000 0.000000
O O4 0.554390 0.958454 0.049382
O O5 0.500000 0.500000 0.500000
O O6 0.217107 0.249585 0.292292
O O7 0.898981 0.620542 0.317612
O O8 0.529861 0.127017 0.795182
O O9 0.542460 0.158167 0.698876
O O10 0.543196 0.809915 0.411496
O O11 0.685692 0.835611 0.955162
O O12 0.222860 0.279958 0.044518
O O13 0.313142 0.405409 0.801717
O O14 0.000000 0.500000 0.000000
O O15 0.500000 0.500000 0.000000
O O16 0.884015 0.683877 0.068333
#
# Coordination Sequence:
#
# PCOD8033181 Si02
#       7
#     2   2   2   2   2   2   2
#     4  12  24  41  71 105 143 190 241 294 357 436
#     4  12  24  43  74 106 147 191 244 289 363 442
#     4  11  25  46  76 108 143 193 246 301 362 437
#     4  12  26  48  70 107 147 196 236 307 364 428
#     4  11  26  49  75 103 145 194 252 300 361 435
#     4  11  23  45  68 106 151 185 230 295 369 434
#     4  11  27  45  73 107 149 188 244 310 363 428
#
# _framework density 24.663882000000001
#
# number of rings (size 3 to 8) (size 9 to 14) (size 15 to 20)
#    0.000    0.571    5.714    1.286    4.000    5.143 
#    0.000    0.000    0.000    0.000    0.000    0.000 
#    0.000    0.000    0.000    0.000    0.000    0.000 
#
# Total GULP energy -173440.368146 kJ/mol
# GULP energy per Si atom -12388.597725 kJ/mol
# Density = 2.460775 g / cm^3
# Si number density = 24.663882 Si / 1000 Ang^3
#
#
#
# Elastic Constant Matrix: (Units=GPa)
#
#
# Indices 1 2 3 4 5 6 
#
# 1 137.7653 10.3421 49.5962 2.9625 -29.4249 -18.7704
# 2 10.3421 43.8892 19.6271 -5.6734 7.2073 -19.3089
# 3 49.5962 19.6271 160.8567 2.2202 -24.5373 -7.1223
# 4 2.9625 -5.6734 2.2202 40.3062 0.6104 5.5739
# 5 -29.4249 7.2073 -24.5373 0.6104 57.6234 -3.9497
# 6 -18.7704 -19.3089 -7.1223 5.5739 -3.9497 46.1279
#
#
#
# Elastic Compliance Matrix: (Units=1/GPa)
#
#
# Indices 1 2 3 4 5 6 
#
# 1 0.009503 -0.000511 -0.002018 -0.001259 0.004336 0.003865
# 2 -0.000511 0.030859 -0.003921 0.003112 -0.005049 0.011296
# 3 -0.002018 -0.003921 0.007694 -0.000736 0.002678 -0.000956
# 4 -0.001259 0.003112 -0.000736 0.025767 -0.001796 -0.002591
# 5 0.004336 -0.005049 0.002678 -0.001796 0.021505 0.002123
# 6 0.003865 0.011296 -0.000956 -0.002591 0.002123 0.028327
#
#
# Mechanical properties :
#
#
# Convention : Reuss Voigt Hill
#
# Bulk Modulus (GPa) = 28.44432 55.73801 42.09116
# Shear Modulus (GPa) = 33.72149 46.34121 40.03135
#
# Velocity S-wave (km/s) = 3.70163 4.33934 4.03311
# Velocity P-wave (km/s) = 5.46144 6.91047 6.22824
#
# Compressibility (1/GPa) = 0.03515641
#
# Stress axis : x y z
#
# Youngs Moduli (GPa) = 105.22698 32.40504 129.97788
#
# Poissons Ratio (x) = 0.01657 0.26227
# Poissons Ratio (y) = 0.05382 0.50960
# Poissons Ratio (z) = 0.21233 0.12705
#
# Static dielectric constant tensor:
#      x y z
#    x 4.939850 -0.216920 -0.257720 
#    y -0.216920 5.091350 -0.276660 
#    z -0.257720 -0.276660 4.621030 
# 
# 
# High freq. dielectric constant tensor:
#      x y z
#    x 1.991920 -0.000260 -0.018030 
#    y -0.000260 1.983870 -0.006900 
#    z -0.018030 -0.006900 1.979650 
# 
# From -- ./inp_files/596265.got.cif
#   From: 2010.06.25/outbox.cif.g09.slc.cpg/sg2_299_cif.got.tgz:596265.got - 2010.06.27 13:26:56.
