data_PCOD8033412
_publ_section_title
;
Structure prediction by ZEFSAII (Michael W. Deem and Ramdas Pophale) SiO2 
 PCOD8033412
Probable space group: P -1
;
_chemical_formula_sum "Si O2"
_cell_formula_units_Z 12
_cell_length_a 8.566492
_cell_length_b 16.566828
_cell_length_c 7.701616
_cell_angle_alpha 38.860430
_cell_angle_beta 49.694179
_cell_angle_gamma 45.538465
_cell_volume 476.729071
_symmetry_space_group_name_H-M "P -1"
_symmetry_group_IT_number 2
_symmetry_cell_setting 'triclinic'
loop_
_space_group_symop_operation_xyz
x,y,z
-x,-y,-z
loop_
_atom_site_type_symbol
_atom_site_label
_atom_site_fract_x
_atom_site_fract_y
_atom_site_fract_z
Si Si1 0.103286 0.871711 0.513440
Si Si2 0.842644 0.577805 0.821181
Si Si3 0.554369 0.485031 0.685340
Si Si4 0.566914 0.770261 0.224654
Si Si5 0.712816 0.856022 0.622244
Si Si6 0.956524 0.351524 0.839415
O O1 0.326987 0.890852 0.251907
O O2 0.926865 0.890206 0.454167
O O3 0.148093 0.724382 0.823825
O O4 0.000000 0.000000 0.500000
O O5 0.786554 0.745248 0.593277
O O6 0.952428 0.496495 0.696096
O O7 0.603521 0.570841 0.006140
O O8 0.000000 0.500000 0.000000
O O9 0.500000 0.500000 0.500000
O O10 0.507198 0.638961 0.526191
O O11 0.812990 0.380113 0.716823
O O12 0.783085 0.751846 0.218750
O O13 0.639174 0.780954 0.958098
O O14 0.500000 0.000000 0.500000
#
# Coordination Sequence:
#
# PCOD8033412 Si02
#       6
#     2   2   2   2   2   2
#     4  11  26  46  71 100 147 194 243 299 366 441
#     4  12  21  45  72 107 148 186 239 303 355 432
#     4  12  23  41  72 109 141 185 240 307 364 426
#     4  11  23  46  70 103 142 189 248 295 366 436
#     4  11  26  45  71 108 151 193 239 299 368 432
#     4  11  25  43  72 110 141 190 246 303 364 427
#
# _framework density 25.171530000000001
#
# number of rings (size 3 to 8) (size 9 to 14) (size 15 to 20)
#    0.000    0.667    6.667    1.000    2.333    3.333 
#    0.000    5.000    0.000    0.000    0.000    0.000 
#    0.000    0.000    0.000    0.000    0.000    0.000 
#
# Total GULP energy -148705.560536 kJ/mol
# GULP energy per Si atom -12392.130045 kJ/mol
# Density = 2.511424 g / cm^3
# Si number density = 25.171530 Si / 1000 Ang^3
#
#
#
# Elastic Constant Matrix: (Units=GPa)
#
#
# Indices 1 2 3 4 5 6 
#
# 1 185.8909 73.6689 49.3341 9.5283 10.6033 -32.9874
# 2 73.6689 152.0303 34.5781 9.5342 -6.5824 -16.1077
# 3 49.3341 34.5781 44.6767 4.8738 -11.7000 -13.6530
# 4 9.5283 9.5342 4.8738 53.6264 -10.9165 -9.3936
# 5 10.6033 -6.5824 -11.7000 -10.9165 42.8170 0.7229
# 6 -32.9874 -16.1077 -13.6530 -9.3936 0.7229 53.3347
#
#
#
# Elastic Compliance Matrix: (Units=1/GPa)
#
#
# Indices 1 2 3 4 5 6 
#
# 1 0.009697 -0.002463 -0.009322 -0.001108 -0.005656 0.002749
# 2 -0.002463 0.008695 -0.003732 -0.000607 0.000771 0.000030
# 3 -0.009322 -0.003732 0.039833 0.001967 0.013062 0.003473
# 4 -0.001108 -0.000607 0.001967 0.020530 0.005899 0.003171
# 5 -0.005656 0.000771 0.013062 0.005899 0.029936 0.000712
# 6 0.002749 0.000030 0.003473 0.003171 0.000712 0.021897
#
#
# Mechanical properties :
#
#
# Convention : Reuss Voigt Hill
#
# Bulk Modulus (GPa) = 36.77790 77.52891 57.15340
# Shear Modulus (GPa) = 29.29403 44.95673 37.12538
#
# Velocity S-wave (km/s) = 3.41512 4.23071 3.84460
# Velocity P-wave (km/s) = 5.49485 7.39813 6.51635
#
# Compressibility (1/GPa) = 0.02719024
#
# Stress axis : x y z
#
# Youngs Moduli (GPa) = 103.12940 115.01520 25.10493
#
# Poissons Ratio (x) = 0.28324 0.23402
# Poissons Ratio (y) = 0.25397 0.09370
# Poissons Ratio (z) = 0.96134 0.42929
#
# Static dielectric constant tensor:
#      x y z
#    x 4.307340 0.024540 0.107360 
#    y 0.024540 4.466680 -0.054340 
#    z 0.107360 -0.054340 4.871260 
# 
# 
# High freq. dielectric constant tensor:
#      x y z
#    x 2.015110 -0.021060 -0.013640 
#    y -0.021060 2.002660 0.011370 
#    z -0.013640 0.011370 2.002990 
# 
# From -- ./inp_files/173953.got.cif
#   From: 2010.06.25/outbox.cif.g09.slc.cpg/sg2_87_cif.got.tgz:173953.got - 2010.06.27 13:26:56.
