data_PCOD8033391
_publ_section_title
;
Structure prediction by ZEFSAII (Michael W. Deem and Ramdas Pophale) SiO2 
 PCOD8033391
Probable space group: P -1
;
_chemical_formula_sum "Si O2"
_cell_formula_units_Z 16
_cell_length_a 10.586834
_cell_length_b 12.145403
_cell_length_c 11.361326
_cell_angle_alpha 60.409500
_cell_angle_beta 118.482461
_cell_angle_gamma 144.457269
_cell_volume 730.258709
_symmetry_space_group_name_H-M "P -1"
_symmetry_group_IT_number 2
_symmetry_cell_setting 'triclinic'
loop_
_space_group_symop_operation_xyz
x,y,z
-x,-y,-z
loop_
_atom_site_type_symbol
_atom_site_label
_atom_site_fract_x
_atom_site_fract_y
_atom_site_fract_z
Si Si1 0.916146 0.178734 0.056953
Si Si2 0.734203 0.624379 0.095231
Si Si3 0.351191 0.924259 0.590728
Si Si4 0.899037 0.486442 0.339980
Si Si5 0.240116 0.476835 0.231727
Si Si6 0.040622 0.159134 0.497849
Si Si7 0.689300 0.208621 0.788418
Si Si8 0.718308 0.780982 0.212362
O O1 0.033620 0.342740 0.122206
O O2 0.091518 0.263755 0.990533
O O3 0.808214 0.982160 0.169040
O O4 0.707686 0.118495 0.948359
O O5 0.732952 0.497050 0.248826
O O6 0.805010 0.789272 0.121392
O O7 0.500000 0.500000 0.000000
O O8 0.220100 0.708919 0.674105
O O9 0.182607 0.928338 0.501780
O O10 0.500000 0.000000 0.500000
O O11 0.478977 0.042309 0.703784
O O12 0.000000 0.500000 0.500000
O O13 0.102519 0.674648 0.261281
O O14 0.179595 0.338949 0.378642
O O15 0.305608 0.649866 0.231214
O O16 0.455974 0.585325 0.196770
O O17 0.194702 0.248473 0.630390
O O18 0.000000 0.000000 0.500000
#
# Coordination Sequence:
#
# PCOD8033391 Si02
#       8
#     2   2   2   2   2   2   2   2
#     4  11  26  47  70 104 145 190 242 300 367 441
#     4  11  25  45  72 106 143 192 244 307 369 439
#     4  12  26  44  74 108 143 194 245 298 369 437
#     4  11  23  46  69 101 146 189 241 303 362 432
#     4  12  25  48  72 105 142 192 242 297 375 438
#     4  12  26  48  74 110 148 187 244 309 368 444
#     4  11  26  43  72 101 143 186 243 296 361 436
#     4  12  26  45  75 103 146 190 241 298 374 437
#
# _framework density 21.910043000000002
#
# number of rings (size 3 to 8) (size 9 to 14) (size 15 to 20)
#    0.000    0.500    5.000    2.625    3.500    2.500 
#    0.000    0.000    0.000    0.000    0.000    0.000 
#    0.000    0.000    0.000    0.000    0.000    0.000 
#
# Total GULP energy -198299.491033 kJ/mol
# GULP energy per Si atom -12393.718190 kJ/mol
# Density = 2.186018 g / cm^3
# Si number density = 21.910043 Si / 1000 Ang^3
#
#
#
# Elastic Constant Matrix: (Units=GPa)
#
#
# Indices 1 2 3 4 5 6 
#
# 1 77.7898 44.2572 34.2643 -8.7518 15.7343 -17.3261
# 2 44.2572 108.3619 44.2242 11.1616 -0.3320 -20.4906
# 3 34.2643 44.2242 134.0435 7.4257 13.2686 -6.0764
# 4 -8.7518 11.1616 7.4257 33.3387 -2.7307 -12.4426
# 5 15.7343 -0.3320 13.2686 -2.7307 35.7844 2.0124
# 6 -17.3261 -20.4906 -6.0764 -12.4426 2.0124 36.2969
#
#
#
# Elastic Compliance Matrix: (Units=1/GPa)
#
#
# Indices 1 2 3 4 5 6 
#
# 1 0.024933 -0.008140 -0.002950 0.013627 -0.009580 0.012015
# 2 -0.008140 0.014594 -0.002773 -0.005384 0.004230 0.001809
# 3 -0.002950 -0.002773 0.009420 -0.002990 -0.002321 -0.002292
# 4 0.013627 -0.005384 -0.002990 0.042408 -0.002689 0.017652
# 5 -0.009580 0.004230 -0.002321 -0.002689 0.033152 -0.005334
# 6 0.012015 0.001809 -0.002292 0.017652 -0.005334 0.040270
#
#
# Mechanical properties :
#
#
# Convention : Reuss Voigt Hill
#
# Bulk Modulus (GPa) = 47.12017 62.85405 54.98711
# Shear Modulus (GPa) = 25.05308 34.24729 29.65018
#
# Velocity S-wave (km/s) = 3.38516 3.95788 3.68267
# Velocity P-wave (km/s) = 6.06894 7.04528 6.57526
#
# Compressibility (1/GPa) = 0.02122233
#
# Stress axis : x y z
#
# Youngs Moduli (GPa) = 40.10827 68.52111 106.15206
#
# Poissons Ratio (x) = 0.55778 0.31310
# Poissons Ratio (y) = 0.32649 0.29432
# Poissons Ratio (z) = 0.11830 0.18998
#
# Static dielectric constant tensor:
#      x y z
#    x 9.725560 12.715970 8.686010 
#    y 12.715970 32.899090 19.922310 
#    z 8.686010 19.922310 17.365190 
# 
# 
# High freq. dielectric constant tensor:
#      x y z
#    x 1.869740 -0.004040 0.001980 
#    y -0.004040 1.871600 0.009250 
#    z 0.001980 0.009250 1.875180 
# 
# From -- ./inp_files/427854.got.cif
#   From: 2010.06.25/outbox.cif.g09.slc.cpg/sg2_214_cif.got.tgz:427854.got - 2010.06.27 13:26:56.
