data_PCOD8033693
_publ_section_title
;
Structure prediction by ZEFSAII (Michael W. Deem and Ramdas Pophale) SiO2 
 PCOD8033693
Probable space group: P -1
;
_chemical_formula_sum "Si O2"
_cell_formula_units_Z 16
_cell_length_a 11.044945
_cell_length_b 11.360177
_cell_length_c 10.589612
_cell_angle_alpha 131.202167
_cell_angle_beta 99.425128
_cell_angle_gamma 115.999629
_cell_volume 667.713899
_symmetry_space_group_name_H-M "P -1"
_symmetry_group_IT_number 2
_symmetry_cell_setting 'triclinic'
loop_
_space_group_symop_operation_xyz
x,y,z
-x,-y,-z
loop_
_atom_site_type_symbol
_atom_site_label
_atom_site_fract_x
_atom_site_fract_y
_atom_site_fract_z
Si Si1 0.319077 0.853241 0.026658
Si Si2 0.496715 0.253311 0.163660
Si Si3 0.358253 0.719160 0.178526
Si Si4 0.801105 0.650010 0.646171
Si Si5 0.068951 0.540429 0.398409
Si Si6 0.161061 0.105363 0.935746
Si Si7 0.059227 0.197895 0.740405
Si Si8 0.244695 0.867376 0.442570
O O1 0.381115 0.885359 0.202732
O O2 0.394252 0.084400 0.147467
O O3 0.382902 0.764492 0.894197
O O4 0.102611 0.663247 0.859749
O O5 0.633940 0.514897 0.424621
O O6 0.346180 0.183010 0.991443
O O7 0.265112 0.709888 0.279122
O O8 0.565239 0.859079 0.337775
O O9 0.240373 0.465382 0.920146
O O10 0.787460 0.466795 0.579160
O O11 0.792922 0.774806 0.837411
O O12 0.989660 0.830636 0.727618
O O13 0.170882 0.780816 0.514344
O O14 0.000000 0.500000 0.500000
O O15 0.109471 0.182984 0.876672
O O16 0.893633 0.163591 0.689150
O O17 0.000000 0.000000 0.500000
#
# Coordination Sequence:
#
# PCOD8033693 Si02
#       8
#     2   2   2   2   2   2   2   2
#     4  11  24  40  75 105 133 177 231 301 356 408
#     4  11  24  44  69 108 141 177 237 301 355 417
#     4  11  26  49  76 105 139 191 245 296 354 426
#     4  11  24  43  71 102 138 182 234 294 359 419
#     4  12  23  43  76 105 135 173 233 303 357 408
#     4  11  27  44  66  99 144 193 232 281 354 431
#     4  12  29  45  69 102 151 197 235 288 353 435
#     4  11  27  49  77 104 141 188 246 301 354 421
#
# _framework density 23.962358999999999
#
# number of rings (size 3 to 8) (size 9 to 14) (size 15 to 20)
#    0.000    0.750    3.750    2.250    8.750    2.500 
#    0.000    0.000    0.000    0.000    0.000    0.000 
#    0.000    0.000    0.000    0.000    0.000    0.000 
#
# Total GULP energy -198348.877431 kJ/mol
# GULP energy per Si atom -12396.804839 kJ/mol
# Density = 2.390782 g / cm^3
# Si number density = 23.962359 Si / 1000 Ang^3
#
#
#
# Elastic Constant Matrix: (Units=GPa)
#
#
# Indices 1 2 3 4 5 6 
#
# 1 81.2459 35.4862 49.9306 10.3647 26.1698 -11.1304
# 2 35.4862 104.3006 32.8968 -6.0661 12.4837 -11.6073
# 3 49.9306 32.8968 167.9666 14.7410 24.5022 1.3139
# 4 10.3647 -6.0661 14.7410 27.7895 -1.7738 3.5304
# 5 26.1698 12.4837 24.5022 -1.7738 46.1842 -7.5822
# 6 -11.1304 -11.6073 1.3139 3.5304 -7.5822 36.1031
#
#
#
# Elastic Compliance Matrix: (Units=1/GPa)
#
#
# Indices 1 2 3 4 5 6 
#
# 1 0.020821 -0.005082 -0.003291 -0.008164 -0.008343 0.003951
# 2 -0.005082 0.012207 -0.001480 0.005136 0.000907 0.002100
# 3 -0.003291 -0.001480 0.007857 -0.003164 -0.002347 -0.001960
# 4 -0.008164 0.005136 -0.003164 0.042676 0.005952 -0.003673
# 5 -0.008343 0.000907 -0.002347 0.005952 0.028122 0.003129
# 6 0.003951 0.002100 -0.001960 -0.003673 0.003129 0.030679
#
#
# Mechanical properties :
#
#
# Convention : Reuss Voigt Hill
#
# Bulk Modulus (GPa) = 47.21702 65.57114 56.39408
# Shear Modulus (GPa) = 29.56332 37.69533 33.62932
#
# Velocity S-wave (km/s) = 3.51627 3.97054 3.75029
# Velocity P-wave (km/s) = 6.01939 6.96017 6.50680
#
# Compressibility (1/GPa) = 0.02117880
#
# Stress axis : x y z
#
# Youngs Moduli (GPa) = 48.02857 81.91789 127.27348
#
# Poissons Ratio (x) = 0.41633 0.41890
# Poissons Ratio (y) = 0.24410 0.18831
# Poissons Ratio (z) = 0.15808 0.12120
#
# Static dielectric constant tensor:
#      x y z
#    x 4.282860 -0.076310 0.330500 
#    y -0.076310 4.345400 0.045230 
#    z 0.330500 0.045230 4.482820 
# 
# 
# High freq. dielectric constant tensor:
#      x y z
#    x 1.944810 -0.002090 0.021510 
#    y -0.002090 1.940700 -0.002500 
#    z 0.021510 -0.002500 1.962970 
# 
# From -- ./inp_files/428941.got.cif
#   From: 2010.06.25/outbox.cif.g09.slc.cpg/sg2_215_cif.got.tgz:428941.got - 2010.06.27 13:26:56.
