data_PCOD8033253
_publ_section_title
;
Structure prediction by ZEFSAII (Michael W. Deem and Ramdas Pophale) SiO2 
 PCOD8033253
Probable space group: P -1
;
_chemical_formula_sum "Si O2"
_cell_formula_units_Z 14
_cell_length_a 23.797552
_cell_length_b 8.171529
_cell_length_c 13.978773
_cell_angle_alpha 137.336961
_cell_angle_beta 157.434180
_cell_angle_gamma 32.046135
_cell_volume 538.307509
_symmetry_space_group_name_H-M "P -1"
_symmetry_group_IT_number 2
_symmetry_cell_setting 'triclinic'
loop_
_space_group_symop_operation_xyz
x,y,z
-x,-y,-z
loop_
_atom_site_type_symbol
_atom_site_label
_atom_site_fract_x
_atom_site_fract_y
_atom_site_fract_z
Si Si1 0.544690 0.386835 0.412686
Si Si2 0.783920 0.839619 0.940961
Si Si3 0.197831 0.414798 0.836634
Si Si4 0.691375 0.230551 0.240236
Si Si5 0.627223 0.654808 0.485087
Si Si6 0.096411 0.335755 0.352436
Si Si7 0.101868 0.765294 0.653892
O O1 0.500000 0.500000 0.500000
O O2 0.579049 0.574730 0.476064
O O3 0.743306 0.028003 0.573578
O O4 0.368430 0.425774 0.110880
O O5 0.765009 0.738725 0.761395
O O6 0.572087 0.026443 0.736836
O O7 0.967868 0.513770 0.133210
O O8 0.792027 0.121428 0.085201
O O9 0.068846 0.612539 0.625005
O O10 0.059890 0.590523 0.785799
O O11 0.312860 0.038463 0.846179
O O12 0.730614 0.367011 0.449588
O O13 0.500000 0.500000 0.000000
O O14 0.880372 0.056833 0.392171
O O15 0.199916 0.482523 0.607888
#
# Coordination Sequence:
#
# PCOD8033253 Si02
#       7
#     2   2   2   2   2   2   2
#     4  12  27  45  75 106 141 194 248 296 364 431
#     4  11  25  44  70 102 147 191 233 296 366 422
#     4  11  24  46  71 105 143 187 246 293 366 434
#     4  11  25  43  75 110 142 186 245 303 360 431
#     4  11  24  47  69 102 151 190 238 301 359 428
#     4  11  25  46  73 104 145 186 243 309 356 426
#     4  11  23  45  71 106 142 190 240 292 366 437
#
# _framework density 26.007438
#
# number of rings (size 3 to 8) (size 9 to 14) (size 15 to 20)
#    0.000    0.857    1.429    6.429    4.000    6.286 
#    0.000    0.000    0.000    0.000    0.000    0.000 
#    0.000    0.000    0.000    0.000    0.000    0.000 
#
# Total GULP energy -173449.757938 kJ/mol
# GULP energy per Si atom -12389.268424 kJ/mol
# Density = 2.594824 g / cm^3
# Si number density = 26.007438 Si / 1000 Ang^3
#
#
#
# Elastic Constant Matrix: (Units=GPa)
#
#
# Indices 1 2 3 4 5 6 
#
# 1 41.6919 25.5195 14.0408 -2.1726 -6.2185 -18.9845
# 2 25.5195 154.8493 66.6330 -4.0771 -5.3101 -22.7233
# 3 14.0408 66.6330 135.3260 5.3153 -1.3149 -5.7861
# 4 -2.1726 -4.0771 5.3153 59.6605 -2.6987 -4.6376
# 5 -6.2185 -5.3101 -1.3149 -2.6987 28.4188 0.9090
# 6 -18.9845 -22.7233 -5.7861 -4.6376 0.9090 42.5422
#
#
#
# Elastic Compliance Matrix: (Units=1/GPa)
#
#
# Indices 1 2 3 4 5 6 
#
# 1 0.033312 -0.002501 -0.001686 0.002533 0.006555 0.013436
# 2 -0.002501 0.009226 -0.004178 0.001217 0.000992 0.003355
# 3 -0.001686 -0.004178 0.009591 -0.001378 -0.000779 -0.001813
# 4 0.002533 0.001217 -0.001378 0.017430 0.002263 0.003445
# 5 0.006555 0.000992 -0.000779 0.002263 0.036897 0.002807
# 6 0.013436 0.003355 -0.001813 0.003445 0.002807 0.031363
#
#
# Mechanical properties :
#
#
# Convention : Reuss Voigt Hill
#
# Bulk Modulus (GPa) = 28.24975 60.47263 44.36119
# Shear Modulus (GPa) = 30.05719 41.16924 35.61321
#
# Velocity S-wave (km/s) = 3.40327 3.98298 3.70448
# Velocity P-wave (km/s) = 5.13115 6.66744 5.94910
#
# Compressibility (1/GPa) = 0.03539854
#
# Stress axis : x y z
#
# Youngs Moduli (GPa) = 30.01897 108.38433 104.26647
#
# Poissons Ratio (x) = 0.27109 0.17580
# Poissons Ratio (y) = 0.07508 0.43565
# Poissons Ratio (z) = 0.05061 0.45285
#
# Static dielectric constant tensor:
#      x y z
#    x 4.726670 0.191630 -0.078150 
#    y 0.191630 4.972330 0.130100 
#    z -0.078150 0.130100 5.022040 
# 
# 
# High freq. dielectric constant tensor:
#      x y z
#    x 2.027470 0.009450 -0.008250 
#    y 0.009450 2.065990 0.003760 
#    z -0.008250 0.003760 2.067590 
# 
# From -- ./inp_files/543793.got.cif
#   From: 2010.06.25/outbox.cif.g09.slc.cpg/sg2_272_cif.got.tgz:543793.got - 2010.06.27 13:26:56.
