data_PCOD8033244
_publ_section_title
;
Structure prediction by ZEFSAII (Michael W. Deem and Ramdas Pophale) SiO2 
 PCOD8033244
Probable space group: P -1
;
_chemical_formula_sum "Si O2"
_cell_formula_units_Z 14
_cell_length_a 8.863701
_cell_length_b 9.331792
_cell_length_c 17.923718
_cell_angle_alpha 30.246530
_cell_angle_beta 115.039928
_cell_angle_gamma 124.416923
_cell_volume 608.475017
_symmetry_space_group_name_H-M "P -1"
_symmetry_group_IT_number 2
_symmetry_cell_setting 'triclinic'
loop_
_space_group_symop_operation_xyz
x,y,z
-x,-y,-z
loop_
_atom_site_type_symbol
_atom_site_label
_atom_site_fract_x
_atom_site_fract_y
_atom_site_fract_z
Si Si1 0.340534 0.655266 0.330608
Si Si2 0.868190 0.294840 0.875015
Si Si3 0.724849 0.700838 0.379320
Si Si4 0.705384 0.215073 0.472912
Si Si5 0.588965 0.733010 0.846400
Si Si6 0.123045 0.207346 0.234112
Si Si7 0.763004 0.586011 0.175176
O O1 0.205929 0.579071 0.266761
O O2 0.548005 0.762730 0.294449
O O3 0.275785 0.349024 0.508516
O O4 0.324863 0.918905 0.259896
O O5 0.849324 0.470605 0.865226
O O6 0.082355 0.377563 0.869493
O O7 0.750867 0.918800 0.031921
O O8 0.709440 0.392118 0.471037
O O9 0.908958 0.006857 0.257366
O O10 0.809607 0.475213 0.313859
O O11 0.500000 0.000000 0.500000
O O12 0.813926 0.003047 0.604151
O O13 0.757148 0.688276 0.863384
O O14 0.433793 0.678820 0.775691
O O15 0.500000 0.500000 0.000000
#
# Coordination Sequence:
#
# PCOD8033244 Si02
#       7
#     2   2   2   2   2   2   2
#     4  11  23  45  71 102 140 184 228 284 345 409
#     4  11  26  45  72 102 137 186 229 285 348 414
#     4  11  25  42  72 104 142 179 234 285 342 411
#     4  12  23  42  71 105 138 180 228 287 343 406
#     4  12  25  45  71  98 139 183 227 286 347 413
#     4  12  26  44  72 105 139 183 234 285 346 409
#     4  11  25  45  70 100 143 179 231 285 349 410
#
# _framework density 23.00834
#
# number of rings (size 3 to 8) (size 9 to 14) (size 15 to 20)
#    0.000    0.571    4.286    3.000    2.000    6.286 
#    0.000    2.143    0.000    0.000    0.000    0.000 
#    0.000    0.000    0.000    0.000    0.000    0.000 
#
# Total GULP energy -173690.834923 kJ/mol
# GULP energy per Si atom -12406.488209 kJ/mol
# Density = 2.295597 g / cm^3
# Si number density = 23.008340 Si / 1000 Ang^3
#
#
#
# Elastic Constant Matrix: (Units=GPa)
#
#
# Indices 1 2 3 4 5 6 
#
# 1 144.1609 44.0947 22.5998 -12.8521 -5.4284 -11.0927
# 2 44.0947 88.1375 12.1230 -21.2840 0.1206 -5.7837
# 3 22.5998 12.1230 69.4165 12.7315 -7.6514 -17.2443
# 4 -12.8521 -21.2840 12.7315 35.2689 -7.0361 1.6896
# 5 -5.4284 0.1206 -7.6514 -7.0361 41.0079 -5.4991
# 6 -11.0927 -5.7837 -17.2443 1.6896 -5.4991 40.3193
#
#
#
# Elastic Compliance Matrix: (Units=1/GPa)
#
#
# Indices 1 2 3 4 5 6 
#
# 1 0.008649 -0.003464 -0.002196 0.002051 0.001235 0.001026
# 2 -0.003464 0.015865 -0.003501 0.009687 0.000434 -0.000522
# 3 -0.002196 -0.003501 0.019904 -0.009927 0.002831 0.008208
# 4 0.002051 0.009687 -0.009927 0.039636 0.004748 -0.003305
# 5 0.001235 0.000434 0.002831 0.004748 0.026566 0.005037
# 6 0.001026 -0.000522 0.008208 -0.003305 0.005037 0.029346
#
#
# Mechanical properties :
#
#
# Convention : Reuss Voigt Hill
#
# Bulk Modulus (GPa) = 38.32154 51.03889 44.68021
# Shear Modulus (GPa) = 29.94245 38.17906 34.06075
#
# Velocity S-wave (km/s) = 3.61137 4.07794 3.85173
# Velocity P-wave (km/s) = 5.83789 6.66361 6.26437
#
# Compressibility (1/GPa) = 0.02609499
#
# Stress axis : x y z
#
# Youngs Moduli (GPa) = 115.62338 63.03167 50.24093
#
# Poissons Ratio (x) = 0.21834 0.11033
# Poissons Ratio (y) = 0.40051 0.17592
# Poissons Ratio (z) = 0.25392 0.22070
#
# Static dielectric constant tensor:
#      x y z
#    x 4.236420 -0.042290 -0.030870 
#    y -0.042290 4.165590 0.100250 
#    z -0.030870 0.100250 4.763760 
# 
# 
# High freq. dielectric constant tensor:
#      x y z
#    x 1.918310 -0.001190 -0.003950 
#    y -0.001190 1.911000 0.001240 
#    z -0.003950 0.001240 1.907830 
# 
# From -- ./inp_files/158118.got.cif
#   From: 2010.06.25/outbox.cif.g09.slc.cpg/sg2_80_cif.got.tgz:158118.got - 2010.06.27 13:26:56.
