data_PCOD8033396
_publ_section_title
;
Structure prediction by ZEFSAII (Michael W. Deem and Ramdas Pophale) SiO2 
 PCOD8033396
Probable space group: P -1
;
_chemical_formula_sum "Si O2"
_cell_formula_units_Z 16
_cell_length_a 8.969139
_cell_length_b 6.153967
_cell_length_c 18.146601
_cell_angle_alpha 74.417287
_cell_angle_beta 58.752340
_cell_angle_gamma 53.431287
_cell_volume 686.549836
_symmetry_space_group_name_H-M "P -1"
_symmetry_group_IT_number 2
_symmetry_cell_setting 'triclinic'
loop_
_space_group_symop_operation_xyz
x,y,z
-x,-y,-z
loop_
_atom_site_type_symbol
_atom_site_label
_atom_site_fract_x
_atom_site_fract_y
_atom_site_fract_z
Si Si1 0.079630 0.495092 0.653590
Si Si2 0.962424 0.379138 0.947493
Si Si3 0.321556 0.785552 0.900464
Si Si4 0.215897 0.736318 0.490416
Si Si5 0.275693 0.242846 0.159183
Si Si6 0.522834 0.864339 0.338052
Si Si7 0.471157 0.679188 0.216880
Si Si8 0.770472 0.516734 0.633460
O O1 0.188231 0.655514 0.587306
O O2 0.255494 0.225551 0.674899
O O3 0.873020 0.670592 0.739594
O O4 0.004893 0.427480 0.603251
O O5 0.866369 0.614315 0.889195
O O6 0.185296 0.109913 0.889684
O O7 0.000000 0.500000 0.000000
O O8 0.801589 0.286414 0.004688
O O9 0.550468 0.685629 0.882812
O O10 0.352537 0.612906 0.834926
O O11 0.398263 0.791513 0.433836
O O12 0.258223 0.501395 0.444206
O O13 0.000000 0.000000 0.500000
O O14 0.398340 0.915606 0.152993
O O15 0.571979 0.715277 0.260685
O O16 0.398003 0.179469 0.324633
O O17 0.267016 0.686359 0.293322
#
# Coordination Sequence:
#
# PCOD8033396 Si02
#       8
#     2   2   2   2   2   2   2   2
#     4  12  24  43  70 102 135 188 237 284 348 407
#     4  11  28  49  76 106 140 182 228 289 353 422
#     4  11  25  49  74 104 142 177 234 281 355 419
#     4  11  23  46  69  95 146 186 234 293 347 404
#     4  12  26  47  73 102 143 186 232 286 353 419
#     4  11  25  44  68 102 143 185 239 288 345 411
#     4  11  23  46  72 103 145 183 229 297 344 408
#     4  11  23  47  67 100 143 186 230 295 342 408
#
# _framework density 23.304935
#
# number of rings (size 3 to 8) (size 9 to 14) (size 15 to 20)
#    0.000    0.750    3.750    2.625    5.250    4.500 
#    9.000    0.000    0.000    0.000    0.000    0.000 
#    0.000    0.000    0.000    0.000    0.000    0.000 
#
# Total GULP energy -198380.083977 kJ/mol
# GULP energy per Si atom -12398.755249 kJ/mol
# Density = 2.325189 g / cm^3
# Si number density = 23.304935 Si / 1000 Ang^3
#
#
#
# Elastic Constant Matrix: (Units=GPa)
#
#
# Indices 1 2 3 4 5 6 
#
# 1 97.9331 67.6935 22.9333 8.1157 -1.5927 -16.2407
# 2 67.6935 118.0286 42.7198 0.5833 4.3928 -9.1198
# 3 22.9333 42.7198 89.8814 -1.3380 -0.9502 -2.5455
# 4 8.1157 0.5833 -1.3380 47.8245 2.0266 2.3247
# 5 -1.5927 4.3928 -0.9502 2.0266 23.8783 0.9804
# 6 -16.2407 -9.1198 -2.5455 2.3247 0.9804 38.6699
#
#
#
# Elastic Compliance Matrix: (Units=1/GPa)
#
#
# Indices 1 2 3 4 5 6 
#
# 1 0.018629 -0.010500 0.000376 -0.003428 0.003255 0.005496
# 2 -0.010500 0.016444 -0.005179 0.001650 -0.004036 -0.000870
# 3 0.000376 -0.005179 0.013506 0.000325 0.001497 -0.000232
# 4 -0.003428 0.001650 0.000325 0.021687 -0.002266 -0.002275
# 5 0.003255 -0.004036 0.001497 -0.002266 0.043109 -0.000443
# 6 0.005496 -0.000870 -0.000232 -0.002275 -0.000443 0.028096
#
#
# Mechanical properties :
#
#
# Convention : Reuss Voigt Hill
#
# Bulk Modulus (GPa) = 55.64011 63.61513 59.62762
# Shear Modulus (GPa) = 28.07908 33.57432 30.82670
#
# Velocity S-wave (km/s) = 3.47487 3.79971 3.64091
# Velocity P-wave (km/s) = 6.32663 6.82690 6.58152
#
# Compressibility (1/GPa) = 0.01797265
#
# Stress axis : x y z
#
# Youngs Moduli (GPa) = 53.67861 60.81100 74.04366
#
# Poissons Ratio (x) = 0.63854 -0.02788
# Poissons Ratio (y) = 0.56365 0.38350
# Poissons Ratio (z) = -0.02021 0.31497
#
# Static dielectric constant tensor:
#      x y z
#    x 5.545160 -0.144600 0.970140 
#    y -0.144600 4.292660 -0.278070 
#    z 0.970140 -0.278070 5.413520 
# 
# 
# High freq. dielectric constant tensor:
#      x y z
#    x 1.916820 0.003340 -0.017860 
#    y 0.003340 1.918060 -0.002880 
#    z -0.017860 -0.002880 1.931760 
# 
# From -- ./inp_files/585645.got.cif
#   From: 2010.06.25/outbox.cif.g09.slc.cpg/sg2_293_cif.got.tgz:585645.got - 2010.06.27 13:26:56.
