data_PCOD8033628
_publ_section_title
;
Structure prediction by ZEFSAII (Michael W. Deem and Ramdas Pophale) SiO2 
 PCOD8033628
Probable space group: P -1
;
_chemical_formula_sum "Si O2"
_cell_formula_units_Z 16
_cell_length_a 21.278403
_cell_length_b 9.555918
_cell_length_c 11.954876
_cell_angle_alpha 46.182841
_cell_angle_beta 152.776433
_cell_angle_gamma 139.913200
_cell_volume 715.485225
_symmetry_space_group_name_H-M "P -1"
_symmetry_group_IT_number 2
_symmetry_cell_setting 'triclinic'
loop_
_space_group_symop_operation_xyz
x,y,z
-x,-y,-z
loop_
_atom_site_type_symbol
_atom_site_label
_atom_site_fract_x
_atom_site_fract_y
_atom_site_fract_z
Si Si1 0.865156 0.779153 0.867541
Si Si2 0.533665 0.456588 0.956346
Si Si3 0.091417 0.566916 0.725439
Si Si4 0.145716 0.456279 0.236665
Si Si5 0.402711 0.991487 0.957285
Si Si6 0.475964 0.774876 0.539483
Si Si7 0.653051 0.957722 0.510802
Si Si8 0.816939 0.456528 0.503364
O O1 0.900539 0.742047 0.814503
O O2 0.715181 0.825555 0.601944
O O3 0.847220 0.596617 0.033568
O O4 0.000000 0.000000 0.000000
O O5 0.539074 0.652687 0.787401
O O6 0.500000 0.500000 0.000000
O O7 0.700751 0.460528 0.222469
O O8 0.400931 0.224518 0.831915
O O9 0.000000 0.500000 0.500000
O O10 0.985702 0.590880 0.643036
O O11 0.231011 0.800793 0.790929
O O12 0.292297 0.641958 0.300688
O O13 0.196236 0.437146 0.456078
O O14 0.000000 0.500000 0.000000
O O15 0.497125 0.964376 0.223906
O O16 0.500000 0.000000 0.000000
O O17 0.591643 0.807942 0.604074
O O18 0.500000 0.000000 0.500000
O O19 0.783674 0.204305 0.607487
#
# Coordination Sequence:
#
# PCOD8033628 Si02
#       8
#     2   2   2   2   2   2   2   2
#     4  12  27  45  74 109 144 194 245 307 366 430
#     4  11  24  47  72 101 143 189 240 293 363 432
#     4  12  26  47  73 103 151 192 241 297 371 428
#     4  12  24  45  72 102 150 188 237 297 364 432
#     4  11  27  47  71 102 145 192 239 298 358 437
#     4  12  25  45  77 109 145 188 240 307 366 432
#     4  11  24  45  72 109 145 185 253 302 365 429
#     4  11  23  49  70 105 146 193 236 303 365 441
#
# _framework density 22.362445999999998
#
# number of rings (size 3 to 8) (size 9 to 14) (size 15 to 20)
#    0.000    0.500    5.000    3.000    5.250    1.000 
#    0.000    1.875    0.000    0.000    0.000    0.000 
#    0.000    0.000    0.000    0.000    0.000    0.000 
#
# Total GULP energy -198230.181979 kJ/mol
# GULP energy per Si atom -12389.386374 kJ/mol
# Density = 2.231155 g / cm^3
# Si number density = 22.362446 Si / 1000 Ang^3
#
#
#
# Elastic Constant Matrix: (Units=GPa)
#
#
# Indices 1 2 3 4 5 6 
#
# 1 167.1210 75.4913 31.1450 9.1812 6.4980 -4.6323
# 2 75.4913 146.6964 55.8739 5.8372 -0.9090 -1.5257
# 3 31.1450 55.8739 91.9196 1.4560 0.0166 2.6245
# 4 9.1812 5.8372 1.4560 47.2283 4.9882 1.9720
# 5 6.4980 -0.9090 0.0166 4.9882 47.3597 4.5429
# 6 -4.6323 -1.5257 2.6245 1.9720 4.5429 47.1707
#
#
#
# Elastic Compliance Matrix: (Units=1/GPa)
#
#
# Indices 1 2 3 4 5 6 
#
# 1 0.007935 -0.003925 -0.000310 -0.000961 -0.001141 0.000820
# 2 -0.003925 0.010874 -0.005278 -0.000510 0.000783 0.000206
# 3 -0.000310 -0.005278 0.014216 0.000316 -0.000001 -0.001005
# 4 -0.000961 -0.000510 0.000316 0.021668 -0.002080 -0.000834
# 5 -0.001141 0.000783 -0.000001 -0.002080 0.021706 -0.002090
# 6 0.000820 0.000206 -0.001005 -0.000834 -0.002090 0.021579
#
#
# Mechanical properties :
#
#
# Convention : Reuss Voigt Hill
#
# Bulk Modulus (GPa) = 71.44005 81.19526 76.31766
# Shear Modulus (GPa) = 41.09417 44.56686 42.83052
#
# Velocity S-wave (km/s) = 4.29142 4.46907 4.38115
# Velocity P-wave (km/s) = 7.52136 7.93837 7.73268
#
# Compressibility (1/GPa) = 0.01399775
#
# Stress axis : x y z
#
# Youngs Moduli (GPa) = 126.03112 91.95984 70.34229
#
# Poissons Ratio (x) = 0.36096 0.02184
# Poissons Ratio (y) = 0.49470 0.37127
# Poissons Ratio (z) = 0.03912 0.48536
#
# Static dielectric constant tensor:
#      x y z
#    x 4.515010 -0.632420 -0.529960 
#    y -0.632420 5.724170 2.157580 
#    z -0.529960 2.157580 7.015970 
# 
# 
# High freq. dielectric constant tensor:
#      x y z
#    x 1.896740 -0.003470 0.003670 
#    y -0.003470 1.872000 0.004010 
#    z 0.003670 0.004010 1.895010 
# 
# From -- ./inp_files/243348.got.cif
#   From: 2010.06.25/outbox.cif.g09.slc.cpg/sg2_122_cif.got.tgz:243348.got - 2010.06.27 13:26:56.
