data_PCOD8033746
_publ_section_title
;
Structure prediction by ZEFSAII (Michael W. Deem and Ramdas Pophale) SiO2 
 PCOD8033746
Probable space group: P -1
;
_chemical_formula_sum "Si O2"
_cell_formula_units_Z 14
_cell_length_a 18.032996
_cell_length_b 8.533188
_cell_length_c 6.659868
_cell_angle_alpha 86.074824
_cell_angle_beta 91.706825
_cell_angle_gamma 140.037877
_cell_volume 656.262737
_symmetry_space_group_name_H-M "P -1"
_symmetry_group_IT_number 2
_symmetry_cell_setting 'triclinic'
loop_
_space_group_symop_operation_xyz
x,y,z
-x,-y,-z
loop_
_atom_site_type_symbol
_atom_site_label
_atom_site_fract_x
_atom_site_fract_y
_atom_site_fract_z
Si Si1 0.761187 0.543924 0.576198
Si Si2 0.444284 0.757995 0.111699
Si Si3 0.593332 0.757792 0.368608
Si Si4 0.809063 0.269075 0.511143
Si Si5 0.986553 0.417546 0.786651
Si Si6 0.297971 0.344941 0.823078
Si Si7 0.089724 0.046161 0.127355
O O1 0.655542 0.349518 0.736418
O O2 0.794116 0.432023 0.490418
O O3 0.728707 0.607545 0.388643
O O4 0.867479 0.787586 0.690113
O O5 0.535788 0.805979 0.239451
O O6 0.400838 0.591854 0.931300
O O7 0.500000 0.000000 0.000000
O O8 0.500000 0.500000 0.500000
O O9 0.662487 0.765907 0.214631
O O10 0.685165 0.982056 0.511300
O O11 0.870898 0.319213 0.716255
O O12 0.895363 0.346603 0.338406
O O13 0.972826 0.209688 0.775304
O O14 0.000000 0.500000 0.000000
O O15 0.189347 0.155625 0.975238
O O16 0.000000 0.000000 0.000000
#
# Coordination Sequence:
#
# PCOD8033746 Si02
#       7
#     2   2   2   2   2   2   2
#     4  11  24  44  65  99 138 175 230 280 343 409
#     4  11  26  43  67  98 134 181 227 280 337 403
#     4  12  25  45  70  99 138 184 229 281 340 406
#     4  11  26  42  69  98 135 180 223 283 345 404
#     4  11  24  45  67  99 136 174 227 283 344 406
#     4  11  24  43  67  97 134 177 228 279 341 407
#     4  11  24  41  69  99 133 177 226 286 344 411
#
# _framework density 21.332917999999999
#
# number of rings (size 3 to 8) (size 9 to 14) (size 15 to 20)
#    0.000    0.857    1.429    4.714    4.000   10.286 
#    0.000    0.000    0.000    0.000    0.000    0.000 
#    0.000    0.000    0.000    0.000    0.000    0.000 
#
# Total GULP energy -173649.958714 kJ/mol
# GULP energy per Si atom -12403.568480 kJ/mol
# Density = 2.128436 g / cm^3
# Si number density = 21.332918 Si / 1000 Ang^3
#
#
#
# Elastic Constant Matrix: (Units=GPa)
#
#
# Indices 1 2 3 4 5 6 
#
# 1 112.5209 38.1434 25.4055 15.8165 15.3134 0.6599
# 2 38.1434 135.1984 47.0122 13.1651 8.5919 6.5534
# 3 25.4055 47.0122 115.3930 19.5803 13.6324 10.0043
# 4 15.8165 13.1651 19.5803 39.1500 -6.3199 8.4329
# 5 15.3134 8.5919 13.6324 -6.3199 45.0313 5.5153
# 6 0.6599 6.5534 10.0043 8.4329 5.5153 29.7943
#
#
#
# Elastic Compliance Matrix: (Units=1/GPa)
#
#
# Indices 1 2 3 4 5 6 
#
# 1 0.010977 -0.002367 -0.000394 -0.004642 -0.004118 0.002486
# 2 -0.002367 0.009220 -0.003097 -0.000414 0.000026 -0.000823
# 3 -0.000394 -0.003097 0.011296 -0.004715 -0.003213 -0.001174
# 4 -0.004642 -0.000414 -0.004715 0.033359 0.008907 -0.009314
# 5 -0.004118 0.000026 -0.003213 0.008907 0.026594 -0.006280
# 6 0.002486 -0.000823 -0.001174 -0.009314 -0.006280 0.037882
#
#
# Mechanical properties :
#
#
# Convention : Reuss Voigt Hill
#
# Bulk Modulus (GPa) = 50.56160 64.91496 57.73828
# Shear Modulus (GPa) = 33.86740 39.63184 36.74962
#
# Velocity S-wave (km/s) = 3.98875 4.31487 4.15501
# Velocity P-wave (km/s) = 6.70568 7.43772 7.08117
#
# Compressibility (1/GPa) = 0.01977785
#
# Stress axis : x y z
#
# Youngs Moduli (GPa) = 91.10118 108.46499 88.52988
#
# Poissons Ratio (x) = 0.25670 0.03487
# Poissons Ratio (y) = 0.21561 0.27413
# Poissons Ratio (z) = 0.03588 0.33586
#
# Static dielectric constant tensor:
#      x y z
#    x 3.944510 0.046180 -0.026790 
#    y 0.046180 3.962980 0.066500 
#    z -0.026790 0.066500 3.918720 
# 
# 
# High freq. dielectric constant tensor:
#      x y z
#    x 1.852770 0.002340 0.002650 
#    y 0.002340 1.849620 0.005500 
#    z 0.002650 0.005500 1.849180 
# 
# From -- ./inp_files/26742.got.cif
#   From: 2010.06.25/outbox.cif.g09.slc.cpg/sg2_14_cif.got.tgz:26742.got - 2010.06.27 13:26:56.
