data_PCOD8033450
_publ_section_title
;
Structure prediction by ZEFSAII (Michael W. Deem and Ramdas Pophale) SiO2 
 PCOD8033450
Probable space group: P -1
;
_chemical_formula_sum "Si O2"
_cell_formula_units_Z 16
_cell_length_a 8.701812
_cell_length_b 18.797486
_cell_length_c 11.328691
_cell_angle_alpha 32.624948
_cell_angle_beta 125.579348
_cell_angle_gamma 137.517109
_cell_volume 670.791638
_symmetry_space_group_name_H-M "P -1"
_symmetry_group_IT_number 2
_symmetry_cell_setting 'triclinic'
loop_
_space_group_symop_operation_xyz
x,y,z
-x,-y,-z
loop_
_atom_site_type_symbol
_atom_site_label
_atom_site_fract_x
_atom_site_fract_y
_atom_site_fract_z
Si Si1 0.144364 0.290771 0.991297
Si Si2 0.859484 0.206862 0.459698
Si Si3 0.408679 0.648183 0.536517
Si Si4 0.258995 0.871028 0.128501
Si Si5 0.427359 0.190345 0.375275
Si Si6 0.675767 0.668774 0.401014
Si Si7 0.175804 0.819587 0.788205
Si Si8 0.342411 0.081793 0.087030
O O1 0.260544 0.458535 0.743823
O O2 0.943177 0.155480 0.007632
O O3 0.332362 0.251096 0.147998
O O4 0.040321 0.293283 0.067248
O O5 0.677937 0.242222 0.375319
O O6 0.901963 0.247010 0.284828
O O7 0.098350 0.322275 0.473429
O O8 0.760251 0.017068 0.697756
O O9 0.238856 0.705246 0.365451
O O10 0.562328 0.727927 0.610378
O O11 0.573445 0.704228 0.418411
O O12 0.243570 0.933646 0.160059
O O13 0.500000 0.000000 0.000000
O O14 0.253891 0.001592 0.579435
O O15 0.500000 0.500000 0.500000
O O16 0.744346 0.806779 0.141169
O O17 0.382296 0.806185 0.941198
#
# Coordination Sequence:
#
# PCOD8033450 Si02
#       8
#     2   2   2   2   2   2   2   2
#     4  12  26  40  73 109 145 187 238 293 360 417
#     4  11  26  47  74 102 145 190 240 293 352 424
#     4  12  25  47  71 106 148 185 240 297 357 426
#     4  12  22  45  76 107 136 189 241 304 345 419
#     4  11  24  46  71 104 142 191 246 285 350 429
#     4  12  29  47  70 108 148 186 233 298 370 423
#     4  11  23  46  72 106 143 187 238 297 349 424
#     4  11  23  46  75 104 139 184 247 290 357 423
#
# _framework density 23.852412999999999
#
# number of rings (size 3 to 8) (size 9 to 14) (size 15 to 20)
#    0.000    0.500    5.000    3.750    3.500    4.000 
#    0.000    1.875    0.000    0.000    0.000    0.000 
#    0.000    0.000    0.000    0.000    0.000    0.000 
#
# Total GULP energy -198497.434158 kJ/mol
# GULP energy per Si atom -12406.089635 kJ/mol
# Density = 2.379812 g / cm^3
# Si number density = 23.852413 Si / 1000 Ang^3
#
#
#
# Elastic Constant Matrix: (Units=GPa)
#
#
# Indices 1 2 3 4 5 6 
#
# 1 63.8933 28.6328 23.3458 14.4631 3.8103 14.0002
# 2 28.6328 125.8973 41.4959 27.4836 24.1705 19.3803
# 3 23.3458 41.4959 105.2542 22.5335 7.6948 11.9462
# 4 14.4631 27.4836 22.5335 44.0075 6.6225 4.7482
# 5 3.8103 24.1705 7.6948 6.6225 37.2083 4.2555
# 6 14.0002 19.3803 11.9462 4.7482 4.2555 30.8933
#
#
#
# Elastic Compliance Matrix: (Units=1/GPa)
#
#
# Indices 1 2 3 4 5 6 
#
# 1 0.019503 -0.002277 -0.002073 -0.003438 0.001238 -0.006250
# 2 -0.002277 0.011898 -0.002415 -0.004135 -0.005795 -0.004064
# 3 -0.002073 -0.002415 0.011883 -0.003750 0.000173 -0.001588
# 4 -0.003438 -0.004135 -0.003750 0.028413 -0.001407 0.001428
# 5 0.001238 -0.005795 0.000173 -0.001407 0.030846 -0.001025
# 6 -0.006250 -0.004064 -0.001588 0.001428 -0.001025 0.038287
#
#
# Mechanical properties :
#
#
# Convention : Reuss Voigt Hill
#
# Bulk Modulus (GPa) = 33.61065 53.55486 43.58276
# Shear Modulus (GPa) = 30.43605 35.85985 33.14795
#
# Velocity S-wave (km/s) = 3.57601 3.88158 3.73193
# Velocity P-wave (km/s) = 5.58320 6.52612 6.07299
#
# Compressibility (1/GPa) = 0.02975247
#
# Stress axis : x y z
#
# Youngs Moduli (GPa) = 51.27406 84.04861 84.15222
#
# Poissons Ratio (x) = 0.19140 0.17446
# Poissons Ratio (y) = 0.11676 0.20327
# Poissons Ratio (z) = 0.10630 0.20302
#
# Static dielectric constant tensor:
#      x y z
#    x 4.308690 -0.009340 -0.076120 
#    y -0.009340 4.252890 0.353960 
#    z -0.076120 0.353960 4.431180 
# 
# 
# High freq. dielectric constant tensor:
#      x y z
#    x 1.942580 0.002840 -0.006430 
#    y 0.002840 1.948330 0.021350 
#    z -0.006430 0.021350 1.950090 
# 
# From -- ./inp_files/398344.got.cif
#   From: 2010.06.25/outbox.cif.g09.slc.cpg/sg2_200_cif.got.tgz:398344.got - 2010.06.27 13:26:56.
