data_PCOD8033631
_publ_section_title
;
Structure prediction by ZEFSAII (Michael W. Deem and Ramdas Pophale) SiO2 
 PCOD8033631
Probable space group: P -1
;
_chemical_formula_sum "Si O2"
_cell_formula_units_Z 16
_cell_length_a 8.875399
_cell_length_b 20.279779
_cell_length_c 9.091945
_cell_angle_alpha 59.100810
_cell_angle_beta 102.395434
_cell_angle_gamma 53.058760
_cell_volume 725.447589
_symmetry_space_group_name_H-M "P -1"
_symmetry_group_IT_number 2
_symmetry_cell_setting 'triclinic'
loop_
_space_group_symop_operation_xyz
x,y,z
-x,-y,-z
loop_
_atom_site_type_symbol
_atom_site_label
_atom_site_fract_x
_atom_site_fract_y
_atom_site_fract_z
Si Si1 0.194196 0.688682 0.366447
Si Si2 0.275021 0.306412 0.406640
Si Si3 0.189454 0.129514 0.363587
Si Si4 0.876176 0.386510 0.836125
Si Si5 0.818817 0.139607 0.217542
Si Si6 0.210852 0.853241 0.129349
Si Si7 0.257638 0.141134 0.685422
Si Si8 0.240225 0.373112 0.003357
O O1 0.539610 0.540142 0.627156
O O2 0.079488 0.678243 0.231570
O O3 0.087621 0.818849 0.151502
O O4 0.050842 0.726010 0.447980
O O5 0.474394 0.278005 0.578362
O O6 0.344404 0.190388 0.601155
O O7 0.356409 0.283419 0.278928
O O8 0.940258 0.473387 0.171476
O O9 0.226446 0.102955 0.576423
O O10 0.999368 0.141287 0.245058
O O11 0.500000 0.000000 0.500000
O O12 0.020019 0.280304 0.123776
O O13 0.039296 0.398831 0.840052
O O14 0.510836 0.285499 0.063116
O O15 0.760022 0.133776 0.048321
O O16 0.000000 0.000000 0.500000
O O17 0.000000 0.000000 0.000000
O O18 0.500000 0.000000 0.000000
#
# Coordination Sequence:
#
# PCOD8033631 Si02
#       8
#     2   2   2   2   2   2   2   2
#     4  11  26  45  73 105 138 185 234 283 354 408
#     4  11  26  45  70 106 143 184 226 293 353 408
#     4  12  27  48  71  98 142 184 235 289 342 411
#     4  11  23  49  72 100 142 184 230 294 341 413
#     4  12  29  45  72 104 134 190 233 282 348 420
#     4  12  26  46  69 101 146 181 231 288 346 414
#     4  12  28  44  72 103 139 188 234 288 346 421
#     4  11  25  48  73 102 143 182 232 288 351 415
#
# _framework density 22.055349
#
# number of rings (size 3 to 8) (size 9 to 14) (size 15 to 20)
#    0.000    0.500    3.750    3.000   10.500    1.000 
#    0.000    0.000    0.000    0.000    0.000    0.000 
#    0.000    0.000    0.000    0.000    0.000    0.000 
#
# Total GULP energy -198519.898792 kJ/mol
# GULP energy per Si atom -12407.493674 kJ/mol
# Density = 2.200515 g / cm^3
# Si number density = 22.055349 Si / 1000 Ang^3
#
#
#
# Elastic Constant Matrix: (Units=GPa)
#
#
# Indices 1 2 3 4 5 6 
#
# 1 105.1368 47.5362 33.4273 -2.2722 8.6325 -4.9101
# 2 47.5362 165.0956 57.3068 11.0758 7.9288 -22.0644
# 3 33.4273 57.3068 114.6848 8.3848 -2.6897 -4.7912
# 4 -2.2722 11.0758 8.3848 41.9441 5.2266 -0.6473
# 5 8.6325 7.9288 -2.6897 5.2266 42.9591 -4.6992
# 6 -4.9101 -22.0644 -4.7912 -0.6473 -4.6992 40.8801
#
#
#
# Elastic Compliance Matrix: (Units=1/GPa)
#
#
# Indices 1 2 3 4 5 6 
#
# 1 0.011652 -0.002658 -0.002296 0.002071 -0.002305 -0.000536
# 2 -0.002658 0.008609 -0.003262 -0.001626 -0.000641 0.003845
# 3 -0.002296 -0.003262 0.011169 -0.001743 0.001916 -0.000535
# 4 0.002071 -0.001626 -0.001743 0.025139 -0.003374 -0.000823
# 5 -0.002305 -0.000641 0.001916 -0.003374 0.024650 0.002382
# 6 -0.000536 0.003845 -0.000535 -0.000823 0.002382 0.026671
#
#
# Mechanical properties :
#
#
# Convention : Reuss Voigt Hill
#
# Bulk Modulus (GPa) = 66.68013 73.49529 70.08771
# Shear Modulus (GPa) = 38.66328 41.59979 40.13154
#
# Velocity S-wave (km/s) = 4.19144 4.34770 4.27028
# Velocity P-wave (km/s) = 7.32959 7.65498 7.49406
#
# Compressibility (1/GPa) = 0.01499697
#
# Stress axis : x y z
#
# Youngs Moduli (GPa) = 85.82092 116.16316 89.53376
#
# Poissons Ratio (x) = 0.30876 0.20557
# Poissons Ratio (y) = 0.22811 0.29210
# Poissons Ratio (z) = 0.19705 0.37897
#
# Static dielectric constant tensor:
#      x y z
#    x -0.138510 -0.988170 -0.014710 
#    y -0.988170 3.803870 0.063910 
#    z -0.014710 0.063910 4.144280 
# 
# 
# High freq. dielectric constant tensor:
#      x y z
#    x 1.869040 0.006520 0.002200 
#    y 0.006520 1.880310 -0.000390 
#    z 0.002200 -0.000390 1.881140 
# 
# From -- ./inp_files/223456.got.cif
#   From: 2010.06.25/outbox.cif.g09.slc.cpg/sg2_112_cif.got.tgz:223456.got - 2010.06.27 13:26:56.
