data_PCOD8033508
_publ_section_title
;
Structure prediction by ZEFSAII (Michael W. Deem and Ramdas Pophale) SiO2 
 PCOD8033508
Probable space group: P -1
;
_chemical_formula_sum "Si O2"
_cell_formula_units_Z 16
_cell_length_a 21.893225
_cell_length_b 12.717017
_cell_length_c 12.645679
_cell_angle_alpha 35.832025
_cell_angle_beta 151.470762
_cell_angle_gamma 155.164207
_cell_volume 704.698472
_symmetry_space_group_name_H-M "P -1"
_symmetry_group_IT_number 2
_symmetry_cell_setting 'triclinic'
loop_
_space_group_symop_operation_xyz
x,y,z
-x,-y,-z
loop_
_atom_site_type_symbol
_atom_site_label
_atom_site_fract_x
_atom_site_fract_y
_atom_site_fract_z
Si Si1 0.188691 0.186304 0.433071
Si Si2 0.678173 0.245091 0.125419
Si Si3 0.346926 0.649223 0.778123
Si Si4 0.447140 0.404076 0.237114
Si Si5 0.584393 0.899440 0.741141
Si Si6 0.192869 0.224903 0.159462
Si Si7 0.994277 0.365077 0.002597
Si Si8 0.967368 0.337280 0.368119
O O1 0.375138 0.339664 0.650704
O O2 0.201207 0.181157 0.330162
O O3 0.070240 0.905079 0.525818
O O4 0.111415 0.303773 0.252664
O O5 0.628349 0.187549 0.220922
O O6 0.842137 0.269186 0.332145
O O7 0.738442 0.502873 0.970465
O O8 0.500000 0.000000 0.000000
O O9 0.519646 0.795572 0.846205
O O10 0.176805 0.551506 0.535018
O O11 0.320870 0.427793 0.969029
O O12 0.496650 0.308424 0.302395
O O13 0.325781 0.219713 0.301904
O O14 0.500000 0.000000 0.500000
O O15 0.796393 0.102402 0.891470
O O16 0.000000 0.000000 0.000000
O O17 0.075895 0.559989 0.871950
O O18 0.000000 0.500000 0.000000
#
# Coordination Sequence:
#
# PCOD8033508 Si02
#       8
#     2   2   2   2   2   2   2   2
#     4  12  26  47  76 107 148 191 241 307 364 433
#     4  11  25  45  75 111 148 186 245 313 368 434
#     4  11  25  46  71 104 144 190 245 296 363 441
#     4  11  26  45  71 106 143 192 240 300 364 437
#     4  12  25  46  70 102 145 193 239 298 366 431
#     4  11  23  46  76 106 148 192 246 305 372 436
#     4  12  28  48  74 107 148 190 246 301 360 442
#     4  12  25  48  77 108 143 192 245 299 372 429
#
# _framework density 22.704744999999999
#
# number of rings (size 3 to 8) (size 9 to 14) (size 15 to 20)
#    0.000    0.500    2.500    6.375    3.500    2.500 
#    0.000    0.000    0.000    0.000    0.000    0.000 
#    0.000    0.000    0.000    0.000    0.000    0.000 
#
# Total GULP energy -198364.060562 kJ/mol
# GULP energy per Si atom -12397.753785 kJ/mol
# Density = 2.265307 g / cm^3
# Si number density = 22.704745 Si / 1000 Ang^3
#
#
#
# Elastic Constant Matrix: (Units=GPa)
#
#
# Indices 1 2 3 4 5 6 
#
# 1 159.3598 42.3068 21.8499 -2.0934 3.7886 -10.4798
# 2 42.3068 128.2988 28.3273 3.8755 -9.7767 -4.6539
# 3 21.8499 28.3273 76.9646 -2.3081 12.5088 -3.8763
# 4 -2.0934 3.8755 -2.3081 36.2376 -8.7667 2.1656
# 5 3.7886 -9.7767 12.5088 -8.7667 32.1741 4.2441
# 6 -10.4798 -4.6539 -3.8763 2.1656 4.2441 36.4907
#
#
#
# Elastic Compliance Matrix: (Units=1/GPa)
#
#
# Indices 1 2 3 4 5 6 
#
# 1 0.007136 -0.002196 -0.000901 0.000153 -0.001356 0.001822
# 2 -0.002196 0.009687 -0.003716 -0.000264 0.004616 -0.000311
# 3 -0.000901 -0.003716 0.015933 -0.000598 -0.007629 0.001883
# 4 0.000153 -0.000264 -0.000598 0.029854 0.008642 -0.002830
# 5 -0.001356 0.004616 -0.007629 0.008642 0.038706 -0.005626
# 6 0.001822 -0.000311 0.001883 -0.002830 -0.005626 0.028910
#
#
# Mechanical properties :
#
#
# Convention : Reuss Voigt Hill
#
# Bulk Modulus (GPa) = 52.27146 61.06569 56.66858
# Shear Modulus (GPa) = 33.28253 39.12310 36.20281
#
# Velocity S-wave (km/s) = 3.83284 4.15556 3.99746
# Velocity P-wave (km/s) = 6.53145 7.06957 6.80583
#
# Compressibility (1/GPa) = 0.01913090
#
# Stress axis : x y z
#
# Youngs Moduli (GPa) = 140.14092 103.22791 62.76222
#
# Poissons Ratio (x) = 0.22668 0.05654
# Poissons Ratio (y) = 0.30774 0.23321
# Poissons Ratio (z) = 0.12624 0.38358
#
# Static dielectric constant tensor:
#      x y z
#    x 3.812670 -0.050340 0.060560 
#    y -0.050340 3.966750 -0.108010 
#    z 0.060560 -0.108010 4.104920 
# 
# 
# High freq. dielectric constant tensor:
#      x y z
#    x 1.916040 -0.003440 0.004140 
#    y -0.003440 1.898160 0.002100 
#    z 0.004140 0.002100 1.899050 
# 
# From -- ./inp_files/471145.got.cif
#   From: 2010.06.25/outbox.cif.g09.slc.cpg/sg2_236_cif.got.tgz:471145.got - 2010.06.27 13:26:56.
