data_PCOD8033092
_publ_section_title
;
Structure prediction by ZEFSAII (Michael W. Deem and Ramdas Pophale) SiO2 
 PCOD8033092
Probable space group: P -1
;
_chemical_formula_sum "Si O2"
_cell_formula_units_Z 14
_cell_length_a 11.628334
_cell_length_b 9.266852
_cell_length_c 9.029097
_cell_angle_alpha 46.825391
_cell_angle_beta 70.163085
_cell_angle_gamma 68.559451
_cell_volume 654.716328
_symmetry_space_group_name_H-M "P -1"
_symmetry_group_IT_number 2
_symmetry_cell_setting 'triclinic'
loop_
_space_group_symop_operation_xyz
x,y,z
-x,-y,-z
loop_
_atom_site_type_symbol
_atom_site_label
_atom_site_fract_x
_atom_site_fract_y
_atom_site_fract_z
Si Si1 0.181056 0.742373 0.461453
Si Si2 0.762069 0.121530 0.345774
Si Si3 0.123656 0.404060 0.924249
Si Si4 0.608990 0.806384 0.585244
Si Si5 0.633401 0.557124 0.042818
Si Si6 0.013228 0.047640 0.131154
Si Si7 0.424495 0.537524 0.357745
O O1 0.212509 0.877985 0.489458
O O2 0.144912 0.540638 0.681017
O O3 0.297167 0.695594 0.331053
O O4 0.062315 0.848135 0.345099
O O5 0.653468 0.311459 0.213167
O O6 0.881326 0.156810 0.177547
O O7 0.732608 0.903608 0.470706
O O8 0.245245 0.369672 0.999217
O O9 0.000000 0.500000 0.000000
O O10 0.112387 0.191442 0.008219
O O11 0.606607 0.677517 0.528325
O O12 0.500000 0.000000 0.500000
O O13 0.604993 0.645705 0.830433
O O14 0.508795 0.636442 0.136924
O O15 0.000000 0.000000 0.000000
O O16 0.500000 0.500000 0.500000
#
# Coordination Sequence:
#
# PCOD8033092 Si02
#       7
#     2   2   2   2   2   2   2
#     4  11  25  46  69  97 142 180 223 281 334 402
#     4  11  24  46  69  98 136 178 230 277 337 400
#     4  11  23  44  73  97 131 183 226 272 344 395
#     4  12  26  42  71 101 133 180 226 273 343 398
#     4  11  24  45  74  96 136 176 226 278 338 397
#     4  12  28  42  67 105 140 175 230 278 336 404
#     4  12  24  47  69 100 139 175 226 280 335 404
#
# _framework density 21.383306999999999
#
# number of rings (size 3 to 8) (size 9 to 14) (size 15 to 20)
#    0.000    0.571    7.143    1.714    6.000    0.571 
#    0.000    2.143    0.000    0.000    0.000    0.000 
#    0.000    0.000    0.000    0.000    0.000    0.000 
#
# Total GULP energy -173634.443167 kJ/mol
# GULP energy per Si atom -12402.460226 kJ/mol
# Density = 2.133464 g / cm^3
# Si number density = 21.383307 Si / 1000 Ang^3
#
#
#
# Elastic Constant Matrix: (Units=GPa)
#
#
# Indices 1 2 3 4 5 6 
#
# 1 82.2682 50.4482 41.9978 17.4901 -3.0670 6.0362
# 2 50.4482 120.5586 33.4055 20.1310 -3.4043 18.5398
# 3 41.9978 33.4055 105.8657 8.9632 12.4437 6.9661
# 4 17.4901 20.1310 8.9632 23.1321 -2.5458 -8.3366
# 5 -3.0670 -3.4043 12.4437 -2.5458 51.1969 0.8306
# 6 6.0362 18.5398 6.9661 -8.3366 0.8306 52.0013
#
#
#
# Elastic Compliance Matrix: (Units=1/GPa)
#
#
# Indices 1 2 3 4 5 6 
#
# 1 0.020347 -0.005192 -0.005829 -0.008824 0.001871 -0.001174
# 2 -0.005192 0.013080 -0.001009 -0.008951 0.000446 -0.005368
# 3 -0.005829 -0.001009 0.012539 -0.000177 -0.003463 -0.000617
# 4 -0.008824 -0.008951 -0.000177 0.063126 0.001826 0.014330
# 5 0.001871 0.000446 -0.003463 0.001826 0.020606 0.000051
# 6 -0.001174 -0.005368 -0.000617 0.014330 0.000051 0.023659
#
#
# Mechanical properties :
#
#
# Convention : Reuss Voigt Hill
#
# Bulk Modulus (GPa) = 45.64944 62.26616 53.95780
# Shear Modulus (GPa) = 27.06815 37.45545 32.26180
#
# Velocity S-wave (km/s) = 3.56174 4.18978 3.88846
# Velocity P-wave (km/s) = 6.18944 7.25175 6.74155
#
# Compressibility (1/GPa) = 0.02190607
#
# Stress axis : x y z
#
# Youngs Moduli (GPa) = 49.14758 76.45446 79.75005
#
# Poissons Ratio (x) = 0.39696 0.46485
# Poissons Ratio (y) = 0.25518 0.08045
# Poissons Ratio (z) = 0.28647 0.07713
#
# Static dielectric constant tensor:
#      x y z
#    x 3.909550 0.160400 -0.046650 
#    y 0.160400 4.147060 0.006370 
#    z -0.046650 0.006370 3.747680 
# 
# 
# High freq. dielectric constant tensor:
#      x y z
#    x 1.859260 0.004460 -0.006780 
#    y 0.004460 1.834600 0.001850 
#    z -0.006780 0.001850 1.837500 
# 
# From -- ./inp_files/175738.got.cif
#   From: 2010.06.25/outbox.cif.g09.slc.cpg/sg2_88_cif.got.tgz:175738.got - 2010.06.27 13:26:56.
