data_PCOD8033765
_publ_section_title
;
Structure prediction by ZEFSAII (Michael W. Deem and Ramdas Pophale) SiO2 
 PCOD8033765
Probable space group: P -1
;
_chemical_formula_sum "Si O2"
_cell_formula_units_Z 12
_cell_length_a 4.970948
_cell_length_b 6.121159
_cell_length_c 22.398342
_cell_angle_alpha 52.471683
_cell_angle_beta 84.157466
_cell_angle_gamma 97.026073
_cell_volume 522.804042
_symmetry_space_group_name_H-M "P -1"
_symmetry_group_IT_number 2
_symmetry_cell_setting 'triclinic'
loop_
_space_group_symop_operation_xyz
x,y,z
-x,-y,-z
loop_
_atom_site_type_symbol
_atom_site_label
_atom_site_fract_x
_atom_site_fract_y
_atom_site_fract_z
Si Si1 0.125432 0.626580 0.841275
Si Si2 0.518280 0.677576 0.410444
Si Si3 0.472234 0.848574 0.204121
Si Si4 0.054573 0.613895 0.342205
Si Si5 0.301406 0.699919 0.693589
Si Si6 0.448995 0.743565 0.089055
O O1 0.139741 0.702598 0.758716
O O2 0.276866 0.374438 0.893404
O O3 0.804055 0.508413 0.886295
O O4 0.257126 0.901088 0.832166
O O5 0.500000 0.500000 0.500000
O O6 0.268560 0.522488 0.398718
O O7 0.817142 0.716529 0.366298
O O8 0.485713 0.995793 0.371907
O O9 0.221230 0.870590 0.251951
O O10 0.532282 0.545650 0.269478
O O11 0.375577 0.856734 0.136636
O O12 0.919761 0.346902 0.347841
O O13 0.500000 0.000000 0.000000
#
# Coordination Sequence:
#
# PCOD8033765 Si02
#       6
#     2   2   2   2   2   2
#     4  11  24  41  71  96 138 179 230 278 331 402
#     4  12  29  46  68 103 141 176 224 289 347 397
#     4  11  25  43  73 103 131 185 236 274 335 406
#     4  12  24  45  69  98 134 178 232 275 339 409
#     4  11  24  43  73  97 137 175 238 277 334 406
#     4  11  26  44  67 105 142 176 222 284 342 395
#
# _framework density 22.953149
#
# number of rings (size 3 to 8) (size 9 to 14) (size 15 to 20)
#    0.000    0.667    5.000    1.000    7.000    2.667 
#    0.000    0.000    0.000    0.000    0.000    0.000 
#    0.000    0.000    0.000    0.000    0.000    0.000 
#
# Total GULP energy -148838.280387 kJ/mol
# GULP energy per Si atom -12403.190032 kJ/mol
# Density = 2.290091 g / cm^3
# Si number density = 22.953149 Si / 1000 Ang^3
#
#
#
# Elastic Constant Matrix: (Units=GPa)
#
#
# Indices 1 2 3 4 5 6 
#
# 1 102.9791 29.9163 44.5738 13.8599 -1.4228 20.3826
# 2 29.9163 107.6351 72.8425 0.6689 -2.0770 24.6075
# 3 44.5738 72.8425 167.7808 1.2555 14.6410 11.8776
# 4 13.8599 0.6689 1.2555 33.1184 8.8243 1.0223
# 5 -1.4228 -2.0770 14.6410 8.8243 31.3547 2.8558
# 6 20.3826 24.6075 11.8776 1.0223 2.8558 35.2344
#
#
#
# Elastic Compliance Matrix: (Units=1/GPa)
#
#
# Indices 1 2 3 4 5 6 
#
# 1 0.013529 0.000498 -0.003681 -0.006611 0.004877 -0.007137
# 2 0.000498 0.016187 -0.006957 -0.001476 0.005639 -0.009662
# 3 -0.003681 -0.006957 0.010229 0.002926 -0.006591 0.003989
# 4 -0.006611 -0.001476 0.002926 0.036027 -0.012251 0.003816
# 5 0.004877 0.005639 -0.006591 -0.012251 0.039687 -0.007398
# 6 -0.007137 -0.009662 0.003989 0.003816 -0.007398 0.038402
#
#
# Mechanical properties :
#
#
# Convention : Reuss Voigt Hill
#
# Bulk Modulus (GPa) = 50.85187 74.78447 62.81817
# Shear Modulus (GPa) = 27.63984 35.34567 31.49276
#
# Velocity S-wave (km/s) = 3.47390 3.92842 3.70813
# Velocity P-wave (km/s) = 6.18817 7.29580 6.76469
#
# Compressibility (1/GPa) = 0.01966496
#
# Stress axis : x y z
#
# Youngs Moduli (GPa) = 73.91396 61.77634 97.75739
#
# Poissons Ratio (x) = -0.03074 0.35986
# Poissons Ratio (y) = -0.03678 0.68010
# Poissons Ratio (z) = 0.27209 0.42978
#
# Static dielectric constant tensor:
#      x y z
#    x 4.188920 0.188350 0.012330 
#    y 0.188350 4.358320 0.153180 
#    z 0.012330 0.153180 4.058270 
# 
# 
# High freq. dielectric constant tensor:
#      x y z
#    x 1.913610 0.014190 0.003880 
#    y 0.014190 1.910500 0.007530 
#    z 0.003880 0.007530 1.893660 
# 
# From -- ./inp_files/5279.got.cif
#   From: 2010.06.25/outbox.cif.g09.slc.cpg/sg2_3_cif.got.tgz:5279.got - 2010.06.27 13:26:56.
