data_PCOD8033192
_publ_section_title
;
Structure prediction by ZEFSAII (Michael W. Deem and Ramdas Pophale) SiO2 
 PCOD8033192
Probable space group: P -1
;
_chemical_formula_sum "Si O2"
_cell_formula_units_Z 14
_cell_length_a 7.436199
_cell_length_b 13.059582
_cell_length_c 18.509272
_cell_angle_alpha 21.039596
_cell_angle_beta 107.095228
_cell_angle_gamma 108.699377
_cell_volume 611.189273
_symmetry_space_group_name_H-M "P -1"
_symmetry_group_IT_number 2
_symmetry_cell_setting 'triclinic'
loop_
_space_group_symop_operation_xyz
x,y,z
-x,-y,-z
loop_
_atom_site_type_symbol
_atom_site_label
_atom_site_fract_x
_atom_site_fract_y
_atom_site_fract_z
Si Si1 0.208813 0.853537 0.523549
Si Si2 0.935598 0.765718 0.020154
Si Si3 0.003713 0.799169 0.842220
Si Si4 0.340357 0.222241 0.580664
Si Si5 0.658713 0.216877 0.713243
Si Si6 0.619213 0.743872 0.602548
Si Si7 0.632208 0.098667 0.017930
O O1 0.110257 0.542826 0.743920
O O2 0.415941 0.845232 0.520955
O O3 0.774486 0.925690 0.552589
O O4 0.091749 0.971420 0.367401
O O5 0.148090 0.911015 0.969060
O O6 0.903590 0.741766 0.945993
O O7 0.798930 0.982077 0.892748
O O8 0.223277 0.932564 0.791514
O O9 0.000000 0.500000 0.000000
O O10 0.572293 0.251333 0.599761
O O11 0.250473 0.491162 0.429211
O O12 0.301066 0.212360 0.497470
O O13 0.448892 0.127874 0.782196
O O14 0.605435 0.410572 0.840244
O O15 0.500000 0.000000 0.000000
#
# Coordination Sequence:
#
# PCOD8033192 Si02
#       7
#     2   2   2   2   2   2   2
#     4  11  26  44  72 108 137 189 240 287 352 420
#     4  12  26  47  76 104 143 186 235 291 352 420
#     4  12  26  45  72 105 142 186 235 289 351 417
#     4  11  24  45  70  99 144 184 230 297 348 414
#     4  11  25  46  69 105 139 183 237 286 353 418
#     4  11  23  45  69 100 146 179 235 297 344 415
#     4  12  24  44  70 101 142 185 229 292 350 412
#
# _framework density 22.906161999999998
#
# number of rings (size 3 to 8) (size 9 to 14) (size 15 to 20)
#    0.000    0.571    4.286    3.429    0.000    4.000 
#    0.000    3.571    0.000    0.000    0.000    0.000 
#    0.000    0.000    0.000    0.000    0.000    0.000 
#
# Total GULP energy -173569.579342 kJ/mol
# GULP energy per Si atom -12397.827096 kJ/mol
# Density = 2.285403 g / cm^3
# Si number density = 22.906162 Si / 1000 Ang^3
#
#
#
# Elastic Constant Matrix: (Units=GPa)
#
#
# Indices 1 2 3 4 5 6 
#
# 1 94.5832 39.3722 39.5604 -9.7192 4.3721 14.3965
# 2 39.3722 112.8923 41.7664 -11.0075 5.3440 8.8666
# 3 39.5604 41.7664 134.6351 -14.3227 4.3142 1.0693
# 4 -9.7192 -11.0075 -14.3227 48.3934 2.8901 -2.9559
# 5 4.3721 5.3440 4.3142 2.8901 40.2003 3.3842
# 6 14.3965 8.8666 1.0693 -2.9559 3.3842 32.0024
#
#
#
# Elastic Compliance Matrix: (Units=1/GPa)
#
#
# Indices 1 2 3 4 5 6 
#
# 1 0.014090 -0.003301 -0.002965 0.000908 -0.000403 -0.005198
# 2 -0.003301 0.011124 -0.002321 0.001150 -0.000842 -0.001324
# 3 -0.002965 -0.002321 0.009211 0.001757 -0.000644 0.001900
# 4 0.000908 0.001150 0.001757 0.021844 -0.002133 0.001458
# 5 -0.000403 -0.000842 -0.000644 -0.002133 0.025460 -0.002453
# 6 -0.005198 -0.001324 0.001900 0.001458 -0.002453 0.034284
#
#
# Mechanical properties :
#
#
# Convention : Reuss Voigt Hill
#
# Bulk Modulus (GPa) = 57.96947 64.83429 61.40188
# Shear Modulus (GPa) = 35.98695 38.87998 37.43346
#
# Velocity S-wave (km/s) = 3.96796 4.12437 4.04692
# Velocity P-wave (km/s) = 6.80847 7.14467 6.97860
#
# Compressibility (1/GPa) = 0.01725046
#
# Stress axis : x y z
#
# Youngs Moduli (GPa) = 70.97052 89.89582 108.56205
#
# Poissons Ratio (x) = 0.29676 0.32193
# Poissons Ratio (y) = 0.23429 0.25198
# Poissons Ratio (z) = 0.21045 0.20866
#
# Static dielectric constant tensor:
#      x y z
#    x 4.114040 -0.017880 -0.203490 
#    y -0.017880 4.690400 0.354370 
#    z -0.203490 0.354370 4.490880 
# 
# 
# High freq. dielectric constant tensor:
#      x y z
#    x 1.899320 0.010880 -0.002970 
#    y 0.010880 1.925470 0.003130 
#    z -0.002970 0.003130 1.917120 
# 
# From -- ./inp_files/119442.got.cif
#   From: 2010.06.25/outbox.cif.g09.slc.cpg/sg2_60_cif.got.tgz:119442.got - 2010.06.27 13:26:56.
