data_PCOD8033886
_publ_section_title
;
Structure prediction by ZEFSAII (Michael W. Deem and Ramdas Pophale) SiO2 
 PCOD8033886
Probable space group: P -1
;
_chemical_formula_sum "Si O2"
_cell_formula_units_Z 16
_cell_length_a 6.734936
_cell_length_b 23.732825
_cell_length_c 8.439263
_cell_angle_alpha 132.260169
_cell_angle_beta 124.125993
_cell_angle_gamma 45.271609
_cell_volume 699.323356
_symmetry_space_group_name_H-M "P -1"
_symmetry_group_IT_number 2
_symmetry_cell_setting 'triclinic'
loop_
_space_group_symop_operation_xyz
x,y,z
-x,-y,-z
loop_
_atom_site_type_symbol
_atom_site_label
_atom_site_fract_x
_atom_site_fract_y
_atom_site_fract_z
Si Si1 0.591656 0.352553 0.345346
Si Si2 0.757593 0.542024 0.342685
Si Si3 0.793174 0.960777 0.144241
Si Si4 0.187656 0.315160 0.564785
Si Si5 0.291993 0.095934 0.665569
Si Si6 0.905649 0.578654 0.983859
Si Si7 0.333124 0.834314 0.949684
Si Si8 0.260589 0.864165 0.618144
O O1 0.525346 0.413660 0.591907
O O2 0.376937 0.404257 0.201215
O O3 0.909116 0.321409 0.379581
O O4 0.555141 0.270139 0.217168
O O5 0.754866 0.619039 0.384024
O O6 0.000000 0.500000 0.500000
O O7 0.832252 0.458819 0.098404
O O8 0.791350 0.914669 0.216591
O O9 0.038928 0.883053 0.001574
O O10 0.838975 0.043393 0.346179
O O11 0.500000 0.000000 0.000000
O O12 0.450220 0.214196 0.476379
O O13 0.154981 0.335357 0.778546
O O14 0.433812 0.155029 0.833753
O O15 0.996704 0.152683 0.544380
O O16 0.500000 0.000000 0.500000
O O17 0.000000 0.500000 0.000000
O O18 0.296951 0.878487 0.845343
#
# Coordination Sequence:
#
# PCOD8033886 Si02
#       8
#     2   2   2   2   2   2   2   2
#     4  11  24  42  71  98 142 182 223 284 344 405
#     4   9  20  44  67  99 133 174 225 271 339 416
#     4  12  24  44  71  97 136 186 227 279 345 408
#     4  11  24  43  67 103 139 178 222 286 342 405
#     4  12  27  46  71  99 138 185 231 292 338 405
#     4   9  22  42  69 100 135 172 229 274 338 417
#     4  12  26  45  67 102 136 186 233 280 346 404
#     4  12  25  45  68 101 141 179 238 280 343 411
#
# _framework density 22.879258
#
# number of rings (size 3 to 8) (size 9 to 14) (size 15 to 20)
#    0.000    1.000    3.750    2.250    1.750    6.000 
#    0.000    2.500    0.000    0.000    0.000    0.000 
#    0.000    0.000    0.000    0.000    0.000    0.000 
#
# Total GULP energy -198343.782591 kJ/mol
# GULP energy per Si atom -12396.486412 kJ/mol
# Density = 2.282718 g / cm^3
# Si number density = 22.879258 Si / 1000 Ang^3
#
#
#
# Elastic Constant Matrix: (Units=GPa)
#
#
# Indices 1 2 3 4 5 6 
#
# 1 89.4108 29.7990 38.9187 1.6768 -13.8221 -29.9040
# 2 29.7990 83.8748 25.3268 -2.5893 -15.7499 -23.7379
# 3 38.9187 25.3268 103.6416 -2.1422 -21.2155 -22.9897
# 4 1.6768 -2.5893 -2.1422 33.1326 -15.8580 0.8581
# 5 -13.8221 -15.7499 -21.2155 -15.8580 45.1917 -1.0575
# 6 -29.9040 -23.7379 -22.9897 0.8581 -1.0575 46.4125
#
#
#
# Elastic Compliance Matrix: (Units=1/GPa)
#
#
# Indices 1 2 3 4 5 6 
#
# 1 0.016419 -0.002024 -0.003295 0.000007 0.002959 0.007979
# 2 -0.002024 0.015999 -0.000207 0.004284 0.006523 0.006845
# 3 -0.003295 -0.000207 0.013404 0.004142 0.006771 0.004488
# 4 0.000007 0.004284 0.004142 0.038907 0.017184 0.003919
# 5 0.002959 0.006523 0.006771 0.017184 0.034727 0.009070
# 6 0.007979 0.006845 0.004488 0.003919 0.009070 0.032545
#
#
# Mechanical properties :
#
#
# Convention : Reuss Voigt Hill
#
# Bulk Modulus (GPa) = 28.76249 51.66844 40.21547
# Shear Modulus (GPa) = 28.62976 37.13954 32.88465
#
# Velocity S-wave (km/s) = 3.54127 4.03337 3.79530
# Velocity P-wave (km/s) = 5.41475 6.65754 6.06805
#
# Compressibility (1/GPa) = 0.03476751
#
# Stress axis : x y z
#
# Youngs Moduli (GPa) = 60.90454 62.50508 74.60589
#
# Poissons Ratio (x) = 0.12654 0.24585
# Poissons Ratio (y) = 0.12330 0.01546
# Poissons Ratio (z) = 0.20070 0.01295
#
# Static dielectric constant tensor:
#      x y z
#    x 4.282230 -0.126610 -0.456470 
#    y -0.126610 4.135730 0.043320 
#    z -0.456470 0.043320 4.395330 
# 
# 
# High freq. dielectric constant tensor:
#      x y z
#    x 1.901770 -0.014060 -0.018660 
#    y -0.014060 1.907950 -0.003180 
#    z -0.018660 -0.003180 1.910590 
# 
# From -- ./inp_files/142696.got.cif
#   From: 2010.06.25/outbox.cif.g09.slc.cpg/sg2_72_cif.got.tgz:142696.got - 2010.06.27 13:26:56.
