data_PCOD8033177
_publ_section_title
;
Structure prediction by ZEFSAII (Michael W. Deem and Ramdas Pophale) SiO2 
 PCOD8033177
Probable space group: P -1
;
_chemical_formula_sum "Si O2"
_cell_formula_units_Z 16
_cell_length_a 9.505488
_cell_length_b 9.407584
_cell_length_c 11.434622
_cell_angle_alpha 49.269268
_cell_angle_beta 84.856221
_cell_angle_gamma 99.315191
_cell_volume 738.105336
_symmetry_space_group_name_H-M "P -1"
_symmetry_group_IT_number 2
_symmetry_cell_setting 'triclinic'
loop_
_space_group_symop_operation_xyz
x,y,z
-x,-y,-z
loop_
_atom_site_type_symbol
_atom_site_label
_atom_site_fract_x
_atom_site_fract_y
_atom_site_fract_z
Si Si1 0.626722 0.697997 0.410735
Si Si2 0.891202 0.894566 0.907182
Si Si3 0.793189 0.032393 0.068804
Si Si4 0.351392 0.632875 0.041701
Si Si5 0.362110 0.475773 0.874167
Si Si6 0.173302 0.280473 0.398837
Si Si7 0.431412 0.826930 0.511665
Si Si8 0.850431 0.072763 0.569787
O O1 0.500000 0.500000 0.500000
O O2 0.744496 0.662104 0.514385
O O3 0.548942 0.851910 0.386292
O O4 0.707438 0.806064 0.230392
O O5 0.062007 0.899700 0.896772
O O6 0.856187 0.951951 0.750180
O O7 0.797033 0.672886 0.059112
O O8 0.847708 0.038664 0.927182
O O9 0.689086 0.172289 0.020747
O O10 0.519070 0.646559 0.057295
O O11 0.235019 0.448708 0.209308
O O12 0.346368 0.606055 0.917065
O O13 0.413574 0.618557 0.684866
O O14 0.999423 0.250076 0.445822
O O15 0.188212 0.074856 0.458510
O O16 0.278295 0.826311 0.465192
O O17 0.500000 0.000000 0.500000
#
# Coordination Sequence:
#
# PCOD8033177 Si02
#       8
#     2   2   2   2   2   2   2   2
#     4  12  25  46  68  98 140 180 227 281 340 410
#     4  11  25  48  65  99 141 177 227 282 346 413
#     4  11  27  45  69  97 141 185 221 277 353 417
#     4  11  24  42  69 102 134 175 227 283 342 406
#     4  11  24  42  68 100 138 172 227 288 338 401
#     4  11  23  45  68 104 137 177 229 290 336 403
#     4  12  24  43  70 101 134 181 233 281 342 404
#     4  11  24  44  73  99 139 179 232 286 340 400
#
# _framework density 21.677123999999999
#
# number of rings (size 3 to 8) (size 9 to 14) (size 15 to 20)
#    0.000    0.750    5.000    1.500    5.250    2.000 
#    0.000    1.250    0.000    0.000    0.000    0.000 
#    0.000    0.000    0.000    0.000    0.000    0.000 
#
# Total GULP energy -198438.099821 kJ/mol
# GULP energy per Si atom -12402.381239 kJ/mol
# Density = 2.162779 g / cm^3
# Si number density = 21.677124 Si / 1000 Ang^3
#
#
#
# Elastic Constant Matrix: (Units=GPa)
#
#
# Indices 1 2 3 4 5 6 
#
# 1 99.2857 19.7488 23.7839 -12.8073 -3.5909 9.0844
# 2 19.7488 55.7494 1.5243 -7.4733 2.4439 7.7535
# 3 23.7839 1.5243 78.7160 -3.4933 -13.9467 8.0614
# 4 -12.8073 -7.4733 -3.4933 32.9101 5.5438 -5.5485
# 5 -3.5909 2.4439 -13.9467 5.5438 39.1779 -4.5054
# 6 9.0844 7.7535 8.0614 -5.5485 -4.5054 39.3775
#
#
#
# Elastic Compliance Matrix: (Units=1/GPa)
#
#
# Indices 1 2 3 4 5 6 
#
# 1 0.012122 -0.003582 -0.003428 0.003460 -0.000485 -0.000957
# 2 -0.003582 0.020122 0.000775 0.003089 -0.002101 -0.003100
# 3 -0.003428 0.000775 0.014734 -0.000722 0.004762 -0.001935
# 4 0.003460 0.003089 -0.000722 0.033623 -0.004550 0.002958
# 5 -0.000485 -0.002101 0.004762 -0.004550 0.028196 0.002136
# 6 -0.000957 -0.003100 -0.001935 0.002958 0.002136 0.027284
#
#
# Mechanical properties :
#
#
# Convention : Reuss Voigt Hill
#
# Bulk Modulus (GPa) = 28.97779 35.98501 32.48140
# Shear Modulus (GPa) = 31.23947 34.87270 33.05609
#
# Velocity S-wave (km/s) = 3.80034 4.01525 3.90927
# Velocity P-wave (km/s) = 5.71434 6.17518 5.94922
#
# Compressibility (1/GPa) = 0.03450919
#
# Stress axis : x y z
#
# Youngs Moduli (GPa) = 82.49484 49.69573 67.86808
#
# Poissons Ratio (x) = 0.17801 0.23263
# Poissons Ratio (y) = 0.29550 -0.05259
# Poissons Ratio (z) = 0.28276 -0.03851
#
# Static dielectric constant tensor:
#      x y z
#    x 3.980010 0.098310 -0.033240 
#    y 0.098310 3.762610 0.000960 
#    z -0.033240 0.000960 3.742460 
# 
# 
# High freq. dielectric constant tensor:
#      x y z
#    x 1.864010 0.005810 -0.017120 
#    y 0.005810 1.845020 0.011110 
#    z -0.017120 0.011110 1.857480 
# 
# From -- ./inp_files/186758.got.cif
#   From: 2010.06.25/outbox.cif.g09.slc.cpg/sg2_94_cif.got.tgz:186758.got - 2010.06.27 13:26:56.
