data_PCOD8033448
_publ_section_title
;
Structure prediction by ZEFSAII (Michael W. Deem and Ramdas Pophale) SiO2 
 PCOD8033448
Probable space group: P -1
;
_chemical_formula_sum "Si O2"
_cell_formula_units_Z 16
_cell_length_a 8.813369
_cell_length_b 11.756110
_cell_length_c 14.751891
_cell_angle_alpha 131.504116
_cell_angle_beta 132.069774
_cell_angle_gamma 39.966016
_cell_volume 692.235359
_symmetry_space_group_name_H-M "P -1"
_symmetry_group_IT_number 2
_symmetry_cell_setting 'triclinic'
loop_
_space_group_symop_operation_xyz
x,y,z
-x,-y,-z
loop_
_atom_site_type_symbol
_atom_site_label
_atom_site_fract_x
_atom_site_fract_y
_atom_site_fract_z
Si Si1 0.411555 0.766828 0.489511
Si Si2 0.628546 0.674287 0.718997
Si Si3 0.775727 0.579727 0.384901
Si Si4 0.038727 0.726181 0.850989
Si Si5 0.158775 0.900917 0.129797
Si Si6 0.265099 0.025655 0.868933
Si Si7 0.981930 0.282900 0.732790
Si Si8 0.634521 0.858787 0.340256
O O1 0.554250 0.646954 0.574036
O O2 0.533522 0.644929 0.382920
O O3 0.121011 0.837333 0.406888
O O4 0.445070 0.933035 0.582860
O O5 0.842964 0.707223 0.816049
O O6 0.739081 0.496915 0.736327
O O7 0.374154 0.852098 0.753021
O O8 0.805428 0.432688 0.245460
O O9 0.786249 0.743116 0.428852
O O10 0.000000 0.500000 0.500000
O O11 0.216303 0.728815 0.999049
O O12 0.878066 0.931426 0.854017
O O13 0.409390 0.832872 0.248523
O O14 0.917110 0.978283 0.136150
O O15 0.097627 0.219913 0.847138
O O16 0.500000 0.000000 0.000000
O O17 0.206031 0.246775 0.741016
#
# Coordination Sequence:
#
# PCOD8033448 Si02
#       8
#     2   2   2   2   2   2   2   2
#     4  12  25  47  72 107 151 192 248 299 374 440
#     4  12  24  50  74 109 151 192 244 306 369 441
#     4  12  24  42  70 107 148 188 242 305 360 439
#     4  11  23  46  72 105 141 187 241 297 365 429
#     4  11  25  47  76 103 141 196 245 299 370 429
#     4  12  27  48  76 106 150 196 245 303 370 441
#     4  12  27  47  74 110 149 197 243 305 375 437
#     4  12  24  47  74 103 148 198 243 305 364 437
#
# _framework density 23.113526
#
# number of rings (size 3 to 8) (size 9 to 14) (size 15 to 20)
#    0.000    0.250    6.250    1.875    3.500    2.000 
#    0.000    0.000    0.000    0.000    0.000    0.000 
#    0.000    0.000    0.000    0.000    0.000    0.000 
#
# Total GULP energy -198336.127436 kJ/mol
# GULP energy per Si atom -12396.007965 kJ/mol
# Density = 2.306092 g / cm^3
# Si number density = 23.113526 Si / 1000 Ang^3
#
#
#
# Elastic Constant Matrix: (Units=GPa)
#
#
# Indices 1 2 3 4 5 6 
#
# 1 100.5587 25.8852 60.1872 0.5007 9.0924 -2.2504
# 2 25.8852 112.5902 52.5055 -11.8193 -7.9847 15.4904
# 3 60.1872 52.5055 118.8960 -8.7149 3.0101 2.8094
# 4 0.5007 -11.8193 -8.7149 39.5331 -12.5508 -12.7974
# 5 9.0924 -7.9847 3.0101 -12.5508 41.9460 -1.9185
# 6 -2.2504 15.4904 2.8094 -12.7974 -1.9185 37.9210
#
#
#
# Elastic Compliance Matrix: (Units=1/GPa)
#
#
# Indices 1 2 3 4 5 6 
#
# 1 0.014897 -0.000615 -0.007409 -0.003026 -0.003698 0.000476
# 2 -0.000615 0.012348 -0.004958 0.002494 0.003417 -0.003699
# 3 -0.007409 -0.004958 0.014482 0.002358 0.000389 0.001328
# 4 -0.003026 0.002494 0.002358 0.033681 0.011523 0.010576
# 5 -0.003698 0.003417 0.000389 0.011523 0.028882 0.003706
# 6 0.000476 -0.003699 0.001328 0.010576 0.003706 0.031568
#
#
# Mechanical properties :
#
#
# Convention : Reuss Voigt Hill
#
# Bulk Modulus (GPa) = 63.43744 67.68897 65.56320
# Shear Modulus (GPa) = 29.92611 36.77780 33.35196
#
# Velocity S-wave (km/s) = 3.60216 3.99329 3.80276
# Velocity P-wave (km/s) = 6.69375 7.11413 6.90714
#
# Compressibility (1/GPa) = 0.01576356
#
# Stress axis : x y z
#
# Youngs Moduli (GPa) = 67.12557 80.98235 69.04953
#
# Poissons Ratio (x) = 0.04983 0.51159
# Poissons Ratio (y) = 0.04130 0.34235
# Poissons Ratio (z) = 0.49734 0.40151
#
# Static dielectric constant tensor:
#      x y z
#    x 3.587200 0.203190 0.676990 
#    y 0.203190 4.250170 -0.171020 
#    z 0.676990 -0.171020 3.642060 
# 
# 
# High freq. dielectric constant tensor:
#      x y z
#    x 1.927690 0.006180 -0.000380 
#    y 0.006180 1.916700 -0.010980 
#    z -0.000380 -0.010980 1.908430 
# 
# From -- ./inp_files/500888.got.cif
#   From: 2010.06.25/outbox.cif.g09.slc.cpg/sg2_251_cif.got.tgz:500888.got - 2010.06.27 13:26:56.
