data_PCOD8033973
_publ_section_title
;
Structure prediction by ZEFSAII (Michael W. Deem and Ramdas Pophale) SiO2 
 PCOD8033973
Probable space group: P -1
;
_chemical_formula_sum "Si O2"
_cell_formula_units_Z 14
_cell_length_a 9.522161
_cell_length_b 11.646143
_cell_length_c 14.798280
_cell_angle_alpha 29.075040
_cell_angle_beta 124.534704
_cell_angle_gamma 123.179716
_cell_volume 651.434564
_symmetry_space_group_name_H-M "P -1"
_symmetry_group_IT_number 2
_symmetry_cell_setting 'triclinic'
loop_
_space_group_symop_operation_xyz
x,y,z
-x,-y,-z
loop_
_atom_site_type_symbol
_atom_site_label
_atom_site_fract_x
_atom_site_fract_y
_atom_site_fract_z
Si Si1 0.772634 0.402146 0.471276
Si Si2 0.202190 0.581343 0.015032
Si Si3 0.190799 0.027429 0.588133
Si Si4 0.299283 0.475430 0.441963
Si Si5 0.968505 0.861032 0.178622
Si Si6 0.429237 0.200957 0.394485
Si Si7 0.692934 0.136995 0.963375
O O1 0.768796 0.532207 0.476647
O O2 0.892178 0.582638 0.324089
O O3 0.587641 0.364458 0.384636
O O4 0.853774 0.153708 0.689975
O O5 0.311642 0.363641 0.181956
O O6 0.268007 0.677342 0.069832
O O7 0.000000 0.500000 0.000000
O O8 0.240482 0.784440 0.815030
O O9 0.213710 0.235920 0.526818
O O10 0.317351 0.072390 0.520779
O O11 0.000000 0.000000 0.500000
O O12 0.500000 0.500000 0.500000
O O13 0.265796 0.715845 0.214460
O O14 0.833559 0.956624 0.132307
O O15 0.000000 0.000000 0.000000
O O16 0.500000 0.000000 0.500000
O O17 0.500000 0.000000 0.000000
#
# Coordination Sequence:
#
# PCOD8033973 Si02
#       7
#     2   2   2   2   2   2   2
#     4  11  25  44  69 103 146 186 236 298 359 423
#     4  12  25  47  72 103 140 188 243 292 355 426
#     4  12  25  46  76 107 141 188 242 297 354 430
#     4  12  21  42  72 104 138 184 236 294 353 422
#     4  11  24  43  68 104 141 183 230 293 362 426
#     4  12  28  48  70 105 147 189 239 299 366 426
#     4  12  24  42  73 106 139 181 238 296 355 427
#
# _framework density 21.491031
#
# number of rings (size 3 to 8) (size 9 to 14) (size 15 to 20)
#    0.000    0.286    5.714    3.429    2.000    4.000 
#    2.571    0.000    0.000    0.000    0.000    0.000 
#    0.000    0.000    0.000    0.000    0.000    0.000 
#
# Total GULP energy -173538.940924 kJ/mol
# GULP energy per Si atom -12395.638637 kJ/mol
# Density = 2.144212 g / cm^3
# Si number density = 21.491031 Si / 1000 Ang^3
#
#
#
# Elastic Constant Matrix: (Units=GPa)
#
#
# Indices 1 2 3 4 5 6 
#
# 1 120.3074 50.4639 50.5031 -4.1134 16.6825 7.3546
# 2 50.4639 130.1244 31.9426 -2.9175 8.0987 11.4700
# 3 50.5031 31.9426 177.9096 -0.2032 2.3884 6.2096
# 4 -4.1134 -2.9175 -0.2032 28.9259 2.9481 5.9180
# 5 16.6825 8.0987 2.3884 2.9481 56.3601 -1.5035
# 6 7.3546 11.4700 6.2096 5.9180 -1.5035 42.9927
#
#
#
# Elastic Compliance Matrix: (Units=1/GPa)
#
#
# Indices 1 2 3 4 5 6 
#
# 1 0.011347 -0.003477 -0.002522 0.001740 -0.002870 -0.000989
# 2 -0.003477 0.009404 -0.000627 0.000891 -0.000395 -0.001960
# 3 -0.002522 -0.000627 0.006450 -0.000382 0.000576 -0.000260
# 4 0.001740 0.000891 -0.000382 0.036319 -0.002675 -0.005573
# 5 -0.002870 -0.000395 0.000576 -0.002675 0.018806 0.001539
# 6 -0.000989 -0.001960 -0.000260 -0.005573 0.001539 0.024810
#
#
# Mechanical properties :
#
#
# Convention : Reuss Voigt Hill
#
# Bulk Modulus (GPa) = 71.68000 77.12896 74.40448
# Shear Modulus (GPa) = 39.98817 45.35119 42.66968
#
# Velocity S-wave (km/s) = 4.31825 4.59872 4.46069
# Velocity P-wave (km/s) = 7.63472 8.01027 7.82475
#
# Compressibility (1/GPa) = 0.01395089
#
# Stress axis : x y z
#
# Youngs Moduli (GPa) = 88.13054 106.33286 155.03513
#
# Poissons Ratio (x) = 0.36968 0.39096
# Poissons Ratio (y) = 0.30639 0.09719
# Poissons Ratio (z) = 0.22225 0.06666
#
# Static dielectric constant tensor:
#      x y z
#    x 4.355110 0.211100 0.412920 
#    y 0.211100 3.821420 0.105540 
#    z 0.412920 0.105540 4.595310 
# 
# 
# High freq. dielectric constant tensor:
#      x y z
#    x 1.857720 0.014950 0.004320 
#    y 0.014950 1.829320 0.002650 
#    z 0.004320 0.002650 1.873530 
# 
# From -- ./inp_files/498722.got.cif
#   From: 2010.06.25/outbox.cif.g09.slc.cpg/sg2_250_cif.got.tgz:498722.got - 2010.06.27 13:26:56.
