data_PCOD8033607
_publ_section_title
;
Structure prediction by ZEFSAII (Michael W. Deem and Ramdas Pophale) SiO2 
 PCOD8033607
Probable space group: P -1
;
_chemical_formula_sum "Si O2"
_cell_formula_units_Z 16
_cell_length_a 11.307829
_cell_length_b 13.389108
_cell_length_c 11.939350
_cell_angle_alpha 111.123763
_cell_angle_beta 132.804865
_cell_angle_gamma 107.059136
_cell_volume 764.061834
_symmetry_space_group_name_H-M "P -1"
_symmetry_group_IT_number 2
_symmetry_cell_setting 'triclinic'
loop_
_space_group_symop_operation_xyz
x,y,z
-x,-y,-z
loop_
_atom_site_type_symbol
_atom_site_label
_atom_site_fract_x
_atom_site_fract_y
_atom_site_fract_z
Si Si1 0.514904 0.003277 0.140647
Si Si2 0.202879 0.857885 0.213141
Si Si3 0.988664 0.868907 0.470577
Si Si4 0.863852 0.646172 0.117481
Si Si5 0.264509 0.115049 0.277344
Si Si6 0.256023 0.675001 0.470774
Si Si7 0.280405 0.298376 0.532716
Si Si8 0.989277 0.666035 0.776198
O O1 0.570012 0.153444 0.274893
O O2 0.727682 0.030284 0.329323
O O3 0.500000 0.000000 0.000000
O O4 0.253100 0.816234 0.940672
O O5 0.019718 0.781215 0.170425
O O6 0.500000 0.000000 0.500000
O O7 0.234682 0.974819 0.204191
O O8 0.057993 0.701836 0.969078
O O9 0.813475 0.708405 0.206970
O O10 0.899889 0.795859 0.510707
O O11 0.000000 0.000000 0.500000
O O12 0.023571 0.621988 0.242714
O O13 0.578091 0.466044 0.824152
O O14 0.544136 0.283539 0.466490
O O15 0.258850 0.169201 0.415173
O O16 0.000000 0.000000 0.000000
O O17 0.130081 0.514011 0.398664
O O18 0.204312 0.345000 0.405769
#
# Coordination Sequence:
#
# PCOD8033607 Si02
#       8
#     2   2   2   2   2   2   2   2
#     4  11  23  48  71  98 141 178 231 286 338 418
#     4  12  23  44  72  98 138 183 231 286 346 411
#     4  11  25  47  71 100 135 186 231 280 350 410
#     4  11  26  45  67 102 140 180 234 287 340 418
#     4  12  24  43  71 101 143 179 229 289 347 408
#     4  11  26  45  69 104 137 181 236 280 348 415
#     4  12  26  44  67 104 143 179 230 290 343 414
#     4  12  26  45  71 106 139 184 232 285 355 408
#
# _framework density 20.940714
#
# number of rings (size 3 to 8) (size 9 to 14) (size 15 to 20)
#    0.000    0.500    5.000    2.625    5.250    3.500 
#    0.000    0.000    0.000    0.000    0.000    0.000 
#    0.000    0.000    0.000    0.000    0.000    0.000 
#
# Total GULP energy -198226.409031 kJ/mol
# GULP energy per Si atom -12389.150564 kJ/mol
# Density = 2.089305 g / cm^3
# Si number density = 20.940714 Si / 1000 Ang^3
#
#
#
# Elastic Constant Matrix: (Units=GPa)
#
#
# Indices 1 2 3 4 5 6 
#
# 1 120.8151 34.8358 42.0040 9.4400 -8.2487 8.7522
# 2 34.8358 113.8896 41.3235 12.7083 -2.3566 -3.6613
# 3 42.0040 41.3235 98.9376 2.7782 12.0240 2.8330
# 4 9.4400 12.7083 2.7782 40.2793 3.7406 2.1364
# 5 -8.2487 -2.3566 12.0240 3.7406 33.8630 -7.0362
# 6 8.7522 -3.6613 2.8330 2.1364 -7.0362 34.9134
#
#
#
# Elastic Compliance Matrix: (Units=1/GPa)
#
#
# Indices 1 2 3 4 5 6 
#
# 1 0.010747 -0.001456 -0.004333 -0.002044 0.003954 -0.001573
# 2 -0.001456 0.011373 -0.004476 -0.003358 0.002963 0.002724
# 3 -0.004333 -0.004476 0.014702 0.002206 -0.007284 -0.002179
# 4 -0.002044 -0.003358 0.002206 0.026822 -0.005033 -0.002674
# 5 0.003954 0.002963 -0.007284 -0.005033 0.035369 0.007347
# 6 -0.001573 0.002724 -0.002179 -0.002674 0.007347 0.031143
#
#
# Mechanical properties :
#
#
# Convention : Reuss Voigt Hill
#
# Bulk Modulus (GPa) = 61.37510 63.32989 62.35250
# Shear Modulus (GPa) = 32.02730 36.17640 34.10185
#
# Velocity S-wave (km/s) = 3.91503 4.16091 4.03984
# Velocity P-wave (km/s) = 7.05757 7.30700 7.18337
#
# Compressibility (1/GPa) = 0.01629325
#
# Stress axis : x y z
#
# Youngs Moduli (GPa) = 93.05053 87.92444 68.01806
#
# Poissons Ratio (x) = 0.12800 0.29469
# Poissons Ratio (y) = 0.13546 0.30446
# Poissons Ratio (z) = 0.40315 0.39356
#
# Static dielectric constant tensor:
#      x y z
#    x 4.088640 0.102100 -0.033950 
#    y 0.102100 3.511240 -0.063520 
#    z -0.033950 -0.063520 3.994040 
# 
# 
# High freq. dielectric constant tensor:
#      x y z
#    x 1.829160 0.000610 0.001370 
#    y 0.000610 1.821070 0.002110 
#    z 0.001370 0.002110 1.843390 
# 
# From -- ./inp_files/272415.got.cif
#   From: 2010.06.25/outbox.cif.g09.slc.cpg/sg2_137_cif.got.tgz:272415.got - 2010.06.27 13:26:56.
