data_PCOD8033869
_publ_section_title
;
Structure prediction by ZEFSAII (Michael W. Deem and Ramdas Pophale) SiO2 
 PCOD8033869
Probable space group: P -1
;
_chemical_formula_sum "Si O2"
_cell_formula_units_Z 12
_cell_length_a 9.934412
_cell_length_b 9.249299
_cell_length_c 12.094175
_cell_angle_alpha 77.842597
_cell_angle_beta 128.545253
_cell_angle_gamma 136.022113
_cell_volume 542.586865
_symmetry_space_group_name_H-M "P -1"
_symmetry_group_IT_number 2
_symmetry_cell_setting 'triclinic'
loop_
_space_group_symop_operation_xyz
x,y,z
-x,-y,-z
loop_
_atom_site_type_symbol
_atom_site_label
_atom_site_fract_x
_atom_site_fract_y
_atom_site_fract_z
Si Si1 0.766856 0.326729 0.496800
Si Si2 0.717792 0.195349 0.730917
Si Si3 0.999075 0.155368 0.033924
Si Si4 0.706119 0.004300 0.126427
Si Si5 0.485709 0.665837 0.254317
Si Si6 0.741488 0.617452 0.524984
O O1 0.853801 0.313128 0.661633
O O2 0.646463 0.408553 0.444787
O O3 0.000000 0.500000 0.500000
O O4 0.551375 0.078409 0.370068
O O5 0.646500 0.303038 0.735137
O O6 0.927214 0.243379 0.902811
O O7 0.288400 0.393928 0.189263
O O8 0.788622 0.995876 0.051550
O O9 0.000000 0.000000 0.000000
O O10 0.970607 0.226396 0.295881
O O11 0.546004 0.773571 0.148560
O O12 0.500000 0.000000 0.000000
O O13 0.758558 0.771153 0.426658
O O14 0.500000 0.500000 0.500000
#
# Coordination Sequence:
#
# PCOD8033869 Si02
#       6
#     2   2   2   2   2   2
#     4  11  25  42  69 103 140 187 239 292 352 421
#     4  11  24  42  70 104 142 185 239 294 359 417
#     4  12  27  45  73 105 148 184 239 303 360 418
#     4  12  27  45  76 107 140 194 243 285 359 432
#     4  12  25  46  76 103 142 192 239 294 356 427
#     4  12  24  47  74 103 147 189 237 295 354 421
#
# _framework density 22.116275000000002
#
# number of rings (size 3 to 8) (size 9 to 14) (size 15 to 20)
#    0.000    0.333    5.000    3.000    2.333    2.000 
#    0.000    0.000    0.000    0.000    0.000    0.000 
#    0.000    0.000    0.000    0.000    0.000    0.000 
#
# Total GULP energy -148769.839923 kJ/mol
# GULP energy per Si atom -12397.486660 kJ/mol
# Density = 2.206594 g / cm^3
# Si number density = 22.116275 Si / 1000 Ang^3
#
#
#
# Elastic Constant Matrix: (Units=GPa)
#
#
# Indices 1 2 3 4 5 6 
#
# 1 152.0011 83.2397 51.2715 4.6174 -10.6419 -2.2272
# 2 83.2397 129.5860 48.2966 -5.6470 -4.3902 4.9044
# 3 51.2715 48.2966 132.8877 -20.9945 13.1037 -5.6338
# 4 4.6174 -5.6470 -20.9945 45.8447 -3.2591 -9.3620
# 5 -10.6419 -4.3902 13.1037 -3.2591 34.6006 -7.7663
# 6 -2.2272 4.9044 -5.6338 -9.3620 -7.7663 61.1754
#
#
#
# Elastic Compliance Matrix: (Units=1/GPa)
#
#
# Indices 1 2 3 4 5 6 
#
# 1 0.011306 -0.006212 -0.002884 -0.002826 0.003667 0.000677
# 2 -0.006212 0.012592 -0.002107 0.000979 0.000299 -0.001242
# 3 -0.002884 -0.002107 0.010661 0.004845 -0.004461 0.001221
# 4 -0.002826 0.000979 0.004845 0.025357 0.000761 0.004242
# 5 0.003667 0.000299 -0.004461 0.000761 0.032719 0.003969
# 6 0.000677 -0.001242 0.001221 0.004242 0.003969 0.017736
#
#
# Mechanical properties :
#
#
# Convention : Reuss Voigt Hill
#
# Bulk Modulus (GPa) = 82.28326 86.67669 84.47997
# Shear Modulus (GPa) = 36.54210 43.76861 40.15536
#
# Velocity S-wave (km/s) = 4.06922 4.45345 4.26566
# Velocity P-wave (km/s) = 7.70479 8.10683 7.90836
#
# Compressibility (1/GPa) = 0.01215314
#
# Stress axis : x y z
#
# Youngs Moduli (GPa) = 88.44809 79.41280 93.80270
#
# Poissons Ratio (x) = 0.49333 0.27050
# Poissons Ratio (y) = 0.54946 0.19765
# Poissons Ratio (z) = 0.25506 0.16733
#
# Static dielectric constant tensor:
#      x y z
#    x 3.800660 0.381250 -0.557140 
#    y 0.381250 4.511740 -1.100380 
#    z -0.557140 -1.100380 6.986330 
# 
# 
# High freq. dielectric constant tensor:
#      x y z
#    x 1.871450 -0.000430 -0.006580 
#    y -0.000430 1.885210 -0.016300 
#    z -0.006580 -0.016300 1.885160 
# 
# From -- ./inp_files/152553.got.cif
#   From: 2010.06.25/outbox.cif.g09.slc.cpg/sg2_77_cif.got.tgz:152553.got - 2010.06.27 13:26:56.
