data_PCOD8033530
_publ_section_title
;
Structure prediction by ZEFSAII (Michael W. Deem and Ramdas Pophale) SiO2 
 PCOD8033530
Probable space group: P -1
;
_chemical_formula_sum "Si O2"
_cell_formula_units_Z 16
_cell_length_a 9.740553
_cell_length_b 10.990141
_cell_length_c 9.862832
_cell_angle_alpha 94.298866
_cell_angle_beta 133.348035
_cell_angle_gamma 84.116301
_cell_volume 763.727190
_symmetry_space_group_name_H-M "P -1"
_symmetry_group_IT_number 2
_symmetry_cell_setting 'triclinic'
loop_
_space_group_symop_operation_xyz
x,y,z
-x,-y,-z
loop_
_atom_site_type_symbol
_atom_site_label
_atom_site_fract_x
_atom_site_fract_y
_atom_site_fract_z
Si Si1 0.422951 0.137830 0.440621
Si Si2 0.896470 0.619165 0.502278
Si Si3 0.984275 0.190120 0.209338
Si Si4 0.547718 0.505637 0.376164
Si Si5 0.815663 0.041274 0.297742
Si Si6 0.527068 0.239457 0.238055
Si Si7 0.352083 0.730613 0.170087
Si Si8 0.352105 0.211843 0.841260
O O1 0.429160 0.178897 0.293465
O O2 0.557765 0.216281 0.629332
O O3 0.204711 0.152146 0.337199
O O4 0.500000 0.000000 0.500000
O O5 0.730359 0.582755 0.486302
O O6 0.819860 0.706866 0.335406
O O7 0.000000 0.500000 0.500000
O O8 0.038764 0.693571 0.694844
O O9 0.882180 0.077250 0.195849
O O10 0.871010 0.226935 0.996270
O O11 0.500000 0.500000 0.500000
O O12 0.589000 0.373087 0.328717
O O13 0.375134 0.582721 0.188193
O O14 0.711479 0.156472 0.312649
O O15 0.678923 0.931608 0.189291
O O16 0.000000 0.000000 0.500000
O O17 0.375972 0.254896 0.015252
O O18 0.454833 0.774749 0.108554
#
# Coordination Sequence:
#
# PCOD8033530 Si02
#       8
#     2   2   2   2   2   2   2   2
#     4  12  26  49  67 100 145 181 225 285 347 407
#     4  11  24  43  67 101 139 171 231 281 337 405
#     4  12  24  45  70 101 136 187 221 282 347 404
#     4  11  23  47  69  94 142 184 222 283 343 407
#     4  12  23  43  70 100 138 174 234 283 338 410
#     4  12  25  43  72 101 134 184 229 279 349 403
#     4  11  24  46  72  95 143 183 225 281 351 401
#     4  11  24  43  69 102 140 179 224 293 338 403
#
# _framework density 20.949888999999999
#
# number of rings (size 3 to 8) (size 9 to 14) (size 15 to 20)
#    0.000    0.500    6.250    2.625    3.500    1.500 
#    4.500    1.250    0.000    0.000    0.000    0.000 
#    0.000    0.000    0.000    0.000    0.000    0.000 
#
# Total GULP energy -198421.732562 kJ/mol
# GULP energy per Si atom -12401.358285 kJ/mol
# Density = 2.090221 g / cm^3
# Si number density = 20.949889 Si / 1000 Ang^3
#
#
#
# Elastic Constant Matrix: (Units=GPa)
#
#
# Indices 1 2 3 4 5 6 
#
# 1 87.1724 47.2516 48.8152 -9.5098 -12.3038 -0.8195
# 2 47.2516 138.8729 45.7029 -3.4631 8.0700 1.3464
# 3 48.8152 45.7029 134.7584 -10.5230 -2.4475 -2.1108
# 4 -9.5098 -3.4631 -10.5230 30.8866 -7.9275 -2.6389
# 5 -12.3038 8.0700 -2.4475 -7.9275 34.5421 -12.9136
# 6 -0.8195 1.3464 -2.1108 -2.6389 -12.9136 39.3403
#
#
#
# Elastic Compliance Matrix: (Units=1/GPa)
#
#
# Indices 1 2 3 4 5 6 
#
# 1 0.019356 -0.005711 -0.004240 0.007157 0.011273 0.004552
# 2 -0.005711 0.010028 -0.001729 -0.003070 -0.006256 -0.002815
# 3 -0.004240 -0.001729 0.009712 0.001948 0.000298 0.000721
# 4 0.007157 -0.003070 0.001948 0.039575 0.015518 0.008107
# 5 0.011273 -0.006256 0.000298 0.015518 0.043968 0.015939
# 6 0.004552 -0.002815 0.000721 0.008107 0.015939 0.031425
#
#
# Mechanical properties :
#
#
# Convention : Reuss Voigt Hill
#
# Bulk Modulus (GPa) = 63.55399 71.59365 67.57382
# Shear Modulus (GPa) = 27.37184 35.55606 31.46395
#
# Velocity S-wave (km/s) = 3.61853 4.12417 3.87960
# Velocity P-wave (km/s) = 6.91812 7.54496 7.23833
#
# Compressibility (1/GPa) = 0.01573465
#
# Stress axis : x y z
#
# Youngs Moduli (GPa) = 51.66307 99.72527 102.96774
#
# Poissons Ratio (x) = 0.56957 0.43656
# Poissons Ratio (y) = 0.29507 0.17806
# Poissons Ratio (z) = 0.21904 0.17246
#
# Static dielectric constant tensor:
#      x y z
#    x 3.765420 -0.062440 -0.074770 
#    y -0.062440 3.758300 -0.432790 
#    z -0.074770 -0.432790 3.775740 
# 
# 
# High freq. dielectric constant tensor:
#      x y z
#    x 1.814270 0.004370 -0.001410 
#    y 0.004370 1.841810 -0.012120 
#    z -0.001410 -0.012120 1.824530 
# 
# From -- ./inp_files/188009.got.cif
#   From: 2010.06.25/outbox.cif.g09.slc.cpg/sg2_95_cif.got.tgz:188009.got - 2010.06.27 13:26:56.
