data_PCOD8033625
_publ_section_title
;
Structure prediction by ZEFSAII (Michael W. Deem and Ramdas Pophale) SiO2 
 PCOD8033625
Probable space group: P -1
;
_chemical_formula_sum "Si O2"
_cell_formula_units_Z 16
_cell_length_a 7.983416
_cell_length_b 15.552196
_cell_length_c 8.855468
_cell_angle_alpha 111.976352
_cell_angle_beta 51.929277
_cell_angle_gamma 82.236051
_cell_volume 694.616094
_symmetry_space_group_name_H-M "P -1"
_symmetry_group_IT_number 2
_symmetry_cell_setting 'triclinic'
loop_
_space_group_symop_operation_xyz
x,y,z
-x,-y,-z
loop_
_atom_site_type_symbol
_atom_site_label
_atom_site_fract_x
_atom_site_fract_y
_atom_site_fract_z
Si Si1 0.619238 0.232117 0.471210
Si Si2 0.993583 0.290985 0.415599
Si Si3 0.485687 0.095514 0.974255
Si Si4 0.263522 0.627867 0.870451
Si Si5 0.337823 0.955839 0.490197
Si Si6 0.802563 0.477693 0.441781
Si Si7 0.831500 0.147991 0.986651
Si Si8 0.096191 0.370911 0.699468
O O1 0.572203 0.161720 0.571987
O O2 0.363137 0.316276 0.591876
O O3 0.734794 0.294030 0.538344
O O4 0.804191 0.156700 0.188432
O O5 0.058662 0.291063 0.556159
O O6 0.979873 0.397290 0.419867
O O7 0.204100 0.182414 0.149471
O O8 0.637979 0.048830 0.706054
O O9 0.588261 0.157856 0.055929
O O10 0.500000 0.000000 0.000000
O O11 0.550828 0.570731 0.718947
O O12 0.256058 0.597629 0.681325
O O13 0.135886 0.756213 0.036339
O O14 0.116282 0.587903 0.030029
O O15 0.500000 0.000000 0.500000
O O16 0.056309 0.033685 0.741161
O O17 0.944373 0.525400 0.301224
#
# Coordination Sequence:
#
# PCOD8033625 Si02
#       8
#     2   2   2   2   2   2   2   2
#     4  12  24  47  71 108 145 191 242 297 363 429
#     4  12  26  46  75 103 145 190 243 295 363 431
#     4  12  27  47  71 108 146 191 241 302 363 432
#     4  11  24  44  77 104 146 190 242 298 367 425
#     4  12  27  43  73 107 143 191 248 292 365 442
#     4  11  23  49  69 109 142 190 243 300 361 428
#     4  12  23  47  72 102 149 190 240 305 359 431
#     4  12  26  46  76 105 147 197 236 304 361 430
#
# _framework density 23.034306999999998
#
# number of rings (size 3 to 8) (size 9 to 14) (size 15 to 20)
#    0.000    0.250    3.750    5.250    5.250    0.500 
#    0.000    0.000    0.000    0.000    0.000    0.000 
#    0.000    0.000    0.000    0.000    0.000    0.000 
#
# Total GULP energy -198519.493076 kJ/mol
# GULP energy per Si atom -12407.468317 kJ/mol
# Density = 2.298188 g / cm^3
# Si number density = 23.034307 Si / 1000 Ang^3
#
#
#
# Elastic Constant Matrix: (Units=GPa)
#
#
# Indices 1 2 3 4 5 6 
#
# 1 124.3769 30.2554 18.3775 -5.6660 2.8098 4.3299
# 2 30.2554 152.1183 21.3730 -9.2054 -9.1132 -3.2642
# 3 18.3775 21.3730 84.9676 -11.3258 -4.1409 -11.5705
# 4 -5.6660 -9.2054 -11.3258 35.0657 4.8474 -2.9637
# 5 2.8098 -9.1132 -4.1409 4.8474 28.4935 2.4161
# 6 4.3299 -3.2642 -11.5705 -2.9637 2.4161 36.3160
#
#
#
# Elastic Compliance Matrix: (Units=1/GPa)
#
#
# Indices 1 2 3 4 5 6 
#
# 1 0.008801 -0.001606 -0.001724 0.000528 -0.001587 -0.001594
# 2 -0.001606 0.007255 -0.001186 0.001006 0.002101 0.000408
# 3 -0.001724 -0.001186 0.013670 0.004134 0.000672 0.004747
# 4 0.000528 0.001006 0.004134 0.031222 -0.004798 0.004212
# 5 -0.001587 0.002101 0.000672 -0.004798 0.037030 -0.002263
# 6 -0.001594 0.000408 0.004747 0.004212 -0.002263 0.029770
#
#
# Mechanical properties :
#
#
# Convention : Reuss Voigt Hill
#
# Bulk Modulus (GPa) = 48.31642 55.71939 52.01790
# Shear Modulus (GPa) = 34.80046 39.40550 37.10298
#
# Velocity S-wave (km/s) = 3.89113 4.14059 4.01779
# Velocity P-wave (km/s) = 6.41944 6.86305 6.64495
#
# Compressibility (1/GPa) = 0.02069690
#
# Stress axis : x y z
#
# Youngs Moduli (GPa) = 113.62725 137.83117 73.15053
#
# Poissons Ratio (x) = 0.22129 0.12608
# Poissons Ratio (y) = 0.18243 0.08673
# Poissons Ratio (z) = 0.19585 0.16342
#
# Static dielectric constant tensor:
#      x y z
#    x 4.241670 -0.017670 0.049500 
#    y -0.017670 4.119930 -0.063710 
#    z 0.049500 -0.063710 3.840670 
# 
# 
# High freq. dielectric constant tensor:
#      x y z
#    x 1.920730 0.004470 0.001530 
#    y 0.004470 1.920250 0.000800 
#    z 0.001530 0.000800 1.903760 
# 
# From -- ./inp_files/208139.got.cif
#   From: 2010.06.25/outbox.cif.g09.slc.cpg/sg2_105_cif.got.tgz:208139.got - 2010.06.27 13:26:56.
