data_PCOD8033217
_publ_section_title
;
Structure prediction by ZEFSAII (Michael W. Deem and Ramdas Pophale) SiO2 
 PCOD8033217
Probable space group: P -1
;
_chemical_formula_sum "Si O2"
_cell_formula_units_Z 16
_cell_length_a 8.502290
_cell_length_b 15.156101
_cell_length_c 9.425751
_cell_angle_alpha 140.418567
_cell_angle_beta 111.400601
_cell_angle_gamma 76.852007
_cell_volume 717.597720
_symmetry_space_group_name_H-M "P -1"
_symmetry_group_IT_number 2
_symmetry_cell_setting 'triclinic'
loop_
_space_group_symop_operation_xyz
x,y,z
-x,-y,-z
loop_
_atom_site_type_symbol
_atom_site_label
_atom_site_fract_x
_atom_site_fract_y
_atom_site_fract_z
Si Si1 0.208613 0.678693 0.963949
Si Si2 0.017976 0.438136 0.773146
Si Si3 0.155857 0.171359 0.388806
Si Si4 0.616031 0.969335 0.133088
Si Si5 0.530937 0.311494 0.167559
Si Si6 0.442123 0.769852 0.401045
Si Si7 0.642299 0.437571 0.643092
Si Si8 0.034806 0.119363 0.976594
O O1 0.365310 0.751707 0.196525
O O2 0.050296 0.771357 0.015809
O O3 0.144962 0.532482 0.831970
O O4 0.284767 0.656689 0.805250
O O5 0.083573 0.284936 0.609575
O O6 0.830695 0.427566 0.634497
O O7 0.000000 0.500000 0.000000
O O8 0.358135 0.189648 0.483988
O O9 0.080534 0.191145 0.231695
O O10 0.098275 0.015736 0.225975
O O11 0.653149 0.109285 0.407281
O O12 0.793648 0.920452 0.085064
O O13 0.500000 0.000000 0.000000
O O14 0.523478 0.852410 0.060327
O O15 0.525615 0.354755 0.384817
O O16 0.397647 0.402068 0.156491
O O17 0.394746 0.628356 0.296781
#
# Coordination Sequence:
#
# PCOD8033217 Si02
#       8
#     2   2   2   2   2   2   2   2
#     4  12  28  45  68 107 145 179 233 294 350 407
#     4  12  26  44  68  99 140 190 229 284 348 417
#     4  11  25  44  75 102 141 185 238 287 348 414
#     4  12  23  44  75 101 136 184 233 281 352 419
#     4  11  25  42  72 103 136 179 235 291 337 421
#     4  12  25  45  71 104 141 189 226 288 354 416
#     4  11  23  45  70 100 138 185 234 279 350 415
#     4  11  25  46  72 108 138 182 234 295 345 414
#
# _framework density 22.296614000000002
#
# number of rings (size 3 to 8) (size 9 to 14) (size 15 to 20)
#    0.000    0.500    3.750    3.750    3.500    7.500 
#    0.000    0.000    0.000    0.000    0.000    0.000 
#    0.000    0.000    0.000    0.000    0.000    0.000 
#
# Total GULP energy -198474.878819 kJ/mol
# GULP energy per Si atom -12404.679926 kJ/mol
# Density = 2.224587 g / cm^3
# Si number density = 22.296614 Si / 1000 Ang^3
#
#
#
# Elastic Constant Matrix: (Units=GPa)
#
#
# Indices 1 2 3 4 5 6 
#
# 1 127.9191 29.7051 16.0193 2.5983 0.4166 -3.3957
# 2 29.7051 102.4393 24.7998 6.1927 1.7923 -7.8418
# 3 16.0193 24.7998 78.2437 0.2877 -3.3713 -12.0018
# 4 2.5983 6.1927 0.2877 29.0334 -1.4471 -1.1873
# 5 0.4166 1.7923 -3.3713 -1.4471 42.8869 5.8571
# 6 -3.3957 -7.8418 -12.0018 -1.1873 5.8571 39.2536
#
#
#
# Elastic Compliance Matrix: (Units=1/GPa)
#
#
# Indices 1 2 3 4 5 6 
#
# 1 0.008461 -0.002183 -0.001046 -0.000286 -0.000080 -0.000021
# 2 -0.002183 0.011364 -0.002997 -0.002195 -0.000932 0.001238
# 3 -0.001046 -0.002997 0.014538 0.000779 0.000805 0.003659
# 4 -0.000286 -0.002195 0.000779 0.035018 0.001249 0.000648
# 5 -0.000080 -0.000932 0.000805 0.001249 0.023938 -0.003481
# 6 -0.000021 0.001238 0.003659 0.000648 -0.003481 0.027379
#
#
# Mechanical properties :
#
#
# Convention : Reuss Voigt Hill
#
# Bulk Modulus (GPa) = 45.64032 49.96116 47.80074
# Shear Modulus (GPa) = 35.59901 38.10662 36.85282
#
# Velocity S-wave (km/s) = 4.00010 4.13858 4.06993
# Velocity P-wave (km/s) = 6.46904 6.73003 6.60082
#
# Compressibility (1/GPa) = 0.02191045
#
# Stress axis : x y z
#
# Youngs Moduli (GPa) = 118.19068 87.99482 68.78618
#
# Poissons Ratio (x) = 0.19211 0.07194
# Poissons Ratio (y) = 0.25803 0.20617
# Poissons Ratio (z) = 0.12361 0.26374
#
# Static dielectric constant tensor:
#      x y z
#    x 4.132030 -0.058520 0.005920 
#    y -0.058520 4.135800 0.084860 
#    z 0.005920 0.084860 4.192050 
# 
# 
# High freq. dielectric constant tensor:
#      x y z
#    x 1.890650 -0.004940 -0.000590 
#    y -0.004940 1.882610 0.008790 
#    z -0.000590 0.008790 1.878430 
# 
# From -- ./inp_files/209572.got.cif
#   From: 2010.06.25/outbox.cif.g09.slc.cpg/sg2_105_cif.got.tgz:209572.got - 2010.06.27 13:26:56.
