data_PCOD8033097
_publ_section_title
;
Structure prediction by ZEFSAII (Michael W. Deem and Ramdas Pophale) SiO2 
 PCOD8033097
Probable space group: P -1
;
_chemical_formula_sum "Si O2"
_cell_formula_units_Z 14
_cell_length_a 9.766170
_cell_length_b 7.923388
_cell_length_c 12.028272
_cell_angle_alpha 89.140261
_cell_angle_beta 49.768585
_cell_angle_gamma 61.200342
_cell_volume 558.359540
_symmetry_space_group_name_H-M "P -1"
_symmetry_group_IT_number 2
_symmetry_cell_setting 'triclinic'
loop_
_space_group_symop_operation_xyz
x,y,z
-x,-y,-z
loop_
_atom_site_type_symbol
_atom_site_label
_atom_site_fract_x
_atom_site_fract_y
_atom_site_fract_z
Si Si1 0.842238 0.548246 0.976247
Si Si2 0.770567 0.889519 0.245542
Si Si3 0.764167 0.886920 0.858164
Si Si4 0.570039 0.402612 0.730060
Si Si5 0.951518 0.729659 0.518480
Si Si6 0.620124 0.119393 0.530451
Si Si7 0.230973 0.899257 0.946264
O O1 0.887491 0.660104 0.857590
O O2 0.955746 0.303444 0.881129
O O3 0.569681 0.671340 0.136810
O O4 0.000000 0.500000 0.000000
O O5 0.637711 0.797463 0.349840
O O6 0.721535 0.073325 0.353396
O O7 0.688207 0.976525 0.161125
O O8 0.871285 0.843497 0.680478
O O9 0.500000 0.000000 0.000000
O O10 0.799968 0.040947 0.907655
O O11 0.611951 0.312291 0.583095
O O12 0.420513 0.654161 0.819005
O O13 0.821670 0.302475 0.642753
O O14 0.000000 0.500000 0.500000
O O15 0.760127 0.896849 0.529879
O O16 0.000000 0.000000 0.000000
#
# Coordination Sequence:
#
# PCOD8033097 Si02
#       7
#     2   2   2   2   2   2   2
#     4  12  22  46  73 106 141 194 246 305 365 443
#     4  11  23  44  73  99 149 185 247 298 372 438
#     4  12  26  47  78 103 150 199 246 306 376 442
#     4  12  25  44  75 102 150 188 247 305 365 440
#     4  12  27  50  71 109 153 194 245 307 376 441
#     4  11  25  45  70 107 142 197 237 308 366 445
#     4  12  25  45  68 109 143 189 249 306 364 440
#
# _framework density 25.073450000000001
#
# number of rings (size 3 to 8) (size 9 to 14) (size 15 to 20)
#    0.000    0.286    4.286    4.714    2.000    1.714 
#    0.000    4.286    0.000    0.000    0.000    0.000 
#    0.000    0.000    0.000    0.000    0.000    0.000 
#
# Total GULP energy -173437.143615 kJ/mol
# GULP energy per Si atom -12388.367401 kJ/mol
# Density = 2.501638 g / cm^3
# Si number density = 25.073450 Si / 1000 Ang^3
#
#
#
# Elastic Constant Matrix: (Units=GPa)
#
#
# Indices 1 2 3 4 5 6 
#
# 1 106.7632 -0.5903 47.0243 3.8542 -5.6690 8.2352
# 2 -0.5903 59.6874 13.3183 15.2187 4.6860 -6.6612
# 3 47.0243 13.3183 123.7221 17.4676 -0.8825 -0.0907
# 4 3.8542 15.2187 17.4676 46.9286 9.7035 6.1401
# 5 -5.6690 4.6860 -0.8825 9.7035 58.8144 1.1709
# 6 8.2352 -6.6612 -0.0907 6.1401 1.1709 38.3338
#
#
#
# Elastic Compliance Matrix: (Units=1/GPa)
#
#
# Indices 1 2 3 4 5 6 
#
# 1 0.011602 0.000601 -0.004567 0.000690 0.000939 -0.002538
# 2 0.000601 0.019163 -0.001421 -0.006170 -0.000556 0.004203
# 3 -0.004567 -0.001421 0.010439 -0.003288 0.000347 0.001275
# 4 0.000690 -0.006170 -0.003288 0.025924 -0.003663 -0.005269
# 5 0.000939 -0.000556 0.000347 -0.003663 0.017752 -0.000253
# 6 -0.002538 0.004203 0.001275 -0.005269 -0.000253 0.028217
#
#
# Mechanical properties :
#
#
# Convention : Reuss Voigt Hill
#
# Bulk Modulus (GPa) = 32.86268 45.51969 39.19118
# Shear Modulus (GPa) = 37.30947 44.17671 40.74309
#
# Velocity S-wave (km/s) = 3.86165 4.20204 4.03544
# Velocity P-wave (km/s) = 5.74615 6.46041 6.11372
#
# Compressibility (1/GPa) = 0.03042966
#
# Stress axis : x y z
#
# Youngs Moduli (GPa) = 86.19127 52.18454 95.79385
#
# Poissons Ratio (x) = -0.03136 0.43749
# Poissons Ratio (y) = -0.05179 0.13612
# Poissons Ratio (z) = 0.39364 0.07416
#
# Static dielectric constant tensor:
#      x y z
#    x 4.558880 0.086690 0.234580 
#    y 0.086690 4.846800 0.052990 
#    z 0.234580 0.052990 4.407920 
# 
# 
# High freq. dielectric constant tensor:
#      x y z
#    x 2.001610 0.009870 -0.006220 
#    y 0.009870 1.989600 0.016340 
#    z -0.006220 0.016340 2.024040 
# 
# From -- ./inp_files/382843.got.cif
#   From: 2010.06.25/outbox.cif.g09.slc.cpg/sg2_192_cif.got.tgz:382843.got - 2010.06.27 13:26:56.
