data_PCOD8033281
_publ_section_title
;
Structure prediction by ZEFSAII (Michael W. Deem and Ramdas Pophale) SiO2 
 PCOD8033281
Probable space group: P -1
;
_chemical_formula_sum "Si O2"
_cell_formula_units_Z 16
_cell_length_a 11.793899
_cell_length_b 12.136462
_cell_length_c 9.146439
_cell_angle_alpha 87.251612
_cell_angle_beta 144.432436
_cell_angle_gamma 90.362410
_cell_volume 759.424763
_symmetry_space_group_name_H-M "P -1"
_symmetry_group_IT_number 2
_symmetry_cell_setting 'triclinic'
loop_
_space_group_symop_operation_xyz
x,y,z
-x,-y,-z
loop_
_atom_site_type_symbol
_atom_site_label
_atom_site_fract_x
_atom_site_fract_y
_atom_site_fract_z
Si Si1 0.145953 0.855307 0.985590
Si Si2 0.622399 0.948553 0.767333
Si Si3 0.298341 0.532936 0.859132
Si Si4 0.956748 0.649069 0.327351
Si Si5 0.290356 0.929227 0.659676
Si Si6 0.004985 0.177464 0.853907
Si Si7 0.177789 0.176913 0.584118
Si Si8 0.587020 0.240735 0.944962
O O1 0.979005 0.815607 0.708525
O O2 0.356137 0.805677 0.152120
O O3 0.103658 0.821144 0.106738
O O4 0.182044 0.984111 0.005659
O O5 0.487494 0.935700 0.768579
O O6 0.500000 0.000000 0.500000
O O7 0.755905 0.837860 0.879269
O O8 0.230192 0.425549 0.881519
O O9 0.135163 0.567098 0.567201
O O10 0.500000 0.500000 0.000000
O O11 0.328256 0.639029 0.982313
O O12 0.022149 0.696860 0.238700
O O13 0.910540 0.760228 0.370554
O O14 0.109797 0.904687 0.368037
O O15 0.248147 0.047517 0.690941
O O16 0.319511 0.834828 0.819573
O O17 0.355161 0.247551 0.712820
#
# Coordination Sequence:
#
# PCOD8033281 Si02
#       8
#     2   2   2   2   2   2   2   2
#     4  12  25  40  61  93 140 173 214 263 327 393
#     4  12  24  40  61  95 139 186 221 250 321 399
#     4  11  23  45  72  96 127 166 225 285 331 381
#     4  11  25  43  71  99 125 172 227 274 333 386
#     4  12  24  40  66  98 138 173 220 268 324 398
#     4  12  25  42  64  95 138 180 220 263 320 401
#     4  12  23  41  64 101 134 169 211 277 331 387
#     4  12  25  42  66 101 128 175 220 277 333 387
#
# _framework density 21.068577999999999
#
# number of rings (size 3 to 8) (size 9 to 14) (size 15 to 20)
#    0.000    0.250    7.500    2.250    1.750    1.000 
#    0.000    0.625    0.000    1.500    0.000    0.000 
#    0.000    0.000    0.000    0.000    0.000    0.000 
#
# Total GULP energy -198233.222597 kJ/mol
# GULP energy per Si atom -12389.576412 kJ/mol
# Density = 2.102063 g / cm^3
# Si number density = 21.068578 Si / 1000 Ang^3
#
#
#
# Elastic Constant Matrix: (Units=GPa)
#
#
# Indices 1 2 3 4 5 6 
#
# 1 141.6901 53.8737 38.6229 -12.8988 7.5089 9.2417
# 2 53.8737 96.5585 22.4180 8.7174 -9.7689 24.5895
# 3 38.6229 22.4180 75.5388 10.6266 16.5785 10.1136
# 4 -12.8988 8.7174 10.6266 25.8427 -2.7997 12.2366
# 5 7.5089 -9.7689 16.5785 -2.7997 28.8759 5.4825
# 6 9.2417 24.5895 10.1136 12.2366 5.4825 30.1544
#
#
#
# Elastic Compliance Matrix: (Units=1/GPa)
#
#
# Indices 1 2 3 4 5 6 
#
# 1 0.012004 -0.006245 -0.005471 0.010694 -0.000879 -0.000932
# 2 -0.006245 0.020098 -0.003727 0.000687 0.013665 -0.015988
# 3 -0.005471 -0.003727 0.021687 -0.014955 -0.014921 0.006224
# 4 0.010694 0.000687 -0.014955 0.065428 0.017813 -0.028611
# 5 -0.000879 0.013665 -0.014921 0.017813 0.054131 -0.022940
# 6 -0.000932 -0.015988 0.006224 -0.028611 -0.022940 0.060180
#
#
# Mechanical properties :
#
#
# Convention : Reuss Voigt Hill
#
# Bulk Modulus (GPa) = 43.66078 60.40183 52.03130
# Shear Modulus (GPa) = 18.37914 30.23279 24.30597
#
# Velocity S-wave (km/s) = 2.95676 3.79221 3.40024
# Velocity P-wave (km/s) = 5.69427 6.92141 6.33761
#
# Compressibility (1/GPa) = 0.02290385
#
# Stress axis : x y z
#
# Youngs Moduli (GPa) = 83.30416 49.75699 46.11090
#
# Poissons Ratio (x) = 0.31071 0.25228
# Poissons Ratio (y) = 0.52019 0.17184
# Poissons Ratio (z) = 0.45577 0.18543
#
# Static dielectric constant tensor:
#      x y z
#    x 4.023430 0.019960 0.333570 
#    y 0.019960 4.992400 0.196680 
#    z 0.333570 0.196680 3.949880 
# 
# 
# High freq. dielectric constant tensor:
#      x y z
#    x 1.833310 0.007470 0.029630 
#    y 0.007470 1.817080 0.006290 
#    z 0.029630 0.006290 1.825380 
# 
# From -- ./inp_files/258705.got.cif
#   From: 2010.06.25/outbox.cif.g09.slc.cpg/sg2_130_cif.got.tgz:258705.got - 2010.06.27 13:26:56.
