data_PCOD8033150
_publ_section_title
;
Structure prediction by ZEFSAII (Michael W. Deem and Ramdas Pophale) SiO2 
 PCOD8033150
Probable space group: P -1
;
_chemical_formula_sum "Si O2"
_cell_formula_units_Z 12
_cell_length_a 12.027659
_cell_length_b 12.099778
_cell_length_c 6.694714
_cell_angle_alpha 112.714651
_cell_angle_beta 50.584987
_cell_angle_gamma 130.654450
_cell_volume 570.414647
_symmetry_space_group_name_H-M "P -1"
_symmetry_group_IT_number 2
_symmetry_cell_setting 'triclinic'
loop_
_space_group_symop_operation_xyz
x,y,z
-x,-y,-z
loop_
_atom_site_type_symbol
_atom_site_label
_atom_site_fract_x
_atom_site_fract_y
_atom_site_fract_z
Si Si1 0.347912 0.756853 0.447121
Si Si2 0.727209 0.912457 0.276527
Si Si3 0.918014 0.288086 0.946848
Si Si4 0.073277 0.224742 0.055845
Si Si5 0.099144 0.449200 0.477249
Si Si6 0.685874 0.070732 0.745144
O O1 0.556930 0.867331 0.308962
O O2 0.299804 0.594388 0.343801
O O3 0.282396 0.816288 0.389681
O O4 0.241031 0.735162 0.756802
O O5 0.761823 0.786883 0.141317
O O6 0.693719 0.939157 0.560043
O O7 0.894289 0.065669 0.117015
O O8 0.833740 0.148882 0.799081
O O9 0.075250 0.310693 0.920194
O O10 0.018632 0.425167 0.775967
O O11 0.084184 0.308181 0.304985
O O12 0.000000 0.500000 0.500000
O O13 0.500000 0.000000 0.000000
#
# Coordination Sequence:
#
# PCOD8033150 Si02
#       6
#     2   2   2   2   2   2
#     4  12  24  41  69  97 127 165 220 268 309 378
#     4  11  23  45  62  95 134 168 207 270 317 376
#     4  12  21  40  69  94 123 170 215 261 314 377
#     4  11  25  43  64  93 135 167 211 262 324 381
#     4  12  23  42  67  97 125 170 218 260 319 380
#     4  12  22  39  70  99 121 165 223 261 314 375
#
# _framework density 21.037327000000001
#
# number of rings (size 3 to 8) (size 9 to 14) (size 15 to 20)
#    0.000    0.333    8.333    2.000    0.000    1.333 
#    3.000    0.833    0.000    0.000    0.000    0.000 
#    0.000    0.000    0.000    0.000    0.000    0.000 
#
# Total GULP energy -148692.261873 kJ/mol
# GULP energy per Si atom -12391.021823 kJ/mol
# Density = 2.098945 g / cm^3
# Si number density = 21.037327 Si / 1000 Ang^3
#
#
#
# Elastic Constant Matrix: (Units=GPa)
#
#
# Indices 1 2 3 4 5 6 
#
# 1 80.3478 14.7411 46.1954 10.0848 0.6856 -9.1620
# 2 14.7411 84.8001 38.9728 4.2638 -1.3318 1.3379
# 3 46.1954 38.9728 122.1041 1.2594 1.7538 -17.1125
# 4 10.0848 4.2638 1.2594 31.8508 -7.3798 6.0792
# 5 0.6856 -1.3318 1.7538 -7.3798 36.4390 3.7088
# 6 -9.1620 1.3379 -17.1125 6.0792 3.7088 32.3011
#
#
#
# Elastic Compliance Matrix: (Units=1/GPa)
#
#
# Indices 1 2 3 4 5 6 
#
# 1 0.016963 0.000002 -0.005912 -0.006074 -0.001570 0.003003
# 2 0.000002 0.014188 -0.004975 -0.000892 0.000899 -0.003158
# 3 -0.005912 -0.004975 0.012759 0.000783 -0.001062 0.005263
# 4 -0.006074 -0.000892 0.000783 0.037142 0.008507 -0.009238
# 5 -0.001570 0.000899 -0.001062 0.008507 0.029898 -0.006079
# 6 0.003003 -0.003158 0.005263 -0.009238 -0.006079 0.037166
#
#
# Mechanical properties :
#
#
# Convention : Reuss Voigt Hill
#
# Bulk Modulus (GPa) = 45.17034 54.11897 49.64466
# Shear Modulus (GPa) = 28.20598 32.60770 30.40684
#
# Velocity S-wave (km/s) = 3.66561 3.94127 3.80593
# Velocity P-wave (km/s) = 6.27963 6.81854 6.55462
#
# Compressibility (1/GPa) = 0.02213842
#
# Stress axis : x y z
#
# Youngs Moduli (GPa) = 58.95219 70.48454 78.37437
#
# Poissons Ratio (x) = -0.00012 0.46335
# Poissons Ratio (y) = -0.00010 0.38994
# Poissons Ratio (z) = 0.34853 0.35068
#
# Static dielectric constant tensor:
#      x y z
#    x 3.941430 0.410440 0.294770 
#    y 0.410440 4.751010 0.293350 
#    z 0.294770 0.293350 4.123190 
# 
# 
# High freq. dielectric constant tensor:
#      x y z
#    x 1.804680 0.013680 0.017020 
#    y 0.013680 1.833170 0.004240 
#    z 0.017020 0.004240 1.825600 
# 
# From -- ./inp_files/25487.got.cif
#   From: 2010.06.25/outbox.cif.g09.slc.cpg/sg2_13_cif.got.tgz:25487.got - 2010.06.27 13:26:56.
