data_PCOD8033249
_publ_section_title
;
Structure prediction by ZEFSAII (Michael W. Deem and Ramdas Pophale) SiO2 
 PCOD8033249
Probable space group: P -1
;
_chemical_formula_sum "Si O2"
_cell_formula_units_Z 12
_cell_length_a 6.769897
_cell_length_b 25.693794
_cell_length_c 14.637248
_cell_angle_alpha 19.286288
_cell_angle_beta 140.239158
_cell_angle_gamma 140.774294
_cell_volume 523.131830
_symmetry_space_group_name_H-M "P -1"
_symmetry_group_IT_number 2
_symmetry_cell_setting 'triclinic'
loop_
_space_group_symop_operation_xyz
x,y,z
-x,-y,-z
loop_
_atom_site_type_symbol
_atom_site_label
_atom_site_fract_x
_atom_site_fract_y
_atom_site_fract_z
Si Si1 0.645151 0.804222 0.146927
Si Si2 0.657724 0.086005 0.824182
Si Si3 0.592252 0.612658 0.759122
Si Si4 0.649675 0.494925 0.345678
Si Si5 0.714003 0.235554 0.235206
Si Si6 0.713836 0.059020 0.344179
O O1 0.591200 0.644050 0.453951
O O2 0.976002 0.824618 0.177334
O O3 0.374714 0.799557 0.982874
O O4 0.632797 0.959361 0.944983
O O5 0.466542 0.217419 0.510506
O O6 0.500000 0.000000 0.000000
O O7 0.380990 0.543061 0.710722
O O8 0.966558 0.640816 0.819947
O O9 0.500000 0.500000 0.000000
O O10 0.000000 0.500000 0.500000
O O11 0.553461 0.664801 0.048364
O O12 0.809741 0.141479 0.338608
O O13 0.578900 0.099598 0.488684
O O14 0.000000 0.000000 0.500000
#
# Coordination Sequence:
#
# PCOD8033249 Si02
#       6
#     2   2   2   2   2   2
#     4  11  25  42  73 103 139 184 238 294 350 422
#     4  11  23  45  71 104 139 183 236 293 356 420
#     4  12  27  46  75 104 144 193 237 293 359 423
#     4  12  28  47  72 106 148 188 241 295 357 423
#     4  11  27  47  73 106 145 184 240 294 354 428
#     4  11  25  46  75 104 141 187 236 293 360 421
#
# _framework density 22.938769000000001
#
# number of rings (size 3 to 8) (size 9 to 14) (size 15 to 20)
#    0.000    0.667    1.667    4.500   11.667    3.333 
#    0.000    0.000    0.000    0.000    0.000    0.000 
#    0.000    0.000    0.000    0.000    0.000    0.000 
#
# Total GULP energy -148832.337868 kJ/mol
# GULP energy per Si atom -12402.694822 kJ/mol
# Density = 2.288656 g / cm^3
# Si number density = 22.938769 Si / 1000 Ang^3
#
#
#
# Elastic Constant Matrix: (Units=GPa)
#
#
# Indices 1 2 3 4 5 6 
#
# 1 138.1830 45.0382 48.3735 2.5704 -14.2450 9.2159
# 2 45.0382 107.9831 20.7940 13.5573 -8.4746 9.1402
# 3 48.3735 20.7940 147.5620 0.9340 -12.8838 1.9598
# 4 2.5704 13.5573 0.9340 38.9832 0.7617 1.6863
# 5 -14.2450 -8.4746 -12.8838 0.7617 52.9984 2.7656
# 6 9.2159 9.1402 1.9598 1.6863 2.7656 29.1285
#
#
#
# Elastic Compliance Matrix: (Units=1/GPa)
#
#
# Indices 1 2 3 4 5 6 
#
# 1 0.009442 -0.003252 -0.002483 0.000624 0.001508 -0.001979
# 2 -0.003252 0.011441 -0.000400 -0.003671 0.001037 -0.002420
# 3 -0.002483 -0.000400 0.007742 0.000083 0.001135 0.000278
# 4 0.000624 -0.003671 0.000083 0.026924 -0.000758 -0.000538
# 5 0.001508 0.001037 0.001135 -0.000758 0.019869 -0.002722
# 6 -0.001979 -0.002420 0.000278 -0.000538 -0.002722 0.035987
#
#
# Mechanical properties :
#
#
# Convention : Reuss Voigt Hill
#
# Bulk Modulus (GPa) = 61.14555 69.12660 65.13607
# Shear Modulus (GPa) = 38.72159 42.85684 40.78921
#
# Velocity S-wave (km/s) = 4.11304 4.32709 4.22142
# Velocity P-wave (km/s) = 7.01925 7.42736 7.22619
#
# Compressibility (1/GPa) = 0.01635442
#
# Stress axis : x y z
#
# Youngs Moduli (GPa) = 105.91080 87.40189 129.16532
#
# Poissons Ratio (x) = 0.28427 0.32070
# Poissons Ratio (y) = 0.34447 0.05169
# Poissons Ratio (z) = 0.26296 0.03497
#
# Static dielectric constant tensor:
#      x y z
#    x 3.681730 0.144890 0.046620 
#    y 0.144890 4.079460 0.004470 
#    z 0.046620 0.004470 4.330400 
# 
# 
# High freq. dielectric constant tensor:
#      x y z
#    x 1.919120 0.008610 -0.000520 
#    y 0.008610 1.899730 0.001820 
#    z -0.000520 0.001820 1.924130 
# 
# From -- ./inp_files/28746.got.cif
#   From: 2010.06.25/outbox.cif.g09.slc.cpg/sg2_15_cif.got.tgz:28746.got - 2010.06.27 13:26:56.
