data_PCOD8033553
_publ_section_title
;
Structure prediction by ZEFSAII (Michael W. Deem and Ramdas Pophale) SiO2 
 PCOD8033553
Probable space group: P -1
;
_chemical_formula_sum "Si O2"
_cell_formula_units_Z 16
_cell_length_a 15.859718
_cell_length_b 8.761807
_cell_length_c 12.510443
_cell_angle_alpha 98.145108
_cell_angle_beta 26.592675
_cell_angle_gamma 90.012439
_cell_volume 738.313590
_symmetry_space_group_name_H-M "P -1"
_symmetry_group_IT_number 2
_symmetry_cell_setting 'triclinic'
loop_
_space_group_symop_operation_xyz
x,y,z
-x,-y,-z
loop_
_atom_site_type_symbol
_atom_site_label
_atom_site_fract_x
_atom_site_fract_y
_atom_site_fract_z
Si Si1 0.336763 0.662501 0.534784
Si Si2 0.790425 0.587469 0.794630
Si Si3 0.862133 0.448430 0.068889
Si Si4 0.585483 0.355661 0.102558
Si Si5 0.979338 0.182801 0.752880
Si Si6 0.357224 0.173656 0.199716
Si Si7 0.015128 0.077625 0.106251
Si Si8 0.705686 0.739958 0.128287
O O1 0.273036 0.647081 0.727973
O O2 0.446972 0.483835 0.352182
O O3 0.143912 0.746374 0.690978
O O4 0.469865 0.786698 0.384078
O O5 0.665486 0.725817 0.873145
O O6 0.000000 0.500000 0.500000
O O7 0.674986 0.453508 0.924813
O O8 0.818389 0.668232 0.884116
O O9 0.728355 0.602840 0.177584
O O10 0.998617 0.331372 0.816788
O O11 0.000000 0.500000 0.000000
O O12 0.450525 0.258968 0.192786
O O13 0.762205 0.227402 0.951368
O O14 0.146248 0.154151 0.470887
O O15 0.020461 0.026782 0.765259
O O16 0.500000 0.000000 0.000000
O O17 0.226176 0.110779 0.889081
O O18 0.000000 0.000000 0.000000
#
# Coordination Sequence:
#
# PCOD8033553 Si02
#       8
#     2   2   2   2   2   2   2   2
#     4  11  24  42  74 104 136 185 234 274 345 419
#     4  11  23  47  72 100 134 181 234 286 344 402
#     4  12  20  43  73 101 137 181 226 279 336 412
#     4  11  26  46  74 101 135 182 233 287 336 422
#     4  12  26  47  66 104 142 176 233 282 349 407
#     4  12  29  47  71 103 136 180 232 292 355 403
#     4  12  27  45  67 105 147 184 222 287 355 404
#     4  11  25  42  71 100 139 182 234 283 334 417
#
# _framework density 21.671009000000002
#
# number of rings (size 3 to 8) (size 9 to 14) (size 15 to 20)
#    0.000    0.500    6.250    1.500    7.000    2.000 
#    0.000    0.000    0.000    0.000    0.000    0.000 
#    0.000    0.000    0.000    0.000    0.000    0.000 
#
# Total GULP energy -198409.860225 kJ/mol
# GULP energy per Si atom -12400.616264 kJ/mol
# Density = 2.162168 g / cm^3
# Si number density = 21.671009 Si / 1000 Ang^3
#
#
#
# Elastic Constant Matrix: (Units=GPa)
#
#
# Indices 1 2 3 4 5 6 
#
# 1 117.1558 35.9923 22.4174 -5.3691 -7.7923 -5.6924
# 2 35.9923 85.6415 14.6103 -8.2980 -3.6527 -11.9991
# 3 22.4174 14.6103 91.7770 -1.3947 -1.7433 -3.9798
# 4 -5.3691 -8.2980 -1.3947 33.9167 -7.3525 -5.2277
# 5 -7.7923 -3.6527 -1.7433 -7.3525 28.2287 -4.5816
# 6 -5.6924 -11.9991 -3.9798 -5.2277 -4.5816 59.4740
#
#
#
# Elastic Compliance Matrix: (Units=1/GPa)
#
#
# Indices 1 2 3 4 5 6 
#
# 1 0.010282 -0.003711 -0.001832 0.001285 0.002649 0.000430
# 2 -0.003711 0.014310 -0.001143 0.003806 0.002229 0.002962
# 3 -0.001832 -0.001143 0.011544 -0.000012 0.000117 0.000374
# 4 0.001285 0.003806 -0.000012 0.033576 0.010344 0.004638
# 5 0.002649 0.002229 0.000117 0.010344 0.039908 0.004695
# 6 0.000430 0.002962 0.000374 0.004638 0.004695 0.018247
#
#
# Mechanical properties :
#
#
# Convention : Reuss Voigt Hill
#
# Bulk Modulus (GPa) = 43.92991 48.95712 46.44351
# Shear Modulus (GPa) = 33.59594 39.09416 36.34505
#
# Velocity S-wave (km/s) = 3.94162 4.25194 4.09972
# Velocity P-wave (km/s) = 6.40550 6.83706 6.62480
#
# Compressibility (1/GPa) = 0.02276354
#
# Stress axis : x y z
#
# Youngs Moduli (GPa) = 97.25416 69.88118 86.62683
#
# Poissons Ratio (x) = 0.25933 0.15873
# Poissons Ratio (y) = 0.36091 0.09901
# Poissons Ratio (z) = 0.17820 0.07987
#
# Static dielectric constant tensor:
#      x y z
#    x 3.575080 -0.540570 0.313670 
#    y -0.540570 3.854890 0.002600 
#    z 0.313670 0.002600 4.003810 
# 
# 
# High freq. dielectric constant tensor:
#      x y z
#    x 1.859150 -0.010650 -0.004930 
#    y -0.010650 1.853050 -0.006760 
#    z -0.004930 -0.006760 1.857300 
# 
# From -- ./inp_files/447591.got.cif
#   From: 2010.06.25/outbox.cif.g09.slc.cpg/sg2_224_cif.got.tgz:447591.got - 2010.06.27 13:26:56.
