data_PCOD8033749
_publ_section_title
;
Structure prediction by ZEFSAII (Michael W. Deem and Ramdas Pophale) SiO2 
 PCOD8033749
Probable space group: P -1
;
_chemical_formula_sum "Si O2"
_cell_formula_units_Z 14
_cell_length_a 12.252906
_cell_length_b 9.121215
_cell_length_c 9.431202
_cell_angle_alpha 47.711288
_cell_angle_beta 122.128291
_cell_angle_gamma 124.004033
_cell_volume 625.276809
_symmetry_space_group_name_H-M "P -1"
_symmetry_group_IT_number 2
_symmetry_cell_setting 'triclinic'
loop_
_space_group_symop_operation_xyz
x,y,z
-x,-y,-z
loop_
_atom_site_type_symbol
_atom_site_label
_atom_site_fract_x
_atom_site_fract_y
_atom_site_fract_z
Si Si1 0.604892 0.097571 0.830914
Si Si2 0.650220 0.833591 0.262514
Si Si3 0.351539 0.604324 0.571228
Si Si4 0.568410 0.736812 0.841919
Si Si5 0.882711 0.829091 0.944261
Si Si6 0.881095 0.431653 0.350179
Si Si7 0.118012 0.006786 0.470101
O O1 0.502914 0.195972 0.776262
O O2 0.693308 0.280413 0.667693
O O3 0.525197 0.889247 0.821740
O O4 0.697604 0.030456 0.056567
O O5 0.657189 0.630232 0.318059
O O6 0.740589 0.865732 0.443282
O O7 0.504521 0.742127 0.637424
O O8 0.258921 0.602607 0.643087
O O9 0.732172 0.822778 0.892403
O O10 0.500000 0.500000 0.000000
O O11 0.902750 0.877029 0.761257
O O12 0.900014 0.604819 0.129150
O O13 0.000000 0.000000 0.000000
O O14 0.883294 0.225190 0.408875
O O15 0.000000 0.500000 0.500000
O O16 0.000000 0.000000 0.500000
#
# Coordination Sequence:
#
# PCOD8033749 Si02
#       7
#     2   2   2   2   2   2   2
#     4  11  24  41  70 100 147 188 230 298 369 418
#     4  11  25  43  65 108 150 184 236 301 364 433
#     4  12  24  44  74 107 142 190 245 298 357 436
#     4  12  23  45  76 106 141 189 250 299 350 431
#     4  12  27  48  78 105 144 193 246 302 359 431
#     4  12  25  45  76 103 140 191 249 293 358 435
#     4  12  28  46  72 106 149 189 242 301 362 430
#
# _framework density 22.390084999999999
#
# number of rings (size 3 to 8) (size 9 to 14) (size 15 to 20)
#    0.000    0.286    4.286    4.286    2.000    1.714 
#    0.000    0.000    0.000    0.000    0.000    0.000 
#    0.000    0.000    0.000    0.000    0.000    0.000 
#
# Total GULP energy -173610.516396 kJ/mol
# GULP energy per Si atom -12400.751171 kJ/mol
# Density = 2.233912 g / cm^3
# Si number density = 22.390085 Si / 1000 Ang^3
#
#
#
# Elastic Constant Matrix: (Units=GPa)
#
#
# Indices 1 2 3 4 5 6 
#
# 1 120.0087 69.0154 56.7805 -10.5909 -5.2303 -16.7414
# 2 69.0154 110.5987 49.5942 3.8615 10.7642 -14.3639
# 3 56.7805 49.5942 195.0422 -5.4442 -19.5965 -3.9612
# 4 -10.5909 3.8615 -5.4442 53.0769 3.2546 10.7415
# 5 -5.2303 10.7642 -19.5965 3.2546 37.5438 -0.2711
# 6 -16.7414 -14.3639 -3.9612 10.7415 -0.2711 45.6986
#
#
#
# Elastic Compliance Matrix: (Units=1/GPa)
#
#
# Indices 1 2 3 4 5 6 
#
# 1 0.014747 -0.008661 -0.001626 0.002809 0.003459 0.001899
# 2 -0.008661 0.016678 -0.002459 -0.003290 -0.006968 0.002588
# 3 -0.001626 -0.002459 0.006611 0.000473 0.003882 -0.000884
# 4 0.002809 -0.003290 0.000473 0.020681 -0.000246 -0.004827
# 5 0.003459 -0.006968 0.003882 -0.000246 0.031160 -0.000344
# 6 0.001899 0.002588 -0.000884 -0.004827 -0.000344 0.024448
#
#
# Mechanical properties :
#
#
# Convention : Reuss Voigt Hill
#
# Bulk Modulus (GPa) = 79.72155 86.27000 82.99577
# Shear Modulus (GPa) = 34.72284 43.94783 39.33534
#
# Velocity S-wave (km/s) = 3.94231 4.43519 4.19599
# Velocity P-wave (km/s) = 7.51035 8.05245 7.78612
#
# Compressibility (1/GPa) = 0.01254366
#
# Stress axis : x y z
#
# Youngs Moduli (GPa) = 67.81225 59.95920 151.26327
#
# Poissons Ratio (x) = 0.51930 0.24599
# Poissons Ratio (y) = 0.58732 0.37192
# Poissons Ratio (z) = 0.11028 0.14743
#
# Static dielectric constant tensor:
#      x y z
#    x 3.930870 0.033250 0.119710 
#    y 0.033250 4.077960 0.165830 
#    z 0.119710 0.165830 4.797630 
# 
# 
# High freq. dielectric constant tensor:
#      x y z
#    x 1.878050 -0.013370 0.001420 
#    y -0.013370 1.881690 -0.001150 
#    z 0.001420 -0.001150 1.911040 
# 
# From -- ./inp_files/242293.got.cif
#   From: 2010.06.25/outbox.cif.g09.slc.cpg/sg2_122_cif.got.tgz:242293.got - 2010.06.27 13:26:56.
