data_PCOD8033356
_publ_section_title
;
Structure prediction by ZEFSAII (Michael W. Deem and Ramdas Pophale) SiO2 
 PCOD8033356
Probable space group: P -1
;
_chemical_formula_sum "Si O2"
_cell_formula_units_Z 16
_cell_length_a 13.144039
_cell_length_b 8.731743
_cell_length_c 7.492147
_cell_angle_alpha 75.563203
_cell_angle_beta 59.066704
_cell_angle_gamma 61.342395
_cell_volume 647.216869
_symmetry_space_group_name_H-M "P -1"
_symmetry_group_IT_number 2
_symmetry_cell_setting 'triclinic'
loop_
_space_group_symop_operation_xyz
x,y,z
-x,-y,-z
loop_
_atom_site_type_symbol
_atom_site_label
_atom_site_fract_x
_atom_site_fract_y
_atom_site_fract_z
Si Si1 0.596760 0.246348 0.588189
Si Si2 0.271562 0.682800 0.212293
Si Si3 0.420136 0.110275 0.256930
Si Si4 0.320000 0.905149 0.813321
Si Si5 0.649949 0.614652 0.036094
Si Si6 0.829959 0.785670 0.373036
Si Si7 0.942048 0.552910 0.845005
Si Si8 0.013934 0.171726 0.491206
O O1 0.677091 0.308580 0.637736
O O2 0.647975 0.234321 0.340533
O O3 0.611671 0.055334 0.679306
O O4 0.442047 0.381832 0.712825
O O5 0.363104 0.506330 0.076300
O O6 0.127275 0.690283 0.351444
O O7 0.265990 0.844047 0.050103
O O8 0.549293 0.072984 0.263437
O O9 0.418942 0.187205 0.038327
O O10 0.293007 0.250730 0.438186
O O11 0.209686 0.099071 0.805902
O O12 0.797649 0.559096 0.979129
O O13 0.957364 0.603045 0.319701
O O14 0.872267 0.896666 0.443615
O O15 0.938356 0.737441 0.735414
O O16 0.000000 0.500000 0.000000
O O17 0.000000 0.000000 0.500000
#
# Coordination Sequence:
#
# PCOD8033356 Si02
#       8
#     2   2   2   2   2   2   2   2
#     4  11  25  45  72 108 141 191 251 304 366 435
#     4  12  27  47  72 105 154 197 241 307 384 423
#     4  11  23  45  77 101 143 192 254 306 368 434
#     4  11  27  44  76 112 143 198 250 308 368 439
#     4  12  25  47  74 104 145 196 244 306 372 443
#     4  11  23  48  71 100 150 186 253 301 357 446
#     4  12  29  46  76 112 144 197 246 303 372 443
#     4  12  26  47  76 106 148 197 241 304 372 442
#
# _framework density 24.721233000000002
#
# number of rings (size 3 to 8) (size 9 to 14) (size 15 to 20)
#    0.000    0.500    3.750    4.875    5.250    3.000 
#    0.000    0.000    0.000    0.000    0.000    0.000 
#    0.000    0.000    0.000    0.000    0.000    0.000 
#
# Total GULP energy -198342.890860 kJ/mol
# GULP energy per Si atom -12396.430679 kJ/mol
# Density = 2.466497 g / cm^3
# Si number density = 24.721233 Si / 1000 Ang^3
#
#
#
# Elastic Constant Matrix: (Units=GPa)
#
#
# Indices 1 2 3 4 5 6 
#
# 1 163.9897 22.6005 24.3849 -5.6781 -5.7190 -17.7024
# 2 22.6005 47.4752 -23.8426 7.8136 -6.5168 -8.7699
# 3 24.3849 -23.8426 68.9924 7.7529 -12.4533 -8.4995
# 4 -5.6781 7.8136 7.7529 30.9878 -1.9933 -2.2975
# 5 -5.7190 -6.5168 -12.4533 -1.9933 37.2241 6.7074
# 6 -17.7024 -8.7699 -8.4995 -2.2975 6.7074 39.3033
#
#
#
# Elastic Compliance Matrix: (Units=1/GPa)
#
#
# Indices 1 2 3 4 5 6 
#
# 1 0.008505 -0.008452 -0.006809 0.005328 -0.002380 0.001190
# 2 -0.008452 0.041893 0.022261 -0.016403 0.011258 0.007475
# 3 -0.006809 0.022261 0.028667 -0.012933 0.010757 0.005508
# 4 0.005328 -0.016403 -0.012933 0.040284 -0.004040 -0.001013
# 5 -0.002380 0.011258 0.010757 -0.004040 0.032206 -0.001966
# 6 0.001190 0.007475 0.005508 -0.001013 -0.001966 0.029115
#
#
# Mechanical properties :
#
#
# Convention : Reuss Voigt Hill
#
# Bulk Modulus (GPa) = 10.74515 36.30476 23.52495
# Shear Modulus (GPa) = 25.29196 38.65736 31.97466
#
# Velocity S-wave (km/s) = 3.20204 3.95869 3.60030
# Velocity P-wave (km/s) = 4.24579 5.96763 5.17877
#
# Compressibility (1/GPa) = 0.09306528
#
# Stress axis : x y z
#
# Youngs Moduli (GPa) = 117.57539 23.87052 34.88291
#
# Poissons Ratio (x) = 0.20176 0.23751
# Poissons Ratio (y) = 0.99376 -0.77653
# Poissons Ratio (z) = 0.80054 -0.53138
#
# Static dielectric constant tensor:
#      x y z
#    x 4.442310 -0.167650 -0.284020 
#    y -0.167650 4.203540 0.171960 
#    z -0.284020 0.171960 4.787700 
# 
# 
# High freq. dielectric constant tensor:
#      x y z
#    x 1.992190 -0.006980 -0.007980 
#    y -0.006980 1.986040 0.013350 
#    z -0.007980 0.013350 1.988830 
# 
# From -- ./inp_files/243405.got.cif
#   From: 2010.06.25/outbox.cif.g09.slc.cpg/sg2_122_cif.got.tgz:243405.got - 2010.06.27 13:26:56.
