data_PCOD8033113
_publ_section_title
;
Structure prediction by ZEFSAII (Michael W. Deem and Ramdas Pophale) SiO2 
 PCOD8033113
Probable space group: P -1
;
_chemical_formula_sum "Si O2"
_cell_formula_units_Z 12
_cell_length_a 5.574893
_cell_length_b 18.174915
_cell_length_c 9.566002
_cell_angle_alpha 38.606288
_cell_angle_beta 79.215032
_cell_angle_gamma 63.904509
_cell_volume 521.489189
_symmetry_space_group_name_H-M "P -1"
_symmetry_group_IT_number 2
_symmetry_cell_setting 'triclinic'
loop_
_space_group_symop_operation_xyz
x,y,z
-x,-y,-z
loop_
_atom_site_type_symbol
_atom_site_label
_atom_site_fract_x
_atom_site_fract_y
_atom_site_fract_z
Si Si1 0.175976 0.082819 0.873198
Si Si2 0.267795 0.723107 0.174858
Si Si3 0.183719 0.545109 0.009127
Si Si4 0.293607 0.913676 0.662085
Si Si5 0.253695 0.478154 0.411478
Si Si6 0.771349 0.831266 0.561290
O O1 0.162444 0.164068 0.614414
O O2 0.036648 0.192759 0.847628
O O3 0.500000 0.000000 0.000000
O O4 0.000000 0.000000 0.000000
O O5 0.312526 0.600662 0.253741
O O6 0.485920 0.665597 0.364953
O O7 0.324438 0.818622 0.928022
O O8 0.035520 0.707194 0.788228
O O9 0.500000 0.500000 0.000000
O O10 0.182888 0.479794 0.254631
O O11 0.000000 0.500000 0.000000
O O12 0.496628 0.819577 0.653527
O O13 0.342665 0.025474 0.566980
O O14 0.000000 0.000000 0.500000
O O15 0.000000 0.500000 0.500000
#
# Coordination Sequence:
#
# PCOD8033113 Si02
#       6
#     2   2   2   2   2   2
#     4  12  27  46  72 109 149 192 239 306 371 441
#     4  11  25  46  75 107 148 196 252 307 371 444
#     4  12  30  50  77 109 152 198 250 310 373 446
#     4  11  23  44  74 105 146 192 244 306 367 443
#     4  11  27  47  77 105 147 201 252 309 370 449
#     4  11  26  44  72 106 144 192 244 300 372 435
#
# _framework density 23.011026000000001
#
# number of rings (size 3 to 8) (size 9 to 14) (size 15 to 20)
#    0.000    0.667    1.667    4.000   14.000    2.667 
#    0.000    0.000    0.000    0.000    0.000    0.000 
#    0.000    0.000    0.000    0.000    0.000    0.000 
#
# Total GULP energy -148663.397696 kJ/mol
# GULP energy per Si atom -12388.616475 kJ/mol
# Density = 2.295865 g / cm^3
# Si number density = 23.011026 Si / 1000 Ang^3
#
#
#
# Elastic Constant Matrix: (Units=GPa)
#
#
# Indices 1 2 3 4 5 6 
#
# 1 133.6047 52.0068 65.2417 7.0298 20.5261 -28.4124
# 2 52.0068 108.0567 68.3705 19.2189 -2.8733 -33.1977
# 3 65.2417 68.3705 195.1184 13.6688 16.1631 -18.0109
# 4 7.0298 19.2189 13.6688 52.0965 -4.3472 3.4119
# 5 20.5261 -2.8733 16.1631 -4.3472 35.1192 1.6677
# 6 -28.4124 -33.1977 -18.0109 3.4119 1.6677 51.1226
#
#
#
# Elastic Compliance Matrix: (Units=1/GPa)
#
#
# Indices 1 2 3 4 5 6 
#
# 1 0.011460 -0.003266 -0.001749 -0.000674 -0.006428 0.003887
# 2 -0.003266 0.016784 -0.004073 -0.004846 0.004184 0.007836
# 3 -0.001749 -0.004073 0.007295 -0.000336 -0.002666 -0.000937
# 4 -0.000674 -0.004846 -0.000336 0.021760 0.003092 -0.005193
# 5 -0.006428 0.004184 -0.002666 0.003092 0.034332 -0.003121
# 6 0.003887 0.007836 -0.000937 -0.005193 -0.003121 0.026927
#
#
# Mechanical properties :
#
#
# Convention : Reuss Voigt Hill
#
# Bulk Modulus (GPa) = 57.59392 89.77977 73.68685
# Shear Modulus (GPa) = 35.08250 44.41171 39.74711
#
# Velocity S-wave (km/s) = 3.90884 4.39796 4.16060
# Velocity P-wave (km/s) = 6.74205 8.05544 7.42783
#
# Compressibility (1/GPa) = 0.01736294
#
# Stress axis : x y z
#
# Youngs Moduli (GPa) = 87.26310 59.58058 137.08149
#
# Poissons Ratio (x) = 0.19458 0.23975
# Poissons Ratio (y) = 0.28499 0.55833
# Poissons Ratio (z) = 0.15262 0.24267
#
# Static dielectric constant tensor:
#      x y z
#    x 2.723350 -1.489790 0.739450 
#    y -1.489790 3.145170 0.696010 
#    z 0.739450 0.696010 3.989940 
# 
# 
# High freq. dielectric constant tensor:
#      x y z
#    x 1.910880 -0.019850 -0.001670 
#    y -0.019850 1.920720 -0.000130 
#    z -0.001670 -0.000130 1.934170 
# 
# From -- ./inp_files/22387.got.cif
#   From: 2010.06.25/outbox.cif.g09.slc.cpg/sg2_12_cif.got.tgz:22387.got - 2010.06.27 13:26:56.
