data_PCOD8033945
_publ_section_title
;
Structure prediction by ZEFSAII (Michael W. Deem and Ramdas Pophale) SiO2 
 PCOD8033945
Probable space group: P -1
;
_chemical_formula_sum "Si O2"
_cell_formula_units_Z 16
_cell_length_a 9.132752
_cell_length_b 12.278017
_cell_length_c 15.161344
_cell_angle_alpha 63.384985
_cell_angle_beta 104.126714
_cell_angle_gamma 148.246717
_cell_volume 765.287411
_symmetry_space_group_name_H-M "P -1"
_symmetry_group_IT_number 2
_symmetry_cell_setting 'triclinic'
loop_
_space_group_symop_operation_xyz
x,y,z
-x,-y,-z
loop_
_atom_site_type_symbol
_atom_site_label
_atom_site_fract_x
_atom_site_fract_y
_atom_site_fract_z
Si Si1 0.528797 0.884539 0.152546
Si Si2 0.093445 0.001238 0.423735
Si Si3 0.675851 0.513237 0.275040
Si Si4 0.834031 0.315402 0.668936
Si Si5 0.816473 0.211718 0.509673
Si Si6 0.503383 0.389852 0.105069
Si Si7 0.121801 0.106126 0.754877
Si Si8 0.945524 0.372693 0.958881
O O1 0.457440 0.873403 0.247009
O O2 0.662558 0.842525 0.189221
O O3 0.235181 0.682868 0.123979
O O4 0.770603 0.136454 0.054113
O O5 0.037641 0.817890 0.479991
O O6 0.922488 0.946439 0.337183
O O7 0.436555 0.259407 0.373559
O O8 0.000000 0.000000 0.500000
O O9 0.579171 0.498804 0.171794
O O10 0.731784 0.662214 0.295308
O O11 0.955730 0.622063 0.263525
O O12 0.772991 0.201646 0.611106
O O13 0.966680 0.539925 0.589459
O O14 0.500000 0.000000 0.500000
O O15 0.738834 0.450437 0.092795
O O16 0.500000 0.500000 0.000000
O O17 0.188109 0.108634 0.162358
O O18 0.000000 0.500000 0.000000
#
# Coordination Sequence:
#
# PCOD8033945 Si02
#       8
#     2   2   2   2   2   2   2   2
#     4  11  26  44  65 103 131 171 224 273 330 396
#     4  11  26  43  65 100 138 171 224 278 330 395
#     4  11  24  44  68  97 130 180 222 268 336 396
#     4  11  24  43  68  96 131 175 225 271 328 397
#     4  11  24  43  66  95 131 178 221 271 330 393
#     4  11  24  46  67  97 134 173 220 270 329 403
#     4  11  26  43  69  97 136 177 222 270 335 398
#     4  11  26  44  68  97 136 171 218 276 334 390
#
# _framework density 20.907178999999999
#
# number of rings (size 3 to 8) (size 9 to 14) (size 15 to 20)
#    0.000    1.000    5.000    0.000    7.000    2.000 
#    0.000    0.000    0.000    0.000    0.000    0.000 
#    0.000    0.000    0.000    0.000    0.000    0.000 
#
# Total GULP energy -198450.412831 kJ/mol
# GULP energy per Si atom -12403.150802 kJ/mol
# Density = 2.085959 g / cm^3
# Si number density = 20.907179 Si / 1000 Ang^3
#
#
#
# Elastic Constant Matrix: (Units=GPa)
#
#
# Indices 1 2 3 4 5 6 
#
# 1 145.9456 53.3611 49.4876 6.2659 1.6206 3.5880
# 2 53.3611 86.8730 30.2051 13.7591 2.1320 -4.8751
# 3 49.4876 30.2051 101.0528 12.7376 -2.9374 -0.1086
# 4 6.2659 13.7591 12.7376 21.2469 -0.7583 -0.5443
# 5 1.6206 2.1320 -2.9374 -0.7583 42.5292 2.5529
# 6 3.5880 -4.8751 -0.1086 -0.5443 2.5529 41.6995
#
#
#
# Elastic Compliance Matrix: (Units=1/GPa)
#
#
# Indices 1 2 3 4 5 6 
#
# 1 0.009962 -0.005356 -0.003620 0.002656 -0.000227 -0.001444
# 2 -0.005356 0.016766 -0.001351 -0.008444 -0.001023 0.002370
# 3 -0.003620 -0.001351 0.012821 -0.005707 0.000986 0.000052
# 4 0.002656 -0.008444 -0.005707 0.055191 0.000946 -0.000568
# 5 -0.000227 -0.001023 0.000986 0.000946 0.023751 -0.001539
# 6 -0.001444 0.002370 0.000052 -0.000568 -0.001539 0.024469
#
#
# Mechanical properties :
#
#
# Convention : Reuss Voigt Hill
#
# Bulk Modulus (GPa) = 52.93007 66.66436 59.79721
# Shear Modulus (GPa) = 29.42667 34.48296 31.95482
#
# Velocity S-wave (km/s) = 3.75572 4.06561 3.91373
# Velocity P-wave (km/s) = 6.64672 7.34806 7.00617
#
# Compressibility (1/GPa) = 0.01889285
#
# Stress axis : x y z
#
# Youngs Moduli (GPa) = 100.38229 59.64299 77.99821
#
# Poissons Ratio (x) = 0.31947 0.28239
# Poissons Ratio (y) = 0.53769 0.10540
# Poissons Ratio (z) = 0.36343 0.08059
#
# Static dielectric constant tensor:
#      x y z
#    x 3.860680 0.058120 0.125040 
#    y 0.058120 3.924650 0.122140 
#    z 0.125040 0.122140 3.698680 
# 
# 
# High freq. dielectric constant tensor:
#      x y z
#    x 1.822780 0.005720 0.004330 
#    y 0.005720 1.824520 0.006270 
#    z 0.004330 0.006270 1.828690 
# 
# From -- ./inp_files/37334.got.cif
#   From: 2010.06.25/outbox.cif.g09.slc.cpg/sg2_19_cif.got.tgz:37334.got - 2010.06.27 13:26:56.
