data_PCOD8033096
_publ_section_title
;
Structure prediction by ZEFSAII (Michael W. Deem and Ramdas Pophale) SiO2 
 PCOD8033096
Probable space group: P -1
;
_chemical_formula_sum "Si O2"
_cell_formula_units_Z 14
_cell_length_a 9.463283
_cell_length_b 12.574459
_cell_length_c 8.414285
_cell_angle_alpha 127.863965
_cell_angle_beta 59.102793
_cell_angle_gamma 127.702934
_cell_volume 609.928672
_symmetry_space_group_name_H-M "P -1"
_symmetry_group_IT_number 2
_symmetry_cell_setting 'triclinic'
loop_
_space_group_symop_operation_xyz
x,y,z
-x,-y,-z
loop_
_atom_site_type_symbol
_atom_site_label
_atom_site_fract_x
_atom_site_fract_y
_atom_site_fract_z
Si Si1 0.390913 0.358297 0.085152
Si Si2 0.057778 0.716590 0.352876
Si Si3 0.335229 0.632728 0.289522
Si Si4 0.777168 0.056568 0.815898
Si Si5 0.074007 0.102702 0.203335
Si Si6 0.601789 0.192539 0.265338
Si Si7 0.651397 0.468421 0.295360
O O1 0.282560 0.458460 0.201849
O O2 0.273838 0.228772 0.155599
O O3 0.592387 0.461254 0.138955
O O4 0.454854 0.296430 0.835547
O O5 0.188416 0.639698 0.255828
O O6 0.126380 0.805726 0.231670
O O7 0.056885 0.822679 0.596301
O O8 0.854388 0.592124 0.322689
O O9 0.327936 0.722993 0.531898
O O10 0.914917 0.989531 0.733484
O O11 0.608216 0.927188 0.703475
O O12 0.717824 0.105172 0.061204
O O13 0.000000 0.000000 0.000000
O O14 0.630955 0.308132 0.213613
O O15 0.500000 0.500000 0.500000
#
# Coordination Sequence:
#
# PCOD8033096 Si02
#       7
#     2   2   2   2   2   2   2
#     4  11  25  47  72 105 143 189 235 291 365 415
#     4  12  27  45  75 109 140 187 244 294 348 422
#     4  11  26  44  73 109 140 184 240 299 350 414
#     4  11  26  44  69 108 141 191 237 281 363 424
#     4  12  26  45  70 103 146 186 236 296 354 421
#     4  11  23  44  73  99 148 188 232 292 353 427
#     4  12  22  47  75  97 141 191 237 291 352 418
#
# _framework density 22.953506000000001
#
# number of rings (size 3 to 8) (size 9 to 14) (size 15 to 20)
#    0.000    0.571    4.286    2.143    4.000    8.571 
#    0.000    0.000    0.000    0.000    0.000    0.000 
#    0.000    0.000    0.000    0.000    0.000    0.000 
#
# Total GULP energy -173572.750793 kJ/mol
# GULP energy per Si atom -12398.053628 kJ/mol
# Density = 2.290126 g / cm^3
# Si number density = 22.953506 Si / 1000 Ang^3
#
#
#
# Elastic Constant Matrix: (Units=GPa)
#
#
# Indices 1 2 3 4 5 6 
#
# 1 130.6422 65.2099 36.8174 5.1258 -15.8253 -13.8483
# 2 65.2099 125.6407 26.9652 -1.0901 -1.9525 -6.3500
# 3 36.8174 26.9652 103.9854 1.5702 -1.6852 6.6225
# 4 5.1258 -1.0901 1.5702 28.8529 -8.1893 0.5249
# 5 -15.8253 -1.9525 -1.6852 -8.1893 24.7851 -1.0385
# 6 -13.8483 -6.3500 6.6225 0.5249 -1.0385 36.8854
#
#
#
# Elastic Compliance Matrix: (Units=1/GPa)
#
#
# Indices 1 2 3 4 5 6 
#
# 1 0.012781 -0.005586 -0.003245 -0.000227 0.007619 0.004637
# 2 -0.005586 0.011018 -0.000924 0.000746 -0.002520 -0.000116
# 3 -0.003245 -0.000924 0.011204 -0.000485 -0.001687 -0.003430
# 4 -0.000227 0.000746 -0.000485 0.038313 0.012538 -0.000062
# 5 0.007619 -0.002520 -0.001687 0.012538 0.049206 0.003937
# 6 0.004637 -0.000116 -0.003430 -0.000062 0.003937 0.029559
#
#
# Mechanical properties :
#
#
# Convention : Reuss Voigt Hill
#
# Bulk Modulus (GPa) = 64.54870 68.69480 66.62175
# Shear Modulus (GPa) = 28.28762 33.52307 30.90534
#
# Velocity S-wave (km/s) = 3.51435 3.82576 3.67336
# Velocity P-wave (km/s) = 6.68207 7.03620 6.86142
#
# Compressibility (1/GPa) = 0.01549218
#
# Stress axis : x y z
#
# Youngs Moduli (GPa) = 78.24295 90.75802 89.25618
#
# Poissons Ratio (x) = 0.50699 0.28964
# Poissons Ratio (y) = 0.43708 0.08248
# Poissons Ratio (z) = 0.25390 0.08387
#
# Static dielectric constant tensor:
#      x y z
#    x 4.589020 -0.218230 0.260050 
#    y -0.218230 4.204190 -0.046020 
#    z 0.260050 -0.046020 4.757020 
# 
# 
# High freq. dielectric constant tensor:
#      x y z
#    x 1.905900 -0.014500 -0.007510 
#    y -0.014500 1.902910 -0.002800 
#    z -0.007510 -0.002800 1.927040 
# 
# From -- ./inp_files/182994.got.cif
#   From: 2010.06.25/outbox.cif.g09.slc.cpg/sg2_92_cif.got.tgz:182994.got - 2010.06.27 13:26:56.
