data_PCOD8033124
_publ_section_title
;
Structure prediction by ZEFSAII (Michael W. Deem and Ramdas Pophale) SiO2 
 PCOD8033124
Probable space group: P -1
;
_chemical_formula_sum "Si O2"
_cell_formula_units_Z 16
_cell_length_a 11.256951
_cell_length_b 11.795717
_cell_length_c 5.642513
_cell_angle_alpha 72.194749
_cell_angle_beta 106.851929
_cell_angle_gamma 85.953498
_cell_volume 672.211888
_symmetry_space_group_name_H-M "P -1"
_symmetry_group_IT_number 2
_symmetry_cell_setting 'triclinic'
loop_
_space_group_symop_operation_xyz
x,y,z
-x,-y,-z
loop_
_atom_site_type_symbol
_atom_site_label
_atom_site_fract_x
_atom_site_fract_y
_atom_site_fract_z
Si Si1 0.419188 0.199128 0.236867
Si Si2 0.695205 0.409207 0.632358
Si Si3 0.692895 0.158403 0.611714
Si Si4 0.799256 0.788960 0.583011
Si Si5 0.354489 0.022464 0.970844
Si Si6 0.929123 0.530763 0.691473
Si Si7 0.492841 0.404925 0.856745
Si Si8 0.070965 0.016817 0.283360
O O1 0.556476 0.142690 0.446070
O O2 0.318809 0.261891 0.333341
O O3 0.348639 0.094445 0.168340
O O4 0.433385 0.291940 0.977929
O O5 0.702503 0.299760 0.519426
O O6 0.831308 0.440239 0.719670
O O7 0.634243 0.362496 0.864873
O O8 0.603339 0.532503 0.434747
O O9 0.804645 0.086596 0.564974
O O10 0.697197 0.101311 0.917887
O O11 0.741170 0.901082 0.312748
O O12 0.874870 0.674135 0.559159
O O13 0.892553 0.847680 0.775799
O O14 0.500000 0.000000 0.000000
O O15 0.000000 0.500000 0.500000
O O16 0.000000 0.500000 0.000000
O O17 0.500000 0.500000 0.000000
O O18 0.000000 0.000000 0.500000
O O19 0.000000 0.000000 0.000000
#
# Coordination Sequence:
#
# PCOD8033124 Si02
#       8
#     2   2   2   2   2   2   2   2
#     4  12  24  43  78 117 151 198 259 332 412 470
#     4  11  27  48  74 113 156 202 261 326 401 472
#     4  12  25  47  76 118 153 203 261 325 401 490
#     4  12  28  52  82 111 163 205 270 339 397 477
#     4  12  23  43  75 116 160 199 251 321 413 482
#     4  12  33  54  84 114 156 221 282 331 391 470
#     4  11  23  44  75 110 153 199 246 323 410 470
#     4  12  30  52  78 110 158 217 266 315 395 469
#
# _framework density 23.802019999999999
#
# number of rings (size 3 to 8) (size 9 to 14) (size 15 to 20)
#    0.000    0.250    3.750    4.125   10.500    1.000 
#    0.000    0.000    0.000    0.000    0.000    0.000 
#    0.000    0.000    0.000    0.000    0.000    0.000 
#
# Total GULP energy -198253.520116 kJ/mol
# GULP energy per Si atom -12390.845007 kJ/mol
# Density = 2.374785 g / cm^3
# Si number density = 23.802020 Si / 1000 Ang^3
#
#
#
# Elastic Constant Matrix: (Units=GPa)
#
#
# Indices 1 2 3 4 5 6 
#
# 1 175.7831 56.3844 57.6855 2.3526 -19.2469 -10.9350
# 2 56.3844 117.1872 36.3584 -0.5257 -3.4332 -7.0598
# 3 57.6855 36.3584 123.9835 -1.6260 -9.3445 1.3416
# 4 2.3526 -0.5257 -1.6260 47.4218 6.3367 -1.1210
# 5 -19.2469 -3.4332 -9.3445 6.3367 37.0868 4.2071
# 6 -10.9350 -7.0598 1.3416 -1.1210 4.2071 49.1882
#
#
#
# Elastic Compliance Matrix: (Units=1/GPa)
#
#
# Indices 1 2 3 4 5 6 
#
# 1 0.007889 -0.002824 -0.002625 -0.000914 0.003200 0.001126
# 2 -0.002824 0.010499 -0.001858 0.000370 -0.001142 0.001036
# 3 -0.002625 -0.001858 0.009928 0.000280 0.001056 -0.001205
# 4 -0.000914 0.000370 0.000280 0.021718 -0.004159 0.000693
# 5 0.003200 -0.001142 0.001056 -0.004159 0.029736 -0.002120
# 6 0.001126 0.001036 -0.001205 0.000693 -0.002120 0.020959
#
#
# Mechanical properties :
#
#
# Convention : Reuss Voigt Hill
#
# Bulk Modulus (GPa) = 72.97849 79.75669 76.36759
# Shear Modulus (GPa) = 41.69831 44.50773 43.10302
#
# Velocity S-wave (km/s) = 4.19009 4.32894 4.26008
# Velocity P-wave (km/s) = 7.35774 7.65294 7.50679
#
# Compressibility (1/GPa) = 0.01370267
#
# Stress axis : x y z
#
# Youngs Moduli (GPa) = 126.76461 95.24855 100.72447
#
# Poissons Ratio (x) = 0.26895 0.26443
# Poissons Ratio (y) = 0.35794 0.18710
# Poissons Ratio (z) = 0.33280 0.17692
#
# Static dielectric constant tensor:
#      x y z
#    x 4.524280 -0.047380 0.056120 
#    y -0.047380 4.527360 0.036120 
#    z 0.056120 0.036120 4.162530 
# 
# 
# High freq. dielectric constant tensor:
#      x y z
#    x 1.956290 0.000420 -0.006890 
#    y 0.000420 1.958520 -0.000240 
#    z -0.006890 -0.000240 1.939810 
# 
# From -- ./inp_files/69342.got.cif
#   From: 2010.06.25/outbox.cif.g09.slc.cpg/sg2_35_cif.got.tgz:69342.got - 2010.06.27 13:26:56.
