data_PCOD8033540
_publ_section_title
;
Structure prediction by ZEFSAII (Michael W. Deem and Ramdas Pophale) SiO2 
 PCOD8033540
Probable space group: P -1
;
_chemical_formula_sum "Si O2"
_cell_formula_units_Z 16
_cell_length_a 8.731181
_cell_length_b 11.676306
_cell_length_c 8.755590
_cell_angle_alpha 76.763574
_cell_angle_beta 59.541902
_cell_angle_gamma 60.210929
_cell_volume 667.448884
_symmetry_space_group_name_H-M "P -1"
_symmetry_group_IT_number 2
_symmetry_cell_setting 'triclinic'
loop_
_space_group_symop_operation_xyz
x,y,z
-x,-y,-z
loop_
_atom_site_type_symbol
_atom_site_label
_atom_site_fract_x
_atom_site_fract_y
_atom_site_fract_z
Si Si1 0.783606 0.098292 0.511679
Si Si2 0.432281 0.049944 0.188037
Si Si3 0.806361 0.017675 0.188142
Si Si4 0.170368 0.461312 0.802548
Si Si5 0.586358 0.397512 0.622585
Si Si6 0.700358 0.478645 0.831764
Si Si7 0.900561 0.727062 0.298429
Si Si8 0.882678 0.671549 0.676316
O O1 0.726069 0.245315 0.553976
O O2 0.616081 0.054833 0.662729
O O3 0.787855 0.102825 0.322950
O O4 0.000000 0.000000 0.500000
O O5 0.227248 0.184199 0.237625
O O6 0.603305 0.079674 0.172439
O O7 0.500000 0.000000 0.000000
O O8 0.821221 0.880782 0.281309
O O9 0.000000 0.000000 0.000000
O O10 0.375834 0.422680 0.800673
O O11 0.226312 0.325499 0.722582
O O12 0.096090 0.585592 0.680783
O O13 0.000000 0.500000 0.000000
O O14 0.500000 0.500000 0.500000
O O15 0.705746 0.445323 0.660373
O O16 0.741457 0.602673 0.797090
O O17 0.875672 0.348664 0.860076
O O18 0.500000 0.500000 0.000000
O O19 0.907733 0.681537 0.481770
#
# Coordination Sequence:
#
# PCOD8033540 Si02
#       8
#     2   2   2   2   2   2   2   2
#     4  12  28  50  78 113 154 202 253 317 385 459
#     4  12  29  48  78 108 150 201 259 313 384 461
#     4  12  28  49  75 109 150 199 256 318 382 458
#     4  11  25  43  71 107 141 188 244 308 367 449
#     4  12  26  42  73 104 145 183 243 301 370 439
#     4  11  25  42  70 106 141 186 234 304 366 446
#     4  11  23  47  70  98 144 194 242 297 380 452
#     4  11  25  47  74 100 148 196 246 298 386 449
#
# _framework density 23.971872000000001
#
# number of rings (size 3 to 8) (size 9 to 14) (size 15 to 20)
#    0.000    0.500    1.250    7.125   12.250    1.000 
#    0.000    0.000    0.000    0.000    0.000    0.000 
#    0.000    0.000    0.000    0.000    0.000    0.000 
#
# Total GULP energy -198356.514624 kJ/mol
# GULP energy per Si atom -12397.282164 kJ/mol
# Density = 2.391731 g / cm^3
# Si number density = 23.971872 Si / 1000 Ang^3
#
#
#
# Elastic Constant Matrix: (Units=GPa)
#
#
# Indices 1 2 3 4 5 6 
#
# 1 91.4445 3.7122 2.5567 2.3111 5.1435 -13.3991
# 2 3.7122 112.1836 -0.1953 7.1940 2.8321 -4.6855
# 3 2.5567 -0.1953 94.4853 9.5763 7.6260 -3.7182
# 4 2.3111 7.1940 9.5763 31.9074 -1.0676 3.0614
# 5 5.1435 2.8321 7.6260 -1.0676 43.1288 9.6189
# 6 -13.3991 -4.6855 -3.7182 3.0614 9.6189 31.7664
#
#
#
# Elastic Compliance Matrix: (Units=1/GPa)
#
#
# Indices 1 2 3 4 5 6 
#
# 1 0.012033 0.000040 0.000321 -0.001665 -0.002910 0.006161
# 2 0.000040 0.009185 0.000441 -0.002440 -0.001197 0.002021
# 3 0.000321 0.000441 0.011299 -0.003869 -0.002771 0.002735
# 4 -0.001665 -0.002440 -0.003869 0.033828 0.003159 -0.005732
# 5 -0.002910 -0.001197 -0.002771 0.003159 0.026417 -0.010032
# 6 0.006161 0.002021 0.002735 -0.005732 -0.010032 0.038286
#
#
# Mechanical properties :
#
#
# Convention : Reuss Voigt Hill
#
# Bulk Modulus (GPa) = 29.30767 34.47341 31.89054
# Shear Modulus (GPa) = 35.50642 40.82984 38.16813
#
# Velocity S-wave (km/s) = 3.85277 4.13151 3.99457
# Velocity P-wave (km/s) = 5.66076 6.09682 5.88283
#
# Compressibility (1/GPa) = 0.03412076
#
# Stress axis : x y z
#
# Youngs Moduli (GPa) = 83.10160 108.87905 88.50117
#
# Poissons Ratio (x) = -0.00435 -0.02837
# Poissons Ratio (y) = -0.00332 -0.03906
# Poissons Ratio (z) = -0.02663 -0.04805
#
# Static dielectric constant tensor:
#      x y z
#    x -1.983640 1.206050 4.129460 
#    y 1.206050 5.153350 -0.805280 
#    z 4.129460 -0.805280 1.962430 
# 
# 
# High freq. dielectric constant tensor:
#      x y z
#    x 1.972500 -0.002940 -0.007390 
#    y -0.002940 1.951250 0.010980 
#    z -0.007390 0.010980 1.964880 
# 
# From -- ./inp_files/186516.got.cif
#   From: 2010.06.25/outbox.cif.g09.slc.cpg/sg2_94_cif.got.tgz:186516.got - 2010.06.27 13:26:56.
