data_PCOD8033890
_publ_section_title
;
Structure prediction by ZEFSAII (Michael W. Deem and Ramdas Pophale) SiO2 
 PCOD8033890
Probable space group: P -1
;
_chemical_formula_sum "Si O2"
_cell_formula_units_Z 14
_cell_length_a 15.764904
_cell_length_b 6.850886
_cell_length_c 11.347939
_cell_angle_alpha 64.262546
_cell_angle_beta 46.440979
_cell_angle_gamma 45.431294
_cell_volume 629.838962
_symmetry_space_group_name_H-M "P -1"
_symmetry_group_IT_number 2
_symmetry_cell_setting 'triclinic'
loop_
_space_group_symop_operation_xyz
x,y,z
-x,-y,-z
loop_
_atom_site_type_symbol
_atom_site_label
_atom_site_fract_x
_atom_site_fract_y
_atom_site_fract_z
Si Si1 0.948992 0.552038 0.729802
Si Si2 0.230974 0.165114 0.952159
Si Si3 0.112267 0.066297 0.877559
Si Si4 0.539765 0.589657 0.825085
Si Si5 0.328653 0.518207 0.708556
Si Si6 0.367727 0.761343 0.399611
Si Si7 0.194356 0.393448 0.375546
O O1 0.854740 0.512219 0.738337
O O2 0.065788 0.284807 0.764247
O O3 0.051519 0.600661 0.542804
O O4 0.831087 0.803865 0.864142
O O5 0.118314 0.173693 0.970092
O O6 0.226915 0.424822 0.855502
O O7 0.398004 0.893747 0.845762
O O8 0.274539 0.784862 0.767708
O O9 0.000000 0.000000 0.000000
O O10 0.581526 0.370549 0.742847
O O11 0.676604 0.590138 0.720233
O O12 0.500000 0.500000 0.000000
O O13 0.313423 0.608387 0.562533
O O14 0.497819 0.279691 0.646201
O O15 0.241511 0.087296 0.423002
#
# Coordination Sequence:
#
# PCOD8033890 Si02
#       7
#     2   2   2   2   2   2   2
#     4  11  26  47  69 101 142 189 224 280 354 413
#     4  12  26  45  73 107 136 182 237 290 345 410
#     4  12  25  43  70 101 143 180 228 284 349 418
#     4  12  28  44  74 103 138 185 238 289 343 410
#     4  11  24  42  72 103 141 177 230 293 343 408
#     4  11  24  45  70 106 136 182 231 289 351 398
#     4  11  26  49  70  99 145 185 232 287 341 421
#
# _framework density 22.227903000000001
#
# number of rings (size 3 to 8) (size 9 to 14) (size 15 to 20)
#    0.000    0.571    5.714    1.286    6.000    1.714 
#    0.000    2.143    0.000    0.000    0.000    0.000 
#    0.000    0.000    0.000    0.000    0.000    0.000 
#
# Total GULP energy -173613.916429 kJ/mol
# GULP energy per Si atom -12400.994031 kJ/mol
# Density = 2.217731 g / cm^3
# Si number density = 22.227903 Si / 1000 Ang^3
#
#
#
# Elastic Constant Matrix: (Units=GPa)
#
#
# Indices 1 2 3 4 5 6 
#
# 1 129.8149 18.5818 56.5893 -9.8377 -0.7938 8.1508
# 2 18.5818 45.0024 14.7624 5.2866 -4.0590 6.2290
# 3 56.5893 14.7624 134.5857 5.6176 13.4522 18.3842
# 4 -9.8377 5.2866 5.6176 31.7295 -3.3568 0.5097
# 5 -0.7938 -4.0590 13.4522 -3.3568 41.3824 3.2110
# 6 8.1508 6.2290 18.3842 0.5097 3.2110 30.4739
#
#
#
# Elastic Compliance Matrix: (Units=1/GPa)
#
#
# Indices 1 2 3 4 5 6 
#
# 1 0.010467 -0.003313 -0.004446 0.004758 0.001684 0.000303
# 2 -0.003313 0.025220 -0.000903 -0.004729 0.002624 -0.003922
# 3 -0.004446 -0.000903 0.010512 -0.003388 -0.003513 -0.004541
# 4 0.004758 -0.004729 -0.003388 0.034735 0.003485 0.000790
# 5 0.001684 0.002624 -0.003513 0.003485 0.026009 -0.001666
# 6 0.000303 -0.003922 -0.004541 0.000790 -0.001666 0.036437
#
#
# Mechanical properties :
#
#
# Convention : Reuss Voigt Hill
#
# Bulk Modulus (GPa) = 34.63057 54.36335 44.49696
# Shear Modulus (GPa) = 29.35505 35.34844 32.35175
#
# Velocity S-wave (km/s) = 3.63800 3.99215 3.81918
# Velocity P-wave (km/s) = 5.76718 6.76462 6.28571
#
# Compressibility (1/GPa) = 0.02887622
#
# Stress axis : x y z
#
# Youngs Moduli (GPa) = 95.53430 39.65106 95.13361
#
# Poissons Ratio (x) = 0.13135 0.42298
# Poissons Ratio (y) = 0.31646 0.08588
# Poissons Ratio (z) = 0.42476 0.03579
#
# Static dielectric constant tensor:
#      x y z
#    x 3.946840 -0.139510 0.104180 
#    y -0.139510 4.689810 0.131120 
#    z 0.104180 0.131120 4.263600 
# 
# 
# High freq. dielectric constant tensor:
#      x y z
#    x 1.878660 -0.015570 0.004950 
#    y -0.015570 1.874040 0.013640 
#    z 0.004950 0.013640 1.887700 
# 
# From -- ./inp_files/69302.got.cif
#   From: 2010.06.25/outbox.cif.g09.slc.cpg/sg2_35_cif.got.tgz:69302.got - 2010.06.27 13:26:56.
