data_PCOD8033056
_publ_section_title
;
Structure prediction by ZEFSAII (Michael W. Deem and Ramdas Pophale) SiO2 
 PCOD8033056
Probable space group: P -1
;
_chemical_formula_sum "Si O2"
_cell_formula_units_Z 16
_cell_length_a 8.627703
_cell_length_b 12.184597
_cell_length_c 8.797739
_cell_angle_alpha 86.331856
_cell_angle_beta 125.029260
_cell_angle_gamma 84.901917
_cell_volume 746.802876
_symmetry_space_group_name_H-M "P -1"
_symmetry_group_IT_number 2
_symmetry_cell_setting 'triclinic'
loop_
_space_group_symop_operation_xyz
x,y,z
-x,-y,-z
loop_
_atom_site_type_symbol
_atom_site_label
_atom_site_fract_x
_atom_site_fract_y
_atom_site_fract_z
Si Si1 0.205934 0.481486 0.190528
Si Si2 0.721867 0.281568 0.271412
Si Si3 0.562913 0.355918 0.858356
Si Si4 0.079143 0.096638 0.448558
Si Si5 0.613312 0.765144 0.734305
Si Si6 0.478000 0.150011 0.661881
Si Si7 0.201589 0.508769 0.543963
Si Si8 0.820597 0.957391 0.828655
O O1 0.313226 0.580776 0.189856
O O2 0.312563 0.365136 0.197432
O O3 0.202824 0.479671 0.370254
O O4 0.000000 0.500000 0.000000
O O5 0.568821 0.207190 0.257396
O O6 0.753378 0.367007 0.415920
O O7 0.919965 0.205914 0.344716
O O8 0.642427 0.353412 0.073955
O O9 0.574567 0.229721 0.819779
O O10 0.346450 0.417876 0.725305
O O11 0.276621 0.128319 0.625528
O O12 0.132203 0.046252 0.319820
O O13 0.000000 0.000000 0.500000
O O14 0.554639 0.795558 0.526551
O O15 0.780672 0.835740 0.874363
O O16 0.622600 0.036349 0.742133
O O17 0.000000 0.500000 0.500000
O O18 0.000000 0.000000 0.000000
#
# Coordination Sequence:
#
# PCOD8033056 Si02
#       8
#     2   2   2   2   2   2   2   2
#     4  12  27  44  71  99 139 186 227 279 336 413
#     4  12  25  42  70 102 141 179 227 285 335 407
#     4  12  25  44  68 104 142 179 229 276 341 406
#     4  11  24  45  69  99 135 177 230 286 344 400
#     4  11  24  46  66  97 138 179 230 276 344 403
#     4  11  23  44  72  97 134 183 225 282 347 405
#     4  12  25  44  67 101 139 179 226 273 342 403
#     4  11  25  44  71  99 130 177 231 285 341 407
#
# _framework density 21.424665000000001
#
# number of rings (size 3 to 8) (size 9 to 14) (size 15 to 20)
#    0.000    0.500    2.500    6.750    8.750    1.000 
#    0.000    2.500    0.000    0.000    0.000    0.000 
#    0.000    0.000    0.000    0.000    0.000    0.000 
#
# Total GULP energy -198457.701281 kJ/mol
# GULP energy per Si atom -12403.606330 kJ/mol
# Density = 2.137590 g / cm^3
# Si number density = 21.424665 Si / 1000 Ang^3
#
#
#
# Elastic Constant Matrix: (Units=GPa)
#
#
# Indices 1 2 3 4 5 6 
#
# 1 158.7353 56.4395 40.4381 -2.0405 19.8364 7.7651
# 2 56.4395 119.6398 42.3014 12.0718 9.9832 6.1689
# 3 40.4381 42.3014 94.3404 -0.4417 22.7514 -5.2359
# 4 -2.0405 12.0718 -0.4417 38.9483 1.6842 8.8691
# 5 19.8364 9.9832 22.7514 1.6842 31.3187 -5.3965
# 6 7.7651 6.1689 -5.2359 8.8691 -5.3965 38.3517
#
#
#
# Elastic Compliance Matrix: (Units=1/GPa)
#
#
# Indices 1 2 3 4 5 6 
#
# 1 0.008433 -0.003277 -0.001339 0.002156 -0.003854 -0.002404
# 2 -0.003277 0.011701 -0.004267 -0.003749 0.001523 -0.000720
# 3 -0.001339 -0.004267 0.015278 0.001466 -0.008714 0.001478
# 4 0.002156 -0.003749 0.001466 0.028692 -0.003955 -0.006825
# 5 -0.003854 0.001523 -0.008714 -0.003955 0.041479 0.006097
# 6 -0.002404 -0.000720 0.001478 -0.006825 0.006097 0.029315
#
#
# Mechanical properties :
#
#
# Convention : Reuss Voigt Hill
#
# Bulk Modulus (GPa) = 56.67035 72.34149 64.50592
# Shear Modulus (GPa) = 31.53665 37.29283 34.41474
#
# Velocity S-wave (km/s) = 3.84080 4.17664 4.01223
# Velocity P-wave (km/s) = 6.79540 7.55631 7.18593
#
# Compressibility (1/GPa) = 0.01764591
#
# Stress axis : x y z
#
# Youngs Moduli (GPa) = 118.58178 85.46166 65.45485
#
# Poissons Ratio (x) = 0.28003 0.08767
# Poissons Ratio (y) = 0.38855 0.27929
# Poissons Ratio (z) = 0.15883 0.36466
#
# Static dielectric constant tensor:
#      x y z
#    x 4.057690 -0.061490 0.241750 
#    y -0.061490 4.083240 0.142340 
#    z 0.241750 0.142340 3.893640 
# 
# 
# High freq. dielectric constant tensor:
#      x y z
#    x 1.860280 0.000360 0.012760 
#    y 0.000360 1.857060 0.005740 
#    z 0.012760 0.005740 1.834860 
# 
# From -- ./inp_files/187949.got.cif
#   From: 2010.06.25/outbox.cif.g09.slc.cpg/sg2_94_cif.got.tgz:187949.got - 2010.06.27 13:26:56.
