data_PCOD8033738
_publ_section_title
;
Structure prediction by ZEFSAII (Michael W. Deem and Ramdas Pophale) SiO2 
 PCOD8033738
Probable space group: P -1
;
_chemical_formula_sum "Si O2"
_cell_formula_units_Z 16
_cell_length_a 12.640790
_cell_length_b 11.246449
_cell_length_c 12.172235
_cell_angle_alpha 134.802616
_cell_angle_beta 117.192471
_cell_angle_gamma 99.351633
_cell_volume 699.834224
_symmetry_space_group_name_H-M "P -1"
_symmetry_group_IT_number 2
_symmetry_cell_setting 'triclinic'
loop_
_space_group_symop_operation_xyz
x,y,z
-x,-y,-z
loop_
_atom_site_type_symbol
_atom_site_label
_atom_site_fract_x
_atom_site_fract_y
_atom_site_fract_z
Si Si1 0.550215 0.916335 0.556734
Si Si2 0.342673 0.506531 0.827869
Si Si3 0.458952 0.993539 0.149032
Si Si4 0.022676 0.623870 0.978479
Si Si5 0.034116 0.061470 0.792683
Si Si6 0.142554 0.626664 0.484496
Si Si7 0.132121 0.857570 0.821461
Si Si8 0.653698 0.585697 0.988181
O O1 0.471552 0.887263 0.618233
O O2 0.456654 0.640620 0.301532
O O3 0.500000 0.000000 0.500000
O O4 0.769404 0.132750 0.805968
O O5 0.542390 0.637658 0.987024
O O6 0.179997 0.222080 0.510078
O O7 0.317768 0.489385 0.936049
O O8 0.344149 0.694918 0.901164
O O9 0.637581 0.172085 0.270815
O O10 0.329863 0.003631 0.051116
O O11 0.941439 0.720834 0.018285
O O12 0.000000 0.500000 0.000000
O O13 0.911634 0.402938 0.687635
O O14 0.132468 0.057208 0.931907
O O15 0.142970 0.149331 0.787575
O O16 0.084562 0.724428 0.593272
O O17 0.027936 0.347279 0.298047
#
# Coordination Sequence:
#
# PCOD8033738 Si02
#       8
#     2   2   2   2   2   2   2   2
#     4  12  23  46  69 103 140 176 232 287 350 420
#     4  11  24  41  69 103 143 178 230 297 344 421
#     4  12  24  45  73 104 139 186 234 290 348 415
#     4  12  27  46  74 104 140 184 234 294 355 419
#     4  12  26  45  68 101 140 187 231 287 351 409
#     4  11  24  47  73 104 138 189 235 285 349 408
#     4  11  26  45  70 103 142 186 240 287 334 424
#     4  11  24  43  66 103 139 182 231 289 356 412
#
# _framework density 22.862556999999999
#
# number of rings (size 3 to 8) (size 9 to 14) (size 15 to 20)
#    0.000    0.500    3.750    5.250    0.000    2.500 
#    0.000    1.250    0.000    0.000    0.000    0.000 
#    0.000    0.000    0.000    0.000    0.000    0.000 
#
# Total GULP energy -198495.855800 kJ/mol
# GULP energy per Si atom -12405.990987 kJ/mol
# Density = 2.281052 g / cm^3
# Si number density = 22.862557 Si / 1000 Ang^3
#
#
#
# Elastic Constant Matrix: (Units=GPa)
#
#
# Indices 1 2 3 4 5 6 
#
# 1 86.9962 54.6253 12.1267 2.1002 15.4736 0.7920
# 2 54.6253 115.0630 23.7207 -3.2422 0.9351 -10.9414
# 3 12.1267 23.7207 79.6732 -11.9389 0.4085 -1.5263
# 4 2.1002 -3.2422 -11.9389 31.6780 6.2419 1.8460
# 5 15.4736 0.9351 0.4085 6.2419 45.7512 3.7976
# 6 0.7920 -10.9414 -1.5263 1.8460 3.7976 48.1573
#
#
#
# Elastic Compliance Matrix: (Units=1/GPa)
#
#
# Indices 1 2 3 4 5 6 
#
# 1 0.018000 -0.008630 -0.000323 -0.000986 -0.005626 -0.001786
# 2 -0.008630 0.013603 -0.002643 0.000329 0.002375 0.002949
# 3 -0.000323 -0.002643 0.014170 0.005237 -0.000653 -0.000295
# 4 -0.000986 0.000329 0.005237 0.034544 -0.004373 -0.000722
# 5 -0.005626 0.002375 -0.000653 -0.004373 0.024409 -0.001146
# 6 -0.001786 0.002949 -0.000295 -0.000722 -0.001146 0.021573
#
#
# Mechanical properties :
#
#
# Convention : Reuss Voigt Hill
#
# Bulk Modulus (GPa) = 44.28775 51.40866 47.84821
# Shear Modulus (GPa) = 31.84331 37.86794 34.85563
#
# Velocity S-wave (km/s) = 3.73609 4.07422 3.90881
# Velocity P-wave (km/s) = 6.16640 6.68335 6.43007
#
# Compressibility (1/GPa) = 0.02257960
#
# Stress axis : x y z
#
# Youngs Moduli (GPa) = 55.55700 73.51145 70.57259
#
# Poissons Ratio (x) = 0.63443 0.02281
# Poissons Ratio (y) = 0.47948 0.18652
# Poissons Ratio (z) = 0.01796 0.19428
#
# Static dielectric constant tensor:
#      x y z
#    x 4.252800 0.189570 0.031730 
#    y 0.189570 4.108350 -0.037940 
#    z 0.031730 -0.037940 3.947990 
# 
# 
# High freq. dielectric constant tensor:
#      x y z
#    x 1.915430 0.009690 0.011020 
#    y 0.009690 1.903970 -0.002560 
#    z 0.011020 -0.002560 1.897800 
# 
# From -- ./inp_files/429113.got.cif
#   From: 2010.06.25/outbox.cif.g09.slc.cpg/sg2_215_cif.got.tgz:429113.got - 2010.06.27 13:26:56.
