data_PCOD8033222
_publ_section_title
;
Structure prediction by ZEFSAII (Michael W. Deem and Ramdas Pophale) SiO2 
 PCOD8033222
Probable space group: P -1
;
_chemical_formula_sum "Si O2"
_cell_formula_units_Z 14
_cell_length_a 16.071387
_cell_length_b 8.978428
_cell_length_c 18.424172
_cell_angle_alpha 139.923392
_cell_angle_beta 23.038471
_cell_angle_gamma 126.941849
_cell_volume 611.122195
_symmetry_space_group_name_H-M "P -1"
_symmetry_group_IT_number 2
_symmetry_cell_setting 'triclinic'
loop_
_space_group_symop_operation_xyz
x,y,z
-x,-y,-z
loop_
_atom_site_type_symbol
_atom_site_label
_atom_site_fract_x
_atom_site_fract_y
_atom_site_fract_z
Si Si1 0.831857 0.459908 0.030997
Si Si2 0.326833 0.391030 0.630849
Si Si3 0.689734 0.476400 0.001842
Si Si4 0.093878 0.110863 0.225341
Si Si5 0.525451 0.926396 0.200377
Si Si6 0.710098 0.658012 0.720314
Si Si7 0.157986 0.137352 0.451354
O O1 0.666987 0.588599 0.279699
O O2 0.656318 0.587117 0.151998
O O3 0.054858 0.533312 0.878476
O O4 0.931695 0.149344 0.833020
O O5 0.500000 0.500000 0.500000
O O6 0.425615 0.106240 0.416405
O O7 0.582963 0.653419 0.085043
O O8 0.565066 0.278165 0.022891
O O9 0.969280 0.370151 0.733514
O O10 0.217241 0.188301 0.221354
O O11 0.847444 0.351146 0.500488
O O12 0.243319 0.058445 0.012052
O O13 0.348407 0.966068 0.291378
O O14 0.730889 0.756308 0.660716
O O15 0.000000 0.000000 0.500000
#
# Coordination Sequence:
#
# PCOD8033222 Si02
#       7
#     2   2   2   2   2   2   2
#     4  11  24  45  73 102 138 179 235 289 350 412
#     4  11  24  45  75 100 132 183 233 294 351 408
#     4  12  26  45  71 106 141 184 231 285 350 416
#     4  11  23  45  70 103 143 188 230 283 346 414
#     4  12  25  46  73 101 145 183 233 295 342 409
#     4  11  26  42  69 104 145 187 232 276 345 423
#     4  12  26  44  70 102 143 189 230 284 347 413
#
# _framework density 22.908674999999999
#
# number of rings (size 3 to 8) (size 9 to 14) (size 15 to 20)
#    0.000    0.571    4.286    3.429    4.000    3.429 
#    0.000    0.714    0.000    0.000    0.000    0.000 
#    0.000    0.000    0.000    0.000    0.000    0.000 
#
# Total GULP energy -173516.314362 kJ/mol
# GULP energy per Si atom -12394.022454 kJ/mol
# Density = 2.285653 g / cm^3
# Si number density = 22.908675 Si / 1000 Ang^3
#
#
#
# Elastic Constant Matrix: (Units=GPa)
#
#
# Indices 1 2 3 4 5 6 
#
# 1 136.0655 45.7367 15.3746 4.1432 -5.1392 -25.3741
# 2 45.7367 99.9921 30.6448 -34.1983 -14.1925 -17.4673
# 3 15.3746 30.6448 73.1830 -11.0053 0.7584 -19.0016
# 4 4.1432 -34.1983 -11.0053 35.8412 -0.4596 3.5266
# 5 -5.1392 -14.1925 0.7584 -0.4596 39.4089 4.2667
# 6 -25.3741 -17.4673 -19.0016 3.5266 4.2667 37.4854
#
#
#
# Elastic Compliance Matrix: (Units=1/GPa)
#
#
# Indices 1 2 3 4 5 6 
#
# 1 0.011058 -0.007770 0.001025 -0.008941 -0.002072 0.005461
# 2 -0.007770 0.023863 -0.005019 0.022195 0.007900 0.000328
# 3 0.001025 -0.005019 0.017500 -0.000316 -0.002835 0.007579
# 4 -0.008941 0.022195 -0.000316 0.050256 0.007578 -0.001461
# 5 -0.002072 0.007900 -0.002835 0.007578 0.028429 -0.003107
# 6 0.005461 0.000328 0.007579 -0.001461 -0.003107 0.034860
#
#
# Mechanical properties :
#
#
# Convention : Reuss Voigt Hill
#
# Bulk Modulus (GPa) = 34.60982 54.75030 44.68006
# Shear Modulus (GPa) = 25.10999 37.04607 31.07803
#
# Velocity S-wave (km/s) = 3.31432 4.02571 3.68721
# Velocity P-wave (km/s) = 5.45773 6.74979 6.13785
#
# Compressibility (1/GPa) = 0.02889353
#
# Stress axis : x y z
#
# Youngs Moduli (GPa) = 90.43342 41.90649 57.14211
#
# Poissons Ratio (x) = 0.32562 -0.05860
# Poissons Ratio (y) = 0.70269 0.28679
# Poissons Ratio (z) = -0.09274 0.21032
#
# Static dielectric constant tensor:
#      x y z
#    x 4.279630 -0.034890 0.410930 
#    y -0.034890 4.093750 -0.311940 
#    z 0.410930 -0.311940 5.394050 
# 
# 
# High freq. dielectric constant tensor:
#      x y z
#    x 1.914070 -0.005690 0.012230 
#    y -0.005690 1.897030 -0.021780 
#    z 0.012230 -0.021780 1.916350 
# 
# From -- ./inp_files/599597.got.cif
#   From: 2010.06.25/outbox.cif.g09.slc.cpg/sg2_300_cif.got.tgz:599597.got - 2010.06.27 13:26:56.
