data_PCOD8033954
_publ_section_title
;
Structure prediction by ZEFSAII (Michael W. Deem and Ramdas Pophale) SiO2 
 PCOD8033954
Probable space group: P -1
;
_chemical_formula_sum "Si O2"
_cell_formula_units_Z 10
_cell_length_a 11.663824
_cell_length_b 8.448312
_cell_length_c 8.764917
_cell_angle_alpha 94.165774
_cell_angle_beta 128.358835
_cell_angle_gamma 127.106406
_cell_volume 377.697209
_symmetry_space_group_name_H-M "P -1"
_symmetry_group_IT_number 2
_symmetry_cell_setting 'triclinic'
loop_
_space_group_symop_operation_xyz
x,y,z
-x,-y,-z
loop_
_atom_site_type_symbol
_atom_site_label
_atom_site_fract_x
_atom_site_fract_y
_atom_site_fract_z
Si Si1 0.608339 0.863816 0.809974
Si Si2 0.508647 0.571138 0.317455
Si Si3 0.736456 0.852199 0.231744
Si Si4 0.811007 0.258451 0.452298
Si Si5 0.946275 0.199350 0.838156
O O1 0.467278 0.582902 0.592746
O O2 0.419304 0.824929 0.717000
O O3 0.813483 0.131404 0.884190
O O4 0.745518 0.888912 0.060685
O O5 0.510002 0.556777 0.126742
O O6 0.770575 0.900986 0.600638
O O7 0.240644 0.414851 0.132195
O O8 0.700175 0.995509 0.280762
O O9 0.000000 0.000000 0.500000
O O10 0.952477 0.355087 0.738910
O O11 0.000000 0.500000 0.500000
#
# Coordination Sequence:
#
# PCOD8033954 Si02
#       5
#     2   2   2   2   2
#     4  12  23  42  70 103 138 181 229 290 342 400
#     4  11  24  46  70 100 138 185 230 278 339 414
#     4  11  24  45  71 101 137 185 234 281 341 416
#     4  11  24  43  67 103 140 183 229 284 345 410
#     4  11  26  46  70 103 141 182 230 281 342 410
#
# _framework density 26.476237999999999
#
# number of rings (size 3 to 8) (size 9 to 14) (size 15 to 20)
#    0.000    0.800    0.000    7.800    0.000    4.800 
#    0.000    6.000    0.000    0.000    0.000    0.000 
#    0.000    0.000    0.000    0.000    0.000    0.000 
#
# Total GULP energy -123941.145993 kJ/mol
# GULP energy per Si atom -12394.114599 kJ/mol
# Density = 2.641598 g / cm^3
# Si number density = 26.476238 Si / 1000 Ang^3
#
#
#
# Elastic Constant Matrix: (Units=GPa)
#
#
# Indices 1 2 3 4 5 6 
#
# 1 140.8916 62.0874 29.6517 -7.6972 50.2382 17.5299
# 2 62.0874 194.4861 39.7571 -35.8622 23.9788 43.0516
# 3 29.6517 39.7571 96.2322 -19.3467 25.6702 9.4613
# 4 -7.6972 -35.8622 -19.3467 35.8110 3.5679 3.2865
# 5 50.2382 23.9788 25.6702 3.5679 35.6363 0.8420
# 6 17.5299 43.0516 9.4613 3.2865 0.8420 66.4770
#
#
#
# Elastic Compliance Matrix: (Units=1/GPa)
#
#
# Indices 1 2 3 4 5 6 
#
# 1 0.017826 0.000000 0.004932 0.009947 -0.029548 -0.005520
# 2 0.000000 0.009620 0.001340 0.011834 -0.008460 -0.006899
# 3 0.004932 0.001340 0.017572 0.014540 -0.021847 -0.005111
# 4 0.009947 0.011834 0.014540 0.054854 -0.037606 -0.014592
# 5 -0.029548 -0.008460 -0.021847 -0.037606 0.094509 0.017042
# 6 -0.005520 -0.006899 -0.005111 -0.014592 0.017042 0.022199
#
#
# Mechanical properties :
#
#
# Convention : Reuss Voigt Hill
#
# Bulk Modulus (GPa) = 17.37269 77.17802 47.27536
# Shear Modulus (GPa) = 22.39896 47.59245 34.99570
#
# Velocity S-wave (km/s) = 2.91177 4.24436 3.63957
# Velocity P-wave (km/s) = 4.22852 7.29607 5.96293
#
# Compressibility (1/GPa) = 0.05756159
#
# Stress axis : x y z
#
# Youngs Moduli (GPa) = 56.09781 103.94913 56.90896
#
# Poissons Ratio (x) = -0.00003 -0.28066
# Poissons Ratio (y) = -0.00002 -0.07624
# Poissons Ratio (z) = -0.27666 -0.13926
#
# Static dielectric constant tensor:
#      x y z
#    x 4.959700 0.594430 -0.819030 
#    y 0.594430 5.802350 -0.237630 
#    z -0.819030 -0.237630 4.359600 
# 
# 
# High freq. dielectric constant tensor:
#      x y z
#    x 2.087020 0.016690 -0.016410 
#    y 0.016690 2.103140 -0.015940 
#    z -0.016410 -0.015940 2.048890 
# 
# From -- ./inp_files/15342.got.cif
#   From: 2010.06.25/outbox.cif.g09.slc.cpg/sg2_8_cif.got.tgz:15342.got - 2010.06.27 13:26:56.
