data_PCOD8033593
_publ_section_title
;
Structure prediction by ZEFSAII (Michael W. Deem and Ramdas Pophale) SiO2 
 PCOD8033593
Probable space group: P -1
;
_chemical_formula_sum "Si O2"
_cell_formula_units_Z 16
_cell_length_a 16.994955
_cell_length_b 9.090219
_cell_length_c 8.122928
_cell_angle_alpha 78.962750
_cell_angle_beta 139.972231
_cell_angle_gamma 121.432304
_cell_volume 637.341448
_symmetry_space_group_name_H-M "P -1"
_symmetry_group_IT_number 2
_symmetry_cell_setting 'triclinic'
loop_
_space_group_symop_operation_xyz
x,y,z
-x,-y,-z
loop_
_atom_site_type_symbol
_atom_site_label
_atom_site_fract_x
_atom_site_fract_y
_atom_site_fract_z
Si Si1 0.890896 0.086434 0.567334
Si Si2 0.441825 0.803568 0.312742
Si Si3 0.179853 0.098356 0.983017
Si Si4 0.857388 0.239902 0.152975
Si Si5 0.079700 0.602851 0.273986
Si Si6 0.540862 0.678228 0.806994
Si Si7 0.367239 0.255857 0.576360
Si Si8 0.565266 0.135484 0.230435
O O1 0.841032 0.152389 0.321598
O O2 0.955293 0.247576 0.774583
O O3 0.738900 0.893854 0.423519
O O4 0.016280 0.057335 0.720190
O O5 0.493848 0.745009 0.562125
O O6 0.484854 0.736876 0.232763
O O7 0.535240 0.026291 0.380574
O O8 0.265763 0.716364 0.066184
O O9 0.281751 0.232889 0.962039
O O10 0.261037 0.204082 0.258437
O O11 0.162417 0.904518 0.986415
O O12 0.016679 0.442238 0.345295
O O13 0.257887 0.706686 0.532989
O O14 0.000000 0.500000 0.000000
O O15 0.430052 0.458231 0.699992
O O16 0.519323 0.764679 0.916670
O O17 0.500000 0.000000 0.000000
#
# Coordination Sequence:
#
# PCOD8033593 Si02
#       8
#     2   2   2   2   2   2   2   2
#     4  12  27  49  71 108 160 195 248 320 391 449
#     4  11  23  47  78 106 150 195 257 315 373 450
#     4  11  25  46  74 106 154 198 249 311 387 457
#     4  12  27  47  75 113 150 200 251 322 391 448
#     4  12  28  47  79 113 147 203 263 316 379 461
#     4  11  26  47  77 111 144 201 260 305 380 456
#     4  11  26  46  75 111 144 203 257 309 375 460
#     4  12  26  49  78 110 155 195 255 322 382 448
#
# _framework density 25.104279999999999
#
# number of rings (size 3 to 8) (size 9 to 14) (size 15 to 20)
#    0.000    0.500    2.500    5.250   10.500    0.000 
#    0.000    1.250    0.000    0.000    0.000    0.000 
#    0.000    0.000    0.000    0.000    0.000    0.000 
#
# Total GULP energy -198397.351795 kJ/mol
# GULP energy per Si atom -12399.834487 kJ/mol
# Density = 2.504714 g / cm^3
# Si number density = 25.104280 Si / 1000 Ang^3
#
#
#
# Elastic Constant Matrix: (Units=GPa)
#
#
# Indices 1 2 3 4 5 6 
#
# 1 150.9348 66.5718 45.7354 18.6153 18.4225 -14.9882
# 2 66.5718 175.5694 25.3150 41.0341 6.8575 1.1972
# 3 45.7354 25.3150 82.3796 20.7149 17.0555 -7.5783
# 4 18.6153 41.0341 20.7149 40.2651 1.8380 8.2877
# 5 18.4225 6.8575 17.0555 1.8380 28.0662 1.7754
# 6 -14.9882 1.1972 -7.5783 8.2877 1.7754 53.9728
#
#
#
# Elastic Compliance Matrix: (Units=1/GPa)
#
#
# Indices 1 2 3 4 5 6 
#
# 1 0.009711 -0.003081 -0.003503 0.000131 -0.003651 0.002373
# 2 -0.003081 0.008566 0.001173 -0.007968 -0.000284 0.000352
# 3 -0.003503 0.001173 0.018104 -0.009163 -0.008593 0.003233
# 4 0.000131 -0.007968 -0.009163 0.038850 0.005341 -0.007215
# 5 -0.003651 -0.000284 -0.008593 0.005341 0.043250 -0.004457
# 6 0.002373 0.000352 0.003233 -0.007215 -0.004457 0.020887
#
#
# Mechanical properties :
#
#
# Convention : Reuss Voigt Hill
#
# Bulk Modulus (GPa) = 39.12652 76.01422 57.57037
# Shear Modulus (GPa) = 31.50385 42.54491 37.02438
#
# Velocity S-wave (km/s) = 3.54633 4.12117 3.84451
# Velocity P-wave (km/s) = 5.69105 7.27946 6.53370
#
# Compressibility (1/GPa) = 0.02555811
#
# Stress axis : x y z
#
# Youngs Moduli (GPa) = 102.97478 116.74173 55.23686
#
# Poissons Ratio (x) = 0.35971 0.19351
# Poissons Ratio (y) = 0.31729 -0.06480
# Poissons Ratio (z) = 0.36074 -0.13695
#
# Static dielectric constant tensor:
#      x y z
#    x 5.283350 -0.004010 0.048180 
#    y -0.004010 4.876220 0.037170 
#    z 0.048180 0.037170 4.078380 
# 
# 
# High freq. dielectric constant tensor:
#      x y z
#    x 2.029150 0.000350 -0.000620 
#    y 0.000350 2.007520 0.006680 
#    z -0.000620 0.006680 1.992530 
# 
# From -- ./inp_files/328969.got.cif
#   From: 2010.06.25/outbox.cif.g09.slc.cpg/sg2_165_cif.got.tgz:328969.got - 2010.06.27 13:26:56.
