data_PCOD8033397
_publ_section_title
;
Structure prediction by ZEFSAII (Michael W. Deem and Ramdas Pophale) SiO2 
 PCOD8033397
Probable space group: P -1
;
_chemical_formula_sum "Si O2"
_cell_formula_units_Z 16
_cell_length_a 17.619887
_cell_length_b 12.138637
_cell_length_c 8.958124
_cell_angle_alpha 129.691058
_cell_angle_beta 81.705931
_cell_angle_gamma 137.763238
_cell_volume 765.394365
_symmetry_space_group_name_H-M "P -1"
_symmetry_group_IT_number 2
_symmetry_cell_setting 'triclinic'
loop_
_space_group_symop_operation_xyz
x,y,z
-x,-y,-z
loop_
_atom_site_type_symbol
_atom_site_label
_atom_site_fract_x
_atom_site_fract_y
_atom_site_fract_z
Si Si1 0.843348 0.244933 0.398716
Si Si2 0.320656 0.228780 0.163299
Si Si3 0.324404 0.751377 0.492844
Si Si4 0.910076 0.738073 0.384034
Si Si5 0.650738 0.201609 0.817202
Si Si6 0.630843 0.845031 0.611400
Si Si7 0.850907 0.762986 0.747274
Si Si8 0.904937 0.247082 0.703849
O O1 0.756105 0.252036 0.394347
O O2 0.860588 0.265394 0.587938
O O3 0.000000 0.500000 0.500000
O O4 0.751581 0.963654 0.123797
O O5 0.473980 0.539849 0.335525
O O6 0.347286 0.154255 0.219951
O O7 0.209682 0.173653 0.206002
O O8 0.290980 0.715969 0.296555
O O9 0.268077 0.509650 0.357042
O O10 0.495987 0.035424 0.722052
O O11 0.876332 0.729992 0.553836
O O12 0.004306 0.744656 0.365741
O O13 0.757728 0.472296 0.114107
O O14 0.000000 0.000000 0.500000
O O15 0.643140 0.033992 0.749104
O O16 0.757128 0.964879 0.586364
O O17 0.000000 0.000000 0.000000
O O18 0.000000 0.500000 0.000000
#
# Coordination Sequence:
#
# PCOD8033397 Si02
#       8
#     2   2   2   2   2   2   2   2
#     4  12  25  42  67 104 132 175 226 274 333 400
#     4  11  26  44  70  97 137 180 223 279 335 398
#     4  11  24  44  71  99 132 180 220 276 344 392
#     4  12  26  43  69 104 132 179 225 274 335 401
#     4  11  24  46  71  97 138 174 224 281 335 403
#     4  11  23  46  69  96 136 179 224 276 336 395
#     4  12  25  45  67 100 140 174 223 280 335 399
#     4  12  23  43  71  96 136 179 222 275 335 397
#
# _framework density 20.904254999999999
#
# number of rings (size 3 to 8) (size 9 to 14) (size 15 to 20)
#    0.000    0.500    3.750    4.500    1.750    4.000 
#    0.000    0.000    0.000    0.000    0.000    0.000 
#    0.000    0.000    0.000    0.000    0.000    0.000 
#
# Total GULP energy -198512.362665 kJ/mol
# GULP energy per Si atom -12407.022667 kJ/mol
# Density = 2.085668 g / cm^3
# Si number density = 20.904255 Si / 1000 Ang^3
#
#
#
# Elastic Constant Matrix: (Units=GPa)
#
#
# Indices 1 2 3 4 5 6 
#
# 1 111.5064 35.3031 51.2689 -12.3240 -4.6962 8.2681
# 2 35.3031 123.0145 67.3244 6.0456 5.2429 -0.1293
# 3 51.2689 67.3244 178.3287 -0.0068 9.4486 4.3378
# 4 -12.3240 6.0456 -0.0068 30.2769 2.0530 -1.8145
# 5 -4.6962 5.2429 9.4486 2.0530 33.6636 5.0007
# 6 8.2681 -0.1293 4.3378 -1.8145 5.0007 47.4556
#
#
#
# Elastic Compliance Matrix: (Units=1/GPa)
#
#
# Indices 1 2 3 4 5 6 
#
# 1 0.011683 -0.002294 -0.002589 0.004916 0.002696 -0.001901
# 2 -0.002294 0.010836 -0.003397 -0.002988 -0.000980 0.000729
# 3 -0.002589 -0.003397 0.007741 -0.000243 -0.001980 -0.000066
# 4 0.004916 -0.002988 -0.000243 0.035736 -0.001054 0.000635
# 5 0.002696 -0.000980 -0.001980 -0.001054 0.031395 -0.003640
# 6 -0.001901 0.000729 -0.000066 0.000635 -0.003640 0.021820
#
#
# Mechanical properties :
#
#
# Convention : Reuss Voigt Hill
#
# Bulk Modulus (GPa) = 72.99923 80.07139 76.53531
# Shear Modulus (GPa) = 35.62821 39.54276 37.58548
#
# Velocity S-wave (km/s) = 4.13286 4.35399 4.24486
# Velocity P-wave (km/s) = 7.60070 7.97893 7.79211
#
# Compressibility (1/GPa) = 0.01369877
#
# Stress axis : x y z
#
# Youngs Moduli (GPa) = 85.59617 92.28261 129.18142
#
# Poissons Ratio (x) = 0.21173 0.33445
# Poissons Ratio (y) = 0.19639 0.43887
# Poissons Ratio (z) = 0.22161 0.31351
#
# Static dielectric constant tensor:
#      x y z
#    x 3.824350 -0.156930 0.288510 
#    y -0.156930 4.064380 -0.029130 
#    z 0.288510 -0.029130 4.049750 
# 
# 
# High freq. dielectric constant tensor:
#      x y z
#    x 1.837110 0.002020 0.008950 
#    y 0.002020 1.830130 0.006220 
#    z 0.008950 0.006220 1.823980 
# 
# From -- ./inp_files/217014.got.cif
#   From: 2010.06.25/outbox.cif.g09.slc.cpg/sg2_109_cif.got.tgz:217014.got - 2010.06.27 13:26:56.
