data_PCOD8033837
_publ_section_title
;
Structure prediction by ZEFSAII (Michael W. Deem and Ramdas Pophale) SiO2 
 PCOD8033837
Probable space group: P -1
;
_chemical_formula_sum "Si O2"
_cell_formula_units_Z 16
_cell_length_a 9.062965
_cell_length_b 8.207804
_cell_length_c 15.093000
_cell_angle_alpha 140.183118
_cell_angle_beta 92.370311
_cell_angle_gamma 93.223553
_cell_volume 711.478300
_symmetry_space_group_name_H-M "P -1"
_symmetry_group_IT_number 2
_symmetry_cell_setting 'triclinic'
loop_
_space_group_symop_operation_xyz
x,y,z
-x,-y,-z
loop_
_atom_site_type_symbol
_atom_site_label
_atom_site_fract_x
_atom_site_fract_y
_atom_site_fract_z
Si Si1 0.769152 0.383740 0.333096
Si Si2 0.732946 0.996163 0.830037
Si Si3 0.601560 0.476589 0.079310
Si Si4 0.477624 0.427004 0.244296
Si Si5 0.226408 0.735980 0.383230
Si Si6 0.197668 0.991093 0.674419
Si Si7 0.022433 0.219777 0.163536
Si Si8 0.140897 0.080580 0.373933
O O1 0.628693 0.485268 0.327491
O O2 0.729575 0.147525 0.300545
O O3 0.861486 0.616121 0.486547
O O4 0.863352 0.287790 0.215735
O O5 0.614378 0.814768 0.809589
O O6 0.895923 0.910391 0.809997
O O7 0.726814 0.971547 0.712850
O O8 0.720324 0.285900 0.978698
O O9 0.502041 0.366907 0.115696
O O10 0.696117 0.741743 0.223189
O O11 0.500000 0.500000 0.000000
O O12 0.396497 0.680910 0.354409
O O13 0.197727 0.808571 0.513323
O O14 0.122231 0.478460 0.240732
O O15 0.188154 0.968208 0.420489
O O16 0.027329 0.039282 0.708498
O O17 0.000000 0.000000 0.000000
#
# Coordination Sequence:
#
# PCOD8033837 Si02
#       8
#     2   2   2   2   2   2   2   2
#     4  12  24  45  73 104 144 190 238 292 359 420
#     4  11  25  46  69 101 143 189 239 290 353 426
#     4  12  27  46  72 107 149 188 237 297 362 423
#     4  11  26  47  73 103 145 189 236 295 359 434
#     4  11  26  45  71 107 142 188 239 291 361 421
#     4  12  26  45  75 105 146 188 242 299 354 422
#     4  11  24  42  69 101 139 185 234 288 353 424
#     4  12  25  45  76 104 147 185 244 301 349 428
#
# _framework density 22.488385999999998
#
# number of rings (size 3 to 8) (size 9 to 14) (size 15 to 20)
#    0.000    0.500    2.500    5.625    3.500    9.500 
#    0.000    0.000    0.000    0.000    0.000    0.000 
#    0.000    0.000    0.000    0.000    0.000    0.000 
#
# Total GULP energy -198400.334706 kJ/mol
# GULP energy per Si atom -12400.020919 kJ/mol
# Density = 2.243720 g / cm^3
# Si number density = 22.488386 Si / 1000 Ang^3
#
#
#
# Elastic Constant Matrix: (Units=GPa)
#
#
# Indices 1 2 3 4 5 6 
#
# 1 117.7497 48.8059 47.8204 -4.7214 -10.7357 2.2261
# 2 48.8059 99.4965 28.9377 -13.0875 -8.3130 -1.9387
# 3 47.8204 28.9377 125.6639 6.7414 -15.0014 21.5778
# 4 -4.7214 -13.0875 6.7414 42.4579 -0.1499 -8.5693
# 5 -10.7357 -8.3130 -15.0014 -0.1499 43.2099 -6.2621
# 6 2.2261 -1.9387 21.5778 -8.5693 -6.2621 34.5030
#
#
#
# Elastic Compliance Matrix: (Units=1/GPa)
#
#
# Indices 1 2 3 4 5 6 
#
# 1 0.011998 -0.004565 -0.003728 0.000867 0.001059 0.001708
# 2 -0.004565 0.013759 -0.002203 0.004875 0.001330 0.003897
# 3 -0.003728 -0.002203 0.011694 -0.004571 0.001527 -0.008055
# 4 0.000867 0.004875 -0.004571 0.027945 0.001145 0.010225
# 5 0.001059 0.001330 0.001527 0.001145 0.024751 0.003828
# 6 0.001708 0.003897 -0.008055 0.010225 0.003828 0.037363
#
#
# Mechanical properties :
#
#
# Convention : Reuss Voigt Hill
#
# Bulk Modulus (GPa) = 60.75860 66.00425 63.38142
# Shear Modulus (GPa) = 32.46988 38.52391 35.49689
#
# Velocity S-wave (km/s) = 3.80393 4.14340 3.97729
# Velocity P-wave (km/s) = 6.80952 7.23218 7.02403
#
# Compressibility (1/GPa) = 0.01645858
#
# Stress axis : x y z
#
# Youngs Moduli (GPa) = 83.34851 72.67998 85.51208
#
# Poissons Ratio (x) = 0.33180 0.31878
# Poissons Ratio (y) = 0.38050 0.18840
# Poissons Ratio (z) = 0.31071 0.16013
#
# Static dielectric constant tensor:
#      x y z
#    x 3.795940 0.283110 -0.504530 
#    y 0.283110 3.783960 0.365300 
#    z -0.504530 0.365300 3.468350 
# 
# 
# High freq. dielectric constant tensor:
#      x y z
#    x 1.892960 -0.006200 -0.012740 
#    y -0.006200 1.902180 -0.002560 
#    z -0.012740 -0.002560 1.885830 
# 
# From -- ./inp_files/393180.got.cif
#   From: 2010.06.25/outbox.cif.g09.slc.cpg/sg2_197_cif.got.tgz:393180.got - 2010.06.27 13:26:56.
