data_PCOD8033302
_publ_section_title
;
Structure prediction by ZEFSAII (Michael W. Deem and Ramdas Pophale) SiO2 
 PCOD8033302
Probable space group: P -1
;
_chemical_formula_sum "Si O2"
_cell_formula_units_Z 14
_cell_length_a 18.842545
_cell_length_b 9.493801
_cell_length_c 12.315692
_cell_angle_alpha 143.998183
_cell_angle_beta 27.202048
_cell_angle_gamma 136.129079
_cell_volume 591.983873
_symmetry_space_group_name_H-M "P -1"
_symmetry_group_IT_number 2
_symmetry_cell_setting 'triclinic'
loop_
_space_group_symop_operation_xyz
x,y,z
-x,-y,-z
loop_
_atom_site_type_symbol
_atom_site_label
_atom_site_fract_x
_atom_site_fract_y
_atom_site_fract_z
Si Si1 0.922832 0.440606 0.954432
Si Si2 0.126463 0.034908 0.183638
Si Si3 0.372094 0.794179 0.546390
Si Si4 0.578022 0.491315 0.215313
Si Si5 0.834673 0.453109 0.489824
Si Si6 0.359935 0.233892 0.496961
Si Si7 0.170482 0.771982 0.417415
O O1 0.019862 0.550133 0.791355
O O2 0.909619 0.150002 0.783492
O O3 0.754774 0.556336 0.253466
O O4 0.000000 0.500000 0.000000
O O5 0.217280 0.269124 0.250634
O O6 0.969075 0.115992 0.389579
O O7 0.227205 0.887144 0.869359
O O8 0.449462 0.555457 0.340765
O O9 0.307429 0.707332 0.462871
O O10 0.500000 0.000000 0.500000
O O11 0.516459 0.271265 0.236364
O O12 0.604125 0.729617 0.401691
O O13 0.742156 0.424659 0.896743
O O14 0.892216 0.349712 0.462615
O O15 0.296669 0.970893 0.400436
#
# Coordination Sequence:
#
# PCOD8033302 Si02
#       7
#     2   2   2   2   2   2   2
#     4  12  22  49  74 106 140 190 241 293 351 424
#     4  12  26  47  76 104 143 186 242 294 351 428
#     4  12  26  47  71 102 147 189 235 291 354 427
#     4  11  25  45  68 105 145 186 239 287 351 425
#     4  12  27  44  74 109 145 185 235 298 363 411
#     4  11  23  45  74 100 144 194 232 289 356 419
#     4  12  26  45  72 110 142 182 238 299 354 420
#
# _framework density 23.649291999999999
#
# number of rings (size 3 to 8) (size 9 to 14) (size 15 to 20)
#    0.000    0.286    4.286    3.857    0.000    6.857 
#    0.000    0.000    0.000    0.000    0.000    0.000 
#    0.000    0.000    0.000    0.000    0.000    0.000 
#
# Total GULP energy -173636.721054 kJ/mol
# GULP energy per Si atom -12402.622932 kJ/mol
# Density = 2.359546 g / cm^3
# Si number density = 23.649292 Si / 1000 Ang^3
#
#
#
# Elastic Constant Matrix: (Units=GPa)
#
#
# Indices 1 2 3 4 5 6 
#
# 1 80.3797 21.8369 24.4090 -14.3352 2.2803 -4.9225
# 2 21.8369 121.6637 11.7568 -4.6163 19.0245 7.3241
# 3 24.4090 11.7568 108.4136 -14.1964 -3.9547 -15.8230
# 4 -14.3352 -4.6163 -14.1964 35.3299 -2.9150 7.6966
# 5 2.2803 19.0245 -3.9547 -2.9150 33.6948 1.8254
# 6 -4.9225 7.3241 -15.8230 7.6966 1.8254 44.2456
#
#
#
# Elastic Compliance Matrix: (Units=1/GPa)
#
#
# Indices 1 2 3 4 5 6 
#
# 1 0.014623 -0.002305 -0.002370 0.004641 0.000417 0.000336
# 2 -0.002305 0.009683 -0.001028 -0.000089 -0.005331 -0.001991
# 3 -0.002370 -0.001028 0.010766 0.002703 0.002065 0.003201
# 4 0.004641 -0.000089 0.002703 0.032448 0.003092 -0.004274
# 5 0.000417 -0.005331 0.002065 0.003092 0.033183 -0.000240
# 6 0.000336 -0.001991 0.003201 -0.004274 -0.000240 0.024866
#
#
# Mechanical properties :
#
#
# Convention : Reuss Voigt Hill
#
# Bulk Modulus (GPa) = 42.25655 47.38470 44.82063
# Shear Modulus (GPa) = 34.51513 39.48436 36.99974
#
# Velocity S-wave (km/s) = 3.82443 4.09048 3.95969
# Velocity P-wave (km/s) = 6.11625 6.51071 6.31656
#
# Compressibility (1/GPa) = 0.02366497
#
# Stress axis : x y z
#
# Youngs Moduli (GPa) = 68.38342 103.27846 92.88910
#
# Poissons Ratio (x) = 0.23805 0.22019
# Poissons Ratio (y) = 0.15762 0.09548
# Poissons Ratio (z) = 0.16210 0.10615
#
# Static dielectric constant tensor:
#      x y z
#    x 5.166760 0.037840 -0.103550 
#    y 0.037840 4.761200 0.133850 
#    z -0.103550 0.133850 4.304220 
# 
# 
# High freq. dielectric constant tensor:
#      x y z
#    x 1.944720 0.004020 0.004210 
#    y 0.004020 1.949870 -0.002210 
#    z 0.004210 -0.002210 1.932620 
# 
# From -- ./inp_files/263781.got.cif
#   From: 2010.06.25/outbox.cif.g09.slc.cpg/sg2_132_cif.got.tgz:263781.got - 2010.06.27 13:26:56.
