data_PCOD8033648
_publ_section_title
;
Structure prediction by ZEFSAII (Michael W. Deem and Ramdas Pophale) SiO2 
 PCOD8033648
Probable space group: P -1
;
_chemical_formula_sum "Si O2"
_cell_formula_units_Z 16
_cell_length_a 9.757070
_cell_length_b 11.918381
_cell_length_c 15.923174
_cell_angle_alpha 132.400665
_cell_angle_beta 135.628584
_cell_angle_gamma 36.478868
_cell_volume 747.458280
_symmetry_space_group_name_H-M "P -1"
_symmetry_group_IT_number 2
_symmetry_cell_setting 'triclinic'
loop_
_space_group_symop_operation_xyz
x,y,z
-x,-y,-z
loop_
_atom_site_type_symbol
_atom_site_label
_atom_site_fract_x
_atom_site_fract_y
_atom_site_fract_z
Si Si1 0.964618 0.934491 0.838971
Si Si2 0.162389 0.534818 0.144742
Si Si3 0.731630 0.762939 0.736216
Si Si4 0.873791 0.661238 0.250524
Si Si5 0.226223 0.971671 0.539383
Si Si6 0.486265 0.882784 0.861744
Si Si7 0.072862 0.905653 0.273171
Si Si8 0.611108 0.287902 0.969430
O O1 0.801321 0.868535 0.760503
O O2 0.947867 0.970355 0.751066
O O3 0.839940 0.141373 0.932648
O O4 0.257509 0.772320 0.911444
O O5 0.424845 0.324637 0.170362
O O6 0.202707 0.680132 0.191823
O O7 0.030838 0.638053 0.227389
O O8 0.000000 0.500000 0.000000
O O9 0.661473 0.851664 0.845034
O O10 0.971279 0.537014 0.728699
O O11 0.490777 0.794400 0.607167
O O12 0.815230 0.827776 0.371213
O O13 0.608933 0.728256 0.134598
O O14 0.234431 0.916389 0.418349
O O15 0.000000 0.000000 0.500000
O O16 0.203700 0.000347 0.765280
O O17 0.500000 0.000000 0.000000
O O18 0.500000 0.500000 0.000000
#
# Coordination Sequence:
#
# PCOD8033648 Si02
#       8
#     2   2   2   2   2   2   2   2
#     4  11  27  41  69 103 140 176 223 281 353 413
#     4  11  24  38  66 101 135 172 222 284 343 401
#     4  11  24  47  69  99 132 185 231 277 340 409
#     4  11  24  44  73 100 131 181 232 281 336 407
#     4  12  24  47  71  93 138 189 236 275 332 403
#     4  11  24  39  69  97 135 172 229 285 344 403
#     4  12  27  44  64 103 138 181 225 287 339 400
#     4  11  24  43  71 101 139 178 221 278 351 416
#
# _framework density 21.405875999999999
#
# number of rings (size 3 to 8) (size 9 to 14) (size 15 to 20)
#    0.000    0.750    6.250    0.000    7.000    2.000 
#    0.000    0.625    0.000    0.000    0.000    0.000 
#    0.000    0.000    0.000    0.000    0.000    0.000 
#
# Total GULP energy -198427.011195 kJ/mol
# GULP energy per Si atom -12401.688200 kJ/mol
# Density = 2.135716 g / cm^3
# Si number density = 21.405876 Si / 1000 Ang^3
#
#
#
# Elastic Constant Matrix: (Units=GPa)
#
#
# Indices 1 2 3 4 5 6 
#
# 1 83.2032 33.8701 30.1033 -5.5915 4.7397 18.6174
# 2 33.8701 152.8938 49.1418 -11.4486 3.8278 12.2589
# 3 30.1033 49.1418 131.9946 -16.4881 -1.3668 9.6307
# 4 -5.5915 -11.4486 -16.4881 35.5777 0.3854 5.0803
# 5 4.7397 3.8278 -1.3668 0.3854 33.1769 -6.4949
# 6 18.6174 12.2589 9.6307 5.0803 -6.4949 34.4976
#
#
#
# Elastic Compliance Matrix: (Units=1/GPa)
#
#
# Indices 1 2 3 4 5 6 
#
# 1 0.015746 -0.001913 -0.002048 0.002131 -0.003756 -0.008267
# 2 -0.001913 0.007945 -0.002235 0.001457 -0.001062 -0.001581
# 3 -0.002048 -0.002235 0.009396 0.003464 0.000681 -0.001105
# 4 0.002131 0.001457 0.003464 0.031641 -0.002207 -0.007710
# 5 -0.003756 -0.001062 0.000681 -0.002207 0.032551 0.008668
# 6 -0.008267 -0.001581 -0.001105 -0.007710 0.008668 0.037087
#
#
# Mechanical properties :
#
#
# Convention : Reuss Voigt Hill
#
# Bulk Modulus (GPa) = 48.32546 66.03577 57.18061
# Shear Modulus (GPa) = 32.53997 37.64886 35.09441
#
# Velocity S-wave (km/s) = 3.90313 4.19837 4.05344
# Velocity P-wave (km/s) = 6.55266 7.37686 6.97694
#
# Compressibility (1/GPa) = 0.02069303
#
# Stress axis : x y z
#
# Youngs Moduli (GPa) = 63.50966 125.86082 106.43137
#
# Poissons Ratio (x) = 0.24081 0.21800
# Poissons Ratio (y) = 0.12152 0.23790
# Poissons Ratio (z) = 0.13008 0.28133
#
# Static dielectric constant tensor:
#      x y z
#    x 3.776730 0.016180 0.134510 
#    y 0.016180 4.342460 -0.048250 
#    z 0.134510 -0.048250 4.118700 
# 
# 
# High freq. dielectric constant tensor:
#      x y z
#    x 1.824760 0.006960 0.002420 
#    y 0.006960 1.865180 -0.007460 
#    z 0.002420 -0.007460 1.828410 
# 
# From -- ./inp_files/500890.got.cif
#   From: 2010.06.25/outbox.cif.g09.slc.cpg/sg2_251_cif.got.tgz:500890.got - 2010.06.27 13:26:56.
