data_PCOD8033816
_publ_section_title
;
Structure prediction by ZEFSAII (Michael W. Deem and Ramdas Pophale) SiO2 
 PCOD8033816
Probable space group: P -1
;
_chemical_formula_sum "Si O2"
_cell_formula_units_Z 16
_cell_length_a 8.924760
_cell_length_b 15.598429
_cell_length_c 5.129406
_cell_angle_alpha 89.817217
_cell_angle_beta 78.661954
_cell_angle_gamma 106.946500
_cell_volume 668.343901
_symmetry_space_group_name_H-M "P -1"
_symmetry_group_IT_number 2
_symmetry_cell_setting 'triclinic'
loop_
_space_group_symop_operation_xyz
x,y,z
-x,-y,-z
loop_
_atom_site_type_symbol
_atom_site_label
_atom_site_fract_x
_atom_site_fract_y
_atom_site_fract_z
Si Si1 0.007068 0.560336 0.246571
Si Si2 0.890217 0.680412 0.976921
Si Si3 0.665097 0.979897 0.001421
Si Si4 0.465344 0.394580 0.990554
Si Si5 0.954563 0.144800 0.781581
Si Si6 0.838030 0.281796 0.513525
Si Si7 0.477217 0.697093 0.538811
Si Si8 0.728310 0.881545 0.477690
O O1 0.000000 0.500000 0.500000
O O2 0.160425 0.648831 0.246251
O O3 0.871140 0.610805 0.231480
O O4 0.000000 0.500000 0.000000
O O5 0.022775 0.664531 0.733627
O O6 0.720791 0.657688 0.893889
O O7 0.947997 0.784137 0.040370
O O8 0.694539 0.914696 0.770647
O O9 0.812065 0.070344 0.970041
O O10 0.655846 0.931414 0.282133
O O11 0.500000 0.000000 0.000000
O O12 0.523072 0.371877 0.691313
O O13 0.500000 0.500000 0.000000
O O14 0.560051 0.360709 0.184337
O O15 0.872129 0.190802 0.591992
O O16 0.080499 0.099718 0.612130
O O17 0.663947 0.256384 0.442877
O O18 0.644743 0.774928 0.487504
#
# Coordination Sequence:
#
# PCOD8033816 Si02
#       8
#     2   2   2   2   2   2   2   2
#     4  11  24  42  68 101 142 183 248 304 360 425
#     4  11  26  46  74 104 146 198 240 307 364 433
#     4  12  28  47  78 114 150 187 242 301 357 440
#     4  12  29  49  73 104 149 196 250 304 369 432
#     4  11  26  47  75 110 150 191 247 293 368 439
#     4  11  27  44  76 105 145 195 243 305 370 426
#     4  12  28  49  73 108 149 194 243 307 370 435
#     4  12  26  50  76 108 150 195 239 294 370 433
#
# _framework density 23.939772000000001
#
# number of rings (size 3 to 8) (size 9 to 14) (size 15 to 20)
#    0.000    0.500    2.500    3.750   14.000    0.000 
#    0.000    0.000    0.000    0.000    0.000    0.000 
#    0.000    0.000    0.000    0.000    0.000    0.000 
#
# Total GULP energy -198357.950020 kJ/mol
# GULP energy per Si atom -12397.371876 kJ/mol
# Density = 2.388528 g / cm^3
# Si number density = 23.939772 Si / 1000 Ang^3
#
#
#
# Elastic Constant Matrix: (Units=GPa)
#
#
# Indices 1 2 3 4 5 6 
#
# 1 122.1021 29.3112 10.9179 0.1074 1.8190 5.2264
# 2 29.3112 112.1994 33.6884 4.9455 11.1624 -7.4207
# 3 10.9179 33.6884 102.8734 1.3449 17.2473 -2.3167
# 4 0.1074 4.9455 1.3449 42.8156 -11.1502 7.1292
# 5 1.8190 11.1624 17.2473 -11.1502 38.1806 -4.5601
# 6 5.2264 -7.4207 -2.3167 7.1292 -4.5601 28.9235
#
#
#
# Elastic Compliance Matrix: (Units=1/GPa)
#
#
# Indices 1 2 3 4 5 6 
#
# 1 0.008904 -0.002476 -0.000257 0.000763 0.000352 -0.002397
# 2 -0.002476 0.010940 -0.002874 -0.002243 -0.002049 0.003254
# 3 -0.000257 -0.002874 0.011492 -0.001222 -0.004721 -0.000213
# 4 0.000763 -0.002243 -0.001222 0.026825 0.008275 -0.006118
# 5 0.000352 -0.002049 -0.004721 0.008275 0.031558 0.001968
# 6 -0.002397 0.003254 -0.000213 -0.006118 0.001968 0.037643
#
#
# Mechanical properties :
#
#
# Convention : Reuss Voigt Hill
#
# Bulk Modulus (GPa) = 49.69697 53.88998 51.79347
# Shear Modulus (GPa) = 34.41538 39.53442 36.97490
#
# Velocity S-wave (km/s) = 3.79566 4.06817 3.93427
# Velocity P-wave (km/s) = 6.32563 6.68028 6.50537
#
# Compressibility (1/GPa) = 0.02012195
#
# Stress axis : x y z
#
# Youngs Moduli (GPa) = 112.30968 91.40511 87.01863
#
# Poissons Ratio (x) = 0.22633 0.02238
# Poissons Ratio (y) = 0.27809 0.25008
# Poissons Ratio (z) = 0.02888 0.26268
#
# Static dielectric constant tensor:
#      x y z
#    x 4.365320 -0.044650 0.356760 
#    y -0.044650 4.464030 -0.014450 
#    z 0.356760 -0.014450 4.324910 
# 
# 
# High freq. dielectric constant tensor:
#      x y z
#    x 1.953250 -0.007310 0.019080 
#    y -0.007310 1.963330 0.002560 
#    z 0.019080 0.002560 1.953360 
# 
# From -- ./inp_files/38037.got.cif
#   From: 2010.06.25/outbox.cif.g09.slc.cpg/sg2_20_cif.got.tgz:38037.got - 2010.06.27 13:26:56.
