data_PCOD8033558
_publ_section_title
;
Structure prediction by ZEFSAII (Michael W. Deem and Ramdas Pophale) SiO2 
 PCOD8033558
Probable space group: P -1
;
_chemical_formula_sum "Si O2"
_cell_formula_units_Z 16
_cell_length_a 9.001961
_cell_length_b 9.108072
_cell_length_c 12.291464
_cell_angle_alpha 72.544174
_cell_angle_beta 58.614422
_cell_angle_gamma 51.402127
_cell_volume 671.913195
_symmetry_space_group_name_H-M "P -1"
_symmetry_group_IT_number 2
_symmetry_cell_setting 'triclinic'
loop_
_space_group_symop_operation_xyz
x,y,z
-x,-y,-z
loop_
_atom_site_type_symbol
_atom_site_label
_atom_site_fract_x
_atom_site_fract_y
_atom_site_fract_z
Si Si1 0.921163 0.675243 0.281802
Si Si2 0.269692 0.694909 0.542085
Si Si3 0.524361 0.436422 0.127174
Si Si4 0.552427 0.069843 0.568001
Si Si5 0.966935 0.344394 0.003121
Si Si6 0.890852 0.863940 0.801036
Si Si7 0.296020 0.255614 0.253923
Si Si8 0.145520 0.770567 0.327420
O O1 0.676447 0.748385 0.343606
O O2 0.073402 0.460323 0.312446
O O3 0.937613 0.804680 0.337642
O O4 0.993170 0.697112 0.130357
O O5 0.500000 0.500000 0.500000
O O6 0.292329 0.864789 0.523453
O O7 0.115979 0.704881 0.691758
O O8 0.152019 0.735339 0.461738
O O9 0.733865 0.399911 0.106604
O O10 0.503455 0.260477 0.175495
O O11 0.340390 0.585640 0.241286
O O12 0.500000 0.500000 0.000000
O O13 0.500000 0.000000 0.500000
O O14 0.678652 0.891570 0.636806
O O15 0.106970 0.156681 0.064580
O O16 0.000000 0.500000 0.000000
O O17 0.717835 0.824935 0.838232
O O18 0.822622 0.067046 0.746206
#
# Coordination Sequence:
#
# PCOD8033558 Si02
#       8
#     2   2   2   2   2   2   2   2
#     4  11  26  49  72 109 145 194 241 300 373 425
#     4  12  27  47  74 107 144 197 244 303 365 443
#     4  11  23  47  72 102 145 190 249 289 369 431
#     4  12  29  47  73 111 148 191 252 298 365 443
#     4  12  25  46  75 104 145 190 244 301 359 441
#     4  12  25  46  73 105 148 189 244 301 369 429
#     4  11  25  48  71 107 147 192 239 303 363 432
#     4  11  25  44  72 106 143 189 238 306 360 435
#
# _framework density 23.812601000000001
#
# number of rings (size 3 to 8) (size 9 to 14) (size 15 to 20)
#    0.000    0.500    5.000    2.625   10.500    2.000 
#    0.000    1.875    0.000    0.000    0.000    0.000 
#    0.000    0.000    0.000    0.000    0.000    0.000 
#
# Total GULP energy -198327.945583 kJ/mol
# GULP energy per Si atom -12395.496599 kJ/mol
# Density = 2.375840 g / cm^3
# Si number density = 23.812601 Si / 1000 Ang^3
#
#
#
# Elastic Constant Matrix: (Units=GPa)
#
#
# Indices 1 2 3 4 5 6 
#
# 1 146.5014 41.9275 41.9070 -7.7422 2.8263 20.2032
# 2 41.9275 71.1217 6.2418 -26.2037 7.3731 7.4956
# 3 41.9070 6.2418 66.6863 -10.1259 15.0972 -1.6921
# 4 -7.7422 -26.2037 -10.1259 28.9236 3.1219 4.1226
# 5 2.8263 7.3731 15.0972 3.1219 52.7168 -7.2139
# 6 20.2032 7.4956 -1.6921 4.1226 -7.2139 44.4180
#
#
#
# Elastic Compliance Matrix: (Units=1/GPa)
#
#
# Indices 1 2 3 4 5 6 
#
# 1 0.011849 -0.009279 -0.008625 -0.008194 0.003225 -0.002868
# 2 -0.009279 0.031759 0.009589 0.031385 -0.009259 -0.005190
# 3 -0.008625 0.009589 0.023838 0.015597 -0.008578 0.000372
# 4 -0.008194 0.031385 0.015597 0.069141 -0.013831 -0.009639
# 5 0.003225 -0.009259 -0.008578 -0.013831 0.024046 0.004958
# 6 -0.002868 -0.005190 0.000372 -0.009639 0.004958 0.026408
#
#
# Mechanical properties :
#
#
# Convention : Reuss Voigt Hill
#
# Bulk Modulus (GPa) = 19.67886 51.60689 35.64287
# Shear Modulus (GPa) = 22.66453 38.16055 30.41254
#
# Velocity S-wave (km/s) = 3.08845 4.00751 3.57762
# Velocity P-wave (km/s) = 4.58258 6.56755 5.66272
#
# Compressibility (1/GPa) = 0.05081596
#
# Stress axis : x y z
#
# Youngs Moduli (GPa) = 84.39673 31.48669 41.95039
#
# Poissons Ratio (x) = 0.29217 0.36181
# Poissons Ratio (y) = 0.78313 -0.40225
# Poissons Ratio (z) = 0.72789 -0.30192
#
# Static dielectric constant tensor:
#      x y z
#    x 5.002750 0.057610 -0.157010 
#    y 0.057610 4.425880 0.045040 
#    z -0.157010 0.045040 4.276010 
# 
# 
# High freq. dielectric constant tensor:
#      x y z
#    x 1.972790 0.008930 0.002890 
#    y 0.008930 1.940960 -0.007680 
#    z 0.002890 -0.007680 1.940460 
# 
# From -- ./inp_files/274841.got.cif
#   From: 2010.06.25/outbox.cif.g09.slc.cpg/sg2_138_cif.got.tgz:274841.got - 2010.06.27 13:26:56.
