data_PCOD8033130
_publ_section_title
;
Structure prediction by ZEFSAII (Michael W. Deem and Ramdas Pophale) SiO2 
 PCOD8033130
Probable space group: P -1
;
_chemical_formula_sum "Si O2"
_cell_formula_units_Z 16
_cell_length_a 18.804058
_cell_length_b 9.420241
_cell_length_c 11.437354
_cell_angle_alpha 74.260545
_cell_angle_beta 50.017374
_cell_angle_gamma 34.532744
_cell_volume 707.850576
_symmetry_space_group_name_H-M "P -1"
_symmetry_group_IT_number 2
_symmetry_cell_setting 'triclinic'
loop_
_space_group_symop_operation_xyz
x,y,z
-x,-y,-z
loop_
_atom_site_type_symbol
_atom_site_label
_atom_site_fract_x
_atom_site_fract_y
_atom_site_fract_z
Si Si1 0.830135 0.123642 0.941037
Si Si2 0.895300 0.841378 0.233748
Si Si3 0.779420 0.319374 0.274100
Si Si4 0.410598 0.796477 0.697419
Si Si5 0.299745 0.145279 0.942471
Si Si6 0.286617 0.865625 0.153611
Si Si7 0.834320 0.840797 0.553646
Si Si8 0.577080 0.718715 0.173135
O O1 0.852652 0.040763 0.801079
O O2 0.678818 0.222780 0.141471
O O3 0.732028 0.422732 0.987939
O O4 0.050856 0.811292 0.827348
O O5 0.909879 0.815717 0.363824
O O6 0.880302 0.035580 0.169821
O O7 0.713113 0.005674 0.335486
O O8 0.087327 0.502754 0.049829
O O9 0.637451 0.458229 0.497247
O O10 0.643486 0.592826 0.263916
O O11 0.400026 0.950703 0.760193
O O12 0.420076 0.108823 0.884270
O O13 0.284950 0.037606 0.077161
O O14 0.210698 0.970816 0.343601
O O15 0.500000 0.500000 0.000000
O O16 0.000000 0.500000 0.500000
O O17 0.640909 0.022507 0.683837
#
# Coordination Sequence:
#
# PCOD8033130 Si02
#       8
#     2   2   2   2   2   2   2   2
#     4  11  23  44  76 103 144 185 236 295 356 422
#     4  12  22  44  71 105 142 190 232 292 358 434
#     4  12  24  42  76 113 142 182 241 292 366 431
#     4  11  24  43  69 107 145 185 230 294 363 421
#     4  11  26  43  71 104 142 182 235 300 364 415
#     4  11  25  48  70  96 142 200 239 287 351 421
#     4  12  26  46  71 100 142 195 246 284 352 424
#     4  12  23  46  73 105 144 184 232 304 358 425
#
# _framework density 22.603639999999999
#
# number of rings (size 3 to 8) (size 9 to 14) (size 15 to 20)
#    0.000    0.500    6.250    2.625    1.750    3.000 
#    2.250    0.625    0.000    0.000    0.000    0.000 
#    0.000    0.000    0.000    0.000    0.000    0.000 
#
# Total GULP energy -198419.601475 kJ/mol
# GULP energy per Si atom -12401.225092 kJ/mol
# Density = 2.255219 g / cm^3
# Si number density = 22.603640 Si / 1000 Ang^3
#
#
#
# Elastic Constant Matrix: (Units=GPa)
#
#
# Indices 1 2 3 4 5 6 
#
# 1 165.9703 32.3468 40.0810 4.7345 2.3720 -2.2098
# 2 32.3468 75.4715 4.5568 18.0150 -1.1723 0.8242
# 3 40.0810 4.5568 64.7107 16.8205 -2.7791 -3.9567
# 4 4.7345 18.0150 16.8205 35.9767 -5.7133 -1.0542
# 5 2.3720 -1.1723 -2.7791 -5.7133 46.1115 6.1756
# 6 -2.2098 0.8242 -3.9567 -1.0542 6.1756 43.2277
#
#
#
# Elastic Compliance Matrix: (Units=1/GPa)
#
#
# Indices 1 2 3 4 5 6 
#
# 1 0.008066 -0.003958 -0.005636 0.003489 -0.000439 0.000120
# 2 -0.003958 0.017069 0.003773 -0.009850 -0.000305 -0.000379
# 3 -0.005636 0.003773 0.021683 -0.011227 0.000123 0.001333
# 4 0.003489 -0.009850 -0.011227 0.038090 0.003647 -0.000254
# 5 -0.000439 -0.000305 0.000123 0.003647 0.022582 -0.003142
# 6 0.000120 -0.000379 0.001333 -0.000254 -0.003142 0.023711
#
#
# Mechanical properties :
#
#
# Convention : Reuss Voigt Hill
#
# Bulk Modulus (GPa) = 28.42629 51.12463 39.77546
# Shear Modulus (GPa) = 32.34846 40.34105 36.34475
#
# Velocity S-wave (km/s) = 3.78711 4.22917 4.01423
# Velocity P-wave (km/s) = 5.63261 6.82018 6.25464
#
# Compressibility (1/GPa) = 0.03517870
#
# Stress axis : x y z
#
# Youngs Moduli (GPa) = 123.98011 58.58555 46.11821
#
# Poissons Ratio (x) = 0.23186 0.25990
# Poissons Ratio (y) = 0.49067 -0.17403
# Poissons Ratio (z) = 0.69870 -0.22107
#
# Static dielectric constant tensor:
#      x y z
#    x 4.588030 -0.145080 0.253260 
#    y -0.145080 4.377970 -0.136860 
#    z 0.253260 -0.136860 4.170450 
# 
# 
# High freq. dielectric constant tensor:
#      x y z
#    x 1.902290 -0.006770 0.008770 
#    y -0.006770 1.886810 0.011910 
#    z 0.008770 0.011910 1.884720 
# 
# From -- ./inp_files/189816.got.cif
#   From: 2010.06.25/outbox.cif.g09.slc.cpg/sg2_95_cif.got.tgz:189816.got - 2010.06.27 13:26:56.
