data_PCOD8033424
_publ_section_title
;
Structure prediction by ZEFSAII (Michael W. Deem and Ramdas Pophale) SiO2 
 PCOD8033424
Probable space group: P -1
;
_chemical_formula_sum "Si O2"
_cell_formula_units_Z 16
_cell_length_a 9.809369
_cell_length_b 10.971809
_cell_length_c 8.670995
_cell_angle_alpha 87.539922
_cell_angle_beta 126.734682
_cell_angle_gamma 96.230204
_cell_volume 743.202227
_symmetry_space_group_name_H-M "P -1"
_symmetry_group_IT_number 2
_symmetry_cell_setting 'triclinic'
loop_
_space_group_symop_operation_xyz
x,y,z
-x,-y,-z
loop_
_atom_site_type_symbol
_atom_site_label
_atom_site_fract_x
_atom_site_fract_y
_atom_site_fract_z
Si Si1 0.071100 0.614539 0.941319
Si Si2 0.093210 0.771260 0.229492
Si Si3 0.373994 0.940298 0.292393
Si Si4 0.603300 0.386484 0.046636
Si Si5 0.108687 0.628039 0.530282
Si Si6 0.381881 0.159668 0.775949
Si Si7 0.843482 0.969815 0.115803
Si Si8 0.058112 0.212474 0.379327
O O1 0.071287 0.734081 0.039667
O O2 0.257210 0.593251 0.998422
O O3 0.000000 0.500000 0.000000
O O4 0.946925 0.656310 0.720640
O O5 0.278058 0.845451 0.351491
O O6 0.104342 0.646384 0.342293
O O7 0.948610 0.852955 0.184848
O O8 0.462719 0.888062 0.207237
O O9 0.500000 0.000000 0.500000
O O10 0.238811 0.020939 0.111652
O O11 0.700416 0.366823 0.273558
O O12 0.500000 0.500000 0.000000
O O13 0.459685 0.275684 0.920926
O O14 0.000000 0.500000 0.500000
O O15 0.035146 0.754634 0.528037
O O16 0.296606 0.057388 0.841857
O O17 0.251263 0.192311 0.552018
O O18 0.961390 0.094036 0.235862
#
# Coordination Sequence:
#
# PCOD8033424 Si02
#       8
#     2   2   2   2   2   2   2   2
#     4  11  25  46  72  96 135 181 229 284 340 408
#     4  12  24  46  68 102 136 177 233 278 340 413
#     4  12  27  42  66 106 145 170 219 292 352 395
#     4  11  25  47  69 101 139 176 232 287 342 403
#     4  11  24  45  73  99 131 187 239 273 331 421
#     4  12  25  45  69 105 139 182 228 285 347 404
#     4  12  26  45  73  98 138 192 229 269 347 429
#     4  11  23  46  71 100 135 184 240 271 330 431
#
# _framework density 21.528462000000001
#
# number of rings (size 3 to 8) (size 9 to 14) (size 15 to 20)
#    0.000    0.500    3.750    4.875    7.000    0.000 
#    2.250    1.250    0.000    0.000    0.000    0.000 
#    0.000    0.000    0.000    0.000    0.000    0.000 
#
# Total GULP energy -198254.297177 kJ/mol
# GULP energy per Si atom -12390.893574 kJ/mol
# Density = 2.147946 g / cm^3
# Si number density = 21.528462 Si / 1000 Ang^3
#
#
#
# Elastic Constant Matrix: (Units=GPa)
#
#
# Indices 1 2 3 4 5 6 
#
# 1 92.4417 32.3354 28.3488 -18.9994 -0.9157 4.8125
# 2 32.3354 105.2927 59.5704 -9.9438 4.7066 9.4006
# 3 28.3488 59.5704 141.9016 6.3438 1.7037 13.7852
# 4 -18.9994 -9.9438 6.3438 32.8777 7.0515 -7.3750
# 5 -0.9157 4.7066 1.7037 7.0515 28.8863 1.2277
# 6 4.8125 9.4006 13.7852 -7.3750 1.2277 47.7893
#
#
#
# Elastic Compliance Matrix: (Units=1/GPa)
#
#
# Indices 1 2 3 4 5 6 
#
# 1 0.013948 -0.002237 -0.002303 0.008295 -0.001126 0.001009
# 2 -0.002237 0.013914 -0.005553 0.004634 -0.003137 -0.000114
# 3 -0.002303 -0.005553 0.010339 -0.005979 0.001793 -0.002627
# 4 0.008295 0.004634 -0.005979 0.041523 -0.010559 0.006657
# 5 -0.001126 -0.003137 0.001793 -0.010559 0.037667 -0.002384
# 6 0.001009 -0.000114 -0.002627 0.006657 -0.002384 0.022692
#
#
# Mechanical properties :
#
#
# Convention : Reuss Voigt Hill
#
# Bulk Modulus (GPa) = 55.50570 64.46060 59.98315
# Shear Modulus (GPa) = 30.07123 36.53607 33.30365
#
# Velocity S-wave (km/s) = 3.74145 4.12406 3.93741
# Velocity P-wave (km/s) = 6.67106 7.25839 6.97091
#
# Compressibility (1/GPa) = 0.01801617
#
# Stress axis : x y z
#
# Youngs Moduli (GPa) = 71.69732 71.87152 96.72037
#
# Poissons Ratio (x) = 0.16076 0.22272
# Poissons Ratio (y) = 0.16037 0.53704
# Poissons Ratio (z) = 0.16510 0.39907
#
# Static dielectric constant tensor:
#      x y z
#    x 3.747570 -1.374170 -1.119040 
#    y -1.374170 -0.677460 -4.082060 
#    z -1.119040 -4.082060 0.943670 
# 
# 
# High freq. dielectric constant tensor:
#      x y z
#    x 1.848420 -0.004600 -0.009540 
#    y -0.004600 1.851300 0.001020 
#    z -0.009540 0.001020 1.862500 
# 
# From -- ./inp_files/187090.got.cif
#   From: 2010.06.25/outbox.cif.g09.slc.cpg/sg2_94_cif.got.tgz:187090.got - 2010.06.27 13:26:56.
