data_PCOD8033307
_publ_section_title
;
Structure prediction by ZEFSAII (Michael W. Deem and Ramdas Pophale) SiO2 
 PCOD8033307
Probable space group: P -1
;
_chemical_formula_sum "Si O2"
_cell_formula_units_Z 16
_cell_length_a 8.987258
_cell_length_b 22.564731
_cell_length_c 16.332829
_cell_angle_alpha 164.015970
_cell_angle_beta 131.316602
_cell_angle_gamma 48.812137
_cell_volume 680.476408
_symmetry_space_group_name_H-M "P -1"
_symmetry_group_IT_number 2
_symmetry_cell_setting 'triclinic'
loop_
_space_group_symop_operation_xyz
x,y,z
-x,-y,-z
loop_
_atom_site_type_symbol
_atom_site_label
_atom_site_fract_x
_atom_site_fract_y
_atom_site_fract_z
Si Si1 0.279892 0.573073 0.483087
Si Si2 0.665888 0.090912 0.818800
Si Si3 0.296726 0.407418 0.095392
Si Si4 0.169888 0.005053 0.422660
Si Si5 0.010397 0.681090 0.678019
Si Si6 0.746237 0.177537 0.484251
Si Si7 0.391894 0.738458 0.283724
Si Si8 0.614127 0.977156 0.925440
O O1 0.500000 0.500000 0.500000
O O2 0.224944 0.435554 0.201216
O O3 0.108357 0.565087 0.478241
O O4 0.272238 0.818067 0.776811
O O5 0.704975 0.998935 0.619980
O O6 0.550027 0.912405 0.584667
O O7 0.532004 0.323170 0.071317
O O8 0.861958 0.129094 0.991910
O O9 0.259617 0.632208 0.331952
O O10 0.180429 0.229291 0.772625
O O11 0.939890 0.002390 0.309973
O O12 0.251543 0.800421 0.236377
O O13 0.781485 0.774290 0.706243
O O14 0.000000 0.500000 0.500000
O O15 0.749577 0.267614 0.697007
O O16 0.555878 0.046509 0.234387
O O17 0.500000 0.500000 0.000000
O O18 0.500000 0.000000 0.000000
#
# Coordination Sequence:
#
# PCOD8033307 Si02
#       8
#     2   2   2   2   2   2   2   2
#     4  12  25  47  73 106 147 185 241 303 367 433
#     4  11  23  47  74 101 146 187 239 296 359 434
#     4  11  23  45  74 103 143 190 230 298 368 425
#     4  11  25  45  72 103 142 191 240 290 358 425
#     4  12  26  48  75 108 142 193 246 298 367 431
#     4  12  24  45  68 102 145 179 244 292 351 432
#     4  11  24  45  71 105 141 184 235 294 363 428
#     4  12  25  46  70 105 144 190 240 295 359 428
#
# _framework density 23.512937999999998
#
# number of rings (size 3 to 8) (size 9 to 14) (size 15 to 20)
#    0.000    0.500    2.500    7.125    1.750    0.000 
#    4.500    0.000    0.000    0.000    0.000    0.000 
#    0.000    0.000    0.000    0.000    0.000    0.000 
#
# Total GULP energy -198429.280871 kJ/mol
# GULP energy per Si atom -12401.830054 kJ/mol
# Density = 2.345942 g / cm^3
# Si number density = 23.512938 Si / 1000 Ang^3
#
#
#
# Elastic Constant Matrix: (Units=GPa)
#
#
# Indices 1 2 3 4 5 6 
#
# 1 165.1743 59.1537 36.1941 1.9990 -32.5232 11.1969
# 2 59.1537 112.6464 43.9268 3.7748 -7.0722 -4.5495
# 3 36.1941 43.9268 87.3725 1.5974 -15.6660 0.3324
# 4 1.9990 3.7748 1.5974 42.7394 4.6933 -3.2606
# 5 -32.5232 -7.0722 -15.6660 4.6933 41.8322 -9.3571
# 6 11.1969 -4.5495 0.3324 -3.2606 -9.3571 53.2199
#
#
#
# Elastic Compliance Matrix: (Units=1/GPa)
#
#
# Indices 1 2 3 4 5 6 
#
# 1 0.008886 -0.004110 -0.000553 -0.000765 0.005814 -0.001242
# 2 -0.004110 0.013015 -0.005306 -0.000357 -0.002599 0.001532
# 3 -0.000553 -0.005306 0.015154 -0.000539 0.004481 0.000323
# 4 -0.000765 -0.000357 -0.000539 0.023927 -0.003314 0.001017
# 5 0.005814 -0.002599 0.004481 -0.003314 0.030875 0.003752
# 6 -0.001242 0.001532 0.000323 0.001017 0.003752 0.019902
#
#
# Mechanical properties :
#
#
# Convention : Reuss Voigt Hill
#
# Bulk Modulus (GPa) = 58.42480 71.52694 64.97587
# Shear Modulus (GPa) = 36.38918 42.61955 39.50437
#
# Velocity S-wave (km/s) = 3.93825 4.26208 4.10336
# Velocity P-wave (km/s) = 6.75142 7.39640 7.08126
#
# Compressibility (1/GPa) = 0.01711602
#
# Stress axis : x y z
#
# Youngs Moduli (GPa) = 112.54183 76.83241 65.98770
#
# Poissons Ratio (x) = 0.31576 0.03652
# Poissons Ratio (y) = 0.46252 0.35016
# Poissons Ratio (z) = 0.06229 0.40771
#
# Static dielectric constant tensor:
#      x y z
#    x 4.393070 0.009690 -0.107020 
#    y 0.009690 4.448680 -0.099340 
#    z -0.107020 -0.099340 4.261950 
# 
# 
# High freq. dielectric constant tensor:
#      x y z
#    x 1.943720 0.003650 -0.012010 
#    y 0.003650 1.943180 0.000130 
#    z -0.012010 0.000130 1.925970 
# 
# From -- ./inp_files/508227.got.cif
#   From: 2010.06.25/outbox.cif.g09.slc.cpg/sg2_255_cif.got.tgz:508227.got - 2010.06.27 13:26:56.
