data_PCOD8033538
_publ_section_title
;
Structure prediction by ZEFSAII (Michael W. Deem and Ramdas Pophale) SiO2 
 PCOD8033538
Probable space group: P -1
;
_chemical_formula_sum "Si O2"
_cell_formula_units_Z 16
_cell_length_a 9.026916
_cell_length_b 17.511247
_cell_length_c 6.791925
_cell_angle_alpha 61.515825
_cell_angle_beta 117.282450
_cell_angle_gamma 124.512164
_cell_volume 750.875803
_symmetry_space_group_name_H-M "P -1"
_symmetry_group_IT_number 2
_symmetry_cell_setting 'triclinic'
loop_
_space_group_symop_operation_xyz
x,y,z
-x,-y,-z
loop_
_atom_site_type_symbol
_atom_site_label
_atom_site_fract_x
_atom_site_fract_y
_atom_site_fract_z
Si Si1 0.366850 0.196597 0.860020
Si Si2 0.174913 0.101582 0.462290
Si Si3 0.881284 0.540314 0.755403
Si Si4 0.643000 0.358879 0.585901
Si Si5 0.480330 0.098281 0.372910
Si Si6 0.838633 0.273247 0.522280
Si Si7 0.641157 0.586497 0.852952
Si Si8 0.871418 0.758223 0.034944
O O1 0.231781 0.148088 0.654439
O O2 0.568301 0.280675 0.813520
O O3 0.392734 0.112375 0.097784
O O4 0.275434 0.247357 0.882095
O O5 0.350890 0.093553 0.484097
O O6 0.100426 0.161891 0.208354
O O7 0.000000 0.000000 0.500000
O O8 0.778084 0.466974 0.605614
O O9 0.721189 0.543682 0.786700
O O10 0.009135 0.648091 0.623819
O O11 0.000000 0.500000 0.000000
O O12 0.755778 0.329399 0.535742
O O13 0.459204 0.353350 0.375514
O O14 0.679849 0.190381 0.400506
O O15 0.500000 0.000000 0.500000
O O16 0.931290 0.218878 0.775695
O O17 0.802267 0.654925 0.013519
O O18 0.500000 0.500000 0.000000
#
# Coordination Sequence:
#
# PCOD8033538 Si02
#       8
#     2   2   2   2   2   2   2   2
#     4  11  23  47  70  96 137 181 223 278 340 403
#     4  11  26  46  72  98 132 182 228 279 342 405
#     4  12  25  40  67 101 138 183 226 283 341 401
#     4  12  22  44  67  96 137 180 227 277 341 403
#     4  11  27  45  69 103 137 178 226 283 340 405
#     4  12  25  44  65 103 139 176 228 284 341 405
#     4  12  23  42  66  99 136 180 232 274 333 405
#     4  11  25  43  68 101 135 175 227 282 335 407
#
# _framework density 21.308450000000001
#
# number of rings (size 3 to 8) (size 9 to 14) (size 15 to 20)
#    0.000    0.500    2.500    6.000    3.500    2.500 
#    0.000    0.000    0.000    0.000    0.000    0.000 
#    0.000    0.000    0.000    0.000    0.000    0.000 
#
# Total GULP energy -198517.759076 kJ/mol
# GULP energy per Si atom -12407.359942 kJ/mol
# Density = 2.125995 g / cm^3
# Si number density = 21.308450 Si / 1000 Ang^3
#
#
#
# Elastic Constant Matrix: (Units=GPa)
#
#
# Indices 1 2 3 4 5 6 
#
# 1 102.9604 30.2097 43.0260 -7.7527 4.9579 -7.5075
# 2 30.2097 131.0127 37.8879 -5.6010 -12.5039 11.3979
# 3 43.0260 37.8879 120.7667 -1.6610 6.5563 -3.0611
# 4 -7.7527 -5.6010 -1.6610 34.0708 0.4308 0.9596
# 5 4.9579 -12.5039 6.5563 0.4308 39.5922 -3.7593
# 6 -7.5075 11.3979 -3.0611 0.9596 -3.7593 43.7669
#
#
#
# Elastic Compliance Matrix: (Units=1/GPa)
#
#
# Indices 1 2 3 4 5 6 
#
# 1 0.012179 -0.002011 -0.003546 0.002223 -0.001389 0.002197
# 2 -0.002011 0.009411 -0.002473 0.001002 0.003366 -0.002702
# 3 -0.003546 -0.002473 0.010434 -0.000697 -0.002000 0.000609
# 4 0.002223 0.001002 -0.000697 0.030007 -0.000231 -0.000606
# 5 -0.001389 0.003366 -0.002000 -0.000231 0.026929 0.001063
# 6 0.002197 -0.002702 0.000609 -0.000606 0.001063 0.024076
#
#
# Mechanical properties :
#
#
# Convention : Reuss Voigt Hill
#
# Bulk Modulus (GPa) = 62.64796 64.10968 63.37882
# Shear Modulus (GPa) = 37.19684 39.72706 38.46195
#
# Velocity S-wave (km/s) = 4.18262 4.32253 4.25315
# Velocity P-wave (km/s) = 7.26568 7.42052 7.34351
#
# Compressibility (1/GPa) = 0.01596221
#
# Stress axis : x y z
#
# Youngs Moduli (GPa) = 82.10780 106.25759 95.83775
#
# Poissons Ratio (x) = 0.21372 0.33988
# Poissons Ratio (y) = 0.16515 0.23704
# Poissons Ratio (z) = 0.29119 0.26282
#
# Static dielectric constant tensor:
#      x y z
#    x 3.912040 0.011050 0.053040 
#    y 0.011050 3.942190 -0.028220 
#    z 0.053040 -0.028220 4.151270 
# 
# 
# High freq. dielectric constant tensor:
#      x y z
#    x 1.845700 0.000220 -0.000840 
#    y 0.000220 1.843370 -0.000370 
#    z -0.000840 -0.000370 1.851900 
# 
# From -- ./inp_files/39483.got.cif
#   From: 2010.06.25/outbox.cif.g09.slc.cpg/sg2_20_cif.got.tgz:39483.got - 2010.06.27 13:26:56.
