data_PCOD8033856
_publ_section_title
;
Structure prediction by ZEFSAII (Michael W. Deem and Ramdas Pophale) SiO2 
 PCOD8033856
Probable space group: P -1
;
_chemical_formula_sum "Si O2"
_cell_formula_units_Z 16
_cell_length_a 5.073119
_cell_length_b 22.406463
_cell_length_c 12.138979
_cell_angle_alpha 38.781602
_cell_angle_beta 118.410945
_cell_angle_gamma 124.391975
_cell_volume 711.509011
_symmetry_space_group_name_H-M "P -1"
_symmetry_group_IT_number 2
_symmetry_cell_setting 'triclinic'
loop_
_space_group_symop_operation_xyz
x,y,z
-x,-y,-z
loop_
_atom_site_type_symbol
_atom_site_label
_atom_site_fract_x
_atom_site_fract_y
_atom_site_fract_z
Si Si1 0.350413 0.377471 0.934394
Si Si2 0.380855 0.729529 0.034712
Si Si3 0.658747 0.328135 0.274462
Si Si4 0.626053 0.608844 0.660519
Si Si5 0.688495 0.072926 0.338984
Si Si6 0.786643 0.769672 0.269818
Si Si7 0.485408 0.107454 0.809569
Si Si8 0.308357 0.106849 0.538200
O O1 0.576440 0.340979 0.952761
O O2 0.401324 0.494448 0.752315
O O3 0.980745 0.311692 0.933133
O O4 0.442275 0.365379 0.095538
O O5 0.623946 0.730022 0.178275
O O6 0.467757 0.844301 0.842097
O O7 0.548795 0.345400 0.350132
O O8 0.613881 0.208171 0.425640
O O9 0.028538 0.391116 0.230695
O O10 0.681872 0.673794 0.467401
O O11 0.039606 0.127934 0.379929
O O12 0.500000 0.000000 0.500000
O O13 0.665603 0.001242 0.332274
O O14 0.665179 0.856425 0.168034
O O15 0.166208 0.813313 0.265941
O O16 0.250892 0.098454 0.670677
O O17 0.500000 0.000000 0.000000
#
# Coordination Sequence:
#
# PCOD8033856 Si02
#       8
#     2   2   2   2   2   2   2   2
#     4  12  26  45  72 101 135 187 223 289 350 394
#     4  12  27  46  68  99 145 177 235 281 340 409
#     4  12  23  45  71 104 140 170 231 286 346 405
#     4  12  25  45  72 103 137 177 234 283 340 411
#     4  11  26  41  68 101 137 178 227 274 345 412
#     4  12  26  46  68 101 137 183 229 287 328 409
#     4  12  26  44  70  99 138 182 232 274 343 400
#     4  11  24  42  69  99 135 179 219 282 343 402
#
# _framework density 22.487417000000001
#
# number of rings (size 3 to 8) (size 9 to 14) (size 15 to 20)
#    0.000    0.250    3.750    4.875    7.000    1.000 
#    0.000    0.000    0.000    0.000    0.000    0.000 
#    0.000    0.000    0.000    0.000    0.000    0.000 
#
# Total GULP energy -198475.651939 kJ/mol
# GULP energy per Si atom -12404.728246 kJ/mol
# Density = 2.243623 g / cm^3
# Si number density = 22.487417 Si / 1000 Ang^3
#
#
#
# Elastic Constant Matrix: (Units=GPa)
#
#
# Indices 1 2 3 4 5 6 
#
# 1 91.5210 29.5538 -2.5920 -0.1864 2.3200 -2.3843
# 2 29.5538 103.6040 48.2952 -4.1116 0.6893 -4.9613
# 3 -2.5920 48.2952 107.9917 -7.4309 3.5970 -5.3260
# 4 -0.1864 -4.1116 -7.4309 35.5398 -1.9296 -1.6280
# 5 2.3200 0.6893 3.5970 -1.9296 30.6287 -3.7414
# 6 -2.3843 -4.9613 -5.3260 -1.6280 -3.7414 29.7212
#
#
#
# Elastic Compliance Matrix: (Units=1/GPa)
#
#
# Indices 1 2 3 4 5 6 
#
# 1 0.012554 -0.004697 0.002464 0.000004 -0.001070 0.000530
# 2 -0.004697 0.013998 -0.006331 0.000365 0.000925 0.000962
# 3 0.002464 -0.006331 0.012384 0.001863 -0.001221 0.001308
# 4 0.000004 0.000365 0.001863 0.028771 0.001854 0.002205
# 5 -0.001070 0.000925 -0.001221 0.001854 0.033478 0.004166
# 6 0.000530 0.000962 0.001308 0.002205 0.004166 0.034729
#
#
# Mechanical properties :
#
#
# Convention : Reuss Voigt Hill
#
# Bulk Modulus (GPa) = 45.85609 50.40341 48.12975
# Shear Modulus (GPa) = 31.18948 34.36857 32.77903
#
# Velocity S-wave (km/s) = 3.72825 3.91365 3.82207
# Velocity P-wave (km/s) = 6.24254 6.54866 6.39743
#
# Compressibility (1/GPa) = 0.02180735
#
# Stress axis : x y z
#
# Youngs Moduli (GPa) = 79.65638 71.44113 80.75082
#
# Poissons Ratio (x) = 0.33556 -0.19896
# Poissons Ratio (y) = 0.37415 0.51122
# Poissons Ratio (z) = -0.19627 0.45228
#
# Static dielectric constant tensor:
#      x y z
#    x 3.627480 0.101940 -0.199900 
#    y 0.101940 3.777940 0.022590 
#    z -0.199900 0.022590 4.010860 
# 
# 
# High freq. dielectric constant tensor:
#      x y z
#    x 1.884240 -0.000270 -0.003420 
#    y -0.000270 1.895560 -0.003810 
#    z -0.003420 -0.003810 1.897420 
# 
# From -- ./inp_files/71008.got.cif
#   From: 2010.06.25/outbox.cif.g09.slc.cpg/sg2_36_cif.got.tgz:71008.got - 2010.06.27 13:26:56.
