data_PCOD8033727
_publ_section_title
;
Structure prediction by ZEFSAII (Michael W. Deem and Ramdas Pophale) SiO2 
 PCOD8033727
Probable space group: P -1
;
_chemical_formula_sum "Si O2"
_cell_formula_units_Z 14
_cell_length_a 23.245773
_cell_length_b 5.172819
_cell_length_c 6.748142
_cell_angle_alpha 69.499536
_cell_angle_beta 119.913068
_cell_angle_gamma 92.151613
_cell_volume 649.336525
_symmetry_space_group_name_H-M "P -1"
_symmetry_group_IT_number 2
_symmetry_cell_setting 'triclinic'
loop_
_space_group_symop_operation_xyz
x,y,z
-x,-y,-z
loop_
_atom_site_type_symbol
_atom_site_label
_atom_site_fract_x
_atom_site_fract_y
_atom_site_fract_z
Si Si1 0.263948 0.040502 0.002281
Si Si2 0.954223 0.781759 0.413684
Si Si3 0.844429 0.020960 0.846898
Si Si4 0.532510 0.853285 0.400503
Si Si5 0.649750 0.501624 0.884363
Si Si6 0.154968 0.345936 0.439253
Si Si7 0.558291 0.288976 0.055332
O O1 0.220039 0.222424 0.711672
O O2 0.320252 0.214710 0.121944
O O3 0.221530 0.969464 0.135907
O O4 0.296573 0.744254 0.047049
O O5 0.910878 0.711890 0.544383
O O6 0.000000 0.500000 0.500000
O O7 0.000000 0.000000 0.500000
O O8 0.909833 0.917316 0.118315
O O9 0.847588 0.323147 0.678815
O O10 0.841652 0.798278 0.729042
O O11 0.582603 0.566315 0.614559
O O12 0.500000 0.000000 0.500000
O O13 0.579292 0.037467 0.312355
O O14 0.469571 0.813349 0.169840
O O15 0.625060 0.417383 0.082531
O O16 0.500000 0.500000 0.000000
#
# Coordination Sequence:
#
# PCOD8033727 Si02
#       7
#     2   2   2   2   2   2   2
#     4  11  27  45  63  99 129 170 228 277 318 389
#     4  11  24  41  67 107 141 171 223 271 318 387
#     4  11  24  45  69  93 136 183 218 270 331 375
#     4  11  24  44  65  93 130 168 208 271 343 409
#     4  12  25  44  69  94 130 168 220 275 334 401
#     4  11  24  45  69  94 139 180 218 274 322 380
#     4  11  25  42  66  94 129 165 212 269 344 410
#
# _framework density 21.560466000000002
#
# number of rings (size 3 to 8) (size 9 to 14) (size 15 to 20)
#    0.000    0.857    1.429    4.714    4.000   11.429 
#    0.000    0.000    0.000    0.000    0.000    0.000 
#    0.000    0.000    0.000    0.000    0.000    0.000 
#
# Total GULP energy -173635.785049 kJ/mol
# GULP energy per Si atom -12402.556075 kJ/mol
# Density = 2.151139 g / cm^3
# Si number density = 21.560466 Si / 1000 Ang^3
#
#
#
# Elastic Constant Matrix: (Units=GPa)
#
#
# Indices 1 2 3 4 5 6 
#
# 1 120.5418 33.3983 43.1665 -9.0040 -13.6557 -7.6349
# 2 33.3983 103.3258 20.3507 -0.8002 -3.9071 -4.8331
# 3 43.1665 20.3507 101.0084 -10.0067 -16.6484 -4.4878
# 4 -9.0040 -0.8002 -10.0067 42.3405 -1.3885 -7.2830
# 5 -13.6557 -3.9071 -16.6484 -1.3885 26.5118 -6.7173
# 6 -7.6349 -4.8331 -4.4878 -7.2830 -6.7173 45.4752
#
#
#
# Elastic Compliance Matrix: (Units=1/GPa)
#
#
# Indices 1 2 3 4 5 6 
#
# 1 0.010890 -0.002630 -0.003195 0.002003 0.003858 0.002124
# 2 -0.002630 0.010755 -0.001147 -0.000565 -0.000409 0.000437
# 3 -0.003195 -0.001147 0.013057 0.002988 0.007087 0.002155
# 4 0.002003 -0.000565 0.002988 0.025875 0.005583 0.005540
# 5 0.003858 -0.000409 0.007087 0.005583 0.046693 0.009095
# 6 0.002124 0.000437 0.002155 0.005540 0.009095 0.024837
#
#
# Mechanical properties :
#
#
# Convention : Reuss Voigt Hill
#
# Bulk Modulus (GPa) = 48.17606 57.63414 52.90510
# Shear Modulus (GPa) = 32.68620 38.06286 35.37453
#
# Velocity S-wave (km/s) = 3.89784 4.20623 4.05497
# Velocity P-wave (km/s) = 6.53075 7.09783 6.82019
#
# Compressibility (1/GPa) = 0.02075720
#
# Stress axis : x y z
#
# Youngs Moduli (GPa) = 91.82705 92.98259 76.58973
#
# Poissons Ratio (x) = 0.24454 0.24473
# Poissons Ratio (y) = 0.24150 0.08783
# Poissons Ratio (z) = 0.29342 0.10663
#
# Static dielectric constant tensor:
#      x y z
#    x 4.226010 0.088070 -0.251150 
#    y 0.088070 3.898080 -0.225150 
#    z -0.251150 -0.225150 4.220920 
# 
# 
# High freq. dielectric constant tensor:
#      x y z
#    x 1.862050 0.003180 -0.013970 
#    y 0.003180 1.860880 -0.007800 
#    z -0.013970 -0.007800 1.858950 
# 
# From -- ./inp_files/9424.got.cif
#   From: 2010.06.25/outbox.cif.g09.slc.cpg/sg2_5_cif.got.tgz:9424.got - 2010.06.27 13:26:56.
