data_PCOD8033083
_publ_section_title
;
Structure prediction by ZEFSAII (Michael W. Deem and Ramdas Pophale) SiO2 
 PCOD8033083
Probable space group: P -1
;
_chemical_formula_sum "Si O2"
_cell_formula_units_Z 16
_cell_length_a 17.083722
_cell_length_b 14.911101
_cell_length_c 12.009300
_cell_angle_alpha 51.370550
_cell_angle_beta 147.974215
_cell_angle_gamma 152.067220
_cell_volume 657.155591
_symmetry_space_group_name_H-M "P -1"
_symmetry_group_IT_number 2
_symmetry_cell_setting 'triclinic'
loop_
_space_group_symop_operation_xyz
x,y,z
-x,-y,-z
loop_
_atom_site_type_symbol
_atom_site_label
_atom_site_fract_x
_atom_site_fract_y
_atom_site_fract_z
Si Si1 0.419608 0.555669 0.005761
Si Si2 0.177142 0.787722 0.239922
Si Si3 0.762565 0.150745 0.984680
Si Si4 0.977963 0.022750 0.691668
Si Si5 0.125173 0.192193 0.064815
Si Si6 0.864461 0.351390 0.159205
Si Si7 0.128459 0.799388 0.517348
Si Si8 0.335126 0.115954 0.783816
O O1 0.678340 0.736879 0.088100
O O2 0.398041 0.412593 0.147968
O O3 0.454136 0.660599 0.071266
O O4 0.136597 0.413481 0.713897
O O5 0.102885 0.765579 0.039112
O O6 0.054595 0.578036 0.266500
O O7 0.500000 0.000000 0.500000
O O8 0.050827 0.804750 0.152031
O O9 0.909602 0.347698 0.086271
O O10 0.422657 0.940628 0.719201
O O11 0.834871 0.075208 0.184674
O O12 0.853567 0.051273 0.580648
O O13 0.853624 0.832574 0.760664
O O14 0.872762 0.946419 0.495987
O O15 0.000000 0.000000 0.000000
O O16 0.930374 0.281962 0.364784
O O17 0.529540 0.160727 0.908714
#
# Coordination Sequence:
#
# PCOD8033083 Si02
#       8
#     2   2   2   2   2   2   2   2
#     4  12  26  45  72 106 143 198 243 304 370 432
#     4  12  28  45  73 113 145 191 252 307 367 440
#     4  11  23  46  74 103 146 190 241 310 372 434
#     4  12  25  47  73 103 149 195 249 294 372 450
#     4  12  28  49  72 108 154 192 245 310 367 443
#     4  11  23  45  75 101 147 189 243 303 374 435
#     4  11  23  44  73 108 136 192 245 309 366 438
#     4  11  23  46  70 102 145 188 249 298 369 442
#
# _framework density 24.347355
#
# number of rings (size 3 to 8) (size 9 to 14) (size 15 to 20)
#    0.000    0.500    5.000    3.375    3.500    1.500 
#    2.250    0.000    0.000    0.000    0.000    0.000 
#    0.000    0.000    0.000    0.000    0.000    0.000 
#
# Total GULP energy -198284.231234 kJ/mol
# GULP energy per Si atom -12392.764452 kJ/mol
# Density = 2.429194 g / cm^3
# Si number density = 24.347355 Si / 1000 Ang^3
#
#
#
# Elastic Constant Matrix: (Units=GPa)
#
#
# Indices 1 2 3 4 5 6 
#
# 1 74.6536 14.9549 6.7052 -2.4846 -14.4602 -8.2630
# 2 14.9549 105.7145 26.3513 -10.6097 -3.2334 -6.8477
# 3 6.7052 26.3513 106.9503 -1.4079 -6.7161 -1.0013
# 4 -2.4846 -10.6097 -1.4079 35.1841 -1.6684 -11.4714
# 5 -14.4602 -3.2334 -6.7161 -1.6684 29.4545 -2.1084
# 6 -8.2630 -6.8477 -1.0013 -11.4714 -2.1084 51.7773
#
#
#
# Elastic Compliance Matrix: (Units=1/GPa)
#
#
# Indices 1 2 3 4 5 6 
#
# 1 0.015631 -0.001562 -0.000049 0.001995 0.007823 0.003048
# 2 -0.001562 0.010804 -0.002484 0.003696 0.000202 0.001959
# 3 -0.000049 -0.002484 0.010084 -0.000297 0.001977 -0.000127
# 4 0.001995 0.003696 -0.000297 0.032502 0.003742 0.008155
# 5 0.007823 0.000202 0.001977 0.003742 0.038742 0.003720
# 6 0.003048 0.001959 -0.000127 0.008155 0.003720 0.022015
#
#
# Mechanical properties :
#
#
# Convention : Reuss Voigt Hill
#
# Bulk Modulus (GPa) = 35.30008 42.59348 38.94678
# Shear Modulus (GPa) = 33.91853 39.23697 36.57775
#
# Velocity S-wave (km/s) = 3.73649 4.01877 3.88019
# Velocity P-wave (km/s) = 5.75718 6.25028 6.00879
#
# Compressibility (1/GPa) = 0.02832855
#
# Stress axis : x y z
#
# Youngs Moduli (GPa) = 63.97340 92.56091 99.16354
#
# Poissons Ratio (x) = 0.14459 0.00487
# Poissons Ratio (y) = 0.09993 0.24635
# Poissons Ratio (z) = 0.00314 0.22995
#
# Static dielectric constant tensor:
#      x y z
#    x 4.435920 0.052500 -0.271580 
#    y 0.052500 4.593660 -0.263020 
#    z -0.271580 -0.263020 4.456160 
# 
# 
# High freq. dielectric constant tensor:
#      x y z
#    x 1.977500 -0.008780 -0.018910 
#    y -0.008780 1.969470 -0.011810 
#    z -0.018910 -0.011810 1.957890 
# 
# From -- ./inp_files/466071.got.cif
#   From: 2010.06.25/outbox.cif.g09.slc.cpg/sg2_234_cif.got.tgz:466071.got - 2010.06.27 13:26:56.
