data_PCOD8033060
_publ_section_title
;
Structure prediction by ZEFSAII (Michael W. Deem and Ramdas Pophale) SiO2 
 PCOD8033060
Probable space group: P -1
;
_chemical_formula_sum "Si O2"
_cell_formula_units_Z 14
_cell_length_a 9.364406
_cell_length_b 14.110380
_cell_length_c 14.479882
_cell_angle_alpha 30.552859
_cell_angle_beta 125.478976
_cell_angle_gamma 105.672447
_cell_volume 658.910558
_symmetry_space_group_name_H-M "P -1"
_symmetry_group_IT_number 2
_symmetry_cell_setting 'triclinic'
loop_
_space_group_symop_operation_xyz
x,y,z
-x,-y,-z
loop_
_atom_site_type_symbol
_atom_site_label
_atom_site_fract_x
_atom_site_fract_y
_atom_site_fract_z
Si Si1 0.533648 0.083396 0.719779
Si Si2 0.344644 0.847920 0.907862
Si Si3 0.405954 0.440899 0.930888
Si Si4 0.030204 0.262391 0.732004
Si Si5 0.354931 0.086573 0.283358
Si Si6 0.942722 0.082544 0.672237
Si Si7 0.579751 0.460226 0.461075
O O1 0.482413 0.329191 0.495178
O O2 0.375536 0.053704 0.747172
O O3 0.489206 0.065165 0.612062
O O4 0.769892 0.886136 0.003444
O O5 0.413585 0.721912 0.940100
O O6 0.489923 0.685122 0.181174
O O7 0.101013 0.960184 0.748121
O O8 0.240900 0.664241 0.628740
O O9 0.500000 0.500000 0.000000
O O10 0.283882 0.338144 0.017878
O O11 0.000000 0.500000 0.500000
O O12 0.056586 0.108156 0.782649
O O13 0.831623 0.310870 0.676544
O O14 0.500000 0.000000 0.500000
O O15 0.154458 0.066407 0.225981
O O16 0.500000 0.500000 0.500000
#
# Coordination Sequence:
#
# PCOD8033060 Si02
#       7
#     2   2   2   2   2   2   2
#     4  11  24  44  67  96 141 184 223 283 344 408
#     4  11  26  45  66 105 137 176 235 277 343 414
#     4  11  23  47  73  95 139 183 225 286 343 400
#     4  12  23  44  71  99 142 186 225 281 354 408
#     4  11  23  44  72  99 133 184 230 280 347 404
#     4  12  25  45  73 101 140 179 230 288 342 411
#     4  12  25  40  66 102 142 178 228 282 338 414
#
# _framework density 21.247191999999998
#
# number of rings (size 3 to 8) (size 9 to 14) (size 15 to 20)
#    0.000    0.571    5.714    2.143    4.000    2.857 
#    0.000    0.714    0.000    0.000    0.000    0.000 
#    0.000    0.000    0.000    0.000    0.000    0.000 
#
# Total GULP energy -173494.132845 kJ/mol
# GULP energy per Si atom -12392.438060 kJ/mol
# Density = 2.119883 g / cm^3
# Si number density = 21.247192 Si / 1000 Ang^3
#
#
#
# Elastic Constant Matrix: (Units=GPa)
#
#
# Indices 1 2 3 4 5 6 
#
# 1 165.1019 51.3605 29.0398 -17.2597 -10.5056 2.2319
# 2 51.3605 117.4423 15.8844 3.3208 -7.8816 -2.4867
# 3 29.0398 15.8844 33.7781 -8.4813 -5.1981 -5.7027
# 4 -17.2597 3.3208 -8.4813 30.3602 -2.1184 -9.5099
# 5 -10.5056 -7.8816 -5.1981 -2.1184 37.8577 -8.9459
# 6 2.2319 -2.4867 -5.7027 -9.5099 -8.9459 40.3608
#
#
#
# Elastic Compliance Matrix: (Units=1/GPa)
#
#
# Indices 1 2 3 4 5 6 
#
# 1 0.008282 -0.003032 -0.004569 0.003811 0.001224 -0.000121
# 2 -0.003032 0.010418 -0.003252 -0.003869 0.000561 -0.000437
# 3 -0.004569 -0.003252 0.041161 0.013017 0.006908 0.010467
# 4 0.003811 -0.003869 0.013017 0.043908 0.007671 0.013436
# 5 0.001224 0.000561 0.006908 0.007671 0.030496 0.009510
# 6 -0.000121 -0.000437 0.010467 0.013436 0.009510 0.031509
#
#
# Mechanical properties :
#
#
# Convention : Reuss Voigt Hill
#
# Bulk Modulus (GPa) = 26.20870 56.54352 41.37611
# Shear Modulus (GPa) = 24.97515 36.38492 30.68003
#
# Velocity S-wave (km/s) = 3.43221 4.14267 3.80407
# Velocity P-wave (km/s) = 5.29799 7.03934 6.22981
#
# Compressibility (1/GPa) = 0.03815527
#
# Stress axis : x y z
#
# Youngs Moduli (GPa) = 120.74870 95.98418 24.29468
#
# Poissons Ratio (x) = 0.29102 0.11101
# Poissons Ratio (y) = 0.36610 0.07900
# Poissons Ratio (z) = 0.55175 0.31211
#
# Static dielectric constant tensor:
#      x y z
#    x 4.282670 -0.047340 -0.413480 
#    y -0.047340 4.242800 -0.016290 
#    z -0.413480 -0.016290 3.793960 
# 
# 
# High freq. dielectric constant tensor:
#      x y z
#    x 1.849670 0.002230 -0.027670 
#    y 0.002230 1.843010 -0.008640 
#    z -0.027670 -0.008640 1.823180 
# 
# From -- ./inp_files/177208.got.cif
#   From: 2010.06.25/outbox.cif.g09.slc.cpg/sg2_89_cif.got.tgz:177208.got - 2010.06.27 13:26:56.
