data_PCOD8033785
_publ_section_title
;
Structure prediction by ZEFSAII (Michael W. Deem and Ramdas Pophale) SiO2 
 PCOD8033785
Probable space group: P -1
;
_chemical_formula_sum "Si O2"
_cell_formula_units_Z 16
_cell_length_a 9.703999
_cell_length_b 6.716076
_cell_length_c 16.921797
_cell_angle_alpha 97.564795
_cell_angle_beta 89.318594
_cell_angle_gamma 133.106020
_cell_volume 793.508628
_symmetry_space_group_name_H-M "P -1"
_symmetry_group_IT_number 2
_symmetry_cell_setting 'triclinic'
loop_
_space_group_symop_operation_xyz
x,y,z
-x,-y,-z
loop_
_atom_site_type_symbol
_atom_site_label
_atom_site_fract_x
_atom_site_fract_y
_atom_site_fract_z
Si Si1 0.566364 0.667094 0.726867
Si Si2 0.184049 0.510547 0.078935
Si Si3 0.110833 0.439722 0.900204
Si Si4 0.480798 0.266730 0.446676
Si Si5 0.946201 0.887572 0.801531
Si Si6 0.267728 0.023957 0.708810
Si Si7 0.453931 0.939578 0.827988
Si Si8 0.784081 0.244139 0.467235
O O1 0.579496 0.771122 0.645246
O O2 0.755216 0.729961 0.745311
O O3 0.382347 0.344895 0.719290
O O4 0.552632 0.828145 0.800502
O O5 0.097779 0.251515 0.120612
O O6 0.074051 0.608935 0.093569
O O7 0.401591 0.767112 0.113910
O O8 0.174727 0.422535 0.984617
O O9 0.279789 0.738370 0.877914
O O10 0.062611 0.208073 0.830843
O O11 0.500000 0.500000 0.500000
O O12 0.681588 0.353531 0.457140
O O13 0.315043 0.968514 0.470762
O O14 0.071705 0.861630 0.747904
O O15 0.387903 0.973802 0.748899
O O16 0.222557 0.906162 0.615728
O O17 0.000000 0.500000 0.500000
#
# Coordination Sequence:
#
# PCOD8033785 Si02
#       8
#     2   2   2   2   2   2   2   2
#     4  12  25  43  69  96 133 172 219 268 324 385
#     4  11  24  42  65  96 137 171 215 274 327 385
#     4  11  24  42  64  99 134 171 217 273 327 385
#     4  11  25  45  68  96 136 172 210 266 326 388
#     4  12  25  42  68  99 128 175 221 267 326 385
#     4  12  25  43  67  97 135 166 218 275 315 388
#     4  12  23  44  67  95 129 176 220 264 326 387
#     4  11  27  44  68 101 131 170 217 266 325 385
#
# _framework density 20.163611
#
# number of rings (size 3 to 8) (size 9 to 14) (size 15 to 20)
#    0.000    0.500    7.500    0.750    1.750    3.500 
#    0.000    1.250    0.000    0.000    0.000    0.000 
#    0.000    0.000    0.000    0.000    0.000    0.000 
#
# Total GULP energy -198532.014295 kJ/mol
# GULP energy per Si atom -12408.250893 kJ/mol
# Density = 2.011772 g / cm^3
# Si number density = 20.163611 Si / 1000 Ang^3
#
#
#
# Elastic Constant Matrix: (Units=GPa)
#
#
# Indices 1 2 3 4 5 6 
#
# 1 79.0927 21.3748 34.7299 7.0059 11.8165 3.6012
# 2 21.3748 86.1441 30.6165 -7.7602 9.0743 10.1040
# 3 34.7299 30.6165 96.3440 -15.3001 11.2667 9.9379
# 4 7.0059 -7.7602 -15.3001 37.6850 -6.1144 2.6756
# 5 11.8165 9.0743 11.2667 -6.1144 35.5636 3.1975
# 6 3.6012 10.1040 9.9379 2.6756 3.1975 34.7907
#
#
#
# Elastic Compliance Matrix: (Units=1/GPa)
#
#
# Indices 1 2 3 4 5 6 
#
# 1 0.017255 -0.002429 -0.006216 -0.007081 -0.004510 0.001654
# 2 -0.002429 0.013864 -0.002720 0.002223 -0.001212 -0.003058
# 3 -0.006216 -0.002720 0.014971 0.006826 -0.000511 -0.003321
# 4 -0.007081 0.002223 0.006826 0.032339 0.005620 -0.004866
# 5 -0.004510 -0.001212 -0.000511 0.005620 0.031265 -0.002341
# 6 0.001654 -0.003058 -0.003321 -0.004866 -0.002341 0.030998
#
#
# Mechanical properties :
#
#
# Convention : Reuss Voigt Hill
#
# Bulk Modulus (GPa) = 42.80749 48.33590 45.57169
# Shear Modulus (GPa) = 29.20400 33.26516 31.23458
#
# Velocity S-wave (km/s) = 3.80985 4.06613 3.94008
# Velocity P-wave (km/s) = 6.37412 6.78738 6.58399
#
# Compressibility (1/GPa) = 0.02336040
#
# Stress axis : x y z
#
# Youngs Moduli (GPa) = 57.95433 72.12680 66.79581
#
# Poissons Ratio (x) = 0.17520 0.41519
# Poissons Ratio (y) = 0.14077 0.18170
# Poissons Ratio (z) = 0.36023 0.19620
#
# Static dielectric constant tensor:
#      x y z
#    x 3.737850 -0.088850 -0.066050 
#    y -0.088850 2.841050 -1.323560 
#    z -0.066050 -1.323560 1.907580 
# 
# 
# High freq. dielectric constant tensor:
#      x y z
#    x 1.794550 0.000440 0.001870 
#    y 0.000440 1.797110 -0.005590 
#    z 0.001870 -0.005590 1.797030 
# 
# From -- ./inp_files/44806.got.cif
#   From: 2010.06.25/outbox.cif.g09.slc.cpg/sg2_23_cif.got.tgz:44806.got - 2010.06.27 13:26:56.
