data_PCOD8033115
_publ_section_title
;
Structure prediction by ZEFSAII (Michael W. Deem and Ramdas Pophale) SiO2 
 PCOD8033115
Probable space group: P -1
;
_chemical_formula_sum "Si O2"
_cell_formula_units_Z 12
_cell_length_a 15.213450
_cell_length_b 9.270152
_cell_length_c 8.860661
_cell_angle_alpha 95.391254
_cell_angle_beta 63.237675
_cell_angle_gamma 41.932486
_cell_volume 518.296733
_symmetry_space_group_name_H-M "P -1"
_symmetry_group_IT_number 2
_symmetry_cell_setting 'triclinic'
loop_
_space_group_symop_operation_xyz
x,y,z
-x,-y,-z
loop_
_atom_site_type_symbol
_atom_site_label
_atom_site_fract_x
_atom_site_fract_y
_atom_site_fract_z
Si Si1 0.445228 0.751575 0.705959
Si Si2 0.598385 0.903532 0.074952
Si Si3 0.936866 0.643036 0.404274
Si Si4 0.544051 0.370841 0.790932
Si Si5 0.975569 0.385482 0.102603
Si Si6 0.360221 0.379957 0.757963
O O1 0.581700 0.441887 0.637565
O O2 0.502318 0.729245 0.492288
O O3 0.479412 0.835010 0.805723
O O4 0.202160 0.019135 0.920537
O O5 0.515090 0.908406 0.274914
O O6 0.853495 0.555386 0.847537
O O7 0.500000 0.000000 0.000000
O O8 0.000000 0.500000 0.500000
O O9 0.868793 0.587248 0.357469
O O10 0.753184 0.000382 0.594919
O O11 0.342342 0.533406 0.911519
O O12 0.500000 0.500000 0.000000
O O13 0.850492 0.414995 0.127379
O O14 0.000000 0.500000 0.000000
#
# Coordination Sequence:
#
# PCOD8033115 Si02
#       6
#     2   2   2   2   2   2
#     4  11  25  46  71 105 150 182 236 312 357 420
#     4  11  24  44  73 107 135 190 249 291 353 434
#     4  11  24  44  75 100 144 187 237 299 357 426
#     4  12  27  49  69 105 153 188 237 305 368 427
#     4  11  23  44  74 109 137 184 255 292 349 431
#     4  12  25  44  78 103 142 194 243 291 365 428
#
# _framework density 23.152761000000002
#
# number of rings (size 3 to 8) (size 9 to 14) (size 15 to 20)
#    0.000    0.667    3.333    6.000    4.667    0.667 
#    3.000    1.667    0.000    0.000    0.000    0.000 
#    0.000    0.000    0.000    0.000    0.000    0.000 
#
# Total GULP energy -148656.721149 kJ/mol
# GULP energy per Si atom -12388.060096 kJ/mol
# Density = 2.310006 g / cm^3
# Si number density = 23.152761 Si / 1000 Ang^3
#
#
#
# Elastic Constant Matrix: (Units=GPa)
#
#
# Indices 1 2 3 4 5 6 
#
# 1 219.2402 61.9369 58.7630 -5.4848 25.5526 -16.1710
# 2 61.9369 185.1124 57.3477 -7.2242 7.0874 4.8476
# 3 58.7630 57.3477 96.6881 2.2778 16.7417 -0.9732
# 4 -5.4848 -7.2242 2.2778 33.4491 2.0318 7.1964
# 5 25.5526 7.0874 16.7417 2.0318 25.6122 -11.7521
# 6 -16.1710 4.8476 -0.9732 7.1964 -11.7521 38.4077
#
#
#
# Elastic Compliance Matrix: (Units=1/GPa)
#
#
# Indices 1 2 3 4 5 6 
#
# 1 0.006071 -0.001159 -0.002383 0.000829 -0.003610 0.001382
# 2 -0.001159 0.007003 -0.003633 0.001870 0.000712 -0.001596
# 3 -0.002383 -0.003633 0.015252 -0.001282 -0.007501 -0.002213
# 4 0.000829 0.001870 -0.001282 0.032689 -0.006833 -0.008135
# 5 -0.003610 0.000712 -0.007501 -0.006833 0.055439 0.016444
# 6 0.001382 -0.001596 -0.002213 -0.008135 0.016444 0.033319
#
#
# Mechanical properties :
#
#
# Convention : Reuss Voigt Hill
#
# Bulk Modulus (GPa) = 71.54500 95.23732 83.39116
# Shear Modulus (GPa) = 29.62443 41.02668 35.32556
#
# Velocity S-wave (km/s) = 3.58092 4.21408 3.91034
# Velocity P-wave (km/s) = 6.93294 8.05615 7.51556
#
# Compressibility (1/GPa) = 0.01397722
#
# Stress axis : x y z
#
# Youngs Moduli (GPa) = 164.72814 142.80210 65.56478
#
# Poissons Ratio (x) = 0.16544 0.15623
# Poissons Ratio (y) = 0.19085 0.23818
# Poissons Ratio (z) = 0.39252 0.51876
#
# Static dielectric constant tensor:
#      x y z
#    x 4.882130 -0.163980 -0.073490 
#    y -0.163980 4.395160 -0.303300 
#    z -0.073490 -0.303300 4.456340 
# 
# 
# High freq. dielectric constant tensor:
#      x y z
#    x 1.938000 -0.012190 0.009550 
#    y -0.012190 1.927110 -0.017700 
#    z 0.009550 -0.017700 1.898880 
# 
# From -- ./inp_files/298756.got.cif
#   From: 2010.06.25/outbox.cif.g09.slc.cpg/sg2_150_cif.got.tgz:298756.got - 2010.06.27 13:26:56.
