data_PCOD8033446
_publ_section_title
;
Structure prediction by ZEFSAII (Michael W. Deem and Ramdas Pophale) SiO2 
 PCOD8033446
Probable space group: P -1
;
_chemical_formula_sum "Si O2"
_cell_formula_units_Z 12
_cell_length_a 14.514700
_cell_length_b 8.614058
_cell_length_c 11.765457
_cell_angle_alpha 47.030224
_cell_angle_beta 28.531210
_cell_angle_gamma 52.425667
_cell_volume 513.866747
_symmetry_space_group_name_H-M "P -1"
_symmetry_group_IT_number 2
_symmetry_cell_setting 'triclinic'
loop_
_space_group_symop_operation_xyz
x,y,z
-x,-y,-z
loop_
_atom_site_type_symbol
_atom_site_label
_atom_site_fract_x
_atom_site_fract_y
_atom_site_fract_z
Si Si1 0.524193 0.278790 0.144534
Si Si2 0.785090 0.819486 0.307924
Si Si3 0.679172 0.027826 0.651024
Si Si4 0.185016 0.718908 0.997688
Si Si5 0.059447 0.255796 0.066619
Si Si6 0.683860 0.731453 0.001741
O O1 0.409866 0.283514 0.386564
O O2 0.746158 0.250798 0.960460
O O3 0.452454 0.092509 0.236606
O O4 0.500000 0.500000 0.000000
O O5 0.775063 0.070310 0.224996
O O6 0.808991 0.800037 0.156741
O O7 0.954334 0.694716 0.257525
O O8 0.867213 0.118961 0.343025
O O9 0.748540 0.867309 0.755266
O O10 0.542929 0.219164 0.752499
O O11 0.291039 0.517755 0.924684
O O12 0.182615 0.202428 0.071518
O O13 0.000000 0.500000 0.000000
#
# Coordination Sequence:
#
# PCOD8033446 Si02
#       6
#     2   2   2   2   2   2
#     4  12  26  47  75 102 139 186 232 287 351 411
#     4  11  26  46  69 104 143 179 237 285 344 415
#     4  11  26  48  70 103 144 184 233 285 344 412
#     4  11  23  46  72 105 136 186 228 286 347 407
#     4  12  26  46  73 104 140 188 229 287 351 409
#     4  11  25  46  75 103 142 185 233 283 347 413
#
# _framework density 23.352359
#
# number of rings (size 3 to 8) (size 9 to 14) (size 15 to 20)
#    0.000    0.667    3.333    4.000    2.333    2.667 
#    6.000    0.000    0.000    0.000    0.000    0.000 
#    0.000    0.000    0.000    0.000    0.000    0.000 
#
# Total GULP energy -148805.747653 kJ/mol
# GULP energy per Si atom -12400.478971 kJ/mol
# Density = 2.329921 g / cm^3
# Si number density = 23.352359 Si / 1000 Ang^3
#
#
#
# Elastic Constant Matrix: (Units=GPa)
#
#
# Indices 1 2 3 4 5 6 
#
# 1 182.7932 35.4036 18.0074 -4.0901 0.0059 -6.1975
# 2 35.4036 147.6983 35.8157 -10.7722 10.1757 0.7726
# 3 18.0074 35.8157 74.2671 -5.6220 19.5371 11.6037
# 4 -4.0901 -10.7722 -5.6220 20.5824 4.9710 -0.6865
# 5 0.0059 10.1757 19.5371 4.9710 31.8208 0.4661
# 6 -6.1975 0.7726 11.6037 -0.6865 0.4661 38.8173
#
#
#
# Elastic Compliance Matrix: (Units=1/GPa)
#
#
# Indices 1 2 3 4 5 6 
#
# 1 0.005879 -0.001166 -0.001405 -0.000076 0.001226 0.001366
# 2 -0.001166 0.008153 -0.003172 0.003485 -0.001214 0.000676
# 3 -0.001405 -0.003172 0.019902 0.006222 -0.012091 -0.005855
# 4 -0.000076 0.003485 0.006222 0.055344 -0.013568 -0.000800
# 5 0.001226 -0.001214 -0.012091 -0.013568 0.041312 0.003098
# 6 0.001366 0.000676 -0.005855 -0.000800 0.003098 0.027665
#
#
# Mechanical properties :
#
#
# Convention : Reuss Voigt Hill
#
# Bulk Modulus (GPa) = 44.54524 64.80135 54.67329
# Shear Modulus (GPa) = 28.21296 39.27956 33.74626
#
# Velocity S-wave (km/s) = 3.47960 4.10572 3.80556
# Velocity P-wave (km/s) = 5.93803 7.09123 6.54009
#
# Compressibility (1/GPa) = 0.02244909
#
# Stress axis : x y z
#
# Youngs Moduli (GPa) = 170.08416 122.64814 50.24695
#
# Poissons Ratio (x) = 0.14298 0.07061
# Poissons Ratio (y) = 0.19828 0.15937
# Poissons Ratio (z) = 0.23900 0.38902
#
# Static dielectric constant tensor:
#      x y z
#    x 4.630200 -0.103900 -0.076470 
#    y -0.103900 4.370010 0.018290 
#    z -0.076470 0.018290 4.021930 
# 
# 
# High freq. dielectric constant tensor:
#      x y z
#    x 1.948080 -0.009130 -0.003890 
#    y -0.009130 1.935760 -0.005860 
#    z -0.003890 -0.005860 1.905720 
# 
# From -- ./inp_files/271677.got.cif
#   From: 2010.06.25/outbox.cif.g09.slc.cpg/sg2_136_cif.got.tgz:271677.got - 2010.06.27 13:26:56.
