data_PCOD8033051
_publ_section_title
;
Structure prediction by ZEFSAII (Michael W. Deem and Ramdas Pophale) SiO2 
 PCOD8033051
Probable space group: P -1
;
_chemical_formula_sum "Si O2"
_cell_formula_units_Z 16
_cell_length_a 8.995946
_cell_length_b 15.195772
_cell_length_c 8.968418
_cell_angle_alpha 110.900343
_cell_angle_beta 72.702153
_cell_angle_gamma 141.654568
_cell_volume 710.231228
_symmetry_space_group_name_H-M "P -1"
_symmetry_group_IT_number 2
_symmetry_cell_setting 'triclinic'
loop_
_space_group_symop_operation_xyz
x,y,z
-x,-y,-z
loop_
_atom_site_type_symbol
_atom_site_label
_atom_site_fract_x
_atom_site_fract_y
_atom_site_fract_z
Si Si1 0.156677 0.664421 0.551510
Si Si2 0.101147 0.842149 0.248005
Si Si3 0.721624 0.668803 0.014162
Si Si4 0.278750 0.124354 0.945895
Si Si5 0.682515 0.711861 0.486799
Si Si6 0.558874 0.121004 0.651392
Si Si7 0.734342 0.598189 0.660798
Si Si8 0.551481 0.837132 0.758094
O O1 0.353120 0.758005 0.416854
O O2 0.280537 0.733460 0.719610
O O3 0.000000 0.500000 0.500000
O O4 0.975922 0.664854 0.564960
O O5 0.233250 0.810725 0.252509
O O6 0.949520 0.824243 0.411504
O O7 0.292243 0.998397 0.210182
O O8 0.919981 0.726052 0.105405
O O9 0.822633 0.693276 0.836742
O O10 0.500000 0.500000 0.000000
O O11 0.658983 0.751497 0.088564
O O12 0.338554 0.064926 0.778887
O O13 0.439881 0.189959 0.087713
O O14 0.000000 0.000000 0.000000
O O15 0.634789 0.630964 0.600587
O O16 0.475727 0.577614 0.353425
O O17 0.649128 0.804477 0.594072
O O18 0.500000 0.000000 0.500000
#
# Coordination Sequence:
#
# PCOD8033051 Si02
#       8
#     2   2   2   2   2   2   2   2
#     4  12  27  47  75 110 153 200 249 308 373 448
#     4  12  26  45  74 108 147 194 254 303 378 442
#     4  12  27  47  75 110 153 200 249 308 373 448
#     4  12  30  51  74 112 154 196 252 315 378 447
#     4  11  23  44  72 109 145 199 251 305 368 441
#     4  12  30  51  74 112 154 196 252 315 378 447
#     4  11  24  44  73 102 153 199 249 306 376 435
#     4  12  26  45  74 108 147 194 254 303 378 442
#
# _framework density 22.527873
#
# number of rings (size 3 to 8) (size 9 to 14) (size 15 to 20)
#    0.000    0.250    7.500    0.375    8.750    1.500 
#    0.000    1.250    0.000    0.000    0.000    0.000 
#    0.000    0.000    0.000    0.000    0.000    0.000 
#
# Total GULP energy -198364.475003 kJ/mol
# GULP energy per Si atom -12397.779688 kJ/mol
# Density = 2.247660 g / cm^3
# Si number density = 22.527873 Si / 1000 Ang^3
#
#
#
# Elastic Constant Matrix: (Units=GPa)
#
#
# Indices 1 2 3 4 5 6 
#
# 1 119.3447 39.0517 45.7810 6.0271 11.7356 7.9436
# 2 39.0517 126.8749 32.9856 8.5834 7.6498 1.4255
# 3 45.7810 32.9856 116.5644 14.8002 -2.1360 0.8174
# 4 6.0271 8.5834 14.8002 33.2239 7.7650 3.9236
# 5 11.7356 7.6498 -2.1360 7.7650 53.7204 0.2740
# 6 7.9436 1.4255 0.8174 3.9236 0.2740 35.5192
#
#
#
# Elastic Compliance Matrix: (Units=1/GPa)
#
#
# Indices 1 2 3 4 5 6 
#
# 1 0.010921 -0.002277 -0.003816 0.001140 -0.002366 -0.002371
# 2 -0.002277 0.009101 -0.001554 -0.001119 -0.000700 0.000309
# 3 -0.003816 -0.001554 0.011120 -0.004495 0.002141 0.001140
# 4 0.001140 -0.001119 -0.004495 0.033834 -0.005140 -0.003804
# 5 -0.002366 -0.000700 0.002141 -0.005140 0.020055 0.000921
# 6 -0.002371 0.000309 0.001140 -0.003804 0.000921 0.029059
#
#
# Mechanical properties :
#
#
# Convention : Reuss Voigt Hill
#
# Bulk Modulus (GPa) = 63.10501 66.49119 64.79810
# Shear Modulus (GPa) = 37.12887 40.82374 38.97631
#
# Velocity S-wave (km/s) = 4.06412 4.26155 4.16400
# Velocity P-wave (km/s) = 7.07782 7.33441 7.20726
#
# Compressibility (1/GPa) = 0.01584660
#
# Stress axis : x y z
#
# Youngs Moduli (GPa) = 91.56618 109.87644 89.93180
#
# Poissons Ratio (x) = 0.25020 0.34321
# Poissons Ratio (y) = 0.20851 0.13976
# Poissons Ratio (z) = 0.34945 0.17076
#
# Static dielectric constant tensor:
#      x y z
#    x 4.313650 -0.079420 0.038820 
#    y -0.079420 3.957770 0.068510 
#    z 0.038820 0.068510 4.279930 
# 
# 
# High freq. dielectric constant tensor:
#      x y z
#    x 1.898570 -0.001760 0.014370 
#    y -0.001760 1.888200 0.003180 
#    z 0.014370 0.003180 1.888660 
# 
# From -- ./inp_files/208237.got.cif
#   From: 2010.06.25/outbox.cif.g09.slc.cpg/sg2_105_cif.got.tgz:208237.got - 2010.06.27 13:26:56.
