data_PCOD8033110
_publ_section_title
;
Structure prediction by ZEFSAII (Michael W. Deem and Ramdas Pophale) SiO2 
 PCOD8033110
Probable space group: P -1
;
_chemical_formula_sum "Si O2"
_cell_formula_units_Z 16
_cell_length_a 18.462416
_cell_length_b 11.639752
_cell_length_c 9.104306
_cell_angle_alpha 47.473446
_cell_angle_beta 59.103833
_cell_angle_gamma 29.078322
_cell_volume 684.261211
_symmetry_space_group_name_H-M "P -1"
_symmetry_group_IT_number 2
_symmetry_cell_setting 'triclinic'
loop_
_space_group_symop_operation_xyz
x,y,z
-x,-y,-z
loop_
_atom_site_type_symbol
_atom_site_label
_atom_site_fract_x
_atom_site_fract_y
_atom_site_fract_z
Si Si1 0.642220 0.101983 0.095181
Si Si2 0.016143 0.735504 0.759645
Si Si3 0.870808 0.314574 0.815252
Si Si4 0.265749 0.607727 0.564152
Si Si5 0.836332 0.619936 0.815022
Si Si6 0.367835 0.527924 0.227081
Si Si7 0.943691 0.478090 0.391267
Si Si8 0.457031 0.886726 0.120446
O O1 0.528492 0.276918 0.198640
O O2 0.781138 0.807653 0.287309
O O3 0.682845 0.215961 0.909114
O O4 0.583571 0.096586 0.018526
O O5 0.170774 0.598733 0.702040
O O6 0.019756 0.598357 0.752585
O O7 0.028323 0.638753 0.989994
O O8 0.856600 0.068428 0.614882
O O9 0.795658 0.531306 0.836908
O O10 0.744058 0.392213 0.829007
O O11 0.943873 0.311999 0.615917
O O12 0.000000 0.000000 0.000000
O O13 0.369383 0.432376 0.461866
O O14 0.391541 0.445037 0.702177
O O15 0.916911 0.621380 0.617894
O O16 0.689590 0.919638 0.789830
O O17 0.500000 0.000000 0.000000
#
# Coordination Sequence:
#
# PCOD8033110 Si02
#       8
#     2   2   2   2   2   2   2   2
#     4  11  26  48  72 105 144 187 242 295 354 429
#     4  11  23  44  74 104 144 188 236 291 360 432
#     4  12  27  47  71 103 145 188 242 292 354 431
#     4  11  24  43  71 106 141 189 238 285 363 424
#     4  12  26  45  75 108 144 187 237 305 352 421
#     4  11  26  48  72  99 146 195 232 292 361 427
#     4  12  25  46  73 106 142 191 239 291 364 427
#     4  12  25  46  71 111 142 181 240 302 355 417
#
# _framework density 23.382883
#
# number of rings (size 3 to 8) (size 9 to 14) (size 15 to 20)
#    0.000    0.500    3.750    3.750    5.250    1.000 
#    2.250    0.000    0.000    0.000    0.000    0.000 
#    0.000    0.000    0.000    0.000    0.000    0.000 
#
# Total GULP energy -198354.429072 kJ/mol
# GULP energy per Si atom -12397.151817 kJ/mol
# Density = 2.332966 g / cm^3
# Si number density = 23.382883 Si / 1000 Ang^3
#
#
#
# Elastic Constant Matrix: (Units=GPa)
#
#
# Indices 1 2 3 4 5 6 
#
# 1 112.8658 30.1340 30.4910 -15.4895 -11.6028 4.1365
# 2 30.1340 93.3740 49.7239 -6.8202 -7.0655 -11.0296
# 3 30.4910 49.7239 92.3369 -2.3040 -3.3950 -17.3765
# 4 -15.4895 -6.8202 -2.3040 34.8057 -5.4929 9.4778
# 5 -11.6028 -7.0655 -3.3950 -5.4929 33.5199 5.1097
# 6 4.1365 -11.0296 -17.3765 9.4778 5.1097 39.0068
#
#
#
# Elastic Compliance Matrix: (Units=1/GPa)
#
#
# Indices 1 2 3 4 5 6 
#
# 1 0.012138 -0.001595 -0.003887 0.007343 0.005587 -0.005986
# 2 -0.001595 0.015709 -0.007729 0.002118 0.002269 0.000356
# 3 -0.003887 -0.007729 0.017465 -0.004633 -0.003114 0.007540
# 4 0.007343 0.002118 -0.004633 0.037222 0.010550 -0.012670
# 5 0.005587 0.002269 -0.003114 0.010550 0.034951 -0.008480
# 6 -0.005986 0.000356 0.007540 -0.012670 -0.008480 0.033920
#
#
# Mechanical properties :
#
#
# Convention : Reuss Voigt Hill
#
# Bulk Modulus (GPa) = 52.94241 57.69718 55.31980
# Shear Modulus (GPa) = 27.15566 34.01500 30.58533
#
# Velocity S-wave (km/s) = 3.41155 3.81819 3.62058
# Velocity P-wave (km/s) = 6.18134 6.64580 6.41777
#
# Compressibility (1/GPa) = 0.01888845
#
# Stress axis : x y z
#
# Youngs Moduli (GPa) = 82.38884 63.65817 57.25897
#
# Poissons Ratio (x) = 0.10155 0.22255
# Poissons Ratio (y) = 0.13143 0.44257
# Poissons Ratio (z) = 0.32023 0.49203
#
# Static dielectric constant tensor:
#      x y z
#    x 4.282180 0.062680 0.062750 
#    y 0.062680 4.209980 0.031850 
#    z 0.062750 0.031850 3.983180 
# 
# 
# High freq. dielectric constant tensor:
#      x y z
#    x 1.935070 -0.004900 -0.002560 
#    y -0.004900 1.936440 0.009040 
#    z -0.002560 0.009040 1.930250 
# 
# From -- ./inp_files/332870.got.cif
#   From: 2010.06.25/outbox.cif.g09.slc.cpg/sg2_167_cif.got.tgz:332870.got - 2010.06.27 13:26:56.
