data_PCOD8033423
_publ_section_title
;
Structure prediction by ZEFSAII (Michael W. Deem and Ramdas Pophale) SiO2 
 PCOD8033423
Probable space group: P -1
;
_chemical_formula_sum "Si O2"
_cell_formula_units_Z 14
_cell_length_a 14.930810
_cell_length_b 14.118118
_cell_length_c 8.695447
_cell_angle_alpha 120.818189
_cell_angle_beta 98.780684
_cell_angle_gamma 30.837656
_cell_volume 611.492793
_symmetry_space_group_name_H-M "P -1"
_symmetry_group_IT_number 2
_symmetry_cell_setting 'triclinic'
loop_
_space_group_symop_operation_xyz
x,y,z
-x,-y,-z
loop_
_atom_site_type_symbol
_atom_site_label
_atom_site_fract_x
_atom_site_fract_y
_atom_site_fract_z
Si Si1 0.225179 0.925292 0.623603
Si Si2 0.432998 0.191692 0.073456
Si Si3 0.350303 0.946808 0.269602
Si Si4 0.314452 0.515786 0.526331
Si Si5 0.218633 0.627564 0.937289
Si Si6 0.951852 0.663014 0.218325
Si Si7 0.838996 0.075631 0.732049
O O1 0.202639 0.080510 0.707656
O O2 0.478360 0.627486 0.517670
O O3 0.205391 0.877119 0.422373
O O4 0.036889 0.099421 0.839934
O O5 0.420157 0.287198 0.292756
O O6 0.188880 0.459681 0.147551
O O7 0.625642 0.020421 0.861323
O O8 0.500000 0.000000 0.000000
O O9 0.603360 0.652297 0.164928
O O10 0.236029 0.953522 0.227847
O O11 0.187900 0.205207 0.550377
O O12 0.205663 0.610733 0.742219
O O13 0.113700 0.788555 0.591735
O O14 0.297762 0.666746 0.017789
O O15 0.000000 0.500000 0.000000
#
# Coordination Sequence:
#
# PCOD8033423 Si02
#       7
#     2   2   2   2   2   2   2
#     4  11  24  44  70 101 142 187 232 285 342 413
#     4  12  27  46  70 103 141 180 230 292 352 411
#     4  11  24  47  73  99 144 184 224 291 346 413
#     4  12  25  45  67 107 142 179 244 283 334 420
#     4  12  24  44  74 101 141 193 229 284 347 406
#     4  11  23  46  71 100 135 178 232 285 348 412
#     4  11  24  48  67 105 147 182 235 286 343 407
#
# _framework density 22.894791999999999
#
# number of rings (size 3 to 8) (size 9 to 14) (size 15 to 20)
#    0.000    0.571    7.143    2.143    2.000    2.857 
#    0.000    0.000    0.000    0.000    0.000    0.000 
#    0.000    0.000    0.000    0.000    0.000    0.000 
#
# Total GULP energy -173634.589067 kJ/mol
# GULP energy per Si atom -12402.470648 kJ/mol
# Density = 2.284268 g / cm^3
# Si number density = 22.894792 Si / 1000 Ang^3
#
#
#
# Elastic Constant Matrix: (Units=GPa)
#
#
# Indices 1 2 3 4 5 6 
#
# 1 88.5906 30.7635 70.4050 -21.2642 -28.2233 0.1465
# 2 30.7635 93.6001 31.2612 -9.2764 0.7413 -29.6817
# 3 70.4050 31.2612 177.7344 -37.6702 -6.7255 8.8509
# 4 -21.2642 -9.2764 -37.6702 37.9591 -6.5561 -1.1098
# 5 -28.2233 0.7413 -6.7255 -6.5561 43.7586 6.8227
# 6 0.1465 -29.6817 8.8509 -1.1098 6.8227 38.0909
#
#
#
# Elastic Compliance Matrix: (Units=1/GPa)
#
#
# Indices 1 2 3 4 5 6 
#
# 1 0.028801 -0.009511 -0.006122 0.011072 0.020940 -0.009528
# 2 -0.009511 0.019613 -0.001637 -0.003367 -0.009933 0.017381
# 3 -0.006122 -0.001637 0.009597 0.005404 -0.001150 -0.003119
# 4 0.011072 -0.003367 0.005404 0.039483 0.014789 -0.005421
# 5 0.020940 -0.009933 -0.001150 0.014789 0.040816 -0.014433
# 6 -0.009528 0.017381 -0.003119 -0.005421 -0.014433 0.042986
#
#
# Mechanical properties :
#
#
# Convention : Reuss Voigt Hill
#
# Bulk Modulus (GPa) = 42.60822 69.42050 56.01436
# Shear Modulus (GPa) = 22.35539 39.12808 30.74174
#
# Velocity S-wave (km/s) = 3.12819 4.13854 3.66832
# Velocity P-wave (km/s) = 5.63013 7.29548 6.51622
#
# Compressibility (1/GPa) = 0.02346965
#
# Stress axis : x y z
#
# Youngs Moduli (GPa) = 34.72150 50.98558 104.20254
#
# Poissons Ratio (x) = 0.48492 0.63795
# Poissons Ratio (y) = 0.33024 0.17061
# Poissons Ratio (z) = 0.21257 0.08348
#
# Static dielectric constant tensor:
#      x y z
#    x 4.007140 -0.202940 0.012420 
#    y -0.202940 4.193510 0.124000 
#    z 0.012420 0.124000 4.461000 
# 
# 
# High freq. dielectric constant tensor:
#      x y z
#    x 1.890920 -0.013580 -0.006290 
#    y -0.013580 1.907320 0.003420 
#    z -0.006290 0.003420 1.920270 
# 
# From -- ./inp_files/315941.got.cif
#   From: 2010.06.25/outbox.cif.g09.slc.cpg/sg2_158_cif.got.tgz:315941.got - 2010.06.27 13:26:56.
