data_PCOD8033884
_publ_section_title
;
Structure prediction by ZEFSAII (Michael W. Deem and Ramdas Pophale) SiO2 
 PCOD8033884
Probable space group: P -1
;
_chemical_formula_sum "Si O2"
_cell_formula_units_Z 16
_cell_length_a 14.805235
_cell_length_b 15.623965
_cell_length_c 12.810335
_cell_angle_alpha 144.227112
_cell_angle_beta 54.555797
_cell_angle_gamma 151.666639
_cell_volume 719.488266
_symmetry_space_group_name_H-M "P -1"
_symmetry_group_IT_number 2
_symmetry_cell_setting 'triclinic'
loop_
_space_group_symop_operation_xyz
x,y,z
-x,-y,-z
loop_
_atom_site_type_symbol
_atom_site_label
_atom_site_fract_x
_atom_site_fract_y
_atom_site_fract_z
Si Si1 0.168625 0.101191 0.055761
Si Si2 0.650411 0.572302 0.546183
Si Si3 0.679428 0.962650 0.607536
Si Si4 0.902244 0.741093 0.358471
Si Si5 0.688992 0.320830 0.727659
Si Si6 0.413892 0.808167 0.100519
Si Si7 0.534196 0.413889 0.806129
Si Si8 0.897476 0.298399 0.274566
O O1 0.183032 0.142091 0.211546
O O2 0.396432 0.416931 0.173739
O O3 0.149453 0.911703 0.852591
O O4 0.000000 0.000000 0.000000
O O5 0.500000 0.500000 0.500000
O O6 0.820865 0.673088 0.463424
O O7 0.503101 0.302767 0.451903
O O8 0.686005 0.144674 0.797434
O O9 0.914490 0.172958 0.690346
O O10 0.655315 0.894356 0.431201
O O11 0.689595 0.435006 0.141680
O O12 0.000000 0.000000 0.500000
O O13 0.632416 0.305337 0.865765
O O14 0.700848 0.482672 0.809625
O O15 0.924796 0.510605 0.748684
O O16 0.500000 0.000000 0.500000
O O17 0.672265 0.113492 0.203500
O O18 0.500000 0.500000 0.000000
O O19 0.000000 0.500000 0.500000
#
# Coordination Sequence:
#
# PCOD8033884 Si02
#       8
#     2   2   2   2   2   2   2   2
#     4  11  25  43  71 108 145 187 243 302 363 432
#     4  11  25  48  73 106 148 188 249 303 367 435
#     4  11  26  49  72 103 148 190 247 301 355 444
#     4  12  28  47  78 104 138 198 248 300 362 433
#     4  12  24  46  71 109 150 187 232 301 366 433
#     4  12  28  48  72 108 147 191 249 295 368 439
#     4  11  24  42  71 107 147 185 240 296 361 435
#     4  12  25  43  73 104 150 192 232 299 372 435
#
# _framework density 22.238028
#
# number of rings (size 3 to 8) (size 9 to 14) (size 15 to 20)
#    0.000    0.500    5.000    1.875    8.750    2.500 
#    0.000    0.000    0.000    0.000    0.000    0.000 
#    0.000    0.000    0.000    0.000    0.000    0.000 
#
# Total GULP energy -198288.278706 kJ/mol
# GULP energy per Si atom -12393.017419 kJ/mol
# Density = 2.218741 g / cm^3
# Si number density = 22.238028 Si / 1000 Ang^3
#
#
#
# Elastic Constant Matrix: (Units=GPa)
#
#
# Indices 1 2 3 4 5 6 
#
# 1 112.2380 31.1126 50.9903 -0.4020 -6.0322 10.2490
# 2 31.1126 130.8654 42.1365 -7.9144 3.1392 13.2129
# 3 50.9903 42.1365 166.1165 -12.7237 1.1609 -0.4846
# 4 -0.4020 -7.9144 -12.7237 35.0543 -1.2475 6.6133
# 5 -6.0322 3.1392 1.1609 -1.2475 42.3935 2.1057
# 6 10.2490 13.2129 -0.4846 6.6133 2.1057 43.8210
#
#
#
# Elastic Compliance Matrix: (Units=1/GPa)
#
#
# Indices 1 2 3 4 5 6 
#
# 1 0.011019 -0.001510 -0.003085 -0.000870 0.001843 -0.002113
# 2 -0.001510 0.008927 -0.001661 0.001864 -0.000646 -0.002607
# 3 -0.003085 -0.001661 0.007557 0.002124 -0.000511 0.001010
# 4 -0.000870 0.001864 0.002124 0.030683 0.000832 -0.005006
# 5 0.001843 -0.000646 -0.000511 0.000832 0.024013 -0.001521
# 6 -0.002113 -0.002607 0.001010 -0.005006 -0.001521 0.024940
#
#
# Mechanical properties :
#
#
# Convention : Reuss Voigt Hill
#
# Bulk Modulus (GPa) = 66.70734 73.07763 69.89249
# Shear Modulus (GPa) = 40.11322 43.25246 41.68284
#
# Velocity S-wave (km/s) = 4.25174 4.41497 4.33412
# Velocity P-wave (km/s) = 7.35970 7.67608 7.51955
#
# Compressibility (1/GPa) = 0.01499085
#
# Stress axis : x y z
#
# Youngs Moduli (GPa) = 90.75577 112.02323 132.32109
#
# Poissons Ratio (x) = 0.16913 0.40820
# Poissons Ratio (y) = 0.13702 0.21981
# Poissons Ratio (z) = 0.27997 0.18609
#
# Static dielectric constant tensor:
#      x y z
#    x 3.860300 -0.051410 -0.320060 
#    y -0.051410 4.693660 0.269200 
#    z -0.320060 0.269200 4.138480 
# 
# 
# High freq. dielectric constant tensor:
#      x y z
#    x 1.873810 0.002050 -0.005600 
#    y 0.002050 1.879830 -0.000220 
#    z -0.005600 -0.000220 1.894000 
# 
# From -- ./inp_files/455931.got.cif
#   From: 2010.06.25/outbox.cif.g09.slc.cpg/sg2_228_cif.got.tgz:455931.got - 2010.06.27 13:26:56.
