data_PCOD8033459
_publ_section_title
;
Structure prediction by ZEFSAII (Michael W. Deem and Ramdas Pophale) SiO2 
 PCOD8033459
Probable space group: P -1
;
_chemical_formula_sum "Si O2"
_cell_formula_units_Z 16
_cell_length_a 11.623103
_cell_length_b 6.287088
_cell_length_c 11.968024
_cell_angle_alpha 98.703551
_cell_angle_beta 98.911878
_cell_angle_gamma 56.738057
_cell_volume 720.127100
_symmetry_space_group_name_H-M "P -1"
_symmetry_group_IT_number 2
_symmetry_cell_setting 'triclinic'
loop_
_space_group_symop_operation_xyz
x,y,z
-x,-y,-z
loop_
_atom_site_type_symbol
_atom_site_label
_atom_site_fract_x
_atom_site_fract_y
_atom_site_fract_z
Si Si1 0.128423 0.483409 0.457383
Si Si2 0.275132 0.216031 0.060841
Si Si3 0.751464 0.248621 0.607196
Si Si4 0.527454 0.716944 0.748314
Si Si5 0.624353 0.967052 0.445436
Si Si6 0.110003 0.724205 0.940573
Si Si7 0.380753 0.709552 0.920940
Si Si8 0.119430 0.179066 0.233559
O O1 0.135077 0.731369 0.448823
O O2 0.145354 0.358672 0.329027
O O3 0.000000 0.500000 0.500000
O O4 0.253561 0.325151 0.548973
O O5 0.391804 0.236377 0.140683
O O6 0.209122 0.114968 0.130411
O O7 0.156661 0.491153 0.015403
O O8 0.347101 0.995260 0.961124
O O9 0.627175 0.518886 0.654140
O O10 0.682546 0.135832 0.512235
O O11 0.832560 0.080142 0.713604
O O12 0.421426 0.973923 0.685401
O O13 0.435783 0.633610 0.795487
O O14 0.500000 0.000000 0.500000
O O15 0.243872 0.708163 0.913472
O O16 0.039171 0.687077 0.818053
O O17 0.000000 0.000000 0.000000
O O18 0.500000 0.500000 0.000000
#
# Coordination Sequence:
#
# PCOD8033459 Si02
#       8
#     2   2   2   2   2   2   2   2
#     4  11  26  45  68 100 138 177 231 299 354 423
#     4  12  24  47  68 101 146 183 236 297 347 428
#     4  11  23  46  72  97 145 179 232 297 357 425
#     4  12  23  42  72  99 137 188 224 293 358 408
#     4  11  24  45  69 106 132 183 241 285 355 433
#     4  12  26  44  70 101 139 187 240 289 350 427
#     4  12  27  45  67 105 144 184 237 293 355 425
#     4  11  24  42  72  97 132 190 230 280 364 425
#
# _framework density 22.218301
#
# number of rings (size 3 to 8) (size 9 to 14) (size 15 to 20)
#    0.000    0.500    5.000    3.375    0.000    5.000 
#    0.000    0.000    0.000    0.000    0.000    0.000 
#    0.000    0.000    0.000    0.000    0.000    0.000 
#
# Total GULP energy -198353.399429 kJ/mol
# GULP energy per Si atom -12397.087464 kJ/mol
# Density = 2.216773 g / cm^3
# Si number density = 22.218301 Si / 1000 Ang^3
#
#
#
# Elastic Constant Matrix: (Units=GPa)
#
#
# Indices 1 2 3 4 5 6 
#
# 1 161.3130 37.3252 34.6364 -31.0510 -17.9494 2.2351
# 2 37.3252 103.9594 37.5350 -33.9387 1.1025 4.2786
# 3 34.6364 37.5350 97.2430 -45.0863 3.1832 -5.1528
# 4 -31.0510 -33.9387 -45.0863 47.4968 -2.5110 2.3525
# 5 -17.9494 1.1025 3.1832 -2.5110 50.3985 -9.1665
# 6 2.2351 4.2786 -5.1528 2.3525 -9.1665 37.5126
#
#
#
# Elastic Compliance Matrix: (Units=1/GPa)
#
#
# Indices 1 2 3 4 5 6 
#
# 1 0.007679 -0.001400 -0.000629 0.003576 0.003006 0.000126
# 2 -0.001400 0.013054 -0.001251 0.007296 -0.000745 -0.002217
# 3 -0.000629 -0.001251 0.018642 0.016295 -0.000261 0.001655
# 4 0.003576 0.007296 0.016295 0.044237 0.002094 -0.001069
# 5 0.003006 -0.000745 -0.000261 0.002094 0.021979 0.005109
# 6 0.000126 -0.002217 0.001655 -0.001069 0.005109 0.028446
#
#
# Mechanical properties :
#
#
# Convention : Reuss Voigt Hill
#
# Bulk Modulus (GPa) = 30.47192 64.61208 47.54200
# Shear Modulus (GPa) = 32.99593 43.94950 38.47272
#
# Velocity S-wave (km/s) = 3.85785 4.45238 4.16574
# Velocity P-wave (km/s) = 5.79557 7.45488 6.67697
#
# Compressibility (1/GPa) = 0.03281710
#
# Stress axis : x y z
#
# Youngs Moduli (GPa) = 130.22374 76.60330 53.64368
#
# Poissons Ratio (x) = 0.10723 0.03372
# Poissons Ratio (y) = 0.18228 0.06708
# Poissons Ratio (z) = 0.08186 0.09579
#
# Static dielectric constant tensor:
#      x y z
#    x 4.851960 -0.129310 0.249040 
#    y -0.129310 4.188920 -0.311760 
#    z 0.249040 -0.311760 4.304440 
# 
# 
# High freq. dielectric constant tensor:
#      x y z
#    x 1.896570 0.004890 0.002360 
#    y 0.004890 1.868220 -0.020270 
#    z 0.002360 -0.020270 1.876920 
# 
# From -- ./inp_files/68550.got.cif
#   From: 2010.06.25/outbox.cif.g09.slc.cpg/sg2_35_cif.got.tgz:68550.got - 2010.06.27 13:26:56.
