data_PCOD8033562
_publ_section_title
;
Structure prediction by ZEFSAII (Michael W. Deem and Ramdas Pophale) SiO2 
 PCOD8033562
Probable space group: P -1
;
_chemical_formula_sum "Si O2"
_cell_formula_units_Z 16
_cell_length_a 12.045804
_cell_length_b 9.733369
_cell_length_c 11.013472
_cell_angle_alpha 124.923232
_cell_angle_beta 97.653149
_cell_angle_gamma 48.564882
_cell_volume 727.602276
_symmetry_space_group_name_H-M "P -1"
_symmetry_group_IT_number 2
_symmetry_cell_setting 'triclinic'
loop_
_space_group_symop_operation_xyz
x,y,z
-x,-y,-z
loop_
_atom_site_type_symbol
_atom_site_label
_atom_site_fract_x
_atom_site_fract_y
_atom_site_fract_z
Si Si1 0.210919 0.113232 0.177435
Si Si2 0.092183 0.361664 0.615178
Si Si3 0.405877 0.094121 0.379665
Si Si4 0.750009 0.639851 0.156386
Si Si5 0.362972 0.050837 0.936817
Si Si6 0.906113 0.109349 0.912610
Si Si7 0.946076 0.157309 0.453797
Si Si8 0.424006 0.405760 0.413693
O O1 0.358234 0.060977 0.227548
O O2 0.037383 0.371407 0.329353
O O3 0.221183 0.907437 0.111864
O O4 0.222118 0.131770 0.044296
O O5 0.269906 0.190527 0.501925
O O6 0.115369 0.388163 0.773237
O O7 0.035214 0.237150 0.519755
O O8 0.419474 0.281103 0.463275
O O9 0.581376 0.829626 0.305685
O O10 0.723145 0.739599 0.068850
O O11 0.807983 0.386418 0.029812
O O12 0.450731 0.795187 0.767779
O O13 0.500000 0.000000 0.000000
O O14 0.015825 0.971395 0.736484
O O15 0.000000 0.000000 0.000000
O O16 0.755653 0.384105 0.557227
O O17 0.000000 0.000000 0.500000
O O18 0.500000 0.500000 0.500000
#
# Coordination Sequence:
#
# PCOD8033562 Si02
#       8
#     2   2   2   2   2   2   2   2
#     4  12  23  44  78 100 142 196 237 303 366 440
#     4  12  24  47  73 104 144 191 244 301 368 437
#     4  11  23  47  72 103 139 193 242 289 369 436
#     4  11  27  44  74 108 146 190 245 305 364 447
#     4  11  24  48  72 101 143 192 241 293 376 434
#     4  12  28  48  72 115 147 191 247 310 372 429
#     4  12  29  47  75 108 149 194 251 304 370 441
#     4  11  26  44  72 106 145 187 242 303 362 434
#
# _framework density 21.990036
#
# number of rings (size 3 to 8) (size 9 to 14) (size 15 to 20)
#    0.000    0.500    6.250    1.500    8.750    1.000 
#    2.250    0.000    0.000    0.000    0.000    0.000 
#    0.000    0.000    0.000    0.000    0.000    0.000 
#
# Total GULP energy -198314.158294 kJ/mol
# GULP energy per Si atom -12394.634893 kJ/mol
# Density = 2.193999 g / cm^3
# Si number density = 21.990036 Si / 1000 Ang^3
#
#
#
# Elastic Constant Matrix: (Units=GPa)
#
#
# Indices 1 2 3 4 5 6 
#
# 1 126.5644 54.7826 65.0613 2.0532 19.2680 10.9018
# 2 54.7826 130.3226 68.8169 18.0663 13.7725 3.2977
# 3 65.0613 68.8169 113.1302 19.0273 12.5333 14.9216
# 4 2.0532 18.0663 19.0273 39.4200 0.3483 -0.1667
# 5 19.2680 13.7725 12.5333 0.3483 45.6452 -0.5993
# 6 10.9018 3.2977 14.9216 -0.1667 -0.5993 34.1099
#
#
#
# Elastic Compliance Matrix: (Units=1/GPa)
#
#
# Indices 1 2 3 4 5 6 
#
# 1 0.012353 -0.002231 -0.005790 0.003195 -0.002992 -0.001237
# 2 -0.002231 0.012088 -0.005781 -0.002615 -0.001072 0.002042
# 3 -0.005790 -0.005781 0.017357 -0.005444 -0.000604 -0.005221
# 4 0.003195 -0.002615 -0.005444 0.029029 0.000737 0.001768
# 5 -0.002992 -0.001072 -0.000604 0.000737 0.023678 0.001744
# 6 -0.001237 0.002042 -0.005221 0.001768 0.001744 0.031838
#
#
# Mechanical properties :
#
#
# Convention : Reuss Voigt Hill
#
# Bulk Modulus (GPa) = 70.44973 83.03763 76.74368
# Shear Modulus (GPa) = 31.51058 35.92545 33.71802
#
# Velocity S-wave (km/s) = 3.78954 4.04631 3.92003
# Velocity P-wave (km/s) = 7.15920 7.72487 7.44741
#
# Compressibility (1/GPa) = 0.01419452
#
# Stress axis : x y z
#
# Youngs Moduli (GPa) = 80.94912 82.72953 57.61427
#
# Poissons Ratio (x) = 0.18455 0.33360
# Poissons Ratio (y) = 0.18058 0.33305
# Poissons Ratio (z) = 0.46872 0.47823
#
# Static dielectric constant tensor:
#      x y z
#    x 4.133800 -0.043940 0.056980 
#    y -0.043940 3.905870 0.035170 
#    z 0.056980 0.035170 4.225880 
# 
# 
# High freq. dielectric constant tensor:
#      x y z
#    x 1.875340 -0.006350 0.001720 
#    y -0.006350 1.867800 -0.003720 
#    z 0.001720 -0.003720 1.880690 
# 
# From -- ./inp_files/216520.got.cif
#   From: 2010.06.25/outbox.cif.g09.slc.cpg/sg2_109_cif.got.tgz:216520.got - 2010.06.27 13:26:56.
