data_PCOD8033439
_publ_section_title
;
Structure prediction by ZEFSAII (Michael W. Deem and Ramdas Pophale) SiO2 
 PCOD8033439
Probable space group: P -1
;
_chemical_formula_sum "Si O2"
_cell_formula_units_Z 16
_cell_length_a 14.696874
_cell_length_b 20.907725
_cell_length_c 8.355619
_cell_angle_alpha 108.484109
_cell_angle_beta 61.995092
_cell_angle_gamma 160.031883
_cell_volume 705.308364
_symmetry_space_group_name_H-M "P -1"
_symmetry_group_IT_number 2
_symmetry_cell_setting 'triclinic'
loop_
_space_group_symop_operation_xyz
x,y,z
-x,-y,-z
loop_
_atom_site_type_symbol
_atom_site_label
_atom_site_fract_x
_atom_site_fract_y
_atom_site_fract_z
Si Si1 0.681893 0.072891 0.774994
Si Si2 0.455981 0.701666 0.011842
Si Si3 0.842763 0.559111 0.527166
Si Si4 0.800928 0.785828 0.662207
Si Si5 0.554502 0.804062 0.363863
Si Si6 0.794962 0.276533 0.351739
Si Si7 0.457300 0.450329 0.816684
Si Si8 0.106502 0.928829 0.224164
O O1 0.793273 0.070009 0.744256
O O2 0.973052 0.300397 0.668026
O O3 0.465202 0.927988 0.685156
O O4 0.500000 0.000000 0.000000
O O5 0.569691 0.702711 0.837415
O O6 0.580925 0.841035 0.913265
O O7 0.592117 0.792406 0.150571
O O8 0.077334 0.469312 0.148058
O O9 0.644520 0.369638 0.495693
O O10 0.598433 0.463829 0.707742
O O11 0.080259 0.691494 0.581213
O O12 0.627251 0.607071 0.681993
O O13 0.899204 0.851560 0.445556
O O14 0.104431 0.972631 0.671709
O O15 0.358264 0.751318 0.469271
O O16 0.092973 0.219958 0.881611
O O17 0.500000 0.500000 0.000000
#
# Coordination Sequence:
#
# PCOD8033439 Si02
#       8
#     2   2   2   2   2   2   2   2
#     4  12  29  43  69 101 142 183 225 283 349 413
#     4  11  25  42  74  99 139 185 230 282 334 417
#     4  11  24  45  71 100 134 182 229 285 335 406
#     4  12  24  46  68 104 140 179 230 285 346 405
#     4  11  23  46  72 102 137 181 236 282 338 404
#     4  11  25  48  70 102 136 185 236 282 335 406
#     4  12  25  44  73  99 137 180 231 286 341 413
#     4  12  27  46  66 105 141 180 226 286 352 406
#
# _framework density 22.685112
#
# number of rings (size 3 to 8) (size 9 to 14) (size 15 to 20)
#    0.000    0.500    2.500    6.000    7.000    1.500 
#    0.000    0.000    0.000    0.000    0.000    0.000 
#    0.000    0.000    0.000    0.000    0.000    0.000 
#
# Total GULP energy -198474.746229 kJ/mol
# GULP energy per Si atom -12404.671639 kJ/mol
# Density = 2.263348 g / cm^3
# Si number density = 22.685112 Si / 1000 Ang^3
#
#
#
# Elastic Constant Matrix: (Units=GPa)
#
#
# Indices 1 2 3 4 5 6 
#
# 1 92.5015 19.0028 3.9604 -11.9425 0.5018 -12.1380
# 2 19.0028 60.3842 -1.6194 -1.4158 -5.7766 -5.0168
# 3 3.9604 -1.6194 91.9231 -3.6536 1.7290 -9.2633
# 4 -11.9425 -1.4158 -3.6536 37.9228 -6.4133 6.8836
# 5 0.5018 -5.7766 1.7290 -6.4133 35.5953 -9.1543
# 6 -12.1380 -5.0168 -9.2633 6.8836 -9.1543 39.8036
#
#
#
# Elastic Compliance Matrix: (Units=1/GPa)
#
#
# Indices 1 2 3 4 5 6 
#
# 1 0.012339 -0.003518 -0.000187 0.003322 0.000593 0.002838
# 2 -0.003518 0.018199 0.000621 -0.000175 0.003508 0.002203
# 3 -0.000187 0.000621 0.011177 0.000628 0.000340 0.002592
# 4 0.003322 -0.000175 0.000628 0.028717 0.004340 -0.002831
# 5 0.000593 0.003508 0.000340 0.004340 0.031256 0.007140
# 6 0.002838 0.002203 0.002592 -0.002831 0.007140 0.029001
#
#
# Mechanical properties :
#
#
# Convention : Reuss Voigt Hill
#
# Bulk Modulus (GPa) = 28.13037 31.94404 30.03721
# Shear Modulus (GPa) = 33.62325 37.56201 35.59263
#
# Velocity S-wave (km/s) = 3.85408 4.07357 3.96534
# Velocity P-wave (km/s) = 5.67737 6.01975 5.85106
#
# Compressibility (1/GPa) = 0.03554876
#
# Stress axis : x y z
#
# Youngs Moduli (GPa) = 81.04178 54.94875 89.46593
#
# Poissons Ratio (x) = 0.19330 0.01671
# Poissons Ratio (y) = 0.28509 -0.05558
# Poissons Ratio (z) = 0.01513 -0.03413
#
# Static dielectric constant tensor:
#      x y z
#    x 3.840870 -0.109720 0.200570 
#    y -0.109720 4.298340 -0.137070 
#    z 0.200570 -0.137070 4.055480 
# 
# 
# High freq. dielectric constant tensor:
#      x y z
#    x 1.899570 -0.008430 -0.002090 
#    y -0.008430 1.907630 -0.004440 
#    z -0.002090 -0.004440 1.901790 
# 
# From -- ./inp_files/184312.got.cif
#   From: 2010.06.25/outbox.cif.g09.slc.cpg/sg2_93_cif.got.tgz:184312.got - 2010.06.27 13:26:56.
