data_PCOD8033221
_publ_section_title
;
Structure prediction by ZEFSAII (Michael W. Deem and Ramdas Pophale) SiO2 
 PCOD8033221
Probable space group: P -1
;
_chemical_formula_sum "Si O2"
_cell_formula_units_Z 16
_cell_length_a 8.908258
_cell_length_b 11.520443
_cell_length_c 13.840848
_cell_angle_alpha 146.955478
_cell_angle_beta 92.887240
_cell_angle_gamma 76.149672
_cell_volume 721.096912
_symmetry_space_group_name_H-M "P -1"
_symmetry_group_IT_number 2
_symmetry_cell_setting 'triclinic'
loop_
_space_group_symop_operation_xyz
x,y,z
-x,-y,-z
loop_
_atom_site_type_symbol
_atom_site_label
_atom_site_fract_x
_atom_site_fract_y
_atom_site_fract_z
Si Si1 0.333043 0.201430 0.125031
Si Si2 0.816209 0.137477 0.105228
Si Si3 0.590736 0.172177 0.604244
Si Si4 0.317311 0.287191 0.978868
Si Si5 0.818126 0.054194 0.350619
Si Si6 0.835399 0.243551 0.797991
Si Si7 0.637258 0.315067 0.024835
Si Si8 0.846576 0.434929 0.479942
O O1 0.286221 0.339841 0.320631
O O2 0.320287 0.364933 0.146243
O O3 0.500000 0.000000 0.000000
O O4 0.219940 0.070003 0.994098
O O5 0.778888 0.357915 0.327270
O O6 0.709434 0.215130 0.060347
O O7 0.000000 0.000000 0.000000
O O8 0.734465 0.119741 0.649857
O O9 0.500000 0.000000 0.500000
O O10 0.670229 0.161690 0.494312
O O11 0.453307 0.415721 0.784726
O O12 0.249206 0.085727 0.823914
O O13 0.507910 0.210170 0.903469
O O14 0.203115 0.501944 0.065245
O O15 0.974209 0.893132 0.301967
O O16 0.877370 0.235384 0.421534
O O17 0.788815 0.254709 0.916669
O O18 0.000000 0.500000 0.500000
#
# Coordination Sequence:
#
# PCOD8033221 Si02
#       8
#     2   2   2   2   2   2   2   2
#     4  12  26  46  73 102 143 186 240 303 357 424
#     4  12  25  48  71 103 142 189 239 296 363 424
#     4  11  24  45  67 104 143 181 234 293 358 431
#     4  11  23  45  70 103 142 185 237 296 362 431
#     4  12  25  43  73 106 143 186 239 300 359 425
#     4  11  24  43  71 103 141 188 234 292 363 426
#     4  11  24  44  70  96 138 188 234 287 360 429
#     4  12  27  45  71 107 145 190 245 296 361 430
#
# _framework density 22.188420000000001
#
# number of rings (size 3 to 8) (size 9 to 14) (size 15 to 20)
#    0.000    0.500    3.750    6.000    0.000    2.500 
#    0.000    0.000    0.000    0.000    0.000    0.000 
#    0.000    0.000    0.000    0.000    0.000    0.000 
#
# Total GULP energy -198257.920632 kJ/mol
# GULP energy per Si atom -12391.120040 kJ/mol
# Density = 2.213792 g / cm^3
# Si number density = 22.188420 Si / 1000 Ang^3
#
#
#
# Elastic Constant Matrix: (Units=GPa)
#
#
# Indices 1 2 3 4 5 6 
#
# 1 109.9268 25.1013 51.0661 12.5265 3.5136 3.6238
# 2 25.1013 103.1496 28.1199 -4.0334 3.6668 5.7010
# 3 51.0661 28.1199 126.7531 -11.8529 8.6283 3.1467
# 4 12.5265 -4.0334 -11.8529 30.6472 6.3481 -2.0214
# 5 3.5136 3.6668 8.6283 6.3481 37.1129 2.1586
# 6 3.6238 5.7010 3.1467 -2.0214 2.1586 45.8302
#
#
#
# Elastic Compliance Matrix: (Units=1/GPa)
#
#
# Indices 1 2 3 4 5 6 
#
# 1 0.013114 -0.001971 -0.005715 -0.008246 0.001741 -0.000845
# 2 -0.001971 0.010689 -0.001330 0.001803 -0.000813 -0.000965
# 3 -0.005715 -0.001330 0.011377 0.007250 -0.003231 0.000308
# 4 -0.008246 0.001803 0.007250 0.040879 -0.008199 0.002119
# 5 0.001741 -0.000813 -0.003231 -0.008199 0.029104 -0.001547
# 6 -0.000845 -0.000965 0.000308 0.002119 -0.001547 0.022152
#
#
# Mechanical properties :
#
#
# Convention : Reuss Voigt Hill
#
# Bulk Modulus (GPa) = 58.30976 60.93379 59.62177
# Shear Modulus (GPa) = 33.09926 38.42089 35.76007
#
# Velocity S-wave (km/s) = 3.86649 4.16573 4.01890
# Velocity P-wave (km/s) = 6.80216 7.11754 6.96164
#
# Compressibility (1/GPa) = 0.01714979
#
# Stress axis : x y z
#
# Youngs Moduli (GPa) = 76.25722 93.55037 87.89806
#
# Poissons Ratio (x) = 0.18438 0.50230
# Poissons Ratio (y) = 0.15030 0.11686
# Poissons Ratio (z) = 0.43578 0.12438
#
# Static dielectric constant tensor:
#      x y z
#    x 4.138490 0.375430 0.047450 
#    y 0.375430 4.025380 -0.153970 
#    z 0.047450 -0.153970 4.087230 
# 
# 
# High freq. dielectric constant tensor:
#      x y z
#    x 1.888420 0.013550 0.005650 
#    y 0.013550 1.883000 -0.005460 
#    z 0.005650 -0.005460 1.873870 
# 
# From -- ./inp_files/501181.got.cif
#   From: 2010.06.25/outbox.cif.g09.slc.cpg/sg2_251_cif.got.tgz:501181.got - 2010.06.27 13:26:56.
