data_PCOD8033825
_publ_section_title
;
Structure prediction by ZEFSAII (Michael W. Deem and Ramdas Pophale) SiO2 
 PCOD8033825
Probable space group: P -1
;
_chemical_formula_sum "Si O2"
_cell_formula_units_Z 16
_cell_length_a 16.654843
_cell_length_b 13.105017
_cell_length_c 8.814043
_cell_angle_alpha 106.699648
_cell_angle_beta 111.708127
_cell_angle_gamma 133.420939
_cell_volume 774.423678
_symmetry_space_group_name_H-M "P -1"
_symmetry_group_IT_number 2
_symmetry_cell_setting 'triclinic'
loop_
_space_group_symop_operation_xyz
x,y,z
-x,-y,-z
loop_
_atom_site_type_symbol
_atom_site_label
_atom_site_fract_x
_atom_site_fract_y
_atom_site_fract_z
Si Si1 0.781718 0.231822 0.210229
Si Si2 0.544192 0.173499 0.629925
Si Si3 0.112964 0.342928 0.071300
Si Si4 0.620440 0.697452 0.786903
Si Si5 0.961946 0.954773 0.275335
Si Si6 0.278304 0.447719 0.549306
Si Si7 0.231636 0.950271 0.134100
Si Si8 0.455368 0.823233 0.027843
O O1 0.000000 0.500000 0.500000
O O2 0.667486 0.066483 0.208728
O O3 0.804911 0.163895 0.080759
O O4 0.654253 0.185828 0.033520
O O5 0.758551 0.435909 0.842731
O O6 0.511676 0.179230 0.779959
O O7 0.500000 0.000000 0.500000
O O8 0.416605 0.111938 0.416459
O O9 0.222776 0.417273 0.326233
O O10 0.029836 0.156402 0.829635
O O11 0.945303 0.238971 0.956739
O O12 0.500000 0.500000 0.500000
O O13 0.479942 0.608462 0.759983
O O14 0.751767 0.914305 0.865600
O O15 0.750663 0.767426 0.015119
O O16 0.000000 0.000000 0.500000
O O17 0.117827 0.197665 0.403441
O O18 0.313089 0.591470 0.734364
#
# Coordination Sequence:
#
# PCOD8033825 Si02
#       8
#     2   2   2   2   2   2   2   2
#     4  11  24  42  68  96 135 182 235 285 347 417
#     4  12  26  45  67 100 147 183 230 296 349 404
#     4  12  25  45  71 103 141 187 235 287 347 427
#     4  12  23  43  74 101 137 186 235 279 354 427
#     4  12  27  46  72 110 145 180 234 302 355 414
#     4  12  23  43  76  99 138 184 236 287 352 424
#     4  12  24  44  71 101 134 189 235 278 354 424
#     4  11  25  43  66 101 137 179 232 294 347 407
#
# _framework density 20.660525
#
# number of rings (size 3 to 8) (size 9 to 14) (size 15 to 20)
#    0.000    0.250    6.250    2.625    3.500    3.000 
#    0.000    0.000    0.000    0.000    0.000    0.000 
#    0.000    0.000    0.000    0.000    0.000    0.000 
#
# Total GULP energy -198413.274277 kJ/mol
# GULP energy per Si atom -12400.829642 kJ/mol
# Density = 2.061350 g / cm^3
# Si number density = 20.660525 Si / 1000 Ang^3
#
#
#
# Elastic Constant Matrix: (Units=GPa)
#
#
# Indices 1 2 3 4 5 6 
#
# 1 -2.9006 148.4678 -18.2640 0.9251 118.2626 20.6992
# 2 148.4678 15.9109 109.8264 26.8355 -141.1060 3.2878
# 3 -18.2640 109.8264 88.7478 -0.5784 47.1117 15.8804
# 4 0.9251 26.8355 -0.5784 47.0883 14.5775 1.4004
# 5 118.2626 -141.1060 47.1117 14.5775 -91.7141 -7.5093
# 6 20.6992 3.2878 15.8804 1.4004 -7.5093 32.8412
#
#
#
# Elastic Compliance Matrix: (Units=1/GPa)
#
#
# Indices 1 2 3 4 5 6 
#
# 1 0.008736 0.002035 -0.003499 -0.003169 0.006037 -0.002503
# 2 0.002035 0.005085 -0.002160 -0.000955 -0.006285 -0.002144
# 3 -0.003499 -0.002160 0.011080 0.000048 0.004665 -0.001872
# 4 -0.003169 -0.000955 0.000048 0.021579 0.000729 0.001317
# 5 0.006037 -0.006285 0.004665 0.000729 0.009335 -0.003328
# 6 -0.002503 -0.002144 -0.001872 0.001317 -0.003328 0.032329
#
#
# Mechanical properties :
#
#
# Convention : Reuss Voigt Hill
#
# Bulk Modulus (GPa) = 56.64355 64.64650 60.64503
# Shear Modulus (GPa) = 49.36979 -11.57504 18.89737
#
# Velocity S-wave (km/s) = 4.89363 -2.36953 3.02762
# Velocity P-wave (km/s) = 7.70753 4.88586 6.45281
#
# Compressibility (1/GPa) = 0.01765426
#
# Stress axis : x y z
#
# Youngs Moduli (GPa) = 114.46847 196.65642 90.25089
#
# Poissons Ratio (x) = -0.40029 0.31576
# Poissons Ratio (y) = -0.23300 0.19496
# Poissons Ratio (z) = 0.40050 0.42482
#
# Static dielectric constant tensor:
#      x y z
#    x 4.036770 0.039060 0.060210 
#    y 0.039060 3.792090 0.148400 
#    z 0.060210 0.148400 3.739320 
# 
# 
# High freq. dielectric constant tensor:
#      x y z
#    x 1.824070 0.006040 -0.005830 
#    y 0.006040 1.814050 0.011210 
#    z -0.005830 0.011210 1.818070 
# 
# From -- ./inp_files/282838.got.cif
#   From: 2010.06.25/outbox.cif.g09.slc.cpg/sg2_142_cif.got.tgz:282838.got - 2010.06.27 13:26:56.
