data_PCOD8033919
_publ_section_title
;
Structure prediction by ZEFSAII (Michael W. Deem and Ramdas Pophale) SiO2 
 PCOD8033919
Probable space group: P -1
;
_chemical_formula_sum "Si O2"
_cell_formula_units_Z 16
_cell_length_a 9.552264
_cell_length_b 17.473771
_cell_length_c 11.983670
_cell_angle_alpha 137.210409
_cell_angle_beta 50.869969
_cell_angle_gamma 95.338480
_cell_volume 750.331263
_symmetry_space_group_name_H-M "P -1"
_symmetry_group_IT_number 2
_symmetry_cell_setting 'triclinic'
loop_
_space_group_symop_operation_xyz
x,y,z
-x,-y,-z
loop_
_atom_site_type_symbol
_atom_site_label
_atom_site_fract_x
_atom_site_fract_y
_atom_site_fract_z
Si Si1 0.351605 0.070716 0.329695
Si Si2 0.070038 0.422360 0.262661
Si Si3 0.680595 0.925533 0.225920
Si Si4 0.147898 0.819197 0.264125
Si Si5 0.087640 0.948057 0.775066
Si Si6 0.595308 0.116789 0.089720
Si Si7 0.471112 0.390313 0.349044
Si Si8 0.470149 0.644660 0.137260
O O1 0.378860 0.161619 0.326739
O O2 0.061660 0.188056 0.641872
O O3 0.529200 0.017263 0.287406
O O4 0.432292 0.921797 0.062635
O O5 0.000000 0.500000 0.500000
O O6 0.819562 0.515891 0.417420
O O7 0.185501 0.250831 0.044416
O O8 0.255003 0.425097 0.104871
O O9 0.500000 0.000000 0.500000
O O10 0.876331 0.940510 0.168991
O O11 0.278410 0.760928 0.257338
O O12 0.371221 0.691570 0.931029
O O13 0.000000 0.000000 0.500000
O O14 0.349779 0.762090 0.430700
O O15 0.000000 0.000000 0.000000
O O16 0.876085 0.969537 0.837620
O O17 0.572857 0.260705 0.252541
O O18 0.500000 0.500000 0.500000
O O19 0.500000 0.500000 0.000000
#
# Coordination Sequence:
#
# PCOD8033919 Si02
#       8
#     2   2   2   2   2   2   2   2
#     4  11  24  42  75 101 133 182 244 291 340 422
#     4  12  26  46  70 102 145 190 235 294 363 433
#     4  12  26  45  74 105 140 187 248 296 357 426
#     4  12  24  48  73 101 137 191 248 287 344 443
#     4  12  25  46  71 104 142 186 240 306 355 429
#     4  11  24  45  71 103 137 184 241 283 353 433
#     4  12  27  44  70 105 144 183 228 300 365 417
#     4  12  28  46  71 109 148 191 236 303 373 432
#
# _framework density 21.323917000000002
#
# number of rings (size 3 to 8) (size 9 to 14) (size 15 to 20)
#    0.000    0.250    6.250    2.250    7.000    1.000 
#    0.000    0.625    0.000    0.000    0.000    0.000 
#    0.000    0.000    0.000    0.000    0.000    0.000 
#
# Total GULP energy -198380.494802 kJ/mol
# GULP energy per Si atom -12398.780925 kJ/mol
# Density = 2.127538 g / cm^3
# Si number density = 21.323917 Si / 1000 Ang^3
#
#
#
# Elastic Constant Matrix: (Units=GPa)
#
#
# Indices 1 2 3 4 5 6 
#
# 1 98.7852 35.9842 44.6962 -6.2783 -5.9060 10.2974
# 2 35.9842 134.2444 64.4107 -7.0649 6.3576 24.2651
# 3 44.6962 64.4107 139.7438 -13.2332 9.4418 10.7932
# 4 -6.2783 -7.0649 -13.2332 39.5669 10.4621 -2.8906
# 5 -5.9060 6.3576 9.4418 10.4621 46.5852 -3.4702
# 6 10.2974 24.2651 10.7932 -2.8906 -3.4702 45.8128
#
#
#
# Elastic Compliance Matrix: (Units=1/GPa)
#
#
# Indices 1 2 3 4 5 6 
#
# 1 0.012479 -0.001710 -0.003310 -0.000149 0.002449 -0.000943
# 2 -0.001710 0.010659 -0.003905 0.000343 -0.001286 -0.004417
# 3 -0.003310 -0.003905 0.010452 0.002999 -0.002653 0.000338
# 4 -0.000149 0.000343 0.002999 0.028188 -0.006975 0.000395
# 5 0.002449 -0.001286 -0.002653 -0.006975 0.024216 0.002150
# 6 -0.000943 -0.004417 0.000338 0.000395 0.002150 0.024487
#
#
# Mechanical properties :
#
#
# Convention : Reuss Voigt Hill
#
# Bulk Modulus (GPa) = 63.53797 73.66175 68.59986
# Shear Modulus (GPa) = 37.43162 41.57181 39.50172
#
# Velocity S-wave (km/s) = 4.19427 4.42015 4.30869
# Velocity P-wave (km/s) = 7.30186 7.78906 7.54939
#
# Compressibility (1/GPa) = 0.01573862
#
# Stress axis : x y z
#
# Youngs Moduli (GPa) = 80.13608 93.82132 95.67802
#
# Poissons Ratio (x) = 0.16046 0.31667
# Poissons Ratio (y) = 0.13706 0.37364
# Poissons Ratio (z) = 0.26523 0.36639
#
# Static dielectric constant tensor:
#      x y z
#    x 4.093940 0.095750 -0.169320 
#    y 0.095750 3.906280 -0.289220 
#    z -0.169320 -0.289220 4.066230 
# 
# 
# High freq. dielectric constant tensor:
#      x y z
#    x 1.844790 0.011780 -0.004030 
#    y 0.011780 1.845630 -0.019260 
#    z -0.004030 -0.019260 1.843330 
# 
# From -- ./inp_files/263386.got.cif
#   From: 2010.06.25/outbox.cif.g09.slc.cpg/sg2_132_cif.got.tgz:263386.got - 2010.06.27 13:26:56.
