data_PCOD8033806
_publ_section_title
;
Structure prediction by ZEFSAII (Michael W. Deem and Ramdas Pophale) SiO2 
 PCOD8033806
Probable space group: P -1
;
_chemical_formula_sum "Si O2"
_cell_formula_units_Z 16
_cell_length_a 13.608581
_cell_length_b 12.631555
_cell_length_c 11.675795
_cell_angle_alpha 83.839844
_cell_angle_beta 65.489398
_cell_angle_gamma 141.597155
_cell_volume 730.500999
_symmetry_space_group_name_H-M "P -1"
_symmetry_group_IT_number 2
_symmetry_cell_setting 'triclinic'
loop_
_space_group_symop_operation_xyz
x,y,z
-x,-y,-z
loop_
_atom_site_type_symbol
_atom_site_label
_atom_site_fract_x
_atom_site_fract_y
_atom_site_fract_z
Si Si1 0.186380 0.715488 0.711909
Si Si2 0.941804 0.158214 0.626359
Si Si3 0.091392 0.492179 0.369494
Si Si4 0.965244 0.631301 0.043039
Si Si5 0.334892 0.304724 0.996814
Si Si6 0.750493 0.743045 0.432040
Si Si7 0.337299 0.069390 0.984223
Si Si8 0.525272 0.669605 0.736801
O O1 0.034380 0.606852 0.682166
O O2 0.079431 0.506400 0.832860
O O3 0.500000 0.000000 0.500000
O O4 0.119586 0.741147 0.838985
O O5 0.999706 0.295899 0.485309
O O6 0.205656 0.325730 0.506956
O O7 0.714804 0.870780 0.727607
O O8 0.828561 0.112609 0.800611
O O9 0.412504 0.784746 0.167551
O O10 0.000000 0.500000 0.500000
O O11 0.674372 0.413654 0.178571
O O12 0.143432 0.880692 0.990951
O O13 0.500000 0.500000 0.000000
O O14 0.446156 0.288736 0.910967
O O15 0.367243 0.417178 0.865161
O O16 0.018300 0.007257 0.201592
O O17 0.500000 0.500000 0.500000
O O18 0.704834 0.807292 0.522798
#
# Coordination Sequence:
#
# PCOD8033806 Si02
#       8
#     2   2   2   2   2   2   2   2
#     4  11  25  47  69  97 137 178 232 284 349 414
#     4  11  24  42  67 100 133 179 227 277 340 407
#     4  12  26  42  71  99 130 179 229 283 345 409
#     4  11  26  44  68 101 137 180 227 288 348 406
#     4  11  24  43  69 100 137 182 228 277 340 414
#     4  11  25  42  67 102 141 179 225 284 341 406
#     4  11  24  44  67  98 142 172 227 288 340 407
#     4  12  23  41  70  97 134 179 228 279 338 408
#
# _framework density 21.902775999999999
#
# number of rings (size 3 to 8) (size 9 to 14) (size 15 to 20)
#    0.000    0.750    2.500    5.625    1.750    8.000 
#    0.000    0.000    0.000    0.000    0.000    0.000 
#    0.000    0.000    0.000    0.000    0.000    0.000 
#
# Total GULP energy -198463.837313 kJ/mol
# GULP energy per Si atom -12403.989832 kJ/mol
# Density = 2.185292 g / cm^3
# Si number density = 21.902776 Si / 1000 Ang^3
#
#
#
# Elastic Constant Matrix: (Units=GPa)
#
#
# Indices 1 2 3 4 5 6 
#
# 1 131.9115 50.4474 50.4070 4.8712 -5.4505 15.2467
# 2 50.4474 157.4279 45.9283 7.9062 -14.2571 13.5924
# 3 50.4070 45.9283 111.3799 12.0470 -23.5343 8.2548
# 4 4.8712 7.9062 12.0470 41.8498 -1.2888 -7.4794
# 5 -5.4505 -14.2571 -23.5343 -1.2888 51.1878 0.0246
# 6 15.2467 13.5924 8.2548 -7.4794 0.0246 38.8595
#
#
#
# Elastic Compliance Matrix: (Units=1/GPa)
#
#
# Indices 1 2 3 4 5 6 
#
# 1 0.010028 -0.002003 -0.003769 -0.000183 -0.001226 -0.002468
# 2 -0.002003 0.007836 -0.001857 -0.000992 0.001091 -0.001752
# 3 -0.003769 -0.001857 0.012905 -0.002986 0.004940 -0.001191
# 4 -0.000183 -0.000992 -0.002986 0.026015 -0.001017 0.006061
# 5 -0.001226 0.001091 0.004940 -0.001017 0.021955 -0.001160
# 6 -0.002468 -0.001752 -0.001191 0.006061 -0.001160 0.028735
#
#
# Mechanical properties :
#
#
# Convention : Reuss Voigt Hill
#
# Bulk Modulus (GPa) = 64.46962 77.14276 70.80619
# Shear Modulus (GPa) = 39.09225 43.30851 41.20038
#
# Velocity S-wave (km/s) = 4.22928 4.45152 4.34182
# Velocity P-wave (km/s) = 7.30393 7.85610 7.58504
#
# Compressibility (1/GPa) = 0.01551118
#
# Stress axis : x y z
#
# Youngs Moduli (GPa) = 99.71707 127.62307 77.49037
#
# Poissons Ratio (x) = 0.25560 0.29207
# Poissons Ratio (y) = 0.19971 0.14389
# Poissons Ratio (z) = 0.37585 0.23698
#
# Static dielectric constant tensor:
#      x y z
#    x 4.125590 -0.066570 -0.179570 
#    y -0.066570 3.946630 0.132300 
#    z -0.179570 0.132300 4.606660 
# 
# 
# High freq. dielectric constant tensor:
#      x y z
#    x 1.867930 0.002560 -0.006190 
#    y 0.002560 1.869080 0.007360 
#    z -0.006190 0.007360 1.874380 
# 
# From -- ./inp_files/428143.got.cif
#   From: 2010.06.25/outbox.cif.g09.slc.cpg/sg2_215_cif.got.tgz:428143.got - 2010.06.27 13:26:56.
