data_PCOD8033039
_publ_section_title
;
Structure prediction by ZEFSAII (Michael W. Deem and Ramdas Pophale) SiO2 
 PCOD8033039
Probable space group: P -1
;
_chemical_formula_sum "Si O2"
_cell_formula_units_Z 14
_cell_length_a 8.616950
_cell_length_b 9.218489
_cell_length_c 12.485580
_cell_angle_alpha 93.654863
_cell_angle_beta 118.558898
_cell_angle_gamma 48.226359
_cell_volume 598.529010
_symmetry_space_group_name_H-M "P -1"
_symmetry_group_IT_number 2
_symmetry_cell_setting 'triclinic'
loop_
_space_group_symop_operation_xyz
x,y,z
-x,-y,-z
loop_
_atom_site_type_symbol
_atom_site_label
_atom_site_fract_x
_atom_site_fract_y
_atom_site_fract_z
Si Si1 0.796261 0.275136 0.073724
Si Si2 0.320816 0.082199 0.543854
Si Si3 0.610581 0.800246 0.224616
Si Si4 0.328919 0.743736 0.553026
Si Si5 0.107419 0.662726 0.316486
Si Si6 0.893745 0.885064 0.034058
Si Si7 0.798128 0.384399 0.304418
O O1 0.912146 0.244439 0.226824
O O2 0.868087 0.068760 0.060700
O O3 0.500000 0.500000 0.000000
O O4 0.935170 0.271158 0.018954
O O5 0.468335 0.081428 0.684009
O O6 0.038882 0.316431 0.439583
O O7 0.500000 0.000000 0.500000
O O8 0.254487 0.955896 0.551305
O O9 0.592476 0.634770 0.220619
O O10 0.899705 0.673203 0.289974
O O11 0.403167 0.984690 0.079263
O O12 0.125674 0.795587 0.403449
O O13 0.615463 0.576088 0.592579
O O14 0.334706 0.655784 0.664461
O O15 0.027894 0.733692 0.171820
#
# Coordination Sequence:
#
# PCOD8033039 Si02
#       7
#     2   2   2   2   2   2   2
#     4  11  23  44  72 104 141 188 246 289 355 425
#     4  12  26  43  68 106 143 185 239 300 362 424
#     4  12  26  45  69 107 147 187 236 297 369 421
#     4  11  26  45  74 104 137 189 246 294 358 427
#     4  11  25  46  71 100 145 187 241 299 356 429
#     4  11  25  45  72 107 145 191 237 297 360 430
#     4  12  24  45  74 102 143 187 240 299 354 431
#
# _framework density 23.390678999999999
#
# number of rings (size 3 to 8) (size 9 to 14) (size 15 to 20)
#    0.000    0.571    2.857    4.714    8.000    0.000 
#    0.000    1.429    0.000    0.000    0.000    0.000 
#    0.000    0.000    0.000    0.000    0.000    0.000 
#
# Total GULP energy -173496.672513 kJ/mol
# GULP energy per Si atom -12392.619465 kJ/mol
# Density = 2.333744 g / cm^3
# Si number density = 23.390679 Si / 1000 Ang^3
#
#
#
# Elastic Constant Matrix: (Units=GPa)
#
#
# Indices 1 2 3 4 5 6 
#
# 1 111.1265 30.5786 38.3189 4.8578 -15.0587 -8.0440
# 2 30.5786 89.1305 33.4265 13.5174 -1.8873 -9.1358
# 3 38.3189 33.4265 145.4745 15.1908 -10.0491 -3.4620
# 4 4.8578 13.5174 15.1908 46.3157 -11.1718 1.0346
# 5 -15.0587 -1.8873 -10.0491 -11.1718 37.9205 -0.8845
# 6 -8.0440 -9.1358 -3.4620 1.0346 -0.8845 26.6626
#
#
#
# Elastic Compliance Matrix: (Units=1/GPa)
#
#
# Indices 1 2 3 4 5 6 
#
# 1 0.011192 -0.002954 -0.002067 0.001328 0.004192 0.002184
# 2 -0.002954 0.013901 -0.002089 -0.003631 -0.002019 0.003675
# 3 -0.002067 -0.002089 0.008117 -0.001654 0.000734 -0.000197
# 4 0.001328 -0.003631 -0.001654 0.024826 0.007181 -0.001783
# 5 0.004192 -0.002019 0.000734 0.007181 0.030278 0.001394
# 6 0.002184 0.003675 -0.000197 -0.001783 0.001394 0.039514
#
#
# Mechanical properties :
#
#
# Convention : Reuss Voigt Hill
#
# Bulk Modulus (GPa) = 52.65370 61.15329 56.90350
# Shear Modulus (GPa) = 33.69807 38.40692 36.05249
#
# Velocity S-wave (km/s) = 3.79972 4.05653 3.93022
# Velocity P-wave (km/s) = 6.46606 6.93841 6.70640
#
# Compressibility (1/GPa) = 0.01899202
#
# Stress axis : x y z
#
# Youngs Moduli (GPa) = 89.34808 71.93829 123.19529
#
# Poissons Ratio (x) = 0.21248 0.25459
# Poissons Ratio (y) = 0.26390 0.25734
# Poissons Ratio (z) = 0.18465 0.15027
#
# Static dielectric constant tensor:
#      x y z
#    x 4.310860 -0.243090 -0.161370 
#    y -0.243090 4.154870 0.201900 
#    z -0.161370 0.201900 4.989380 
# 
# 
# High freq. dielectric constant tensor:
#      x y z
#    x 1.920580 -0.020020 -0.000320 
#    y -0.020020 1.922310 0.001350 
#    z -0.000320 0.001350 1.946450 
# 
# From -- ./inp_files/352450.got.cif
#   From: 2010.06.25/outbox.cif.g09.slc.cpg/sg2_177_cif.got.tgz:352450.got - 2010.06.27 13:26:56.
