data_PCOD8033832
_publ_section_title
;
Structure prediction by ZEFSAII (Michael W. Deem and Ramdas Pophale) SiO2 
 PCOD8033832
Probable space group: P -1
;
_chemical_formula_sum "Si O2"
_cell_formula_units_Z 16
_cell_length_a 9.171274
_cell_length_b 17.335835
_cell_length_c 6.427427
_cell_angle_alpha 99.935762
_cell_angle_beta 100.130431
_cell_angle_gamma 48.020964
_cell_volume 745.724703
_symmetry_space_group_name_H-M "P -1"
_symmetry_group_IT_number 2
_symmetry_cell_setting 'triclinic'
loop_
_space_group_symop_operation_xyz
x,y,z
-x,-y,-z
loop_
_atom_site_type_symbol
_atom_site_label
_atom_site_fract_x
_atom_site_fract_y
_atom_site_fract_z
Si Si1 0.880556 0.545421 0.278561
Si Si2 0.670041 0.387655 0.572494
Si Si3 0.567924 0.018039 0.316520
Si Si4 0.817260 0.842383 0.990146
Si Si5 0.947054 0.386450 0.939603
Si Si6 0.557867 0.289201 0.771342
Si Si7 0.192099 0.768853 0.808020
Si Si8 0.217028 0.896432 0.543268
O O1 0.667040 0.661000 0.277961
O O2 0.000000 0.500000 0.500000
O O3 0.002185 0.560655 0.173026
O O4 0.859715 0.462627 0.153498
O O5 0.500000 0.500000 0.500000
O O6 0.793242 0.385346 0.783481
O O7 0.557925 0.355736 0.631305
O O8 0.801924 0.309240 0.377644
O O9 0.633993 0.084291 0.381455
O O10 0.500000 0.000000 0.500000
O O11 0.755903 0.904914 0.220633
O O12 0.376459 0.086661 0.160514
O O13 0.876584 0.731562 0.996327
O O14 0.991174 0.831684 0.919333
O O15 0.709490 0.170021 0.680732
O O16 0.620910 0.296606 0.019573
O O17 0.209021 0.843088 0.717576
O O18 0.000000 0.000000 0.500000
#
# Coordination Sequence:
#
# PCOD8033832 Si02
#       8
#     2   2   2   2   2   2   2   2
#     4  11  27  44  67 100 139 183 224 282 344 402
#     4  11  24  42  69 100 134 180 227 281 335 400
#     4  11  27  45  71 101 138 176 230 279 344 407
#     4  11  26  44  70 103 131 182 228 282 341 407
#     4  11  26  43  69  99 138 174 232 277 339 410
#     4  11  25  42  68 103 134 181 229 274 345 404
#     4  11  25  44  71  99 141 175 230 281 343 403
#     4  11  26  44  70 101 140 179 225 284 341 406
#
# _framework density 21.455639999999999
#
# number of rings (size 3 to 8) (size 9 to 14) (size 15 to 20)
#    0.000    1.000    1.250    3.000   12.250    6.000 
#    0.000    0.000    0.000    0.000    0.000    0.000 
#    0.000    0.000    0.000    0.000    0.000    0.000 
#
# Total GULP energy -198344.034225 kJ/mol
# GULP energy per Si atom -12396.502139 kJ/mol
# Density = 2.140681 g / cm^3
# Si number density = 21.455640 Si / 1000 Ang^3
#
#
#
# Elastic Constant Matrix: (Units=GPa)
#
#
# Indices 1 2 3 4 5 6 
#
# 1 96.4091 29.6933 38.4633 7.5763 -2.7302 0.4453
# 2 29.6933 134.0441 52.8558 1.2292 -3.6970 -0.1792
# 3 38.4633 52.8558 127.9644 9.6525 0.4326 -5.1043
# 4 7.5763 1.2292 9.6525 32.0495 -2.4782 6.5099
# 5 -2.7302 -3.6970 0.4326 -2.4782 34.5483 -6.9470
# 6 0.4453 -0.1792 -5.1043 6.5099 -6.9470 43.0386
#
#
#
# Elastic Compliance Matrix: (Units=1/GPa)
#
#
# Indices 1 2 3 4 5 6 
#
# 1 0.012161 -0.001517 -0.002893 -0.001876 0.000684 -0.000081
# 2 -0.001517 0.009166 -0.003438 0.001192 0.000912 -0.000387
# 3 -0.002893 -0.003438 0.010370 -0.002669 -0.000606 0.001551
# 4 -0.001876 0.001192 -0.002669 0.033555 0.001385 -0.005144
# 5 0.000684 0.000912 -0.000606 0.001385 0.030124 0.004578
# 6 -0.000081 -0.000387 0.001551 -0.005144 0.004578 0.024935
#
#
# Mechanical properties :
#
#
# Convention : Reuss Voigt Hill
#
# Bulk Modulus (GPa) = 62.50021 66.71580 64.60801
# Shear Modulus (GPa) = 35.37547 37.75431 36.56489
#
# Velocity S-wave (km/s) = 4.06491 4.19936 4.13268
# Velocity P-wave (km/s) = 7.15713 7.39426 7.27666
#
# Compressibility (1/GPa) = 0.01599995
#
# Stress axis : x y z
#
# Youngs Moduli (GPa) = 82.23010 109.10102 96.43560
#
# Poissons Ratio (x) = 0.16554 0.27895
# Poissons Ratio (y) = 0.12477 0.33157
# Poissons Ratio (z) = 0.23786 0.37512
#
# Static dielectric constant tensor:
#      x y z
#    x 3.963330 0.074680 -0.232850 
#    y 0.074680 4.337460 0.482080 
#    z -0.232850 0.482080 4.437470 
# 
# 
# High freq. dielectric constant tensor:
#      x y z
#    x 1.849920 0.000850 -0.002010 
#    y 0.000850 1.856310 -0.001470 
#    z -0.002010 -0.001470 1.855670 
# 
# From -- ./inp_files/48356.got.cif
#   From: 2010.06.25/outbox.cif.g09.slc.cpg/sg2_25_cif.got.tgz:48356.got - 2010.06.27 13:26:56.
