data_PCOD8033165
_publ_section_title
;
Structure prediction by ZEFSAII (Michael W. Deem and Ramdas Pophale) SiO2 
 PCOD8033165
Probable space group: P -1
;
_chemical_formula_sum "Si O2"
_cell_formula_units_Z 16
_cell_length_a 6.786493
_cell_length_b 19.771095
_cell_length_c 10.685579
_cell_angle_alpha 31.767099
_cell_angle_beta 95.736044
_cell_angle_gamma 92.371960
_cell_volume 748.440422
_symmetry_space_group_name_H-M "P -1"
_symmetry_group_IT_number 2
_symmetry_cell_setting 'triclinic'
loop_
_space_group_symop_operation_xyz
x,y,z
-x,-y,-z
loop_
_atom_site_type_symbol
_atom_site_label
_atom_site_fract_x
_atom_site_fract_y
_atom_site_fract_z
Si Si1 0.394335 0.738932 0.796468
Si Si2 0.592352 0.577931 0.272413
Si Si3 0.557530 0.849744 0.219080
Si Si4 0.901997 0.370214 0.211127
Si Si5 0.245151 0.183508 0.456070
Si Si6 0.163910 0.224565 0.878367
Si Si7 0.061773 0.975619 0.403082
Si Si8 0.789302 0.331866 0.542924
O O1 0.315736 0.633142 0.861140
O O2 0.603949 0.786684 0.690888
O O3 0.237436 0.862066 0.592843
O O4 0.425542 0.668899 0.043384
O O5 0.500000 0.500000 0.500000
O O6 0.744259 0.668238 0.201307
O O7 0.697297 0.476125 0.341079
O O8 0.655389 0.796515 0.436306
O O9 0.709520 0.823922 0.157004
O O10 0.368726 0.773559 0.297484
O O11 0.500000 0.000000 0.000000
O O12 0.892029 0.329250 0.418715
O O13 0.049303 0.278532 0.281443
O O14 0.000000 0.500000 0.000000
O O15 0.145368 0.048049 0.645720
O O16 0.950509 0.288416 0.725024
O O17 0.149533 0.099817 0.157224
O O18 0.000000 0.000000 0.500000
#
# Coordination Sequence:
#
# PCOD8033165 Si02
#       8
#     2   2   2   2   2   2   2   2
#     4  11  26  47  72 103 147 182 243 297 354 428
#     4  12  28  47  72 102 144 197 239 290 357 428
#     4  12  25  42  74 107 144 187 235 295 360 424
#     4  11  25  41  72 103 138 186 230 293 354 419
#     4  11  23  45  67 106 139 179 238 288 362 419
#     4  12  27  48  73 106 149 189 240 298 356 430
#     4  11  27  46  74 105 140 193 240 298 357 419
#     4  12  26  47  73 107 146 190 237 296 363 426
#
# _framework density 21.377789
#
# number of rings (size 3 to 8) (size 9 to 14) (size 15 to 20)
#    0.000    0.500    3.750    3.375    7.000    6.000 
#    0.000    0.000    0.000    0.000    0.000    0.000 
#    0.000    0.000    0.000    0.000    0.000    0.000 
#
# Total GULP energy -198375.259897 kJ/mol
# GULP energy per Si atom -12398.453744 kJ/mol
# Density = 2.132913 g / cm^3
# Si number density = 21.377789 Si / 1000 Ang^3
#
#
#
# Elastic Constant Matrix: (Units=GPa)
#
#
# Indices 1 2 3 4 5 6 
#
# 1 122.0985 49.8024 63.4818 -1.6288 -10.8991 16.8519
# 2 49.8024 111.3138 46.5231 -3.3275 -8.7631 19.1621
# 3 63.4818 46.5231 143.4384 7.3017 -17.3399 19.3874
# 4 -1.6288 -3.3275 7.3017 46.5016 4.0335 -6.2258
# 5 -10.8991 -8.7631 -17.3399 4.0335 38.9579 2.9297
# 6 16.8519 19.1621 19.3874 -6.2258 2.9297 50.5771
#
#
#
# Elastic Compliance Matrix: (Units=1/GPa)
#
#
# Indices 1 2 3 4 5 6 
#
# 1 0.011848 -0.003383 -0.003919 0.000563 0.000837 -0.001143
# 2 -0.003383 0.011837 -0.001896 0.000589 0.001008 -0.002616
# 3 -0.003919 -0.001896 0.010188 -0.002491 0.003449 -0.002387
# 4 0.000563 0.000589 -0.002491 0.022730 -0.003439 0.003542
# 5 0.000837 0.001008 0.003449 -0.003439 0.028325 -0.004047
# 6 -0.001143 -0.002616 -0.002387 0.003542 -0.004047 0.022729
#
#
# Mechanical properties :
#
#
# Convention : Reuss Voigt Hill
#
# Bulk Modulus (GPa) = 64.62120 77.38504 71.00312
# Shear Modulus (GPa) = 38.10594 41.67688 39.89141
#
# Velocity S-wave (km/s) = 4.22655 4.42015 4.32443
# Velocity P-wave (km/s) = 7.35609 7.89479 7.63020
#
# Compressibility (1/GPa) = 0.01547480
#
# Stress axis : x y z
#
# Youngs Moduli (GPa) = 84.40465 84.47875 98.15801
#
# Poissons Ratio (x) = 0.28582 0.38469
# Poissons Ratio (y) = 0.28557 0.18615
# Poissons Ratio (z) = 0.33079 0.16021
#
# Static dielectric constant tensor:
#      x y z
#    x 3.475130 -0.635720 0.356120 
#    y -0.635720 3.070350 0.441780 
#    z 0.356120 0.441780 3.624670 
# 
# 
# High freq. dielectric constant tensor:
#      x y z
#    x 1.855110 0.008910 -0.007940 
#    y 0.008910 1.856150 -0.003280 
#    z -0.007940 -0.003280 1.846650 
# 
# From -- ./inp_files/70758.got.cif
#   From: 2010.06.25/outbox.cif.g09.slc.cpg/sg2_36_cif.got.tgz:70758.got - 2010.06.27 13:26:56.
