data_PCOD8033780
_publ_section_title
;
Structure prediction by ZEFSAII (Michael W. Deem and Ramdas Pophale) SiO2 
 PCOD8033780
Probable space group: P -1
;
_chemical_formula_sum "Si O2"
_cell_formula_units_Z 16
_cell_length_a 9.800768
_cell_length_b 11.799460
_cell_length_c 8.664009
_cell_angle_alpha 90.496736
_cell_angle_beta 81.989710
_cell_angle_gamma 49.632073
_cell_volume 749.403439
_symmetry_space_group_name_H-M "P -1"
_symmetry_group_IT_number 2
_symmetry_cell_setting 'triclinic'
loop_
_space_group_symop_operation_xyz
x,y,z
-x,-y,-z
loop_
_atom_site_type_symbol
_atom_site_label
_atom_site_fract_x
_atom_site_fract_y
_atom_site_fract_z
Si Si1 0.235578 0.359459 0.055932
Si Si2 0.954346 0.904332 0.068437
Si Si3 0.919325 0.368618 0.121749
Si Si4 0.596137 0.057710 0.933843
Si Si5 0.663830 0.921367 0.595160
Si Si6 0.802535 0.597953 0.607327
Si Si7 0.000951 0.875559 0.421477
Si Si8 0.293411 0.569483 0.530464
O O1 0.188189 0.454616 0.219976
O O2 0.133786 0.291017 0.097587
O O3 0.170908 0.467052 0.921303
O O4 0.451061 0.235868 0.988634
O O5 0.969693 0.908439 0.247227
O O6 0.094535 0.730190 0.992704
O O7 0.760189 0.985140 0.024647
O O8 0.000000 0.000000 0.000000
O O9 0.822961 0.375176 0.292128
O O10 0.633505 0.023303 0.744813
O O11 0.500000 0.000000 0.000000
O O12 0.700783 0.772592 0.636873
O O13 0.840716 0.877367 0.489919
O O14 0.500000 0.000000 0.500000
O O15 0.685891 0.570227 0.531841
O O16 0.000000 0.500000 0.500000
O O17 0.188508 0.710646 0.432649
O O18 0.000000 0.000000 0.500000
O O19 0.500000 0.500000 0.500000
#
# Coordination Sequence:
#
# PCOD8033780 Si02
#       8
#     2   2   2   2   2   2   2   2
#     4  11  24  41  75 103 143 180 241 297 348 423
#     4  12  26  46  73  99 146 190 233 293 363 430
#     4  11  24  44  69 106 137 188 233 296 362 418
#     4  12  23  45  68 107 142 183 241 290 349 426
#     4  12  27  42  74 109 145 187 240 296 355 430
#     4  12  23  45  69 102 144 185 237 291 357 422
#     4  12  27  48  70 104 144 188 237 295 363 427
#     4  12  28  47  71 101 146 188 239 298 364 433
#
# _framework density 21.350313
#
# number of rings (size 3 to 8) (size 9 to 14) (size 15 to 20)
#    0.000    0.250    5.000    3.750    3.500    2.000 
#    0.000    1.875    0.000    0.000    0.000    0.000 
#    0.000    0.000    0.000    0.000    0.000    0.000 
#
# Total GULP energy -198232.088099 kJ/mol
# GULP energy per Si atom -12389.505506 kJ/mol
# Density = 2.130172 g / cm^3
# Si number density = 21.350313 Si / 1000 Ang^3
#
#
#
# Elastic Constant Matrix: (Units=GPa)
#
#
# Indices 1 2 3 4 5 6 
#
# 1 151.3833 57.9271 52.8114 -5.4154 10.6625 -2.5080
# 2 57.9271 107.1883 49.8711 0.8335 6.3398 -10.5526
# 3 52.8114 49.8711 161.3471 -2.3994 20.2701 -7.3063
# 4 -5.4154 0.8335 -2.3994 36.4038 3.6718 7.3302
# 5 10.6625 6.3398 20.2701 3.6718 40.2866 -0.6606
# 6 -2.5080 -10.5526 -7.3063 7.3302 -0.6606 43.7967
#
#
#
# Elastic Compliance Matrix: (Units=1/GPa)
#
#
# Indices 1 2 3 4 5 6 
#
# 1 0.008824 -0.004120 -0.001499 0.001625 -0.001098 -0.001026
# 2 -0.004120 0.013042 -0.002655 -0.001699 0.000574 0.002757
# 3 -0.001499 -0.002655 0.007944 0.000596 -0.003229 0.000451
# 4 0.001625 -0.001699 0.000596 0.029149 -0.003204 -0.005144
# 5 -0.001098 0.000574 -0.003229 -0.003204 0.026947 0.000479
# 6 -0.001026 0.002757 0.000451 -0.005144 0.000479 0.024382
#
#
# Mechanical properties :
#
#
# Convention : Reuss Voigt Hill
#
# Bulk Modulus (GPa) = 75.40629 82.34865 78.87747
# Shear Modulus (GPa) = 38.09364 41.38470 39.73917
#
# Velocity S-wave (km/s) = 4.22858 4.40746 4.31895
# Velocity P-wave (km/s) = 7.69652 8.03461 7.86738
#
# Compressibility (1/GPa) = 0.01326149
#
# Stress axis : x y z
#
# Youngs Moduli (GPa) = 113.33225 76.67648 125.87762
#
# Poissons Ratio (x) = 0.31589 0.18871
# Poissons Ratio (y) = 0.46690 0.33423
# Poissons Ratio (z) = 0.16990 0.20359
#
# Static dielectric constant tensor:
#      x y z
#    x 3.910970 -0.254880 0.072500 
#    y -0.254880 2.933670 -0.407270 
#    z 0.072500 -0.407270 3.782750 
# 
# 
# High freq. dielectric constant tensor:
#      x y z
#    x 1.841660 0.003710 0.005110 
#    y 0.003710 1.848110 -0.001190 
#    z 0.005110 -0.001190 1.854470 
# 
# From -- ./inp_files/187480.got.cif
#   From: 2010.06.25/outbox.cif.g09.slc.cpg/sg2_94_cif.got.tgz:187480.got - 2010.06.27 13:26:56.
