data_PCOD8033959
_publ_section_title
;
Structure prediction by ZEFSAII (Michael W. Deem and Ramdas Pophale) SiO2 
 PCOD8033959
Probable space group: P -1
;
_chemical_formula_sum "Si O2"
_cell_formula_units_Z 16
_cell_length_a 6.728897
_cell_length_b 17.832639
_cell_length_c 9.360201
_cell_angle_alpha 76.128778
_cell_angle_beta 50.117793
_cell_angle_gamma 59.488916
_cell_volume 736.254581
_symmetry_space_group_name_H-M "P -1"
_symmetry_group_IT_number 2
_symmetry_cell_setting 'triclinic'
loop_
_space_group_symop_operation_xyz
x,y,z
-x,-y,-z
loop_
_atom_site_type_symbol
_atom_site_label
_atom_site_fract_x
_atom_site_fract_y
_atom_site_fract_z
Si Si1 0.606515 0.342406 0.300144
Si Si2 0.726043 0.486065 0.782628
Si Si3 0.673131 0.555754 0.371077
Si Si4 0.154539 0.047784 0.984232
Si Si5 0.662658 0.229306 0.059796
Si Si6 0.272247 0.668929 0.282829
Si Si7 0.826643 0.960188 0.686572
Si Si8 0.082942 0.226084 0.327635
O O1 0.471907 0.445285 0.277763
O O2 0.429981 0.355675 0.523582
O O3 0.546273 0.296875 0.214544
O O4 0.944382 0.289876 0.223488
O O5 0.868370 0.387784 0.698128
O O6 0.980454 0.504439 0.726684
O O7 0.500000 0.500000 0.000000
O O8 0.500000 0.500000 0.500000
O O9 0.593974 0.599039 0.229705
O O10 0.138810 0.030016 0.166185
O O11 0.983814 0.151225 0.982491
O O12 0.480533 0.013040 0.786787
O O13 0.000000 0.000000 0.000000
O O14 0.430451 0.192781 0.170854
O O15 0.679417 0.273333 0.884985
O O16 0.047289 0.728180 0.481749
O O17 0.966722 0.858344 0.625311
O O18 0.000000 0.000000 0.500000
#
# Coordination Sequence:
#
# PCOD8033959 Si02
#       8
#     2   2   2   2   2   2   2   2
#     4  11  24  43  67  95 141 183 226 285 344 400
#     4  12  25  42  67 101 137 184 239 284 344 404
#     4  11  25  44  68  95 137 185 236 288 343 409
#     4  11  25  48  72 105 140 182 226 285 352 421
#     4  12  25  45  72 101 143 181 232 291 347 410
#     4  11  27  42  68 105 137 188 237 287 344 415
#     4  11  26  48  75 105 144 181 227 285 354 425
#     4  11  26  46  69 105 139 180 232 290 348 413
#
# _framework density 21.731611999999998
#
# number of rings (size 3 to 8) (size 9 to 14) (size 15 to 20)
#    0.000    0.750    5.000    1.125    7.000    2.000 
#    4.500    0.000    0.000    0.000    0.000    0.000 
#    0.000    0.000    0.000    0.000    0.000    0.000 
#
# Total GULP energy -198250.998208 kJ/mol
# GULP energy per Si atom -12390.687388 kJ/mol
# Density = 2.168215 g / cm^3
# Si number density = 21.731612 Si / 1000 Ang^3
#
#
#
# Elastic Constant Matrix: (Units=GPa)
#
#
# Indices 1 2 3 4 5 6 
#
# 1 128.0979 50.0409 78.3750 -3.2723 -8.2840 -6.9772
# 2 50.0409 111.7747 53.8009 -2.2696 -10.6359 -7.2800
# 3 78.3750 53.8009 107.8245 -12.0268 -10.4375 -1.7702
# 4 -3.2723 -2.2696 -12.0268 36.6857 -1.8485 5.0251
# 5 -8.2840 -10.6359 -10.4375 -1.8485 31.6352 1.4314
# 6 -6.9772 -7.2800 -1.7702 5.0251 1.4314 43.3073
#
#
#
# Elastic Compliance Matrix: (Units=1/GPa)
#
#
# Indices 1 2 3 4 5 6 
#
# 1 0.014650 -0.001652 -0.010085 -0.002383 -0.000274 0.001956
# 2 -0.001652 0.012286 -0.004835 -0.001102 0.001963 0.001665
# 3 -0.010085 -0.004835 0.019889 0.005787 0.002742 -0.002387
# 4 -0.002383 -0.001102 0.005787 0.029545 0.002816 -0.003854
# 5 -0.000274 0.001963 0.002742 0.002816 0.033314 -0.001030
# 6 0.001956 0.001665 -0.002387 -0.003854 -0.001030 0.024069
#
#
# Mechanical properties :
#
#
# Convention : Reuss Voigt Hill
#
# Bulk Modulus (GPa) = 73.09093 79.12565 76.10829
# Shear Modulus (GPa) = 29.16164 33.35765 31.25964
#
# Velocity S-wave (km/s) = 3.66717 3.92214 3.79679
# Velocity P-wave (km/s) = 7.18591 7.54985 7.37013
#
# Compressibility (1/GPa) = 0.01368159
#
# Stress axis : x y z
#
# Youngs Moduli (GPa) = 68.25965 81.39139 50.27858
#
# Poissons Ratio (x) = 0.13443 0.50705
# Poissons Ratio (y) = 0.11274 0.24312
# Poissons Ratio (z) = 0.68839 0.39357
#
# Static dielectric constant tensor:
#      x y z
#    x 3.363230 -0.060560 -0.060410 
#    y -0.060560 4.108250 0.254090 
#    z -0.060410 0.254090 3.758060 
# 
# 
# High freq. dielectric constant tensor:
#      x y z
#    x 1.869450 -0.008240 0.020510 
#    y -0.008240 1.859120 0.012520 
#    z 0.020510 0.012520 1.847920 
# 
# From -- ./inp_files/138933.got.cif
#   From: 2010.06.25/outbox.cif.g09.slc.cpg/sg2_70_cif.got.tgz:138933.got - 2010.06.27 13:26:56.
