data_PCOD8033205
_publ_section_title
;
Structure prediction by ZEFSAII (Michael W. Deem and Ramdas Pophale) SiO2 
 PCOD8033205
Probable space group: P -1
;
_chemical_formula_sum "Si O2"
_cell_formula_units_Z 16
_cell_length_a 15.220572
_cell_length_b 16.007294
_cell_length_c 9.128381
_cell_angle_alpha 80.338361
_cell_angle_beta 100.427870
_cell_angle_gamma 28.955621
_cell_volume 771.386407
_symmetry_space_group_name_H-M "P -1"
_symmetry_group_IT_number 2
_symmetry_cell_setting 'triclinic'
loop_
_space_group_symop_operation_xyz
x,y,z
-x,-y,-z
loop_
_atom_site_type_symbol
_atom_site_label
_atom_site_fract_x
_atom_site_fract_y
_atom_site_fract_z
Si Si1 0.522278 0.245986 0.422944
Si Si2 0.607645 0.981911 0.447418
Si Si3 0.554406 0.039331 0.082066
Si Si4 0.936450 0.964157 0.828098
Si Si5 0.150745 0.951975 0.889862
Si Si6 0.835062 0.480557 0.267143
Si Si7 0.059716 0.685350 0.349917
Si Si8 0.373856 0.461202 0.025982
O O1 0.556066 0.115034 0.477264
O O2 0.256037 0.506692 0.331306
O O3 0.527078 0.274516 0.250170
O O4 0.748279 0.091006 0.618734
O O5 0.483681 0.095193 0.215781
O O6 0.500000 0.000000 0.500000
O O7 0.902119 0.704009 0.604270
O O8 0.387871 0.255801 0.886418
O O9 0.841227 0.811676 0.213691
O O10 0.500000 0.000000 0.000000
O O11 0.959623 0.043873 0.780326
O O12 0.214737 0.678779 0.982127
O O13 0.825867 0.046667 0.931769
O O14 0.423198 0.686257 0.987515
O O15 0.047038 0.125527 0.722691
O O16 0.803817 0.457197 0.415474
O O17 0.822763 0.426733 0.144337
#
# Coordination Sequence:
#
# PCOD8033205 Si02
#       8
#     2   2   2   2   2   2   2   2
#     4  12  25  43  67 100 132 173 227 270 334 399
#     4  11  26  42  65  99 132 169 223 275 328 398
#     4  11  26  44  66  97 129 175 222 269 335 398
#     4  11  26  45  68 100 136 177 221 278 334 397
#     4  11  24  47  67 100 138 173 226 275 333 398
#     4  11  23  45  69  90 137 175 216 277 331 394
#     4  11  25  43  68  98 132 177 220 275 331 400
#     4  12  22  46  69  98 132 179 224 272 335 393
#
# _framework density 20.741873999999999
#
# number of rings (size 3 to 8) (size 9 to 14) (size 15 to 20)
#    0.000    0.750    5.000    1.875    3.500    3.500 
#    2.250    0.000    0.000    0.000    0.000    0.000 
#    0.000    0.000    0.000    0.000    0.000    0.000 
#
# Total GULP energy -198498.783839 kJ/mol
# GULP energy per Si atom -12406.173990 kJ/mol
# Density = 2.069466 g / cm^3
# Si number density = 20.741874 Si / 1000 Ang^3
#
#
#
# Elastic Constant Matrix: (Units=GPa)
#
#
# Indices 1 2 3 4 5 6 
#
# 1 123.3174 38.4538 59.6749 11.8278 0.4166 6.3934
# 2 38.4538 112.8842 36.7549 3.1811 2.0771 -13.2505
# 3 59.6749 36.7549 129.4822 11.8466 -2.4909 1.5681
# 4 11.8278 3.1811 11.8466 32.6875 0.6385 3.5379
# 5 0.4166 2.0771 -2.4909 0.6385 27.6077 6.1283
# 6 6.3934 -13.2505 1.5681 3.5379 6.1283 39.9563
#
#
#
# Elastic Compliance Matrix: (Units=1/GPa)
#
#
# Indices 1 2 3 4 5 6 
#
# 1 0.011319 -0.002707 -0.004227 -0.002045 0.000231 -0.002397
# 2 -0.002707 0.010975 -0.001976 0.000186 -0.001952 0.004433
# 3 -0.004227 -0.001976 0.010449 -0.002046 0.001293 -0.000406
# 4 -0.002045 0.000186 -0.002046 0.032316 -0.000398 -0.002331
# 5 0.000231 -0.001952 0.001293 -0.000398 0.037938 -0.006518
# 6 -0.002397 0.004433 -0.000406 -0.002331 -0.006518 0.028103
#
#
# Mechanical properties :
#
#
# Convention : Reuss Voigt Hill
#
# Bulk Modulus (GPa) = 67.01546 70.60567 68.81057
# Shear Modulus (GPa) = 32.48942 35.43697 33.96319
#
# Velocity S-wave (km/s) = 3.96203 4.13785 4.05090
# Velocity P-wave (km/s) = 7.30135 7.54607 7.42472
#
# Compressibility (1/GPa) = 0.01492193
#
# Stress axis : x y z
#
# Youngs Moduli (GPa) = 88.34905 91.11365 95.70024
#
# Poissons Ratio (x) = 0.24667 0.40457
# Poissons Ratio (y) = 0.23919 0.18910
# Poissons Ratio (z) = 0.37349 0.18004
#
# Static dielectric constant tensor:
#      x y z
#    x 4.068710 0.147910 -0.084530 
#    y 0.147910 3.886950 0.029900 
#    z -0.084530 0.029900 3.804930 
# 
# 
# High freq. dielectric constant tensor:
#      x y z
#    x 1.816400 -0.000640 -0.001570 
#    y -0.000640 1.821790 0.001270 
#    z -0.001570 0.001270 1.818770 
# 
# From -- ./inp_files/46510.got.cif
#   From: 2010.06.25/outbox.cif.g09.slc.cpg/sg2_24_cif.got.tgz:46510.got - 2010.06.27 13:26:56.
