data_PCOD8033282
_publ_section_title
;
Structure prediction by ZEFSAII (Michael W. Deem and Ramdas Pophale) SiO2 
 PCOD8033282
Probable space group: P -1
;
_chemical_formula_sum "Si O2"
_cell_formula_units_Z 16
_cell_length_a 11.388979
_cell_length_b 17.199162
_cell_length_c 9.001748
_cell_angle_alpha 47.983396
_cell_angle_beta 98.805074
_cell_angle_gamma 134.543414
_cell_volume 748.617486
_symmetry_space_group_name_H-M "P -1"
_symmetry_group_IT_number 2
_symmetry_cell_setting 'triclinic'
loop_
_space_group_symop_operation_xyz
x,y,z
-x,-y,-z
loop_
_atom_site_type_symbol
_atom_site_label
_atom_site_fract_x
_atom_site_fract_y
_atom_site_fract_z
Si Si1 0.879724 0.127371 0.421315
Si Si2 0.556215 0.802396 0.287727
Si Si3 0.673776 0.652967 0.453245
Si Si4 0.858323 0.464025 0.627928
Si Si5 0.665813 0.549661 0.890168
Si Si6 0.077117 0.836014 0.271919
Si Si7 0.497222 0.787320 0.634006
Si Si8 0.188896 0.685541 0.884276
O O1 0.846994 0.101384 0.624389
O O2 0.838684 0.211115 0.236238
O O3 0.108644 0.253851 0.262513
O O4 0.725408 0.936211 0.554956
O O5 0.651711 0.754946 0.377537
O O6 0.349842 0.649760 0.347146
O O7 0.502968 0.808060 0.432524
O O8 0.724260 0.001580 0.998254
O O9 0.500000 0.500000 0.500000
O O10 0.645494 0.548648 0.712037
O O11 0.902964 0.798204 0.247413
O O12 0.000000 0.500000 0.500000
O O13 0.988470 0.657686 0.454479
O O14 0.793051 0.349383 0.903694
O O15 0.500000 0.500000 0.000000
O O16 0.640723 0.411063 0.100284
O O17 0.392989 0.811169 0.665121
O O18 0.000000 0.500000 0.000000
#
# Coordination Sequence:
#
# PCOD8033282 Si02
#       8
#     2   2   2   2   2   2   2   2
#     4  11  26  44  71  97 134 179 226 276 335 397
#     4  12  27  44  68 103 138 174 225 281 335 402
#     4  11  23  45  72  96 134 181 219 276 344 395
#     4  12  27  45  71 101 137 179 224 278 336 399
#     4  11  24  45  68  98 133 174 228 277 327 400
#     4  11  25  46  68 101 135 177 225 275 339 402
#     4  12  26  44  70 100 136 179 226 277 336 395
#     4  12  22  47  73  95 135 182 225 276 336 397
#
# _framework density 21.372731000000002
#
# number of rings (size 3 to 8) (size 9 to 14) (size 15 to 20)
#    0.000    0.500    5.000    3.000    3.500    2.000 
#    0.000    0.000    0.000    0.000    0.000    0.000 
#    0.000    0.000    0.000    0.000    0.000    0.000 
#
# Total GULP energy -198480.133570 kJ/mol
# GULP energy per Si atom -12405.008348 kJ/mol
# Density = 2.132409 g / cm^3
# Si number density = 21.372731 Si / 1000 Ang^3
#
#
#
# Elastic Constant Matrix: (Units=GPa)
#
#
# Indices 1 2 3 4 5 6 
#
# 1 83.4135 -0.0720 19.3439 14.6447 -15.2804 4.9952
# 2 -0.0720 120.3465 38.4148 6.3919 -8.6327 13.3824
# 3 19.3439 38.4148 121.4592 11.9534 -13.5388 8.2025
# 4 14.6447 6.3919 11.9534 34.1729 4.1485 -4.0461
# 5 -15.2804 -8.6327 -13.5388 4.1485 31.6761 2.4780
# 6 4.9952 13.3824 8.2025 -4.0461 2.4780 32.2645
#
#
#
# Elastic Compliance Matrix: (Units=1/GPa)
#
#
# Indices 1 2 3 4 5 6 
#
# 1 0.015644 0.001939 -0.000937 -0.008412 0.009148 -0.004745
# 2 0.001939 0.009989 -0.002538 -0.002729 0.003274 -0.004392
# 3 -0.000937 -0.002538 0.010074 -0.003350 0.003763 -0.002073
# 4 -0.008412 -0.002729 -0.003350 0.037025 -0.011773 0.008833
# 5 0.009148 0.003274 0.003763 -0.011773 0.040676 -0.008331
# 6 -0.004745 -0.004392 -0.002073 0.008833 -0.008331 0.035824
#
#
# Mechanical properties :
#
#
# Convention : Reuss Voigt Hill
#
# Bulk Modulus (GPa) = 30.64144 48.95473 39.79808
# Shear Modulus (GPa) = 30.64042 37.45820 34.04931
#
# Velocity S-wave (km/s) = 3.79043 4.19097 3.99572
# Velocity P-wave (km/s) = 5.79002 6.80984 6.32053
#
# Compressibility (1/GPa) = 0.03263554
#
# Stress axis : x y z
#
# Youngs Moduli (GPa) = 63.92188 100.11264 99.26320
#
# Poissons Ratio (x) = -0.19412 0.09299
# Poissons Ratio (y) = -0.12395 0.25193
# Poissons Ratio (z) = 0.05988 0.25408
#
# Static dielectric constant tensor:
#      x y z
#    x 4.214260 0.167940 -0.160310 
#    y 0.167940 3.779340 0.086430 
#    z -0.160310 0.086430 3.959800 
# 
# 
# High freq. dielectric constant tensor:
#      x y z
#    x 1.846480 0.010800 -0.007620 
#    y 0.010800 1.847280 -0.002170 
#    z -0.007620 -0.002170 1.848480 
# 
# From -- ./inp_files/279066.got.cif
#   From: 2010.06.25/outbox.cif.g09.slc.cpg/sg2_140_cif.got.tgz:279066.got - 2010.06.27 13:26:56.
