data_PCOD8033208
_publ_section_title
;
Structure prediction by ZEFSAII (Michael W. Deem and Ramdas Pophale) SiO2 
 PCOD8033208
Probable space group: P -1
;
_chemical_formula_sum "Si O2"
_cell_formula_units_Z 16
_cell_length_a 11.587114
_cell_length_b 14.957633
_cell_length_c 14.641454
_cell_angle_alpha 149.800178
_cell_angle_beta 139.269421
_cell_angle_gamma 59.777444
_cell_volume 738.754414
_symmetry_space_group_name_H-M "P -1"
_symmetry_group_IT_number 2
_symmetry_cell_setting 'triclinic'
loop_
_space_group_symop_operation_xyz
x,y,z
-x,-y,-z
loop_
_atom_site_type_symbol
_atom_site_label
_atom_site_fract_x
_atom_site_fract_y
_atom_site_fract_z
Si Si1 0.498401 0.429257 0.538585
Si Si2 0.727843 0.093123 0.695829
Si Si3 0.508464 0.453758 0.167196
Si Si4 0.429963 0.020535 0.688574
Si Si5 0.191228 0.021221 0.073966
Si Si6 0.173870 0.470158 0.863766
Si Si7 0.854731 0.770292 0.544679
Si Si8 0.853230 0.345182 0.700899
O O1 0.500000 0.500000 0.500000
O O2 0.510536 0.573583 0.758489
O O3 0.302287 0.222963 0.259897
O O4 0.707993 0.432933 0.665559
O O5 0.500000 0.000000 0.500000
O O6 0.728688 0.076852 0.573368
O O7 0.831510 0.972552 0.698097
O O8 0.831341 0.326802 0.993154
O O9 0.719034 0.640140 0.432334
O O10 0.489130 0.251766 0.934707
O O11 0.348976 0.515075 0.081339
O O12 0.638642 0.006311 0.790976
O O13 0.289046 0.888261 0.568196
O O14 0.000000 0.000000 0.000000
O O15 0.084879 0.843807 0.777818
O O16 0.203016 0.358998 0.695708
O O17 0.968826 0.330460 0.667949
O O18 0.000000 0.500000 0.000000
#
# Coordination Sequence:
#
# PCOD8033208 Si02
#       8
#     2   2   2   2   2   2   2   2
#     4  11  26  46  71  99 143 190 234 290 355 423
#     4  12  22  40  71 102 139 180 231 291 354 412
#     4  12  23  47  70 104 147 178 234 307 350 410
#     4  11  25  43  69 101 142 187 229 292 361 414
#     4  11  24  48  70  99 145 189 234 290 357 422
#     4  12  24  43  72 107 142 180 239 295 351 420
#     4  12  26  43  72 110 138 181 242 292 354 420
#     4  11  23  45  69  97 139 188 234 283 353 419
#
# _framework density 21.658076000000001
#
# number of rings (size 3 to 8) (size 9 to 14) (size 15 to 20)
#    0.000    0.500    6.250    2.625    1.750    3.000 
#    0.000    2.500    0.000    0.000    0.000    0.000 
#    0.000    0.000    0.000    0.000    0.000    0.000 
#
# Total GULP energy -198241.368624 kJ/mol
# GULP energy per Si atom -12390.085539 kJ/mol
# Density = 2.160878 g / cm^3
# Si number density = 21.658076 Si / 1000 Ang^3
#
#
#
# Elastic Constant Matrix: (Units=GPa)
#
#
# Indices 1 2 3 4 5 6 
#
# 1 106.9318 31.8384 19.7454 -0.9108 8.1176 9.6394
# 2 31.8384 99.0396 41.9898 13.7791 0.5753 5.7823
# 3 19.7454 41.9898 95.8820 -1.1861 9.1482 -6.9531
# 4 -0.9108 13.7791 -1.1861 39.2401 -2.4172 -7.9688
# 5 8.1176 0.5753 9.1482 -2.4172 42.7049 -5.2267
# 6 9.6394 5.7823 -6.9531 -7.9688 -5.2267 28.4963
#
#
#
# Elastic Compliance Matrix: (Units=1/GPa)
#
#
# Indices 1 2 3 4 5 6 
#
# 1 0.010906 -0.002894 -0.001026 0.000356 -0.002243 -0.003664
# 2 -0.002894 0.015016 -0.006519 -0.006584 0.000715 -0.005369
# 3 -0.001026 -0.006519 0.014139 0.003767 -0.001818 0.005840
# 4 0.000356 -0.006584 0.003767 0.030297 0.002278 0.011025
# 5 -0.002243 0.000715 -0.001818 0.002278 0.025012 0.005395
# 6 -0.003664 -0.005369 0.005840 0.011025 0.005395 0.042919
#
#
# Mechanical properties :
#
#
# Convention : Reuss Voigt Hill
#
# Bulk Modulus (GPa) = 52.12625 54.33338 53.22982
# Shear Modulus (GPa) = 30.20004 35.97358 33.08681
#
# Velocity S-wave (km/s) = 3.73822 4.07993 3.91281
# Velocity P-wave (km/s) = 6.53853 6.88010 6.71149
#
# Compressibility (1/GPa) = 0.01918419
#
# Stress axis : x y z
#
# Youngs Moduli (GPa) = 91.68932 66.59395 70.72463
#
# Poissons Ratio (x) = 0.19269 0.07258
# Poissons Ratio (y) = 0.26531 0.46107
# Poissons Ratio (z) = 0.09409 0.43414
#
# Static dielectric constant tensor:
#      x y z
#    x 4.051920 0.188490 0.056140 
#    y 0.188490 4.194960 -0.186280 
#    z 0.056140 -0.186280 4.053210 
# 
# 
# High freq. dielectric constant tensor:
#      x y z
#    x 1.856320 0.008540 0.007590 
#    y 0.008540 1.847160 -0.003560 
#    z 0.007590 -0.003560 1.862000 
# 
# From -- ./inp_files/522704.got.cif
#   From: 2010.06.25/outbox.cif.g09.slc.cpg/sg2_262_cif.got.tgz:522704.got - 2010.06.27 13:26:56.
