data_PCOD8033016
_publ_section_title
;
Structure prediction by ZEFSAII (Michael W. Deem and Ramdas Pophale) SiO2 
 PCOD8033016
Probable space group: P -1
;
_chemical_formula_sum "Si O2"
_cell_formula_units_Z 14
_cell_length_a 9.145785
_cell_length_b 11.794355
_cell_length_c 14.817872
_cell_angle_alpha 150.647008
_cell_angle_beta 126.245800
_cell_angle_gamma 62.881057
_cell_volume 624.692238
_symmetry_space_group_name_H-M "P -1"
_symmetry_group_IT_number 2
_symmetry_cell_setting 'triclinic'
loop_
_space_group_symop_operation_xyz
x,y,z
-x,-y,-z
loop_
_atom_site_type_symbol
_atom_site_label
_atom_site_fract_x
_atom_site_fract_y
_atom_site_fract_z
Si Si1 0.202859 0.570321 0.967367
Si Si2 0.441318 0.896110 0.651178
Si Si3 0.327383 0.868248 0.791033
Si Si4 0.948785 0.008362 0.743498
Si Si5 0.540667 0.445528 0.097812
Si Si6 0.903910 0.173608 0.642664
Si Si7 0.304369 0.403170 0.557934
O O1 0.264174 0.468570 0.822954
O O2 0.035032 0.420336 0.854505
O O3 0.135398 0.819958 0.098805
O O4 0.384912 0.594894 0.113153
O O5 0.377687 0.809601 0.667060
O O6 0.291383 0.808990 0.460169
O O7 0.612745 0.770045 0.599952
O O8 0.485678 0.175544 0.862085
O O9 0.246005 0.619380 0.632203
O O10 0.169000 0.033488 0.847512
O O11 0.500000 0.000000 0.000000
O O12 0.881342 0.083062 0.673320
O O13 0.868288 0.742474 0.555049
O O14 0.554436 0.480563 0.233630
O O15 0.000000 0.000000 0.500000
#
# Coordination Sequence:
#
# PCOD8033016 Si02
#       7
#     2   2   2   2   2   2   2
#     4  11  24  42  70 110 144 182 228 293 356 423
#     4  12  25  48  73 105 140 183 235 288 359 413
#     4  12  27  49  71  99 143 190 239 293 336 413
#     4  12  26  46  72 106 141 186 238 283 357 417
#     4  11  23  44  71 107 149 175 229 292 354 422
#     4  12  23  41  72 104 140 179 223 294 357 409
#     4  12  27  47  72 102 139 195 232 286 349 416
#
# _framework density 22.411037
#
# number of rings (size 3 to 8) (size 9 to 14) (size 15 to 20)
#    0.000    0.286    5.714    3.000    4.000    1.143 
#    0.000    1.429    0.000    0.000    0.000    0.000 
#    0.000    0.000    0.000    0.000    0.000    0.000 
#
# Total GULP energy -173593.513532 kJ/mol
# GULP energy per Si atom -12399.536681 kJ/mol
# Density = 2.236003 g / cm^3
# Si number density = 22.411037 Si / 1000 Ang^3
#
#
#
# Elastic Constant Matrix: (Units=GPa)
#
#
# Indices 1 2 3 4 5 6 
#
# 1 101.7418 49.4007 44.6518 -3.2815 -1.0026 0.8285
# 2 49.4007 118.6040 43.3197 -4.3104 -1.3595 10.8247
# 3 44.6518 43.3197 77.2312 -0.3757 5.0466 -3.5018
# 4 -3.2815 -4.3104 -0.3757 37.2915 3.6491 4.7543
# 5 -1.0026 -1.3595 5.0466 3.6491 36.6180 10.8382
# 6 0.8285 10.8247 -3.5018 4.7543 10.8382 44.7194
#
#
#
# Elastic Compliance Matrix: (Units=1/GPa)
#
#
# Indices 1 2 3 4 5 6 
#
# 1 0.014426 -0.003610 -0.006398 0.000707 0.001145 -0.000247
# 2 -0.003610 0.012221 -0.005076 0.001342 0.002086 -0.003937
# 3 -0.006398 -0.005076 0.019947 -0.001052 -0.004203 0.004040
# 4 0.000707 0.001342 -0.001052 0.027561 -0.001660 -0.002948
# 5 0.001145 0.002086 -0.004203 -0.001660 0.030555 -0.008084
# 6 -0.000247 -0.003937 0.004040 -0.002948 -0.008084 0.025908
#
#
# Mechanical properties :
#
#
# Convention : Reuss Voigt Hill
#
# Bulk Modulus (GPa) = 60.88065 63.59126 62.23596
# Shear Modulus (GPa) = 30.07311 34.40612 32.23962
#
# Velocity S-wave (km/s) = 3.66715 3.92245 3.79695
# Velocity P-wave (km/s) = 6.71976 6.99648 6.85952
#
# Compressibility (1/GPa) = 0.01642558
#
# Stress axis : x y z
#
# Youngs Moduli (GPa) = 69.32027 81.82532 50.13308
#
# Poissons Ratio (x) = 0.29542 0.32074
# Poissons Ratio (y) = 0.25028 0.25447
# Poissons Ratio (z) = 0.44350 0.41533
#
# Static dielectric constant tensor:
#      x y z
#    x 2.725200 -0.067590 -0.736250 
#    y -0.067590 4.018920 0.123200 
#    z -0.736250 0.123200 3.125210 
# 
# 
# High freq. dielectric constant tensor:
#      x y z
#    x 1.900140 0.006350 -0.000930 
#    y 0.006350 1.883170 0.012440 
#    z -0.000930 0.012440 1.875390 
# 
# From -- ./inp_files/185473.got.cif
#   From: 2010.06.25/outbox.cif.g09.slc.cpg/sg2_93_cif.got.tgz:185473.got - 2010.06.27 13:26:56.
