data_PCOD8033195
_publ_section_title
;
Structure prediction by ZEFSAII (Michael W. Deem and Ramdas Pophale) SiO2 
 PCOD8033195
Probable space group: P -1
;
_chemical_formula_sum "Si O2"
_cell_formula_units_Z 12
_cell_length_a 14.845876
_cell_length_b 10.013187
_cell_length_c 6.780489
_cell_angle_alpha 43.157249
_cell_angle_beta 103.856850
_cell_angle_gamma 124.809102
_cell_volume 537.248448
_symmetry_space_group_name_H-M "P -1"
_symmetry_group_IT_number 2
_symmetry_cell_setting 'triclinic'
loop_
_space_group_symop_operation_xyz
x,y,z
-x,-y,-z
loop_
_atom_site_type_symbol
_atom_site_label
_atom_site_fract_x
_atom_site_fract_y
_atom_site_fract_z
Si Si1 0.878867 0.399129 0.132154
Si Si2 0.117516 0.892544 0.198920
Si Si3 0.630335 0.150904 0.630305
Si Si4 0.443928 0.231206 0.336451
Si Si5 0.131651 0.343989 0.835969
Si Si6 0.716049 0.035090 0.131064
O O1 0.850844 0.228039 0.492003
O O2 0.882137 0.625717 0.970242
O O3 0.784745 0.274552 0.045619
O O4 0.000000 0.500000 0.000000
O O5 0.980898 0.714799 0.273932
O O6 0.194483 0.968283 0.958885
O O7 0.150967 0.140490 0.043371
O O8 0.541827 0.215081 0.494509
O O9 0.757879 0.399442 0.456722
O O10 0.621751 0.978113 0.638786
O O11 0.616061 0.018442 0.971493
O O12 0.354816 0.186946 0.509952
O O13 0.500000 0.500000 0.000000
#
# Coordination Sequence:
#
# PCOD8033195 Si02
#       6
#     2   2   2   2   2   2
#     4  12  23  43  71 102 142 185 227 281 346 415
#     4  11  25  44  67 110 142 181 230 280 345 421
#     4  11  25  47  71 103 138 182 233 290 348 410
#     4  11  27  49  71 101 136 181 241 293 342 408
#     4  11  23  45  69 101 147 179 225 286 341 416
#     4  12  23  46  73 100 140 186 229 285 351 410
#
# _framework density 22.336031999999999
#
# number of rings (size 3 to 8) (size 9 to 14) (size 15 to 20)
#    0.000    0.667    5.000    2.000    4.667    1.333 
#    9.000    0.000    0.000    0.000    0.000    0.000 
#    0.000    0.000    0.000    0.000    0.000    0.000 
#
# Total GULP energy -148707.326594 kJ/mol
# GULP energy per Si atom -12392.277216 kJ/mol
# Density = 2.228519 g / cm^3
# Si number density = 22.336032 Si / 1000 Ang^3
#
#
#
# Elastic Constant Matrix: (Units=GPa)
#
#
# Indices 1 2 3 4 5 6 
#
# 1 91.6904 74.8709 50.2331 2.4030 -13.5806 -7.3968
# 2 74.8709 156.3735 68.1853 5.0116 4.2959 -12.7125
# 3 50.2331 68.1853 102.6564 6.2700 -20.7460 1.0753
# 4 2.4030 5.0116 6.2700 37.7195 1.5330 -0.8172
# 5 -13.5806 4.2959 -20.7460 1.5330 40.9210 5.3144
# 6 -7.3968 -12.7125 1.0753 -0.8172 5.3144 46.5556
#
#
#
# Elastic Compliance Matrix: (Units=1/GPa)
#
#
# Indices 1 2 3 4 5 6 
#
# 1 0.020608 -0.008666 -0.003098 0.000110 0.006138 0.000281
# 2 -0.008666 0.014011 -0.006786 0.000231 -0.008257 0.003552
# 3 -0.003098 -0.006786 0.017829 -0.002327 0.009312 -0.003861
# 4 0.000110 0.000231 -0.002327 0.026973 -0.002291 0.000869
# 5 0.006138 -0.008257 0.009312 -0.002291 0.032834 -0.005283
# 6 0.000281 0.003552 -0.003861 0.000869 -0.005283 0.023202
#
#
# Mechanical properties :
#
#
# Convention : Reuss Voigt Hill
#
# Bulk Modulus (GPa) = 65.14883 81.92207 73.53545
# Shear Modulus (GPa) = 28.14171 35.53461 31.83816
#
# Velocity S-wave (km/s) = 3.55339 3.99295 3.77957
# Velocity P-wave (km/s) = 6.78722 7.61675 7.21392
#
# Compressibility (1/GPa) = 0.01534947
#
# Stress axis : x y z
#
# Youngs Moduli (GPa) = 48.52380 71.37080 56.08941
#
# Poissons Ratio (x) = 0.61849 0.17374
# Poissons Ratio (y) = 0.42050 0.38062
# Poissons Ratio (z) = 0.15031 0.48432
#
# Static dielectric constant tensor:
#      x y z
#    x 4.563370 -0.091300 -0.120240 
#    y -0.091300 4.681130 0.092820 
#    z -0.120240 0.092820 3.959170 
# 
# 
# High freq. dielectric constant tensor:
#      x y z
#    x 1.894930 0.006810 -0.012910 
#    y 0.006810 1.899500 0.009340 
#    z -0.012910 0.009340 1.864340 
# 
# From -- ./inp_files/86891.got.cif
#   From: 2010.06.25/outbox.cif.g09.slc.cpg/sg2_44_cif.got.tgz:86891.got - 2010.06.27 13:26:56.
