data_PCOD8033970
_publ_section_title
;
Structure prediction by ZEFSAII (Michael W. Deem and Ramdas Pophale) SiO2 
 PCOD8033970
Probable space group: P -1
;
_chemical_formula_sum "Si O2"
_cell_formula_units_Z 14
_cell_length_a 9.313570
_cell_length_b 12.680488
_cell_length_c 9.186865
_cell_angle_alpha 50.245654
_cell_angle_beta 133.579775
_cell_angle_gamma 124.537918
_cell_volume 588.555973
_symmetry_space_group_name_H-M "P -1"
_symmetry_group_IT_number 2
_symmetry_cell_setting 'triclinic'
loop_
_space_group_symop_operation_xyz
x,y,z
-x,-y,-z
loop_
_atom_site_type_symbol
_atom_site_label
_atom_site_fract_x
_atom_site_fract_y
_atom_site_fract_z
Si Si1 0.622717 0.299987 0.218210
Si Si2 0.577696 0.218700 0.801613
Si Si3 0.001303 0.666350 0.369681
Si Si4 0.297551 0.159356 0.913746
Si Si5 0.235994 0.522085 0.117428
Si Si6 0.947673 0.132344 0.040349
Si Si7 0.637383 0.737360 0.660150
O O1 0.819167 0.258327 0.462767
O O2 0.487493 0.340849 0.219598
O O3 0.480543 0.168518 0.149948
O O4 0.702604 0.424647 0.050255
O O5 0.387559 0.139923 0.835285
O O6 0.639279 0.379395 0.758441
O O7 0.773699 0.150509 0.018129
O O8 0.512262 0.198122 0.604521
O O9 0.033199 0.737487 0.171673
O O10 0.000000 0.500000 0.500000
O O11 0.792741 0.699071 0.260798
O O12 0.119599 0.021838 0.945140
O O13 0.289053 0.371501 0.298677
O O14 0.000000 0.500000 0.000000
O O15 0.165976 0.143439 0.258992
#
# Coordination Sequence:
#
# PCOD8033970 Si02
#       7
#     2   2   2   2   2   2   2
#     4  11  26  43  70 100 140 186 232 283 351 416
#     4  11  26  44  69 104 137 186 237 287 348 417
#     4  12  27  43  73 106 136 180 240 290 344 415
#     4  11  28  47  71 102 145 185 232 291 350 411
#     4  11  24  43  68 102 146 181 232 294 352 406
#     4  12  25  48  71 103 144 186 234 287 346 424
#     4  12  24  42  70 101 142 185 230 289 351 413
#
# _framework density 23.787032
#
# number of rings (size 3 to 8) (size 9 to 14) (size 15 to 20)
#    0.000    0.571    4.286    2.571    6.000    2.286 
#    0.000    0.000    0.000    0.000    0.000    0.000 
#    0.000    0.000    0.000    0.000    0.000    0.000 
#
# Total GULP energy -173553.610832 kJ/mol
# GULP energy per Si atom -12396.686488 kJ/mol
# Density = 2.373289 g / cm^3
# Si number density = 23.787032 Si / 1000 Ang^3
#
#
#
# Elastic Constant Matrix: (Units=GPa)
#
#
# Indices 1 2 3 4 5 6 
#
# 1 156.4226 19.2317 38.4992 4.3690 2.2526 10.7410
# 2 19.2317 107.1585 38.9432 19.2812 -6.0403 20.5622
# 3 38.4992 38.9432 98.7545 38.3690 -0.7318 7.7904
# 4 4.3690 19.2812 38.3690 41.3432 2.3985 7.8622
# 5 2.2526 -6.0403 -0.7318 2.3985 33.1512 5.1933
# 6 10.7410 20.5622 7.7904 7.8622 5.1933 30.0047
#
#
#
# Elastic Compliance Matrix: (Units=1/GPa)
#
#
# Indices 1 2 3 4 5 6 
#
# 1 0.007475 -0.000058 -0.004062 0.003494 -0.000483 -0.002413
# 2 -0.000058 0.012687 -0.003968 -0.000909 0.003550 -0.008020
# 3 -0.004062 -0.003968 0.019379 -0.016374 0.000645 0.003321
# 4 0.003494 -0.000909 -0.016374 0.040852 -0.002683 -0.006617
# 5 -0.000483 0.003550 0.000645 -0.002683 0.032196 -0.007297
# 6 -0.002413 -0.008020 0.003321 -0.006617 -0.007297 0.041822
#
#
# Mechanical properties :
#
#
# Convention : Reuss Voigt Hill
#
# Bulk Modulus (GPa) = 42.80025 61.74264 52.27144
# Shear Modulus (GPa) = 28.03068 38.61060 33.32064
#
# Velocity S-wave (km/s) = 3.43651 4.03324 3.74677
# Velocity P-wave (km/s) = 5.81191 6.90667 6.38281
#
# Compressibility (1/GPa) = 0.02336435
#
# Stress axis : x y z
#
# Youngs Moduli (GPa) = 133.78191 78.82068 51.60234
#
# Poissons Ratio (x) = 0.00459 0.20959
# Poissons Ratio (y) = 0.00779 0.20478
# Poissons Ratio (z) = 0.54338 0.31279
#
# Static dielectric constant tensor:
#      x y z
#    x 4.483510 0.126630 0.134150 
#    y 0.126630 4.165680 0.269940 
#    z 0.134150 0.269940 4.213830 
# 
# 
# High freq. dielectric constant tensor:
#      x y z
#    x 1.964230 0.004660 0.010770 
#    y 0.004660 1.935160 0.023600 
#    z 0.010770 0.023600 1.928300 
# 
# From -- ./inp_files/184628.got.cif
#   From: 2010.06.25/outbox.cif.g09.slc.cpg/sg2_93_cif.got.tgz:184628.got - 2010.06.27 13:26:56.
