data_PCOD8033892
_publ_section_title
;
Structure prediction by ZEFSAII (Michael W. Deem and Ramdas Pophale) SiO2 
 PCOD8033892
Probable space group: P -1
;
_chemical_formula_sum "Si O2"
_cell_formula_units_Z 16
_cell_length_a 8.738152
_cell_length_b 9.216148
_cell_length_c 12.406411
_cell_angle_alpha 131.169200
_cell_angle_beta 84.552518
_cell_angle_gamma 107.789662
_cell_volume 708.237710
_symmetry_space_group_name_H-M "P -1"
_symmetry_group_IT_number 2
_symmetry_cell_setting 'triclinic'
loop_
_space_group_symop_operation_xyz
x,y,z
-x,-y,-z
loop_
_atom_site_type_symbol
_atom_site_label
_atom_site_fract_x
_atom_site_fract_y
_atom_site_fract_z
Si Si1 0.863380 0.797450 0.878496
Si Si2 0.622235 0.403688 0.283127
Si Si3 0.576347 0.809402 0.507371
Si Si4 0.361565 0.642957 0.985824
Si Si5 0.738829 0.062408 0.420451
Si Si6 0.994605 0.527965 0.386667
Si Si7 0.706511 0.751277 0.094911
Si Si8 0.664485 0.939190 0.788169
O O1 0.930975 0.616007 0.757123
O O2 0.770741 0.834708 0.797915
O O3 0.750552 0.747978 0.966101
O O4 0.000000 0.000000 0.000000
O O5 0.542564 0.569918 0.410437
O O6 0.526918 0.183327 0.234181
O O7 0.810875 0.475153 0.334450
O O8 0.587777 0.392491 0.153921
O O9 0.401389 0.837849 0.540177
O O10 0.693908 0.926710 0.653128
O O11 0.675061 0.887812 0.429376
O O12 0.513561 0.712839 0.092071
O O13 0.280826 0.821068 0.070946
O O14 0.243922 0.429091 0.937016
O O15 0.901746 0.238216 0.533624
O O16 0.783867 0.961721 0.258986
O O17 0.000000 0.500000 0.500000
#
# Coordination Sequence:
#
# PCOD8033892 Si02
#       8
#     2   2   2   2   2   2   2   2
#     4  12  27  46  72 105 142 186 231 287 356 415
#     4  12  24  45  68 105 138 181 237 288 343 414
#     4  11  24  42  72 105 138 182 234 282 349 417
#     4  11  24  42  73 103 136 183 231 291 345 410
#     4  11  24  45  71 103 144 185 229 285 354 417
#     4  12  27  45  71 101 145 186 229 286 358 412
#     4  11  24  46  71 102 144 180 232 286 354 408
#     4  12  24  43  73 103 139 177 240 288 339 416
#
# _framework density 22.591284999999999
#
# number of rings (size 3 to 8) (size 9 to 14) (size 15 to 20)
#    0.000    0.500    3.750    4.500    3.500    0.500 
#    2.250    1.250    0.000    0.000    0.000    0.000 
#    0.000    0.000    0.000    0.000    0.000    0.000 
#
# Total GULP energy -198406.419042 kJ/mol
# GULP energy per Si atom -12400.401190 kJ/mol
# Density = 2.253987 g / cm^3
# Si number density = 22.591285 Si / 1000 Ang^3
#
#
#
# Elastic Constant Matrix: (Units=GPa)
#
#
# Indices 1 2 3 4 5 6 
#
# 1 68.4597 25.9834 49.0620 7.7076 6.9965 -14.3202
# 2 25.9834 71.5093 22.6974 5.6398 0.7049 -21.4228
# 3 49.0620 22.6974 122.8320 10.2789 1.7494 -9.2383
# 4 7.7076 5.6398 10.2789 50.3635 -0.3082 -1.3016
# 5 6.9965 0.7049 1.7494 -0.3082 35.0545 7.2965
# 6 -14.3202 -21.4228 -9.2383 -1.3016 7.2965 21.6063
#
#
#
# Elastic Compliance Matrix: (Units=1/GPa)
#
#
# Indices 1 2 3 4 5 6 
#
# 1 0.025200 -0.002352 -0.008405 -0.001583 -0.007314 0.013151
# 2 -0.002352 0.021577 -0.001331 -0.001278 -0.004198 0.020606
# 3 -0.008405 -0.001331 0.011613 -0.000990 0.001645 -0.002540
# 4 -0.001583 -0.001278 -0.000990 0.020402 0.000952 -0.001832
# 5 -0.007314 -0.004198 0.001645 0.000952 0.034112 -0.019769
# 6 0.013151 0.020606 -0.002540 -0.001832 -0.019769 0.080910
#
#
# Mechanical properties :
#
#
# Convention : Reuss Voigt Hill
#
# Bulk Modulus (GPa) = 29.22882 50.92073 40.07477
# Shear Modulus (GPa) = 21.79656 32.40874 27.10265
#
# Velocity S-wave (km/s) = 3.10953 3.79168 3.46742
# Velocity P-wave (km/s) = 5.08511 6.46204 5.81448
#
# Compressibility (1/GPa) = 0.03421281
#
# Stress axis : x y z
#
# Youngs Moduli (GPa) = 39.68263 46.34619 86.11227
#
# Poissons Ratio (x) = 0.10901 0.72379
# Poissons Ratio (y) = 0.09334 0.11462
# Poissons Ratio (z) = 0.33354 0.06169
#
# Static dielectric constant tensor:
#      x y z
#    x 3.601900 -0.368260 0.475310 
#    y -0.368260 3.812680 0.506480 
#    z 0.475310 0.506480 3.828880 
# 
# 
# High freq. dielectric constant tensor:
#      x y z
#    x 1.866770 -0.008430 0.003810 
#    y -0.008430 1.902090 0.001600 
#    z 0.003810 0.001600 1.915740 
# 
# From -- ./inp_files/184103.got.cif
#   From: 2010.06.25/outbox.cif.g09.slc.cpg/sg2_93_cif.got.tgz:184103.got - 2010.06.27 13:26:56.
