data_PCOD8033586
_publ_section_title
;
Structure prediction by ZEFSAII (Michael W. Deem and Ramdas Pophale) SiO2 
 PCOD8033586
Probable space group: P -1
;
_chemical_formula_sum "Si O2"
_cell_formula_units_Z 16
_cell_length_a 8.800435
_cell_length_b 12.943059
_cell_length_c 9.257753
_cell_angle_alpha 126.601400
_cell_angle_beta 121.734425
_cell_angle_gamma 71.722832
_cell_volume 719.991687
_symmetry_space_group_name_H-M "P -1"
_symmetry_group_IT_number 2
_symmetry_cell_setting 'triclinic'
loop_
_space_group_symop_operation_xyz
x,y,z
-x,-y,-z
loop_
_atom_site_type_symbol
_atom_site_label
_atom_site_fract_x
_atom_site_fract_y
_atom_site_fract_z
Si Si1 0.699371 0.306172 0.991069
Si Si2 0.500000 0.084877 0.216137
Si Si3 0.803493 0.456620 0.907271
Si Si4 0.500000 0.373374 0.488011
Si Si5 0.815909 0.973277 0.463824
Si Si6 0.300629 0.306172 0.791698
Si Si7 0.803493 0.543380 0.396221
Si Si8 0.184091 0.973277 0.147915
O O1 0.690972 0.413866 0.201146
O O2 0.826808 0.361860 0.976437
O O3 0.500000 0.283292 0.810762
O O4 0.776615 0.175941 0.985418
O O5 0.500000 0.234874 0.291820
O O6 0.669360 0.058750 0.381153
O O7 0.330640 0.058750 0.211792
O O8 0.500000 0.000000 0.000000
O O9 0.688366 0.375892 0.668816
O O10 0.690972 0.586134 0.989826
O O11 0.000000 0.500000 0.000000
O O12 0.500000 0.500000 0.500000
O O13 0.311634 0.375892 0.480450
O O14 0.776615 0.824058 0.291197
O O15 0.820261 1.000000 0.660130
O O16 0.000000 0.000000 0.500000
O O17 0.173192 0.361860 0.649629
O O18 0.000000 0.500000 0.500000
O O19 0.000000 0.000000 0.000000
#
# Coordination Sequence:
#
# PCOD8033586 Si02
#       8
#     2   2   2   2   2   2   2   2
#     4  11  23  47  75  97 143 194 245 304 371 447
#     4  12  29  51  75 113 156 202 256 317 380 456
#     4  11  25  44  71 107 141 188 248 303 368 449
#     4  12  28  44  73 102 151 190 242 305 379 446
#     4  12  28  48  77 109 150 200 255 314 383 459
#     4  11  23  47  75  97 143 194 245 304 371 447
#     4  11  25  44  71 107 141 188 248 303 368 449
#     4  12  28  48  77 109 150 200 255 314 383 459
#
# _framework density 22.222479
#
# number of rings (size 3 to 8) (size 9 to 14) (size 15 to 20)
#    0.000    0.500    3.750    3.375   14.000    0.000 
#    0.000    0.000    0.000    0.000    0.000    0.000 
#    0.000    0.000    0.000    0.000    0.000    0.000 
#
# Total GULP energy -198351.116357 kJ/mol
# GULP energy per Si atom -12396.944772 kJ/mol
# Density = 2.217190 g / cm^3
# Si number density = 22.222479 Si / 1000 Ang^3
#
#
#
# Elastic Constant Matrix: (Units=GPa)
#
#
# Indices 1 2 3 4 5 6 
#
# 1 159.3741 46.6565 51.0249 -8.1605 24.0139 2.6858
# 2 46.6565 175.4859 53.5384 17.5132 10.6807 -1.1023
# 3 51.0249 53.5384 113.5406 0.7360 -4.1465 -5.9676
# 4 -8.1605 17.5132 0.7360 47.2118 -7.2076 12.4018
# 5 24.0139 10.6807 -4.1465 -7.2076 41.6631 -4.5888
# 6 2.6858 -1.1023 -5.9676 12.4018 -4.5888 40.4454
#
#
#
# Elastic Compliance Matrix: (Units=1/GPa)
#
#
# Indices 1 2 3 4 5 6 
#
# 1 0.008657 -0.001056 -0.003707 0.001773 -0.005031 -0.002265
# 2 -0.001056 0.007366 -0.003021 -0.003349 -0.002092 0.000615
# 3 -0.003707 -0.003021 0.012182 0.000349 0.004444 0.002358
# 4 0.001773 -0.003349 0.000349 0.025215 0.003407 -0.007503
# 5 -0.005031 -0.002092 0.004444 0.003407 0.028818 0.003158
# 6 -0.002265 0.000615 0.002358 -0.007503 0.003158 0.027899
#
#
# Mechanical properties :
#
#
# Convention : Reuss Voigt Hill
#
# Bulk Modulus (GPa) = 79.13057 83.42668 81.27862
# Shear Modulus (GPa) = 38.48556 45.67611 42.08084
#
# Velocity S-wave (km/s) = 4.16604 4.53857 4.35629
# Velocity P-wave (km/s) = 7.66987 8.06771 7.87130
#
# Compressibility (1/GPa) = 0.01263734
#
# Stress axis : x y z
#
# Youngs Moduli (GPa) = 115.50701 135.75219 82.08752
#
# Poissons Ratio (x) = 0.14331 0.30431
# Poissons Ratio (y) = 0.12194 0.24803
# Poissons Ratio (z) = 0.42820 0.41017
#
# Static dielectric constant tensor:
#      x y z
#    x 3.901190 0.030770 -0.133410 
#    y 0.030770 4.203370 0.162620 
#    z -0.133410 0.162620 4.190740 
# 
# 
# High freq. dielectric constant tensor:
#      x y z
#    x 1.879400 -0.001210 0.007000 
#    y -0.001210 1.893320 0.008420 
#    z 0.007000 0.008420 1.874170 
# 
# From -- ./inp_files/182847.got.cif
#   From: 2010.06.25/outbox.cif.g09.slc.cpg/sg2_92_cif.got.tgz:182847.got - 2010.06.27 13:26:56.
