data_PCOD8033394
_publ_section_title
;
Structure prediction by ZEFSAII (Michael W. Deem and Ramdas Pophale) SiO2 
 PCOD8033394
Probable space group: P -1
;
_chemical_formula_sum "Si O2"
_cell_formula_units_Z 16
_cell_length_a 5.600471
_cell_length_b 11.866518
_cell_length_c 23.511971
_cell_angle_alpha 148.765655
_cell_angle_beta 58.707619
_cell_angle_gamma 109.182202
_cell_volume 668.426360
_symmetry_space_group_name_H-M "P -1"
_symmetry_group_IT_number 2
_symmetry_cell_setting 'triclinic'
loop_
_space_group_symop_operation_xyz
x,y,z
-x,-y,-z
loop_
_atom_site_type_symbol
_atom_site_label
_atom_site_fract_x
_atom_site_fract_y
_atom_site_fract_z
Si Si1 0.494429 0.139961 0.117148
Si Si2 0.668680 0.746919 0.006301
Si Si3 0.160750 0.516980 0.770896
Si Si4 0.787910 0.849788 0.311390
Si Si5 0.887388 0.456062 0.340223
Si Si6 0.253725 0.978734 0.785709
Si Si7 0.874767 0.318993 0.906928
Si Si8 0.275692 0.074154 0.383529
O O1 0.765994 0.245257 0.125843
O O2 0.227514 0.354754 0.249858
O O3 0.483908 0.978536 0.101245
O O4 0.500000 0.000000 0.000000
O O5 0.466164 0.620385 0.011511
O O6 0.848876 0.834837 0.071186
O O7 0.834454 0.581604 0.864735
O O8 0.332922 0.298478 0.691067
O O9 0.209159 0.450024 0.670327
O O10 0.034825 0.677618 0.168818
O O11 0.503766 0.969477 0.361085
O O12 0.971651 0.001779 0.387151
O O13 0.731885 0.268870 0.299760
O O14 0.814090 0.658390 0.480928
O O15 0.569125 0.974975 0.718533
O O16 0.019459 0.063640 0.801487
O O17 0.000000 0.500000 0.000000
#
# Coordination Sequence:
#
# PCOD8033394 Si02
#       8
#     2   2   2   2   2   2   2   2
#     4  12  25  44  68 108 146 185 242 300 370 432
#     4  12  23  42  72 105 144 182 239 302 368 433
#     4  12  28  42  71 104 145 193 241 300 366 434
#     4  11  28  50  71 109 148 194 246 297 365 434
#     4  12  26  46  74 102 139 195 241 304 361 429
#     4  11  23  46  69 107 140 184 242 301 365 428
#     4  11  25  42  72 106 147 188 234 300 369 437
#     4  11  28  50  75 105 147 193 248 302 359 432
#
# _framework density 23.936816
#
# number of rings (size 3 to 8) (size 9 to 14) (size 15 to 20)
#    0.000    0.500    5.000    2.250    8.750    2.000 
#    0.000    2.500    0.000    0.000    0.000    0.000 
#    0.000    0.000    0.000    0.000    0.000    0.000 
#
# Total GULP energy -198305.447264 kJ/mol
# GULP energy per Si atom -12394.090454 kJ/mol
# Density = 2.388233 g / cm^3
# Si number density = 23.936816 Si / 1000 Ang^3
#
#
#
# Elastic Constant Matrix: (Units=GPa)
#
#
# Indices 1 2 3 4 5 6 
#
# 1 72.1326 12.3393 -3.3603 3.4446 11.3477 -3.2534
# 2 12.3393 135.2151 -0.4366 7.5641 6.7327 -12.2678
# 3 -3.3603 -0.4366 76.9078 -0.8678 10.0383 -1.3462
# 4 3.4446 7.5641 -0.8678 31.2264 2.5727 4.0854
# 5 11.3477 6.7327 10.0383 2.5727 36.8159 4.5940
# 6 -3.2534 -12.2678 -1.3462 4.0854 4.5940 33.9876
#
#
#
# Elastic Compliance Matrix: (Units=1/GPa)
#
#
# Indices 1 2 3 4 5 6 
#
# 1 0.015009 -0.000865 0.001323 -0.001260 -0.004991 0.002003
# 2 -0.000865 0.007966 0.000238 -0.002130 -0.001513 0.003262
# 3 0.001323 0.000238 0.013658 0.000365 -0.004363 0.001299
# 4 -0.001260 -0.002130 0.000365 0.033398 -0.001063 -0.004746
# 5 -0.004991 -0.001513 -0.004363 -0.001063 0.030896 -0.005245
# 6 0.002003 0.003262 0.001299 -0.004746 -0.005245 0.032123
#
#
# Mechanical properties :
#
#
# Convention : Reuss Voigt Hill
#
# Bulk Modulus (GPa) = 26.29823 33.48228 29.89025
# Shear Modulus (GPa) = 34.64269 38.78684 36.71477
#
# Velocity S-wave (km/s) = 3.80841 4.02977 3.92065
# Velocity P-wave (km/s) = 5.50899 5.97245 5.74540
#
# Compressibility (1/GPa) = 0.03802538
#
# Stress axis : x y z
#
# Youngs Moduli (GPa) = 66.62883 125.53673 73.21670
#
# Poissons Ratio (x) = 0.10854 -0.09687
# Poissons Ratio (y) = 0.05761 -0.01743
# Poissons Ratio (z) = -0.08815 -0.02988
#
# Static dielectric constant tensor:
#      x y z
#    x 4.190550 -0.314420 0.092270 
#    y -0.314420 5.182070 -0.061270 
#    z 0.092270 -0.061270 4.015230 
# 
# 
# High freq. dielectric constant tensor:
#      x y z
#    x 1.939380 -0.008240 -0.000840 
#    y -0.008240 1.976020 0.004370 
#    z -0.000840 0.004370 1.941890 
# 
# From -- ./inp_files/70704.got.cif
#   From: 2010.06.25/outbox.cif.g09.slc.cpg/sg2_36_cif.got.tgz:70704.got - 2010.06.27 13:26:56.
