data_PCOD8033762
_publ_section_title
;
Structure prediction by ZEFSAII (Michael W. Deem and Ramdas Pophale) SiO2 
 PCOD8033762
Probable space group: P -1
;
_chemical_formula_sum "Si O2"
_cell_formula_units_Z 14
_cell_length_a 11.789384
_cell_length_b 12.393236
_cell_length_c 5.280759
_cell_angle_alpha 83.896401
_cell_angle_beta 109.367289
_cell_angle_gamma 60.979795
_cell_volume 602.201368
_symmetry_space_group_name_H-M "P -1"
_symmetry_group_IT_number 2
_symmetry_cell_setting 'triclinic'
loop_
_space_group_symop_operation_xyz
x,y,z
-x,-y,-z
loop_
_atom_site_type_symbol
_atom_site_label
_atom_site_fract_x
_atom_site_fract_y
_atom_site_fract_z
Si Si1 0.706761 0.889091 0.835674
Si Si2 0.438167 0.421514 0.593841
Si Si3 0.065895 0.873681 0.917542
Si Si4 0.669721 0.241090 0.170975
Si Si5 0.889404 0.821423 0.489844
Si Si6 0.844384 0.334389 0.565975
Si Si7 0.481465 0.832818 0.586138
O O1 0.806952 0.818624 0.678141
O O2 0.617700 0.822511 0.824000
O O3 0.595354 0.044344 0.688211
O O4 0.788692 0.875583 0.157543
O O5 0.500000 0.500000 0.500000
O O6 0.264470 0.514078 0.480338
O O7 0.466386 0.302728 0.473954
O O8 0.516991 0.366634 0.934681
O O9 0.225505 0.832699 0.970379
O O10 0.957472 0.906240 0.590755
O O11 0.073399 0.755875 0.105826
O O12 0.000000 0.000000 0.000000
O O13 0.743728 0.288119 0.401556
O O14 0.638934 0.140497 0.302955
O O15 0.035935 0.682335 0.544549
#
# Coordination Sequence:
#
# PCOD8033762 Si02
#       7
#     2   2   2   2   2   2   2
#     4  11  28  51  73 107 145 197 248 296 358 433
#     4  12  24  43  69 108 149 184 244 300 372 430
#     4  11  25  41  72 112 145 189 238 306 371 432
#     4  11  24  41  71 106 149 188 239 307 368 429
#     4  11  26  47  75 100 151 189 241 301 360 437
#     4  11  24  43  67 109 146 188 235 302 370 437
#     4  11  28  44  75 105 143 193 245 304 358 434
#
# _framework density 23.248037
#
# number of rings (size 3 to 8) (size 9 to 14) (size 15 to 20)
#    0.000    0.857    4.286    0.429   10.000    2.286 
#    0.000    3.571    0.000    0.000    0.000    0.000 
#    0.000    0.000    0.000    0.000    0.000    0.000 
#
# Total GULP energy -173535.639691 kJ/mol
# GULP energy per Si atom -12395.402835 kJ/mol
# Density = 2.319512 g / cm^3
# Si number density = 23.248037 Si / 1000 Ang^3
#
#
#
# Elastic Constant Matrix: (Units=GPa)
#
#
# Indices 1 2 3 4 5 6 
#
# 1 107.9126 57.7775 36.6820 9.3217 8.6351 -12.7590
# 2 57.7775 136.8121 40.3291 4.8355 9.0387 -15.7691
# 3 36.6820 40.3291 137.6956 16.3730 20.5184 2.3228
# 4 9.3217 4.8355 16.3730 25.9858 -5.6073 -2.7338
# 5 8.6351 9.0387 20.5184 -5.6073 35.2189 3.1903
# 6 -12.7590 -15.7691 2.3228 -2.7338 3.1903 45.5416
#
#
#
# Elastic Compliance Matrix: (Units=1/GPa)
#
#
# Indices 1 2 3 4 5 6 
#
# 1 0.012842 -0.004518 -0.001516 -0.002976 -0.001766 0.002056
# 2 -0.004518 0.010025 -0.001834 0.001067 -0.000444 0.002394
# 3 -0.001516 -0.001834 0.009912 -0.006792 -0.005873 -0.001561
# 4 -0.002976 0.001067 -0.006792 0.046334 0.011622 0.001849
# 5 -0.001766 -0.000444 -0.005873 0.011622 0.034399 -0.002061
# 6 0.002056 0.002394 -0.001561 0.001849 -0.002061 0.023698
#
#
# Mechanical properties :
#
#
# Convention : Reuss Voigt Hill
#
# Bulk Modulus (GPa) = 58.66634 72.44417 65.55525
# Shear Modulus (GPa) = 31.52040 37.85804 34.68922
#
# Velocity S-wave (km/s) = 3.68616 4.03977 3.86701
# Velocity P-wave (km/s) = 6.58838 7.27934 6.94246
#
# Compressibility (1/GPa) = 0.01704555
#
# Stress axis : x y z
#
# Youngs Moduli (GPa) = 77.86731 99.74652 100.88492
#
# Poissons Ratio (x) = 0.45064 0.15290
# Poissons Ratio (y) = 0.35179 0.18500
# Poissons Ratio (z) = 0.11801 0.18292
#
# Static dielectric constant tensor:
#      x y z
#    x 4.676080 -0.366770 0.151210 
#    y -0.366770 4.209840 -0.002990 
#    z 0.151210 -0.002990 4.481850 
# 
# 
# High freq. dielectric constant tensor:
#      x y z
#    x 1.921800 -0.029560 0.013200 
#    y -0.029560 1.906300 0.012690 
#    z 0.013200 0.012690 1.926820 
# 
# From -- ./inp_files/70022.got.cif
#   From: 2010.06.25/outbox.cif.g09.slc.cpg/sg2_36_cif.got.tgz:70022.got - 2010.06.27 13:26:56.
