data_PCOD8033040
_publ_section_title
;
Structure prediction by ZEFSAII (Michael W. Deem and Ramdas Pophale) SiO2 
 PCOD8033040
Probable space group: P -1
;
_chemical_formula_sum "Si O2"
_cell_formula_units_Z 16
_cell_length_a 14.016960
_cell_length_b 8.138194
_cell_length_c 6.829642
_cell_angle_alpha 107.610047
_cell_angle_beta 102.900579
_cell_angle_gamma 97.864039
_cell_volume 706.095002
_symmetry_space_group_name_H-M "P -1"
_symmetry_group_IT_number 2
_symmetry_cell_setting 'triclinic'
loop_
_space_group_symop_operation_xyz
x,y,z
-x,-y,-z
loop_
_atom_site_type_symbol
_atom_site_label
_atom_site_fract_x
_atom_site_fract_y
_atom_site_fract_z
Si Si1 0.676101 0.293303 0.802353
Si Si2 0.077168 0.947463 0.366496
Si Si3 0.834986 0.420329 0.218618
Si Si4 0.745238 0.165549 0.399038
Si Si5 0.604626 0.979434 0.961303
Si Si6 0.605503 0.590152 0.672706
Si Si7 0.011556 0.339954 0.081065
Si Si8 0.187300 0.311754 0.412565
O O1 0.678568 0.202790 0.561302
O O2 0.620016 0.455975 0.807304
O O3 0.627534 0.132069 0.862685
O O4 0.785688 0.385123 0.968961
O O5 0.155970 0.101875 0.347421
O O6 0.144787 0.845868 0.486297
O O7 0.000000 0.000000 0.500000
O O8 0.015192 0.836942 0.122563
O O9 0.759898 0.331614 0.322397
O O10 0.847413 0.622533 0.367742
O O11 0.935915 0.343785 0.230725
O O12 0.685626 0.001336 0.183771
O O13 0.599280 0.783414 0.812036
O O14 0.500000 0.000000 0.000000
O O15 0.500000 0.500000 0.500000
O O16 0.695922 0.619720 0.565270
O O17 0.123331 0.369190 0.226357
O O18 0.000000 0.500000 0.000000
#
# Coordination Sequence:
#
# PCOD8033040 Si02
#       8
#     2   2   2   2   2   2   2   2
#     4  11  24  49  76 105 150 192 248 311 375 443
#     4  12  26  42  69 109 153 194 240 309 376 445
#     4  11  23  44  72 104 141 195 241 295 370 448
#     4  11  23  46  71 102 146 191 242 302 375 439
#     4  11  28  47  76 110 144 194 254 316 374 441
#     4  12  28  49  77 110 149 199 256 310 374 444
#     4  12  24  44  72 104 146 197 243 299 376 448
#     4  12  26  43  71 107 148 189 254 304 366 451
#
# _framework density 22.659842000000001
#
# number of rings (size 3 to 8) (size 9 to 14) (size 15 to 20)
#    0.000    0.500    2.500    5.250    7.000    3.500 
#    0.000    0.000    0.000    0.000    0.000    0.000 
#    0.000    0.000    0.000    0.000    0.000    0.000 
#
# Total GULP energy -198308.509562 kJ/mol
# GULP energy per Si atom -12394.281848 kJ/mol
# Density = 2.260827 g / cm^3
# Si number density = 22.659842 Si / 1000 Ang^3
#
#
#
# Elastic Constant Matrix: (Units=GPa)
#
#
# Indices 1 2 3 4 5 6 
#
# 1 135.4603 30.7849 51.8415 8.7577 -3.6817 -0.1934
# 2 30.7849 127.6311 45.3692 4.5263 -5.2024 -4.5487
# 3 51.8415 45.3692 125.8935 14.6213 -9.9310 6.1835
# 4 8.7577 4.5263 14.6213 43.3459 -5.6068 -1.5516
# 5 -3.6817 -5.2024 -9.9310 -5.6068 45.2416 2.5475
# 6 -0.1934 -4.5487 6.1835 -1.5516 2.5475 35.7528
#
#
#
# Elastic Compliance Matrix: (Units=1/GPa)
#
#
# Indices 1 2 3 4 5 6 
#
# 1 0.008890 -0.000944 -0.003292 -0.000597 -0.000209 0.000486
# 2 -0.000944 0.009198 -0.003028 0.000346 0.000264 0.001685
# 3 -0.003292 -0.003028 0.010942 -0.002592 0.001607 -0.002522
# 4 -0.000597 0.000346 -0.002592 0.024384 0.002367 0.001379
# 5 -0.000209 0.000264 0.001607 0.002367 0.022863 -0.001772
# 6 0.000486 0.001685 -0.002522 0.001379 -0.001772 0.028809
#
#
# Mechanical properties :
#
#
# Convention : Reuss Voigt Hill
#
# Bulk Modulus (GPa) = 68.95717 71.66402 70.31060
# Shear Modulus (GPa) = 40.17767 42.26735 41.22251
#
# Velocity S-wave (km/s) = 4.21536 4.32359 4.26982
# Velocity P-wave (km/s) = 7.36138 7.52458 7.44343
#
# Compressibility (1/GPa) = 0.01450175
#
# Stress axis : x y z
#
# Youngs Moduli (GPa) = 112.48393 108.72244 91.39486
#
# Poissons Ratio (x) = 0.10266 0.30084
# Poissons Ratio (y) = 0.10622 0.27674
# Poissons Ratio (z) = 0.37025 0.32921
#
# Static dielectric constant tensor:
#      x y z
#    x 6.139070 -0.583720 -0.907280 
#    y -0.583720 4.500790 0.403640 
#    z -0.907280 0.403640 5.002910 
# 
# 
# High freq. dielectric constant tensor:
#      x y z
#    x 1.896110 0.002950 0.000480 
#    y 0.002950 1.905680 0.006790 
#    z 0.000480 0.006790 1.907490 
# 
# From -- ./inp_files/47781.got.cif
#   From: 2010.06.25/outbox.cif.g09.slc.cpg/sg2_24_cif.got.tgz:47781.got - 2010.06.27 13:26:56.
