data_PCOD8033023
_publ_section_title
;
Structure prediction by ZEFSAII (Michael W. Deem and Ramdas Pophale) SiO2 
 PCOD8033023
Probable space group: P -1
;
_chemical_formula_sum "Si O2"
_cell_formula_units_Z 16
_cell_length_a 11.648423
_cell_length_b 9.200067
_cell_length_c 17.266054
_cell_angle_alpha 150.009944
_cell_angle_beta 126.219842
_cell_angle_gamma 63.468625
_cell_volume 736.378605
_symmetry_space_group_name_H-M "P -1"
_symmetry_group_IT_number 2
_symmetry_cell_setting 'triclinic'
loop_
_space_group_symop_operation_xyz
x,y,z
-x,-y,-z
loop_
_atom_site_type_symbol
_atom_site_label
_atom_site_fract_x
_atom_site_fract_y
_atom_site_fract_z
Si Si1 0.873635 0.164422 0.997908
Si Si2 0.556098 0.321525 0.200265
Si Si3 0.135650 0.236134 0.646129
Si Si4 0.866007 0.631687 0.474716
Si Si5 0.391067 0.870762 0.603280
Si Si6 0.392051 0.269029 0.259433
Si Si7 0.554686 0.189854 0.683645
Si Si8 0.873599 0.233332 0.847628
O O1 0.884655 0.500375 0.183155
O O2 0.875399 0.144992 0.897072
O O3 0.730885 0.010402 0.913420
O O4 0.000000 0.000000 0.000000
O O5 0.721205 0.401218 0.333095
O O6 0.438380 0.379500 0.243545
O O7 0.538189 0.544473 0.225750
O O8 0.500000 0.000000 0.000000
O O9 0.133444 0.336620 0.602906
O O10 0.274473 0.088500 0.656882
O O11 0.000000 0.000000 0.500000
O O12 0.000000 0.500000 0.500000
O O13 0.877203 0.948661 0.664779
O O14 0.328689 0.535954 0.398884
O O15 0.462729 0.837253 0.699262
O O16 0.524717 0.991578 0.656236
O O17 0.722085 0.333148 0.813063
O O18 0.500000 0.000000 0.500000
O O19 0.000000 0.500000 0.000000
#
# Coordination Sequence:
#
# PCOD8033023 Si02
#       8
#     2   2   2   2   2   2   2   2
#     4  12  27  46  69 104 144 182 233 293 354 424
#     4  12  27  44  73 103 141 187 233 295 356 420
#     4  12  26  46  71 100 140 188 232 289 354 423
#     4  12  27  47  69 104 145 182 234 293 352 421
#     4  11  23  44  71  99 134 182 233 285 350 419
#     4  11  25  42  71 101 136 180 233 288 354 415
#     4  12  22  47  72 101 140 184 242 289 352 429
#     4  12  27  46  73 104 138 190 235 288 353 424
#
# _framework density 21.727951999999998
#
# number of rings (size 3 to 8) (size 9 to 14) (size 15 to 20)
#    0.000    0.250    5.000    3.000    7.000    1.500 
#    0.000    0.000    0.000    0.000    0.000    0.000 
#    0.000    0.000    0.000    0.000    0.000    0.000 
#
# Total GULP energy -198338.766757 kJ/mol
# GULP energy per Si atom -12396.172922 kJ/mol
# Density = 2.167850 g / cm^3
# Si number density = 21.727952 Si / 1000 Ang^3
#
#
#
# Elastic Constant Matrix: (Units=GPa)
#
#
# Indices 1 2 3 4 5 6 
#
# 1 85.3181 23.3847 32.1916 -2.5680 20.9857 -9.5307
# 2 23.3847 118.2234 23.7636 0.6546 -2.5941 -26.4553
# 3 32.1916 23.7636 140.5140 9.9631 18.6072 -17.5066
# 4 -2.5680 0.6546 9.9631 34.3697 1.3430 -2.1639
# 5 20.9857 -2.5941 18.6072 1.3430 48.7607 3.2533
# 6 -9.5307 -26.4553 -17.5066 -2.1639 3.2533 50.4250
#
#
#
# Elastic Compliance Matrix: (Units=1/GPa)
#
#
# Indices 1 2 3 4 5 6 
#
# 1 0.014835 -0.002342 -0.002225 0.002105 -0.005802 0.001267
# 2 -0.002342 0.010126 -0.000831 0.000094 0.001562 0.004485
# 3 -0.002225 -0.000831 0.008526 -0.002392 -0.002418 0.002157
# 4 0.002105 0.000094 -0.002392 0.030039 -0.000880 0.000963
# 5 -0.005802 0.001562 -0.002418 -0.000880 0.024217 -0.002717
# 6 0.001267 0.004485 0.002157 0.000963 -0.002717 0.023389
#
#
# Mechanical properties :
#
#
# Convention : Reuss Voigt Hill
#
# Bulk Modulus (GPa) = 44.07366 55.85948 49.96657
# Shear Modulus (GPa) = 38.61249 44.35878 41.48564
#
# Velocity S-wave (km/s) = 4.22013 4.52326 4.37432
# Velocity P-wave (km/s) = 6.63885 7.28314 6.96845
#
# Compressibility (1/GPa) = 0.02268929
#
# Stress axis : x y z
#
# Youngs Moduli (GPa) = 67.40963 98.75371 117.29494
#
# Poissons Ratio (x) = 0.23132 0.26103
# Poissons Ratio (y) = 0.15790 0.09743
# Poissons Ratio (z) = 0.15002 0.08203
#
# Static dielectric constant tensor:
#      x y z
#    x 4.205220 -0.200050 0.002400 
#    y -0.200050 3.976640 0.133890 
#    z 0.002400 0.133890 4.158050 
# 
# 
# High freq. dielectric constant tensor:
#      x y z
#    x 1.860230 0.001860 0.009120 
#    y 0.001860 1.869920 0.004930 
#    z 0.009120 0.004930 1.864950 
# 
# From -- ./inp_files/381668.got.cif
#   From: 2010.06.25/outbox.cif.g09.slc.cpg/sg2_191_cif.got.tgz:381668.got - 2010.06.27 13:26:56.
