data_PCOD8033754
_publ_section_title
;
Structure prediction by ZEFSAII (Michael W. Deem and Ramdas Pophale) SiO2 
 PCOD8033754
Probable space group: P -1
;
_chemical_formula_sum "Si O2"
_cell_formula_units_Z 12
_cell_length_a 13.732430
_cell_length_b 15.990118
_cell_length_c 5.751992
_cell_angle_alpha 109.233268
_cell_angle_beta 77.934579
_cell_angle_gamma 152.860887
_cell_volume 533.505882
_symmetry_space_group_name_H-M "P -1"
_symmetry_group_IT_number 2
_symmetry_cell_setting 'triclinic'
loop_
_space_group_symop_operation_xyz
x,y,z
-x,-y,-z
loop_
_atom_site_type_symbol
_atom_site_label
_atom_site_fract_x
_atom_site_fract_y
_atom_site_fract_z
Si Si1 0.943431 0.999853 0.778101
Si Si2 0.709046 0.999145 0.394158
Si Si3 0.507482 0.713595 0.890879
Si Si4 0.315774 0.702012 0.651768
Si Si5 0.911090 0.297305 0.234039
Si Si6 0.079159 0.285625 0.814294
O O1 0.062573 0.189522 0.909040
O O2 0.683235 0.809740 0.717191
O O3 0.000000 0.000000 0.500000
O O4 0.000000 0.000000 0.000000
O O5 0.749537 0.111430 0.300434
O O6 0.939032 0.153801 0.534695
O O7 0.524357 0.886633 0.558402
O O8 0.630346 0.844628 0.179185
O O9 0.390813 0.708343 0.845162
O O10 0.333190 0.499330 0.831672
O O11 0.215424 0.715404 0.797757
O O12 0.134935 0.499062 0.432950
O O13 0.975099 0.292892 0.972390
#
# Coordination Sequence:
#
# PCOD8033754 Si02
#       6
#     2   2   2   2   2   2
#     4  12  29  52  80 112 143 189 256 319 382 454
#     4  12  22  44  69 102 144 201 244 295 359 438
#     4  12  26  46  75 104 148 192 243 307 374 442
#     4  11  24  41  70 109 148 197 248 295 359 444
#     4  11  24  41  70 109 148 197 248 295 359 444
#     4  12  26  46  75 104 148 192 243 307 374 442
#
# _framework density 22.492723000000002
#
# number of rings (size 3 to 8) (size 9 to 14) (size 15 to 20)
#    0.000    0.333    6.667    1.500    0.000    6.000 
#    0.000    0.000    0.000    0.000    0.000    0.000 
#    0.000    0.000    0.000    0.000    0.000    0.000 
#
# Total GULP energy -148801.558540 kJ/mol
# GULP energy per Si atom -12400.129878 kJ/mol
# Density = 2.244153 g / cm^3
# Si number density = 22.492723 Si / 1000 Ang^3
#
#
#
# Elastic Constant Matrix: (Units=GPa)
#
#
# Indices 1 2 3 4 5 6 
#
# 1 116.5486 59.4841 52.0081 -1.9130 -2.3606 14.4529
# 2 59.4841 192.4230 43.8973 11.6786 -1.3018 -18.3813
# 3 52.0081 43.8973 118.9715 9.7164 -0.6243 2.0313
# 4 -1.9130 11.6786 9.7164 39.2611 -1.5708 6.3884
# 5 -2.3606 -1.3018 -0.6243 -1.5708 27.0455 7.5630
# 6 14.4529 -18.3813 2.0313 6.3884 7.5630 -29.3816
#
#
#
# Elastic Compliance Matrix: (Units=1/GPa)
#
#
# Indices 1 2 3 4 5 6 
#
# 1 0.010614 -0.001822 -0.004163 0.001065 -0.000894 0.006074
# 2 -0.001822 0.005660 -0.001152 -0.000729 0.001261 -0.004351
# 3 -0.004163 -0.001152 0.010862 -0.002371 0.000000 -0.001092
# 4 0.001065 -0.000729 -0.002371 0.025299 -0.000274 0.006246
# 5 -0.000894 0.001261 0.000000 -0.000274 0.034797 0.007669
# 6 0.006074 -0.004351 -0.001092 0.006246 0.007669 -0.025069
#
#
# Mechanical properties :
#
#
# Convention : Reuss Voigt Hill
#
# Bulk Modulus (GPa) = 77.73974 82.08022 79.90998
# Shear Modulus (GPa) = 61.93990 25.55524 43.74757
#
# Velocity S-wave (km/s) = 5.25334 3.37435 4.41496
# Velocity P-wave (km/s) = 8.45186 7.19394 7.84814
#
# Compressibility (1/GPa) = 0.01286343
#
# Stress axis : x y z
#
# Youngs Moduli (GPa) = 94.21783 176.68007 92.06100
#
# Poissons Ratio (x) = 0.32187 0.38325
# Poissons Ratio (y) = 0.17165 0.10601
# Poissons Ratio (z) = 0.39223 0.20345
#
# Static dielectric constant tensor:
#      x y z
#    x 4.081100 0.062000 -0.002020 
#    y 0.062000 3.503290 -0.084970 
#    z -0.002020 -0.084970 3.954340 
# 
# 
# High freq. dielectric constant tensor:
#      x y z
#    x 1.884850 -0.002270 -0.000620 
#    y -0.002270 1.909760 0.004250 
#    z -0.000620 0.004250 1.882990 
# 
# From -- ./inp_files/78157.got.cif
#   From: 2010.06.25/outbox.cif.g09.slc.cpg/sg2_40_cif.got.tgz:78157.got - 2010.06.27 13:26:56.
