data_PCOD8033534
_publ_section_title
;
Structure prediction by ZEFSAII (Michael W. Deem and Ramdas Pophale) SiO2 
 PCOD8033534
Probable space group: P -1
;
_chemical_formula_sum "Si O2"
_cell_formula_units_Z 16
_cell_length_a 9.544735
_cell_length_b 9.029415
_cell_length_c 14.077376
_cell_angle_alpha 136.993466
_cell_angle_beta 111.993957
_cell_angle_gamma 67.412585
_cell_volume 755.558472
_symmetry_space_group_name_H-M "P -1"
_symmetry_group_IT_number 2
_symmetry_cell_setting 'triclinic'
loop_
_space_group_symop_operation_xyz
x,y,z
-x,-y,-z
loop_
_atom_site_type_symbol
_atom_site_label
_atom_site_fract_x
_atom_site_fract_y
_atom_site_fract_z
Si Si1 0.925277 0.551806 0.107412
Si Si2 0.421274 0.028099 0.391489
Si Si3 0.902133 0.724283 0.619599
Si Si4 0.625728 0.432560 0.921511
Si Si5 0.642696 0.810621 0.953683
Si Si6 0.822716 0.572688 0.729139
Si Si7 0.159033 0.989323 0.765511
Si Si8 0.626927 0.286881 0.448981
O O1 0.036336 0.479667 0.188545
O O2 0.871175 0.815240 0.228339
O O3 0.784201 0.420062 0.013522
O O4 0.000000 0.500000 0.000000
O O5 0.381082 0.800719 0.236890
O O6 0.500000 0.000000 0.500000
O O7 0.264380 0.209857 0.442354
O O8 0.546155 0.099690 0.386361
O O9 0.874553 0.702652 0.714168
O O10 0.000000 0.500000 0.500000
O O11 0.999752 0.914191 0.714082
O O12 0.500000 0.500000 0.000000
O O13 0.607936 0.612733 0.918028
O O14 0.784719 0.913507 0.077796
O O15 0.681781 0.727135 0.817863
O O16 0.500000 0.000000 0.000000
O O17 0.762644 0.349546 0.578936
O O18 0.291325 0.797759 0.668870
O O19 0.500000 0.500000 0.500000
#
# Coordination Sequence:
#
# PCOD8033534 Si02
#       8
#     2   2   2   2   2   2   2   2
#     4  11  23  47  70 101 142 184 238 290 356 429
#     4  12  27  45  76 104 143 190 240 301 359 425
#     4  12  27  47  68 111 146 185 246 299 355 426
#     4  11  25  46  71 108 142 179 240 300 352 427
#     4  11  25  44  72 105 140 190 238 289 368 429
#     4  12  25  45  75 100 144 192 234 298 355 423
#     4  11  24  44  71  99 142 184 236 297 353 429
#     4  12  24  47  70 104 144 188 236 291 363 426
#
# _framework density 21.176390000000001
#
# number of rings (size 3 to 8) (size 9 to 14) (size 15 to 20)
#    0.000    0.500    5.000    3.750    3.500    5.000 
#    0.000    0.000    0.000    0.000    0.000    0.000 
#    0.000    0.000    0.000    0.000    0.000    0.000 
#
# Total GULP energy -198431.550909 kJ/mol
# GULP energy per Si atom -12401.971932 kJ/mol
# Density = 2.112819 g / cm^3
# Si number density = 21.176390 Si / 1000 Ang^3
#
#
#
# Elastic Constant Matrix: (Units=GPa)
#
#
# Indices 1 2 3 4 5 6 
#
# 1 148.9184 49.9205 56.2754 -3.6128 7.4098 8.5942
# 2 49.9205 123.5034 48.5911 -9.4132 5.8687 -10.6140
# 3 56.2754 48.5911 126.5279 6.1407 9.6768 6.2786
# 4 -3.6128 -9.4132 6.1407 31.4947 -0.8973 -3.2626
# 5 7.4098 5.8687 9.6768 -0.8973 56.2138 0.6265
# 6 8.5942 -10.6140 6.2786 -3.2626 0.6265 37.9854
#
#
#
# Elastic Compliance Matrix: (Units=1/GPa)
#
#
# Indices 1 2 3 4 5 6 
#
# 1 0.008801 -0.002580 -0.002813 0.000549 -0.000373 -0.002194
# 2 -0.002580 0.011303 -0.003619 0.004270 -0.000201 0.004710
# 3 -0.002813 -0.003619 0.010943 -0.003830 -0.001169 -0.002493
# 4 0.000549 0.004270 -0.003830 0.034336 0.000637 0.004641
# 5 -0.000373 -0.000201 -0.001169 0.000637 0.018071 -0.000022
# 6 -0.002194 0.004710 -0.002493 0.004641 -0.000022 0.028950
#
#
# Mechanical properties :
#
#
# Convention : Reuss Voigt Hill
#
# Bulk Modulus (GPa) = 76.77933 78.72487 77.75210
# Shear Modulus (GPa) = 37.10011 41.41629 39.25820
#
# Velocity S-wave (km/s) = 4.19018 4.42721 4.31033
# Velocity P-wave (km/s) = 7.72955 7.96179 7.84653
#
# Compressibility (1/GPa) = 0.01302434
#
# Stress axis : x y z
#
# Youngs Moduli (GPa) = 113.61790 88.46860 91.37918
#
# Poissons Ratio (x) = 0.22822 0.25706
# Poissons Ratio (y) = 0.29310 0.33071
# Poissons Ratio (z) = 0.31962 0.32018
#
# Static dielectric constant tensor:
#      x y z
#    x 4.759390 0.301190 0.726100 
#    y 0.301190 2.998810 0.448700 
#    z 0.726100 0.448700 4.549340 
# 
# 
# High freq. dielectric constant tensor:
#      x y z
#    x 1.850630 -0.006550 0.004080 
#    y -0.006550 1.827000 0.006550 
#    z 0.004080 0.006550 1.843990 
# 
# From -- ./inp_files/495918.got.cif
#   From: 2010.06.25/outbox.cif.g09.slc.cpg/sg2_248_cif.got.tgz:495918.got - 2010.06.27 13:26:56.
