data_PCOD8033879
_publ_section_title
;
Structure prediction by ZEFSAII (Michael W. Deem and Ramdas Pophale) SiO2 
 PCOD8033879
Probable space group: P -1
;
_chemical_formula_sum "Si O2"
_cell_formula_units_Z 16
_cell_length_a 21.946241
_cell_length_b 9.940248
_cell_length_c 12.844164
_cell_angle_alpha 136.341648
_cell_angle_beta 27.735595
_cell_angle_gamma 146.269946
_cell_volume 723.227029
_symmetry_space_group_name_H-M "P -1"
_symmetry_group_IT_number 2
_symmetry_cell_setting 'triclinic'
loop_
_space_group_symop_operation_xyz
x,y,z
-x,-y,-z
loop_
_atom_site_type_symbol
_atom_site_label
_atom_site_fract_x
_atom_site_fract_y
_atom_site_fract_z
Si Si1 0.954233 0.183866 0.654355
Si Si2 0.566634 0.980613 0.493491
Si Si3 0.063880 0.088433 0.838360
Si Si4 0.588715 0.485657 0.029265
Si Si5 0.566487 0.541619 0.538718
Si Si6 0.066757 0.626984 0.860214
Si Si7 0.396501 0.159469 0.947338
Si Si8 0.937242 0.650708 0.636066
O O1 0.077706 0.447013 0.668256
O O2 0.946226 0.208038 0.557716
O O3 0.780482 0.089629 0.910155
O O4 0.000000 0.000000 0.500000
O O5 0.454280 0.700867 0.537360
O O6 0.500000 0.000000 0.500000
O O7 0.757830 0.111290 0.263107
O O8 0.534878 0.119502 0.704124
O O9 0.252875 0.209583 0.601142
O O10 0.956871 0.847727 0.795785
O O11 0.053095 0.308248 0.956128
O O12 0.000000 0.000000 0.000000
O O13 0.525431 0.425045 0.210347
O O14 0.445990 0.303918 0.061757
O O15 0.629394 0.734561 0.059736
O O16 0.748427 0.487138 0.790451
O O17 0.500000 0.500000 0.500000
O O18 0.000000 0.500000 0.000000
O O19 0.000000 0.500000 0.500000
#
# Coordination Sequence:
#
# PCOD8033879 Si02
#       8
#     2   2   2   2   2   2   2   2
#     4  12  24  43  68 105 140 186 239 287 354 417
#     4  12  24  43  68 102 139 184 239 286 348 422
#     4  12  26  48  70 102 142 187 234 286 352 427
#     4  11  24  44  69 102 140 187 232 292 358 415
#     4  12  26  46  73 102 143 188 234 294 359 425
#     4  12  26  42  69 103 139 183 232 291 348 412
#     4  11  24  42  71 101 142 184 239 293 344 423
#     4  12  26  46  72 103 145 187 234 295 361 432
#
# _framework density 22.123068
#
# number of rings (size 3 to 8) (size 9 to 14) (size 15 to 20)
#    0.000    0.250    2.500    7.500    1.750    2.000 
#    0.000    1.875    0.000    0.000    0.000    0.000 
#    0.000    0.000    0.000    0.000    0.000    0.000 
#
# Total GULP energy -198275.575518 kJ/mol
# GULP energy per Si atom -12392.223470 kJ/mol
# Density = 2.207271 g / cm^3
# Si number density = 22.123068 Si / 1000 Ang^3
#
#
#
# Elastic Constant Matrix: (Units=GPa)
#
#
# Indices 1 2 3 4 5 6 
#
# 1 115.9819 33.6777 32.2931 -4.5911 16.7979 -15.0348
# 2 33.6777 101.5119 28.6620 1.3484 4.6836 -10.9506
# 3 32.2931 28.6620 113.1185 -13.1462 9.0880 -8.2565
# 4 -4.5911 1.3484 -13.1462 54.2203 -0.8933 -1.4800
# 5 16.7979 4.6836 9.0880 -0.8933 52.6204 -3.0462
# 6 -15.0348 -10.9506 -8.2565 -1.4800 -3.0462 44.9856
#
#
#
# Elastic Compliance Matrix: (Units=1/GPa)
#
#
# Indices 1 2 3 4 5 6 
#
# 1 0.010636 -0.002609 -0.001924 0.000520 -0.002683 0.002402
# 2 -0.002609 0.011501 -0.002195 -0.000994 0.000259 0.001509
# 3 -0.001924 -0.002195 0.010351 0.002407 -0.000894 0.000741
# 4 0.000520 -0.000994 0.002407 0.019121 -0.000111 0.000995
# 5 -0.002683 0.000259 -0.000894 -0.000111 0.020010 0.000354
# 6 0.002402 0.001509 0.000741 0.000995 0.000354 0.023592
#
#
# Mechanical properties :
#
#
# Convention : Reuss Voigt Hill
#
# Bulk Modulus (GPa) = 52.54577 57.76419 55.15498
# Shear Modulus (GPa) = 43.47362 46.09724 44.78543
#
# Velocity S-wave (km/s) = 4.43773 4.56968 4.50419
# Velocity P-wave (km/s) = 7.07539 7.34913 7.21356
#
# Compressibility (1/GPa) = 0.01903103
#
# Stress axis : x y z
#
# Youngs Moduli (GPa) = 94.02114 86.95152 96.60512
#
# Poissons Ratio (x) = 0.22689 0.18585
# Poissons Ratio (y) = 0.24534 0.21207
# Poissons Ratio (z) = 0.18088 0.19088
#
# Static dielectric constant tensor:
#      x y z
#    x 3.992550 0.041780 0.210190 
#    y 0.041780 3.757550 -0.128330 
#    z 0.210190 -0.128330 3.912690 
# 
# 
# High freq. dielectric constant tensor:
#      x y z
#    x 1.878180 0.002450 0.011600 
#    y 0.002450 1.875060 -0.006000 
#    z 0.011600 -0.006000 1.886690 
# 
# From -- ./inp_files/470124.got.cif
#   From: 2010.06.25/outbox.cif.g09.slc.cpg/sg2_236_cif.got.tgz:470124.got - 2010.06.27 13:26:56.
