data_PCOD8033694
_publ_section_title
;
Structure prediction by ZEFSAII (Michael W. Deem and Ramdas Pophale) SiO2 
 PCOD8033694
Probable space group: P -1
;
_chemical_formula_sum "Si O2"
_cell_formula_units_Z 14
_cell_length_a 8.960070
_cell_length_b 11.621073
_cell_length_c 9.267537
_cell_angle_alpha 59.485324
_cell_angle_beta 85.585443
_cell_angle_gamma 54.240767
_cell_volume 640.416785
_symmetry_space_group_name_H-M "P -1"
_symmetry_group_IT_number 2
_symmetry_cell_setting 'triclinic'
loop_
_space_group_symop_operation_xyz
x,y,z
-x,-y,-z
loop_
_atom_site_type_symbol
_atom_site_label
_atom_site_fract_x
_atom_site_fract_y
_atom_site_fract_z
Si Si1 0.457659 0.242730 0.510911
Si Si2 0.072615 0.052493 0.836949
Si Si3 0.455836 0.984131 0.849616
Si Si4 0.909979 0.978181 0.650771
Si Si5 0.122739 0.565524 0.476930
Si Si6 0.714323 0.666957 0.842872
Si Si7 0.923324 0.389284 0.215475
O O1 0.335979 0.428487 0.478719
O O2 0.432082 0.263565 0.325534
O O3 0.380308 0.149180 0.650094
O O4 0.683608 0.134332 0.596183
O O5 0.967742 0.255472 0.709953
O O6 0.300539 0.953642 0.889314
O O7 0.040659 0.969662 0.765156
O O8 0.000000 0.000000 0.000000
O O9 0.645541 0.822168 0.857891
O O10 0.500000 0.000000 0.000000
O O11 0.949364 0.800875 0.738944
O O12 0.000000 0.000000 0.500000
O O13 0.148397 0.588129 0.629616
O O14 0.000000 0.500000 0.500000
O O15 0.925523 0.573529 0.817625
O O16 0.741803 0.520871 0.037110
#
# Coordination Sequence:
#
# PCOD8033694 Si02
#       7
#     2   2   2   2   2   2   2
#     4  12  25  44  78 104 143 192 247 298 358 437
#     4  12  28  45  71 105 152 189 235 306 372 424
#     4  12  24  45  74 107 142 189 250 298 358 439
#     4  12  26  49  70 102 149 194 235 293 374 433
#     4  12  24  46  75 107 144 189 249 303 358 429
#     4  11  24  40  75 107 137 182 252 297 350 424
#     4  11  24  44  72 105 144 187 234 303 363 428
#
# _framework density 21.860764
#
# number of rings (size 3 to 8) (size 9 to 14) (size 15 to 20)
#    0.000    0.286    5.714    3.000    2.000    0.571 
#    2.571    1.429    0.000    0.000    0.000    0.000 
#    0.000    0.000    0.000    0.000    0.000    0.000 
#
# Total GULP energy -173490.434468 kJ/mol
# GULP energy per Si atom -12392.173891 kJ/mol
# Density = 2.181101 g / cm^3
# Si number density = 21.860764 Si / 1000 Ang^3
#
#
#
# Elastic Constant Matrix: (Units=GPa)
#
#
# Indices 1 2 3 4 5 6 
#
# 1 98.4385 21.3733 45.9095 21.4617 3.7246 0.7485
# 2 21.3733 145.4691 51.2109 14.6298 7.4303 -1.5378
# 3 45.9095 51.2109 159.3223 10.3195 -0.2764 3.5106
# 4 21.4617 14.6298 10.3195 40.5329 7.3975 -0.1126
# 5 3.7246 7.4303 -0.2764 7.3975 41.8230 4.8917
# 6 0.7485 -1.5378 3.5106 -0.1126 4.8917 25.6804
#
#
#
# Elastic Compliance Matrix: (Units=1/GPa)
#
#
# Indices 1 2 3 4 5 6 
#
# 1 0.013052 -0.000136 -0.003330 -0.005994 -0.000107 0.000061
# 2 -0.000136 0.008024 -0.002436 -0.001982 -0.001200 0.001037
# 3 -0.003330 -0.002436 0.008021 0.000441 0.000857 -0.001307
# 4 -0.005994 -0.001982 0.000441 0.029253 -0.004398 0.000962
# 5 -0.000107 -0.001200 0.000857 -0.004398 0.025509 -0.005064
# 6 0.000061 0.001037 -0.001307 0.000962 -0.005064 0.040148
#
#
# Mechanical properties :
#
#
# Convention : Reuss Voigt Hill
#
# Bulk Modulus (GPa) = 57.83541 71.13526 64.48533
# Shear Modulus (GPa) = 35.31654 40.58969 37.95312
#
# Velocity S-wave (km/s) = 4.02372 4.31366 4.17121
# Velocity P-wave (km/s) = 6.93547 7.57767 7.26367
#
# Compressibility (1/GPa) = 0.01729045
#
# Stress axis : x y z
#
# Youngs Moduli (GPa) = 76.61739 124.63250 124.67084
#
# Poissons Ratio (x) = 0.01699 0.41521
# Poissons Ratio (y) = 0.01044 0.30374
# Poissons Ratio (z) = 0.25517 0.30365
#
# Static dielectric constant tensor:
#      x y z
#    x 3.853560 -0.015530 -0.119270 
#    y -0.015530 3.983940 -0.016380 
#    z -0.119270 -0.016380 4.243870 
# 
# 
# High freq. dielectric constant tensor:
#      x y z
#    x 1.840990 -0.006560 -0.000980 
#    y -0.006560 1.875440 0.006650 
#    z -0.000980 0.006650 1.877360 
# 
# From -- ./inp_files/152231.got.cif
#   From: 2010.06.25/outbox.cif.g09.slc.cpg/sg2_77_cif.got.tgz:152231.got - 2010.06.27 13:26:56.
