data_PCOD8033360
_publ_section_title
;
Structure prediction by ZEFSAII (Michael W. Deem and Ramdas Pophale) SiO2 
 PCOD8033360
Probable space group: P -1
;
_chemical_formula_sum "Si O2"
_cell_formula_units_Z 16
_cell_length_a 5.526597
_cell_length_b 11.749072
_cell_length_c 12.596071
_cell_angle_alpha 111.413406
_cell_angle_beta 69.037769
_cell_angle_gamma 120.765169
_cell_volume 639.155348
_symmetry_space_group_name_H-M "P -1"
_symmetry_group_IT_number 2
_symmetry_cell_setting 'triclinic'
loop_
_space_group_symop_operation_xyz
x,y,z
-x,-y,-z
loop_
_atom_site_type_symbol
_atom_site_label
_atom_site_fract_x
_atom_site_fract_y
_atom_site_fract_z
Si Si1 0.492057 0.359145 0.677550
Si Si2 0.188062 0.756156 0.851711
Si Si3 0.866480 0.510491 0.136151
Si Si4 0.645710 0.221213 0.773319
Si Si5 0.247054 0.021730 0.262825
Si Si6 0.011843 0.374960 0.364391
Si Si7 0.909332 0.892576 0.070323
Si Si8 0.675153 0.725469 0.546860
O O1 0.385894 0.439206 0.807552
O O2 0.493466 0.226238 0.687593
O O3 0.810731 0.462350 0.620683
O O4 0.269172 0.299607 0.593042
O O5 0.264941 0.633227 0.830356
O O6 0.462010 0.891852 0.819326
O O7 0.960461 0.705999 0.772023
O O8 0.045250 0.788470 0.988773
O O9 0.116302 0.625185 0.203231
O O10 0.000000 0.500000 0.000000
O O11 0.434703 0.191048 0.898191
O O12 0.753100 0.104412 0.714143
O O13 0.188400 0.115288 0.389895
O O14 0.997939 0.964089 0.194769
O O15 0.160546 0.338572 0.428016
O O16 0.672437 0.338467 0.408974
O O17 0.000000 0.000000 0.000000
#
# Coordination Sequence:
#
# PCOD8033360 Si02
#       8
#     2   2   2   2   2   2   2   2
#     4  12  26  47  74 107 154 202 246 320 390 449
#     4  11  23  45  77 108 146 196 250 315 386 455
#     4  12  28  47  72 112 155 197 252 320 392 462
#     4  12  27  46  70 107 154 191 256 308 393 459
#     4  11  25  47  69 110 143 197 256 312 377 459
#     4  11  24  47  76 118 150 199 259 318 383 455
#     4  12  25  44  75 107 147 200 252 317 379 459
#     4  11  27  46  82 109 153 202 266 315 377 459
#
# _framework density 25.033035999999999
#
# number of rings (size 3 to 8) (size 9 to 14) (size 15 to 20)
#    0.000    0.500    2.500    5.625    7.000    1.500 
#    0.000    2.500    0.000    0.000    0.000    0.000 
#    0.000    0.000    0.000    0.000    0.000    0.000 
#
# Total GULP energy -198329.857596 kJ/mol
# GULP energy per Si atom -12395.616100 kJ/mol
# Density = 2.497606 g / cm^3
# Si number density = 25.033036 Si / 1000 Ang^3
#
#
#
# Elastic Constant Matrix: (Units=GPa)
#
#
# Indices 1 2 3 4 5 6 
#
# 1 98.0483 29.4630 21.4787 -8.7664 19.4318 -22.1372
# 2 29.4630 126.7287 32.3410 -1.4502 15.0964 -28.2300
# 3 21.4787 32.3410 104.6297 14.7935 17.0905 -20.1288
# 4 -8.7664 -1.4502 14.7935 43.0432 -11.6833 8.8276
# 5 19.4318 15.0964 17.0905 -11.6833 32.6403 0.4094
# 6 -22.1372 -28.2300 -20.1288 8.8276 0.4094 40.2949
#
#
#
# Elastic Compliance Matrix: (Units=1/GPa)
#
#
# Indices 1 2 3 4 5 6 
#
# 1 0.013597 -0.000548 0.000462 -0.001337 -0.008658 0.007698
# 2 -0.000548 0.010363 -0.000474 -0.002517 -0.005211 0.007327
# 3 0.000462 -0.000474 0.014774 -0.010105 -0.011529 0.009633
# 4 -0.001337 -0.002517 -0.010105 0.034919 0.019943 -0.015398
# 5 -0.008658 -0.005211 -0.011529 0.019943 0.051616 -0.019060
# 6 0.007698 0.007327 0.009633 -0.015398 -0.019060 0.042558
#
#
# Mechanical properties :
#
#
# Convention : Reuss Voigt Hill
#
# Bulk Modulus (GPa) = 26.58567 55.10801 40.84684
# Shear Modulus (GPa) = 27.55040 39.60396 33.57718
#
# Velocity S-wave (km/s) = 3.32107 3.98184 3.66637
# Velocity P-wave (km/s) = 5.03481 6.57282 5.85454
#
# Compressibility (1/GPa) = 0.03761424
#
# Stress axis : x y z
#
# Youngs Moduli (GPa) = 73.54627 96.49342 67.68514
#
# Poissons Ratio (x) = 0.05291 -0.03130
# Poissons Ratio (y) = 0.04033 0.03210
# Poissons Ratio (z) = -0.03401 0.04576
#
# Static dielectric constant tensor:
#      x y z
#    x 4.504190 0.121970 -0.103550 
#    y 0.121970 4.703840 0.222590 
#    z -0.103550 0.222590 5.160180 
# 
# 
# High freq. dielectric constant tensor:
#      x y z
#    x 1.993570 0.000820 0.002450 
#    y 0.000820 2.008380 0.002080 
#    z 0.002450 0.002080 2.003000 
# 
# From -- ./inp_files/364756.got.cif
#   From: 2010.06.25/outbox.cif.g09.slc.cpg/sg2_183_cif.got.tgz:364756.got - 2010.06.27 13:26:56.
