data_PCOD8033472
_publ_section_title
;
Structure prediction by ZEFSAII (Michael W. Deem and Ramdas Pophale) SiO2 
 PCOD8033472
Probable space group: P -1
;
_chemical_formula_sum "Si O2"
_cell_formula_units_Z 12
_cell_length_a 8.883317
_cell_length_b 9.326621
_cell_length_c 12.615641
_cell_angle_alpha 143.656438
_cell_angle_beta 99.244035
_cell_angle_gamma 62.233183
_cell_volume 500.095024
_symmetry_space_group_name_H-M "P -1"
_symmetry_group_IT_number 2
_symmetry_cell_setting 'triclinic'
loop_
_space_group_symop_operation_xyz
x,y,z
-x,-y,-z
loop_
_atom_site_type_symbol
_atom_site_label
_atom_site_fract_x
_atom_site_fract_y
_atom_site_fract_z
Si Si1 0.171133 0.425642 0.613359
Si Si2 0.755474 0.787643 0.729344
Si Si3 0.678724 0.347141 0.503910
Si Si4 0.669518 0.389451 0.090263
Si Si5 0.956609 0.255982 0.857457
Si Si6 0.276969 0.844824 0.371921
O O1 0.290548 0.254142 0.420575
O O2 0.254708 0.582296 0.772908
O O3 0.966420 0.682315 0.704781
O O4 0.171217 0.195820 0.555569
O O5 0.712364 0.598642 0.686532
O O6 0.634668 0.133887 0.948055
O O7 0.500000 0.500000 0.500000
O O8 0.656590 0.233623 0.545872
O O9 0.852859 0.068027 0.293991
O O10 0.461751 0.683344 0.221935
O O11 0.811432 0.332186 0.979722
O O12 0.863577 0.242935 0.730057
O O13 0.000000 0.500000 0.000000
#
# Coordination Sequence:
#
# PCOD8033472 Si02
#       6
#     2   2   2   2   2   2
#     4  11  23  46  73 106 147 200 242 306 367 445
#     4  11  24  45  72 107 158 187 247 307 373 437
#     4  12  28  49  74 110 154 198 246 312 377 436
#     4  12  26  45  79 111 146 199 252 299 378 446
#     4  12  27  48  78 110 151 195 256 307 370 445
#     4  12  26  50  76 109 153 196 249 310 371 444
#
# _framework density 23.995438
#
# number of rings (size 3 to 8) (size 9 to 14) (size 15 to 20)
#    0.000    0.333    3.333    5.000    4.667    2.000 
#    0.000    0.000    0.000    0.000    0.000    0.000 
#    0.000    0.000    0.000    0.000    0.000    0.000 
#
# Total GULP energy -148814.668020 kJ/mol
# GULP energy per Si atom -12401.222335 kJ/mol
# Density = 2.394082 g / cm^3
# Si number density = 23.995438 Si / 1000 Ang^3
#
#
#
# Elastic Constant Matrix: (Units=GPa)
#
#
# Indices 1 2 3 4 5 6 
#
# 1 82.1745 18.6194 32.9574 3.7583 -3.5834 -5.5904
# 2 18.6194 112.2054 28.2870 -9.8923 -5.9758 -6.7166
# 3 32.9574 28.2870 104.6948 -1.2248 14.4116 -6.0309
# 4 3.7583 -9.8923 -1.2248 32.2464 -2.8081 8.9424
# 5 -3.5834 -5.9758 14.4116 -2.8081 44.4172 4.6533
# 6 -5.5904 -6.7166 -6.0309 8.9424 4.6533 50.0488
#
#
#
# Elastic Compliance Matrix: (Units=1/GPa)
#
#
# Indices 1 2 3 4 5 6 
#
# 1 0.014548 -0.001309 -0.004489 -0.002392 0.002184 0.001133
# 2 -0.001309 0.010217 -0.002623 0.003364 0.002323 0.000092
# 3 -0.004489 -0.002623 0.012411 -0.000570 -0.004904 0.001200
# 4 -0.002392 0.003364 -0.000570 0.034340 0.003278 -0.006325
# 5 0.002184 0.002323 -0.004904 0.003278 0.025111 -0.002956
# 6 0.001133 0.000092 0.001200 -0.006325 -0.002956 0.021669
#
#
# Mechanical properties :
#
#
# Convention : Reuss Voigt Hill
#
# Bulk Modulus (GPa) = 49.18361 50.97804 50.08083
# Shear Modulus (GPa) = 35.23213 39.95653 37.59433
#
# Velocity S-wave (km/s) = 3.83598 4.08508 3.96249
# Velocity P-wave (km/s) = 6.33729 6.59860 6.46926
#
# Compressibility (1/GPa) = 0.02033197
#
# Stress axis : x y z
#
# Youngs Moduli (GPa) = 68.73767 97.87976 80.57303
#
# Poissons Ratio (x) = 0.12813 0.36172
# Poissons Ratio (y) = 0.08998 0.21138
# Poissons Ratio (z) = 0.30859 0.25678
#
# Static dielectric constant tensor:
#      x y z
#    x 4.344850 -0.103230 0.099470 
#    y -0.103230 4.309100 0.085720 
#    z 0.099470 0.085720 4.547710 
# 
# 
# High freq. dielectric constant tensor:
#      x y z
#    x 1.953560 -0.009850 0.008290 
#    y -0.009850 1.957630 0.006750 
#    z 0.008290 0.006750 1.956470 
# 
# From -- ./inp_files/148588.got.cif
#   From: 2010.06.25/outbox.cif.g09.slc.cpg/sg2_75_cif.got.tgz:148588.got - 2010.06.27 13:26:56.
