data_PCOD8033312
_publ_section_title
;
Structure prediction by ZEFSAII (Michael W. Deem and Ramdas Pophale) SiO2 
 PCOD8033312
Probable space group: P -1
;
_chemical_formula_sum "Si O2"
_cell_formula_units_Z 16
_cell_length_a 8.097215
_cell_length_b 8.899234
_cell_length_c 12.482856
_cell_angle_alpha 51.500343
_cell_angle_beta 70.158149
_cell_angle_gamma 74.503158
_cell_volume 660.257997
_symmetry_space_group_name_H-M "P -1"
_symmetry_group_IT_number 2
_symmetry_cell_setting 'triclinic'
loop_
_space_group_symop_operation_xyz
x,y,z
-x,-y,-z
loop_
_atom_site_type_symbol
_atom_site_label
_atom_site_fract_x
_atom_site_fract_y
_atom_site_fract_z
Si Si1 0.291015 0.711011 0.323255
Si Si2 0.188974 0.923385 0.039620
Si Si3 0.872580 0.389001 0.150841
Si Si4 0.230218 0.291776 0.576772
Si Si5 0.405026 0.941001 0.387935
Si Si6 0.411844 0.709304 0.902696
Si Si7 0.699471 0.694402 0.206537
Si Si8 0.107274 0.993454 0.585736
O O1 0.202495 0.511758 0.448105
O O2 0.276065 0.839315 0.377645
O O3 0.496731 0.654400 0.280003
O O4 0.184886 0.817686 0.201690
O O5 0.292569 0.779678 0.997894
O O6 0.296266 0.111976 0.950463
O O7 0.000000 0.000000 0.000000
O O8 0.705262 0.318516 0.160916
O O9 0.809575 0.517397 0.207564
O O10 0.968166 0.190057 0.258604
O O11 0.000000 0.500000 0.000000
O O12 0.427493 0.200348 0.556136
O O13 0.198102 0.273596 0.718857
O O14 0.090376 0.174294 0.591741
O O15 0.309873 0.975292 0.507932
O O16 0.451944 0.136166 0.230191
O O17 0.500000 0.500000 0.000000
O O18 0.000000 0.000000 0.500000
#
# Coordination Sequence:
#
# PCOD8033312 Si02
#       8
#     2   2   2   2   2   2   2   2
#     4  11  24  43  77 108 139 196 256 303 370 445
#     4  12  26  46  70 109 156 200 250 314 374 445
#     4  12  27  47  71 108 153 195 248 314 381 453
#     4  11  23  47  77 104 143 191 255 307 368 447
#     4  11  24  47  76 107 148 195 255 318 366 453
#     4  12  27  45  76 114 150 202 259 309 383 449
#     4  11  23  45  74 104 144 192 256 304 370 445
#     4  12  28  46  71 108 150 194 246 310 389 445
#
# _framework density 24.232951
#
# number of rings (size 3 to 8) (size 9 to 14) (size 15 to 20)
#    0.000    0.500    3.750    5.250    7.000    3.000 
#    0.000    1.875    0.000    0.000    0.000    0.000 
#    0.000    0.000    0.000    0.000    0.000    0.000 
#
# Total GULP energy -198393.338069 kJ/mol
# GULP energy per Si atom -12399.583629 kJ/mol
# Density = 2.417780 g / cm^3
# Si number density = 24.232951 Si / 1000 Ang^3
#
#
#
# Elastic Constant Matrix: (Units=GPa)
#
#
# Indices 1 2 3 4 5 6 
#
# 1 57.8310 22.4644 23.2976 -5.8311 13.9228 32.3547
# 2 22.4644 156.6279 53.3629 -15.5478 -0.4167 28.6519
# 3 23.2976 53.3629 166.5414 -31.4880 10.5711 15.1555
# 4 -5.8311 -15.5478 -31.4880 53.2875 -0.0165 1.9431
# 5 13.9228 -0.4167 10.5711 -0.0165 42.6065 8.9122
# 6 32.3547 28.6519 15.1555 1.9431 8.9122 34.8187
#
#
#
# Elastic Compliance Matrix: (Units=1/GPa)
#
#
# Indices 1 2 3 4 5 6 
#
# 1 0.039276 0.002107 -0.001521 0.005349 -0.004769 -0.036646
# 2 0.002107 0.008534 -0.001999 0.001855 0.001701 -0.008649
# 3 -0.001521 -0.001999 0.007676 0.003790 -0.001397 -0.000137
# 4 0.005349 0.001855 0.003790 0.022468 -0.000734 -0.009213
# 5 -0.004769 0.001701 -0.001397 -0.000734 0.026015 -0.002978
# 6 -0.036646 -0.008649 -0.000137 -0.009213 -0.002978 0.071226
#
#
# Mechanical properties :
#
#
# Convention : Reuss Voigt Hill
#
# Bulk Modulus (GPa) = 18.98993 64.36112 41.67552
# Shear Modulus (GPa) = 25.56568 44.93422 35.24995
#
# Velocity S-wave (km/s) = 3.25159 4.31079 3.81810
# Velocity P-wave (km/s) = 4.68514 7.16897 6.05577
#
# Compressibility (1/GPa) = 0.05265950
#
# Stress axis : x y z
#
# Youngs Moduli (GPa) = 25.46102 117.17169 130.28225
#
# Poissons Ratio (x) = -0.24686 0.19810
# Poissons Ratio (y) = -0.05364 0.26049
# Poissons Ratio (z) = 0.03871 0.23428
#
# Static dielectric constant tensor:
#      x y z
#    x 4.178060 0.199420 -0.103320 
#    y 0.199420 4.639750 0.043650 
#    z -0.103320 0.043650 5.021030 
# 
# 
# High freq. dielectric constant tensor:
#      x y z
#    x 1.965490 0.005190 -0.000790 
#    y 0.005190 1.980640 0.000300 
#    z -0.000790 0.000300 1.975650 
# 
# From -- ./inp_files/380999.got.cif
#   From: 2010.06.25/outbox.cif.g09.slc.cpg/sg2_191_cif.got.tgz:380999.got - 2010.06.27 13:26:56.
