data_PCOD8033501
_publ_section_title
;
Structure prediction by ZEFSAII (Michael W. Deem and Ramdas Pophale) SiO2 
 PCOD8033501
Probable space group: P -1
;
_chemical_formula_sum "Si O2"
_cell_formula_units_Z 14
_cell_length_a 8.792123
_cell_length_b 8.785303
_cell_length_c 11.855556
_cell_angle_alpha 49.190981
_cell_angle_beta 58.074387
_cell_angle_gamma 66.224618
_cell_volume 585.907510
_symmetry_space_group_name_H-M "P -1"
_symmetry_group_IT_number 2
_symmetry_cell_setting 'triclinic'
loop_
_space_group_symop_operation_xyz
x,y,z
-x,-y,-z
loop_
_atom_site_type_symbol
_atom_site_label
_atom_site_fract_x
_atom_site_fract_y
_atom_site_fract_z
Si Si1 0.811707 0.965513 0.034170
Si Si2 0.972084 0.178708 0.690676
Si Si3 0.470246 0.188502 0.144662
Si Si4 0.938787 0.864675 0.688771
Si Si5 0.506124 0.452639 0.210448
Si Si6 0.232505 0.469558 0.515679
Si Si7 0.199006 0.490303 0.766584
O O1 0.829031 0.741143 0.083826
O O2 0.629468 0.006688 0.159202
O O3 0.802168 0.136000 0.856767
O O4 0.000000 0.000000 0.000000
O O5 0.917973 0.345433 0.536163
O O6 0.138102 0.257692 0.658504
O O7 0.027880 0.962502 0.715561
O O8 0.277957 0.109612 0.232429
O O9 0.472741 0.261831 0.238094
O O10 0.512365 0.356023 0.956495
O O11 0.009146 0.628098 0.765141
O O12 0.000000 0.000000 0.500000
O O13 0.372590 0.470377 0.359921
O O14 0.699191 0.423129 0.209236
O O15 0.305665 0.499391 0.599840
#
# Coordination Sequence:
#
# PCOD8033501 Si02
#       7
#     2   2   2   2   2   2   2
#     4  12  27  48  74 110 148 194 252 305 366 436
#     4  11  24  44  77 101 152 195 244 297 375 433
#     4  11  28  48  75 106 153 200 243 304 377 440
#     4  12  27  49  75 110 149 194 245 306 376 438
#     4  11  26  46  75 109 153 191 254 301 370 440
#     4  11  23  46  75 110 147 197 243 302 372 435
#     4  12  28  45  78 110 149 191 252 311 365 436
#
# _framework density 23.894558
#
# number of rings (size 3 to 8) (size 9 to 14) (size 15 to 20)
#    0.000    0.571    4.286    2.143   10.000    3.429 
#    0.000    2.143    0.000    0.000    0.000    0.000 
#    0.000    0.000    0.000    0.000    0.000    0.000 
#
# Total GULP energy -173497.368635 kJ/mol
# GULP energy per Si atom -12392.669188 kJ/mol
# Density = 2.384017 g / cm^3
# Si number density = 23.894558 Si / 1000 Ang^3
#
#
#
# Elastic Constant Matrix: (Units=GPa)
#
#
# Indices 1 2 3 4 5 6 
#
# 1 107.5659 56.5607 18.0806 0.6561 -1.4436 2.5793
# 2 56.5607 125.6526 33.6335 -3.1713 -6.1807 1.0008
# 3 18.0806 33.6335 94.9145 2.1491 -7.3007 -2.3569
# 4 0.6561 -3.1713 2.1491 39.1902 5.0262 2.6661
# 5 -1.4436 -6.1807 -7.3007 5.0262 37.9257 11.0043
# 6 2.5793 1.0008 -2.3569 2.6661 11.0043 44.3977
#
#
#
# Elastic Compliance Matrix: (Units=1/GPa)
#
#
# Indices 1 2 3 4 5 6 
#
# 1 0.012227 -0.005411 -0.000433 -0.000548 -0.000279 -0.000509
# 2 -0.005411 0.011255 -0.002911 0.001055 0.001049 -0.000417
# 3 -0.000433 -0.002911 0.011825 -0.001135 0.001840 0.000331
# 4 -0.000548 0.001055 -0.001135 0.026151 -0.003300 -0.000805
# 5 -0.000279 0.001049 0.001840 -0.003300 0.029346 -0.006985
# 6 -0.000509 -0.000417 0.000331 -0.000805 -0.006985 0.024360
#
#
# Mechanical properties :
#
#
# Convention : Reuss Voigt Hill
#
# Bulk Modulus (GPa) = 56.19290 60.52030 58.35660
# Shear Modulus (GPa) = 36.07323 38.95994 37.51658
#
# Velocity S-wave (km/s) = 3.88968 4.04232 3.96673
# Velocity P-wave (km/s) = 6.61369 6.86805 6.74207
#
# Compressibility (1/GPa) = 0.01779584
#
# Stress axis : x y z
#
# Youngs Moduli (GPa) = 81.78901 88.84986 84.56427
#
# Poissons Ratio (x) = 0.48078 0.03665
# Poissons Ratio (y) = 0.44257 0.24617
# Poissons Ratio (z) = 0.03544 0.25864
#
# Static dielectric constant tensor:
#      x y z
#    x 4.235180 0.260330 0.199960 
#    y 0.260330 4.611610 0.190330 
#    z 0.199960 0.190330 4.771720 
# 
# 
# High freq. dielectric constant tensor:
#      x y z
#    x 1.937130 0.012800 0.010710 
#    y 0.012800 1.950340 0.003920 
#    z 0.010710 0.003920 1.962990 
# 
# From -- ./inp_files/380942.got.cif
#   From: 2010.06.25/outbox.cif.g09.slc.cpg/sg2_191_cif.got.tgz:380942.got - 2010.06.27 13:26:56.
