data_PCOD8033349
_publ_section_title
;
Structure prediction by ZEFSAII (Michael W. Deem and Ramdas Pophale) SiO2 
 PCOD8033349
Probable space group: P -1
;
_chemical_formula_sum "Si O2"
_cell_formula_units_Z 14
_cell_length_a 18.314653
_cell_length_b 11.413097
_cell_length_c 8.918460
_cell_angle_alpha 141.760116
_cell_angle_beta 135.828082
_cell_angle_gamma 29.189204
_cell_volume 559.644803
_symmetry_space_group_name_H-M "P -1"
_symmetry_group_IT_number 2
_symmetry_cell_setting 'triclinic'
loop_
_space_group_symop_operation_xyz
x,y,z
-x,-y,-z
loop_
_atom_site_type_symbol
_atom_site_label
_atom_site_fract_x
_atom_site_fract_y
_atom_site_fract_z
Si Si1 0.635840 0.348998 0.711901
Si Si2 0.723661 0.757649 0.492095
Si Si3 0.687095 0.265205 0.271690
Si Si4 0.845866 0.985454 0.921177
Si Si5 0.183371 0.549061 0.967785
Si Si6 0.596588 0.782963 0.639095
Si Si7 0.696338 0.950815 0.181296
O O1 0.484196 0.594911 0.826581
O O2 0.777267 0.136870 0.815128
O O3 0.601739 0.209666 0.415346
O O4 0.693190 0.454422 0.801976
O O5 0.849811 0.752865 0.695489
O O6 0.791487 0.511021 0.234729
O O7 0.688173 0.720603 0.564079
O O8 0.574560 0.046452 0.487024
O O9 0.684240 0.488502 0.541974
O O10 0.784136 0.992674 0.245607
O O11 0.741056 0.194160 0.110166
O O12 0.015094 0.843231 0.045292
O O13 0.196639 0.329489 0.852056
O O14 0.588872 0.960008 0.928249
#
# Coordination Sequence:
#
# PCOD8033349 Si02
#       7
#     2   2   2   2   2   2   2
#     4  12  26  45  75 107 138 183 238 295 348 408
#     4  11  23  45  76 104 138 185 238 292 348 407
#     4  12  25  45  73 105 142 178 239 292 343 415
#     4  12  25  49  72 105 141 186 238 289 347 416
#     4  12  27  47  73 101 147 189 230 286 351 424
#     4  11  24  45  75 108 137 181 237 299 347 405
#     4  12  26  46  71 106 147 183 232 285 360 416
#
# _framework density 25.015865999999999
#
# number of rings (size 3 to 8) (size 9 to 14) (size 15 to 20)
#    0.000    0.286    4.286    4.286    2.000    4.571 
#    0.000    1.429    0.000    0.000    0.000    0.000 
#    0.000    0.000    0.000    0.000    0.000    0.000 
#
# Total GULP energy -173525.389558 kJ/mol
# GULP energy per Si atom -12394.670683 kJ/mol
# Density = 2.495893 g / cm^3
# Si number density = 25.015866 Si / 1000 Ang^3
#
#
#
# Elastic Constant Matrix: (Units=GPa)
#
#
# Indices 1 2 3 4 5 6 
#
# 1 117.8403 50.9994 65.0597 4.7941 -1.8033 -2.5092
# 2 50.9994 67.5899 49.3285 8.3896 -4.7663 -9.4646
# 3 65.0597 49.3285 144.3770 10.5072 6.2440 3.5793
# 4 4.7941 8.3896 10.5072 21.0162 11.2548 6.9898
# 5 -1.8033 -4.7663 6.2440 11.2548 42.4976 0.4965
# 6 -2.5092 -9.4646 3.5793 6.9898 0.4965 36.2516
#
#
#
# Elastic Compliance Matrix: (Units=1/GPa)
#
#
# Indices 1 2 3 4 5 6 
#
# 1 0.013985 -0.008577 -0.003513 0.002779 -0.000571 -0.001452
# 2 -0.008577 0.029056 -0.005602 -0.014162 0.007350 0.010175
# 3 -0.003513 -0.005602 0.010599 -0.000155 -0.002262 -0.002691
# 4 0.002779 -0.014162 -0.000155 0.068540 -0.019407 -0.016439
# 5 -0.000571 0.007350 -0.002262 -0.019407 0.029739 0.005437
# 6 -0.001452 0.010175 -0.002691 -0.016439 0.005437 0.033502
#
#
# Mechanical properties :
#
#
# Convention : Reuss Voigt Hill
#
# Bulk Modulus (GPa) = 54.77528 73.39803 64.08665
# Shear Modulus (GPa) = 22.03704 30.91439 26.47571
#
# Velocity S-wave (km/s) = 2.97125 3.51920 3.25677
# Velocity P-wave (km/s) = 5.80645 6.77623 6.31000
#
# Compressibility (1/GPa) = 0.01825641
#
# Stress axis : x y z
#
# Youngs Moduli (GPa) = 71.50614 34.41607 94.34705
#
# Poissons Ratio (x) = 0.29518 0.33144
# Poissons Ratio (y) = 0.61330 0.52853
# Poissons Ratio (z) = 0.25120 0.19280
#
# Static dielectric constant tensor:
#      x y z
#    x 4.890940 0.375770 0.105820 
#    y 0.375770 4.057710 0.054870 
#    z 0.105820 0.054870 4.619150 
# 
# 
# High freq. dielectric constant tensor:
#      x y z
#    x 2.021470 0.027550 0.003020 
#    y 0.027550 1.959980 0.008940 
#    z 0.003020 0.008940 2.005540 
# 
# From -- ./inp_files/333946.got.cif
#   From: 2010.06.25/outbox.cif.g09.slc.cpg/sg2_167_cif.got.tgz:333946.got - 2010.06.27 13:26:56.
