data_PCOD8033475
_publ_section_title
;
Structure prediction by ZEFSAII (Michael W. Deem and Ramdas Pophale) SiO2 
 PCOD8033475
Probable space group: P -1
;
_chemical_formula_sum "Si O2"
_cell_formula_units_Z 14
_cell_length_a 8.330583
_cell_length_b 11.594512
_cell_length_c 9.081580
_cell_angle_alpha 109.938605
_cell_angle_beta 66.434056
_cell_angle_gamma 60.891256
_cell_volume 522.321432
_symmetry_space_group_name_H-M "P -1"
_symmetry_group_IT_number 2
_symmetry_cell_setting 'triclinic'
loop_
_space_group_symop_operation_xyz
x,y,z
-x,-y,-z
loop_
_atom_site_type_symbol
_atom_site_label
_atom_site_fract_x
_atom_site_fract_y
_atom_site_fract_z
Si Si1 0.630940 0.482422 0.673507
Si Si2 0.154996 0.026731 0.878234
Si Si3 0.028093 0.652622 0.777004
Si Si4 0.964303 0.682481 0.335231
Si Si5 0.280940 0.442471 0.847877
Si Si6 0.348148 0.254616 0.268220
Si Si7 0.775991 0.039765 0.513198
O O1 0.791155 0.372778 0.419657
O O2 0.393135 0.517470 0.796404
O O3 0.545243 0.666139 0.776368
O O4 0.785963 0.378691 0.720796
O O5 0.413652 0.931875 0.827743
O O6 0.191489 0.958603 0.671139
O O7 0.011996 0.228072 0.026218
O O8 0.000000 0.000000 0.000000
O O9 0.159482 0.471796 0.742394
O O10 0.760838 0.750686 0.842778
O O11 0.878976 0.630803 0.476047
O O12 0.768316 0.896321 0.482984
O O13 0.046455 0.573720 0.105730
O O14 0.494587 0.237926 0.736979
O O15 0.000000 0.000000 0.500000
#
# Coordination Sequence:
#
# PCOD8033475 Si02
#       7
#     2   2   2   2   2   2   2
#     4  11  23  47  75 108 151 204 263 310 373 464
#     4  12  26  48  77 113 153 202 261 315 384 466
#     4  11  23  46  73 112 153 202 256 317 385 452
#     4  11  25  49  73 111 158 198 256 316 392 445
#     4  12  24  47  82 110 152 205 261 320 380 453
#     4  11  27  50  76 111 158 203 256 321 384 468
#     4  12  27  48  76 117 154 200 261 324 378 458
#
# _framework density 26.803422000000001
#
# number of rings (size 3 to 8) (size 9 to 14) (size 15 to 20)
#    0.000    0.571    2.857    5.571    2.000    0.571 
#    5.143    3.571    0.000    0.000    0.000    0.000 
#    0.000    0.000    0.000    0.000    0.000    0.000 
#
# Total GULP energy -173464.054753 kJ/mol
# GULP energy per Si atom -12390.289625 kJ/mol
# Density = 2.674242 g / cm^3
# Si number density = 26.803422 Si / 1000 Ang^3
#
#
#
# Elastic Constant Matrix: (Units=GPa)
#
#
# Indices 1 2 3 4 5 6 
#
# 1 76.2932 9.9805 -13.3908 -26.2042 24.3297 -17.4599
# 2 9.9805 108.8128 -3.0964 -16.0255 25.7282 -12.9634
# 3 -13.3908 -3.0964 35.2722 -13.0835 46.5269 3.1421
# 4 -26.2042 -16.0255 -13.0835 42.9988 12.2320 -4.6333
# 5 24.3297 25.7282 46.5269 12.2320 25.1777 -8.1559
# 6 -17.4599 -12.9634 3.1421 -4.6333 -8.1559 69.4292
#
#
#
# Elastic Compliance Matrix: (Units=1/GPa)
#
#
# Indices 1 2 3 4 5 6 
#
# 1 0.010214 -0.002761 -0.008144 0.000576 0.008855 0.003500
# 2 -0.002761 0.008692 -0.004598 -0.000544 0.003019 0.001455
# 3 -0.008144 -0.004598 0.001164 -0.010810 0.015050 -0.001913
# 4 0.000576 -0.000544 -0.010810 0.016804 0.012837 0.003162
# 5 0.008855 0.003019 0.015050 0.012837 -0.005209 0.002354
# 6 0.003500 0.001455 -0.001913 0.003162 0.002354 0.016129
#
#
# Mechanical properties :
#
#
# Convention : Reuss Voigt Hill
#
# Bulk Modulus (GPa) = -91.43767 23.04054 -34.19857
# Shear Modulus (GPa) = 66.52929 42.64680 54.58805
#
# Velocity S-wave (km/s) = 4.98749 3.99318 4.51777
# Velocity P-wave (km/s) = 1.01068 5.46584 3.79829
#
# Compressibility (1/GPa) = -0.01093641
#
# Stress axis : x y z
#
# Youngs Moduli (GPa) = 97.90701 115.04912 859.06764
#
# Poissons Ratio (x) = 0.31761 6.99640
# Poissons Ratio (y) = 0.27029 3.95023
# Poissons Ratio (z) = 0.79737 0.52903
#
# Static dielectric constant tensor:
#      x y z
#    x 5.114190 -0.317120 0.063330 
#    y -0.317120 5.098980 0.040300 
#    z 0.063330 0.040300 4.663180 
# 
# 
# High freq. dielectric constant tensor:
#      x y z
#    x 2.105520 -0.005890 0.007130 
#    y -0.005890 2.098770 -0.006050 
#    z 0.007130 -0.006050 2.064890 
# 
# From -- ./inp_files/159838.got.cif
#   From: 2010.06.25/outbox.cif.g09.slc.cpg/sg2_80_cif.got.tgz:159838.got - 2010.06.27 13:26:56.
