data_PCOD8033469
_publ_section_title
;
Structure prediction by ZEFSAII (Michael W. Deem and Ramdas Pophale) SiO2 
 PCOD8033469
Probable space group: P -1
;
_chemical_formula_sum "Si O2"
_cell_formula_units_Z 10
_cell_length_a 6.876913
_cell_length_b 8.768891
_cell_length_c 15.199012
_cell_angle_alpha 42.816943
_cell_angle_beta 126.841721
_cell_angle_gamma 101.242355
_cell_volume 445.157384
_symmetry_space_group_name_H-M "P -1"
_symmetry_group_IT_number 2
_symmetry_cell_setting 'triclinic'
loop_
_space_group_symop_operation_xyz
x,y,z
-x,-y,-z
loop_
_atom_site_type_symbol
_atom_site_label
_atom_site_fract_x
_atom_site_fract_y
_atom_site_fract_z
Si Si1 0.975959 0.244055 0.092177
Si Si2 0.495402 0.759113 0.140631
Si Si3 0.551795 0.233680 0.672606
Si Si4 0.005767 0.301998 0.431394
Si Si5 0.187716 0.080679 0.401816
O O1 0.993447 0.147269 0.236953
O O2 0.204028 0.012498 0.198060
O O3 0.000000 0.500000 0.000000
O O4 0.683560 0.323164 0.936619
O O5 0.384739 0.771378 0.204427
O O6 0.814176 0.574109 0.300927
O O7 0.500000 0.000000 0.000000
O O8 0.500000 0.500000 0.500000
O O9 0.283680 0.192920 0.608030
O O10 0.078315 0.311672 0.343693
O O11 0.831789 0.148630 0.458664
O O12 0.500000 0.000000 0.500000
#
# Coordination Sequence:
#
# PCOD8033469 Si02
#       5
#     2   2   2   2   2
#     4  12  27  43  75 108 147 185 240 311 364 417
#     4  12  27  46  69 109 151 185 242 309 368 425
#     4  12  26  48  76 103 147 201 244 289 367 451
#     4  11  25  44  77 101 137 196 246 287 354 449
#     4  11  23  46  73 105 142 186 244 295 360 434
#
# _framework density 22.463965999999999
#
# number of rings (size 3 to 8) (size 9 to 14) (size 15 to 20)
#    0.000    0.400    2.000    6.000    8.400    0.800 
#    0.000    0.000    0.000    0.000    0.000    0.000 
#    0.000    0.000    0.000    0.000    0.000    0.000 
#
# Total GULP energy -123958.776605 kJ/mol
# GULP energy per Si atom -12395.877661 kJ/mol
# Density = 2.241284 g / cm^3
# Si number density = 22.463966 Si / 1000 Ang^3
#
#
#
# Elastic Constant Matrix: (Units=GPa)
#
#
# Indices 1 2 3 4 5 6 
#
# 1 112.2196 45.0541 41.0353 -0.7331 -8.3886 -5.4772
# 2 45.0541 117.7968 37.6637 13.7350 -11.4182 -9.7688
# 3 41.0353 37.6637 92.8648 4.7274 -8.3295 -17.4997
# 4 -0.7331 13.7350 4.7274 62.4983 -3.1222 2.5650
# 5 -8.3886 -11.4182 -8.3295 -3.1222 45.2230 5.7780
# 6 -5.4772 -9.7688 -17.4997 2.5650 5.7780 53.0643
#
#
#
# Elastic Compliance Matrix: (Units=1/GPa)
#
#
# Indices 1 2 3 4 5 6 
#
# 1 0.011741 -0.003358 -0.003982 0.001252 0.000794 -0.000866
# 2 -0.003358 0.011075 -0.002618 -0.002236 0.001437 0.000780
# 3 -0.003982 -0.002618 0.014407 -0.000682 0.000720 0.003813
# 4 0.001252 -0.002236 -0.000682 0.016659 0.000872 -0.001407
# 5 0.000794 0.001437 0.000720 0.000872 0.023067 -0.001970
# 6 -0.000866 0.000780 0.003813 -0.001407 -0.001970 0.020439
#
#
# Mechanical properties :
#
#
# Convention : Reuss Voigt Hill
#
# Bulk Modulus (GPa) = 57.77985 63.37637 60.57811
# Shear Modulus (GPa) = 40.62566 45.43230 43.02898
#
# Velocity S-wave (km/s) = 4.25724 4.50205 4.38135
# Velocity P-wave (km/s) = 7.06699 7.43628 7.25399
#
# Compressibility (1/GPa) = 0.01730707
#
# Stress axis : x y z
#
# Youngs Moduli (GPa) = 85.17444 90.28957 69.40847
#
# Poissons Ratio (x) = 0.30322 0.27637
# Poissons Ratio (y) = 0.28604 0.18173
# Poissons Ratio (z) = 0.33914 0.23640
#
# Static dielectric constant tensor:
#      x y z
#    x 3.911700 -0.330580 -0.383070 
#    y -0.330580 4.252460 0.041840 
#    z -0.383070 0.041840 3.891990 
# 
# 
# High freq. dielectric constant tensor:
#      x y z
#    x 1.895800 -0.005290 0.003190 
#    y -0.005290 1.906520 0.005340 
#    z 0.003190 0.005340 1.888710 
# 
# From -- ./inp_files/16229.got.cif
#   From: 2010.06.25/outbox.cif.g09.slc.cpg/sg2_9_cif.got.tgz:16229.got - 2010.06.27 13:26:56.
