data_PCOD8033610
_publ_section_title
;
Structure prediction by ZEFSAII (Michael W. Deem and Ramdas Pophale) SiO2 
 PCOD8033610
Probable space group: P -1
;
_chemical_formula_sum "Si O2"
_cell_formula_units_Z 14
_cell_length_a 12.117093
_cell_length_b 8.269116
_cell_length_c 8.941384
_cell_angle_alpha 108.900447
_cell_angle_beta 112.658405
_cell_angle_gamma 116.780902
_cell_volume 588.296903
_symmetry_space_group_name_H-M "P -1"
_symmetry_group_IT_number 2
_symmetry_cell_setting 'triclinic'
loop_
_space_group_symop_operation_xyz
x,y,z
-x,-y,-z
loop_
_atom_site_type_symbol
_atom_site_label
_atom_site_fract_x
_atom_site_fract_y
_atom_site_fract_z
Si Si1 0.168971 0.028052 0.193980
Si Si2 0.319005 0.870528 0.384854
Si Si3 0.241234 0.025374 0.651622
Si Si4 0.315633 0.407878 0.595498
Si Si5 0.843965 0.573450 0.012308
Si Si6 0.077722 0.420876 0.613885
Si Si7 0.672419 0.749705 0.942683
O O1 0.295347 0.009547 0.308725
O O2 0.997066 0.814490 0.099624
O O3 0.225954 0.267907 0.355100
O O4 0.182324 0.054377 0.030152
O O5 0.500000 0.000000 0.500000
O O6 0.280759 0.886703 0.541792
O O7 0.209006 0.610451 0.197072
O O8 0.289415 0.237675 0.652300
O O9 0.334448 0.122259 0.886031
O O10 0.052181 0.853599 0.533025
O O11 0.238143 0.511561 0.642568
O O12 0.504204 0.605450 0.726444
O O13 0.880438 0.504416 0.165448
O O14 0.708009 0.589706 0.972074
O O15 0.000000 0.500000 0.500000
#
# Coordination Sequence:
#
# PCOD8033610 Si02
#       7
#     2   2   2   2   2   2   2
#     4  11  25  46  72 106 144 191 243 289 352 435
#     4  11  26  45  73 103 152 189 230 294 369 418
#     4  11  24  46  69 103 142 190 239 293 352 427
#     4  11  23  48  72 103 146 187 242 299 354 416
#     4  12  24  48  74 104 148 190 237 296 360 423
#     4  12  27  43  74 106 145 189 242 293 359 428
#     4  12  26  43  79 106 138 191 246 294 356 419
#
# _framework density 23.797509000000002
#
# number of rings (size 3 to 8) (size 9 to 14) (size 15 to 20)
#    0.000    0.571    4.286    4.714    4.000    2.286 
#    0.000    1.429    0.000    0.000    0.000    0.000 
#    0.000    0.000    0.000    0.000    0.000    0.000 
#
# Total GULP energy -173560.345884 kJ/mol
# GULP energy per Si atom -12397.167563 kJ/mol
# Density = 2.374334 g / cm^3
# Si number density = 23.797509 Si / 1000 Ang^3
#
#
#
# Elastic Constant Matrix: (Units=GPa)
#
#
# Indices 1 2 3 4 5 6 
#
# 1 146.0157 40.3288 72.2922 -9.1689 -1.5379 -5.6584
# 2 40.3288 81.6933 42.3530 -13.4920 -6.7379 7.4005
# 3 72.2922 42.3530 148.9969 3.5514 -24.8181 -4.2676
# 4 -9.1689 -13.4920 3.5514 22.6253 1.5650 -4.7146
# 5 -1.5379 -6.7379 -24.8181 1.5650 52.0862 1.7744
# 6 -5.6584 7.4005 -4.2676 -4.7146 1.7744 20.0637
#
#
#
# Elastic Compliance Matrix: (Units=1/GPa)
#
#
# Indices 1 2 3 4 5 6 
#
# 1 0.010263 -0.002484 -0.004683 0.004438 -0.002522 0.004080
# 2 -0.002484 0.017662 -0.004174 0.008915 0.000160 -0.006022
# 3 -0.004683 -0.004174 0.011139 -0.006326 0.004796 0.000678
# 4 0.004438 0.008915 -0.006326 0.054599 -0.003703 0.009775
# 5 -0.002522 0.000160 0.004796 -0.003703 0.021628 -0.002533
# 6 0.004080 -0.006022 0.000678 0.009775 -0.002533 0.055878
#
#
# Mechanical properties :
#
#
# Convention : Reuss Voigt Hill
#
# Bulk Modulus (GPa) = 61.03460 76.29488 68.66474
# Shear Modulus (GPa) = 25.08647 33.73716 29.41181
#
# Velocity S-wave (km/s) = 3.25031 3.76929 3.51938
# Velocity P-wave (km/s) = 6.30787 7.14654 6.74026
#
# Compressibility (1/GPa) = 0.01638415
#
# Stress axis : x y z
#
# Youngs Moduli (GPa) = 97.43658 56.61913 89.77468
#
# Poissons Ratio (x) = 0.14062 0.42038
# Poissons Ratio (y) = 0.24199 0.37470
# Poissons Ratio (z) = 0.45625 0.23632
#
# Static dielectric constant tensor:
#      x y z
#    x 4.479270 0.068320 -0.129820 
#    y 0.068320 4.272850 -0.108000 
#    z -0.129820 -0.108000 4.585790 
# 
# 
# High freq. dielectric constant tensor:
#      x y z
#    x 1.948280 0.010370 -0.001290 
#    y 0.010370 1.930850 -0.003330 
#    z -0.001290 -0.003330 1.953010 
# 
# From -- ./inp_files/159978.got.cif
#   From: 2010.06.25/outbox.cif.g09.slc.cpg/sg2_80_cif.got.tgz:159978.got - 2010.06.27 13:26:56.
