data_PCOD8033086
_publ_section_title
;
Structure prediction by ZEFSAII (Michael W. Deem and Ramdas Pophale) SiO2 
 PCOD8033086
Probable space group: P -1
;
_chemical_formula_sum "Si O2"
_cell_formula_units_Z 16
_cell_length_a 14.762061
_cell_length_b 10.714691
_cell_length_c 8.665051
_cell_angle_alpha 43.865670
_cell_angle_beta 49.873052
_cell_angle_gamma 70.194758
_cell_volume 705.427508
_symmetry_space_group_name_H-M "P -1"
_symmetry_group_IT_number 2
_symmetry_cell_setting 'triclinic'
loop_
_space_group_symop_operation_xyz
x,y,z
-x,-y,-z
loop_
_atom_site_type_symbol
_atom_site_label
_atom_site_fract_x
_atom_site_fract_y
_atom_site_fract_z
Si Si1 0.137458 0.700376 0.052087
Si Si2 0.606335 0.105131 0.399069
Si Si3 0.293437 0.178438 0.289529
Si Si4 0.484902 0.539653 0.799767
Si Si5 0.142064 0.017400 0.308213
Si Si6 0.753246 0.634224 0.301147
Si Si7 0.867159 0.370226 0.236326
Si Si8 0.120444 0.320596 0.565015
O O1 0.123314 0.485891 0.295374
O O2 0.022577 0.779425 0.164748
O O3 0.259040 0.825063 0.888706
O O4 0.150576 0.716617 0.837784
O O5 0.567989 0.285251 0.339986
O O6 0.500000 0.000000 0.500000
O O7 0.623669 0.967096 0.639310
O O8 0.211247 0.125785 0.279732
O O9 0.202015 0.187633 0.525734
O O10 0.388706 0.370636 0.980863
O O11 0.611160 0.577290 0.539742
O O12 0.500000 0.500000 0.000000
O O13 0.159779 0.808224 0.459784
O O14 0.197517 0.146348 0.986946
O O15 0.000000 0.000000 0.500000
O O16 0.774852 0.498819 0.260950
O O17 0.825589 0.593871 0.408242
O O18 0.000000 0.500000 0.000000
#
# Coordination Sequence:
#
# PCOD8033086 Si02
#       8
#     2   2   2   2   2   2   2   2
#     4  11  23  44  73 108 146 191 251 303 373 444
#     4  12  24  44  72 103 145 196 239 304 366 432
#     4  12  26  47  76 104 152 193 246 313 365 440
#     4  12  25  50  74 104 150 193 251 305 371 434
#     4  12  27  48  74 111 149 197 246 302 375 444
#     4  12  26  47  76 109 147 196 248 307 372 445
#     4  12  24  48  74 105 154 193 238 305 378 445
#     4  11  23  44  74 113 141 192 248 311 382 425
#
# _framework density 22.681281999999999
#
# number of rings (size 3 to 8) (size 9 to 14) (size 15 to 20)
#    0.000    0.250    7.500    0.750    0.000    2.000 
#    6.750    1.250    0.000    0.000    0.000    0.000 
#    0.000    0.000    0.000    0.000    0.000    0.000 
#
# Total GULP energy -198371.298974 kJ/mol
# GULP energy per Si atom -12398.206186 kJ/mol
# Density = 2.262966 g / cm^3
# Si number density = 22.681282 Si / 1000 Ang^3
#
#
#
# Elastic Constant Matrix: (Units=GPa)
#
#
# Indices 1 2 3 4 5 6 
#
# 1 136.6238 36.6298 50.8965 -2.0025 -35.4907 -13.7781
# 2 36.6298 84.3533 69.5885 -15.3800 -9.2368 -31.8783
# 3 50.8965 69.5885 136.6925 -1.0977 -35.4371 -22.8138
# 4 -2.0025 -15.3800 -1.0977 41.1230 -6.7764 -2.2182
# 5 -35.4907 -9.2368 -35.4371 -6.7764 58.6736 -4.3302
# 6 -13.7781 -31.8783 -22.8138 -2.2182 -4.3302 37.4707
#
#
#
# Elastic Compliance Matrix: (Units=1/GPa)
#
#
# Indices 1 2 3 4 5 6 
#
# 1 0.009783 -0.002104 -0.000880 0.000638 0.005270 0.001918
# 2 -0.002104 0.033498 -0.012946 0.013056 -0.000796 0.020524
# 3 -0.000880 -0.012946 0.015648 -0.003484 0.006383 -0.001279
# 4 0.000638 0.013056 -0.003484 0.030540 0.004718 0.011574
# 5 0.005270 -0.000796 0.006383 0.004718 0.025121 0.008330
# 6 0.001918 0.020524 -0.001279 0.011574 0.008330 0.045723
#
#
# Mechanical properties :
#
#
# Convention : Reuss Voigt Hill
#
# Bulk Modulus (GPa) = 36.94290 74.65546 55.79918
# Shear Modulus (GPa) = 24.85139 40.82379 32.83759
#
# Velocity S-wave (km/s) = 3.31369 4.24711 3.80910
# Velocity P-wave (km/s) = 5.56453 7.55229 6.63329
#
# Compressibility (1/GPa) = 0.02706880
#
# Stress axis : x y z
#
# Youngs Moduli (GPa) = 102.21690 29.85223 63.90787
#
# Poissons Ratio (x) = 0.06280 0.05624
# Poissons Ratio (y) = 0.21504 0.82737
# Poissons Ratio (z) = 0.08996 0.38647
#
# Static dielectric constant tensor:
#      x y z
#    x 4.396930 -0.302060 0.126390 
#    y -0.302060 4.223820 -0.163420 
#    z 0.126390 -0.163420 4.676790 
# 
# 
# High freq. dielectric constant tensor:
#      x y z
#    x 1.911250 -0.016590 -0.010430 
#    y -0.016590 1.880380 -0.019650 
#    z -0.010430 -0.019650 1.905880 
# 
# From -- ./inp_files/306171.got.cif
#   From: 2010.06.25/outbox.cif.g09.slc.cpg/sg2_154_cif.got.tgz:306171.got - 2010.06.27 13:26:56.
