data_PCOD8033845
_publ_section_title
;
Structure prediction by ZEFSAII (Michael W. Deem and Ramdas Pophale) SiO2 
 PCOD8033845
Probable space group: P -1
;
_chemical_formula_sum "Si O2"
_cell_formula_units_Z 16
_cell_length_a 19.623303
_cell_length_b 12.047658
_cell_length_c 21.520194
_cell_angle_alpha 152.156981
_cell_angle_beta 18.612418
_cell_angle_gamma 142.685503
_cell_volume 726.675794
_symmetry_space_group_name_H-M "P -1"
_symmetry_group_IT_number 2
_symmetry_cell_setting 'triclinic'
loop_
_space_group_symop_operation_xyz
x,y,z
-x,-y,-z
loop_
_atom_site_type_symbol
_atom_site_label
_atom_site_fract_x
_atom_site_fract_y
_atom_site_fract_z
Si Si1 0.862288 0.657098 0.607641
Si Si2 0.838551 0.748629 0.231845
Si Si3 0.678789 0.743853 0.234298
Si Si4 0.092064 0.125938 0.199221
Si Si5 0.546012 0.671234 0.783923
Si Si6 0.605448 0.288074 0.351425
Si Si7 0.056915 0.976125 0.366673
Si Si8 0.884824 0.547803 0.322879
O O1 0.789789 0.823617 0.814627
O O2 0.638366 0.641947 0.759634
O O3 0.996969 0.380006 0.370825
O O4 0.021064 0.774804 0.484341
O O5 0.842754 0.741913 0.150028
O O6 0.582873 0.796356 0.492618
O O7 0.908583 0.990494 0.311931
O O8 0.000000 0.500000 0.000000
O O9 0.528205 0.565287 0.288959
O O10 0.500000 0.000000 0.500000
O O11 0.868023 0.639264 0.965099
O O12 0.259387 0.948610 0.920241
O O13 0.747705 0.680154 0.567439
O O14 0.327183 0.908346 0.087664
O O15 0.500000 0.500000 0.500000
O O16 0.746529 0.394149 0.330527
O O17 0.944323 0.763593 0.335760
O O18 0.000000 0.000000 0.500000
#
# Coordination Sequence:
#
# PCOD8033845 Si02
#       8
#     2   2   2   2   2   2   2   2
#     4  11  26  49  69  98 149 191 235 294 355 435
#     4  12  24  46  71 105 144 185 241 293 356 434
#     4  11  24  42  69 106 144 181 229 301 369 426
#     4  11  27  48  68 103 147 190 238 292 357 432
#     4  11  24  43  70 103 140 182 237 299 357 427
#     4  12  25  42  75 104 138 189 238 299 361 428
#     4  11  25  45  71 104 136 187 242 295 357 429
#     4  11  24  42  70 111 136 179 241 299 369 421
#
# _framework density 22.018072
#
# number of rings (size 3 to 8) (size 9 to 14) (size 15 to 20)
#    0.000    0.750    5.000    1.125    7.000    1.500 
#    2.250    1.250    0.000    0.000    0.000    0.000 
#    0.000    0.000    0.000    0.000    0.000    0.000 
#
# Total GULP energy -198295.566816 kJ/mol
# GULP energy per Si atom -12393.472926 kJ/mol
# Density = 2.196796 g / cm^3
# Si number density = 22.018072 Si / 1000 Ang^3
#
#
#
# Elastic Constant Matrix: (Units=GPa)
#
#
# Indices 1 2 3 4 5 6 
#
# 1 112.6489 42.2619 47.5686 13.1628 -2.9678 5.7094
# 2 42.2619 122.5288 67.4383 -1.7134 -2.0346 -6.0462
# 3 47.5686 67.4383 129.9027 -4.7897 12.5063 -7.5700
# 4 13.1628 -1.7134 -4.7897 47.7374 -3.5169 -1.1023
# 5 -2.9678 -2.0346 12.5063 -3.5169 33.7754 -0.3248
# 6 5.7094 -6.0462 -7.5700 -1.1023 -0.3248 36.1904
#
#
#
# Elastic Compliance Matrix: (Units=1/GPa)
#
#
# Indices 1 2 3 4 5 6 
#
# 1 0.011918 -0.002253 -0.003691 -0.003672 0.001866 -0.003124
# 2 -0.002253 0.012167 -0.005653 0.000720 0.002715 0.001252
# 3 -0.003691 -0.005653 0.012680 0.001760 -0.005154 0.002297
# 4 -0.003672 0.000720 0.001760 0.022307 0.001409 0.001760
# 5 0.001866 0.002715 -0.005154 0.001409 0.031984 -0.000589
# 6 -0.003124 0.001252 0.002297 0.001760 -0.000589 0.028862
#
#
# Mechanical properties :
#
#
# Convention : Reuss Voigt Hill
#
# Bulk Modulus (GPa) = 73.69985 75.51309 74.60647
# Shear Modulus (GPa) = 33.86674 37.39474 35.63074
#
# Velocity S-wave (km/s) = 3.92616 4.12559 4.02711
# Velocity P-wave (km/s) = 7.35514 7.55410 7.45528
#
# Compressibility (1/GPa) = 0.01356855
#
# Stress axis : x y z
#
# Youngs Moduli (GPa) = 83.90748 82.19000 78.86676
#
# Poissons Ratio (x) = 0.18521 0.29113
# Poissons Ratio (y) = 0.18908 0.44584
# Poissons Ratio (z) = 0.30973 0.46463
#
# Static dielectric constant tensor:
#      x y z
#    x 4.051880 0.134190 0.144380 
#    y 0.134190 4.395210 -0.100910 
#    z 0.144380 -0.100910 3.936400 
# 
# 
# High freq. dielectric constant tensor:
#      x y z
#    x 1.863450 0.018010 0.011650 
#    y 0.018010 1.891520 -0.000970 
#    z 0.011650 -0.000970 1.863290 
# 
# From -- ./inp_files/600111.got.cif
#   From: 2010.06.25/outbox.cif.g09.slc.cpg/sg2_301_cif.got.tgz:600111.got - 2010.06.27 13:26:56.
