data_PCOD8033074
_publ_section_title
;
Structure prediction by ZEFSAII (Michael W. Deem and Ramdas Pophale) SiO2 
 PCOD8033074
Probable space group: P -1
;
_chemical_formula_sum "Si O2"
_cell_formula_units_Z 16
_cell_length_a 14.696357
_cell_length_b 17.930565
_cell_length_c 8.989217
_cell_angle_alpha 29.995674
_cell_angle_beta 38.630285
_cell_angle_gamma 38.976842
_cell_volume 699.658678
_symmetry_space_group_name_H-M "P -1"
_symmetry_group_IT_number 2
_symmetry_cell_setting 'triclinic'
loop_
_space_group_symop_operation_xyz
x,y,z
-x,-y,-z
loop_
_atom_site_type_symbol
_atom_site_label
_atom_site_fract_x
_atom_site_fract_y
_atom_site_fract_z
Si Si1 0.108505 0.246161 0.682450
Si Si2 0.600189 0.063866 0.652072
Si Si3 0.635695 0.883384 0.622870
Si Si4 0.366106 0.462910 0.826018
Si Si5 0.344869 0.357016 0.358689
Si Si6 0.935132 0.026728 0.373785
Si Si7 0.068670 0.686984 0.674809
Si Si8 0.116469 0.507833 0.630999
O O1 0.206691 0.123515 0.647171
O O2 0.223580 0.264240 0.634022
O O3 0.029533 0.419345 0.416522
O O4 0.971452 0.182637 0.010558
O O5 0.507281 0.235106 0.411083
O O6 0.751533 0.070638 0.531669
O O7 0.648428 0.939550 0.673635
O O8 0.500000 0.000000 0.000000
O O9 0.500000 0.000000 0.500000
O O10 0.626828 0.708044 0.945723
O O11 0.500000 0.500000 0.500000
O O12 0.208284 0.600406 0.755443
O O13 0.379065 0.454498 0.005489
O O14 0.273684 0.462119 0.413001
O O15 0.000000 0.000000 0.500000
O O16 0.022115 0.875009 0.424083
O O17 0.123614 0.636323 0.523381
O O18 0.915934 0.640002 0.991876
#
# Coordination Sequence:
#
# PCOD8033074 Si02
#       8
#     2   2   2   2   2   2   2   2
#     4  11  23  45  74 103 142 191 240 300 356 428
#     4  12  26  46  75 107 148 192 242 299 369 437
#     4  11  23  46  73 103 142 193 240 293 368 437
#     4  11  26  44  71 105 148 190 237 298 365 438
#     4  11  24  46  75 109 142 195 240 296 374 439
#     4  12  29  45  73 109 145 187 249 308 356 423
#     4  11  25  45  70 104 142 190 236 294 361 432
#     4  11  23  44  73 103 142 186 244 288 360 439
#
# _framework density 22.868293999999999
#
# number of rings (size 3 to 8) (size 9 to 14) (size 15 to 20)
#    0.000    0.750    5.000    3.375    7.000    3.000 
#    0.000    1.250    0.000    0.000    0.000    0.000 
#    0.000    0.000    0.000    0.000    0.000    0.000 
#
# Total GULP energy -198380.746483 kJ/mol
# GULP energy per Si atom -12398.796655 kJ/mol
# Density = 2.281624 g / cm^3
# Si number density = 22.868294 Si / 1000 Ang^3
#
#
#
# Elastic Constant Matrix: (Units=GPa)
#
#
# Indices 1 2 3 4 5 6 
#
# 1 125.9450 44.2334 39.6924 9.9379 5.4876 -6.1089
# 2 44.2334 115.9107 25.2235 14.8409 7.0983 3.2365
# 3 39.6924 25.2235 107.7572 25.2242 -3.6947 -6.6437
# 4 9.9379 14.8409 25.2242 43.6536 0.8234 11.0220
# 5 5.4876 7.0983 -3.6947 0.8234 33.2690 3.7477
# 6 -6.1089 3.2365 -6.6437 11.0220 3.7477 52.6296
#
#
#
# Elastic Compliance Matrix: (Units=1/GPa)
#
#
# Indices 1 2 3 4 5 6 
#
# 1 0.010100 -0.003172 -0.003035 0.000302 -0.001449 0.001024
# 2 -0.003172 0.010418 -0.000857 -0.002155 -0.001680 -0.000546
# 3 -0.003035 -0.000857 0.012437 -0.006891 0.001945 0.002575
# 4 0.000302 -0.002155 -0.006891 0.029279 -0.000313 -0.006812
# 5 -0.001449 -0.001680 0.001945 -0.000313 0.031101 -0.001969
# 6 0.001024 -0.000546 0.002575 -0.006812 -0.001969 0.021045
#
#
# Mechanical properties :
#
#
# Convention : Reuss Voigt Hill
#
# Bulk Modulus (GPa) = 53.11492 63.10127 58.10810
# Shear Modulus (GPa) = 37.09634 41.94134 39.51884
#
# Velocity S-wave (km/s) = 4.03199 4.28721 4.16156
# Velocity P-wave (km/s) = 6.70469 7.22220 6.96825
#
# Compressibility (1/GPa) = 0.01882710
#
# Stress axis : x y z
#
# Youngs Moduli (GPa) = 99.01452 95.98352 80.40431
#
# Poissons Ratio (x) = 0.30448 0.24400
# Poissons Ratio (y) = 0.31410 0.06891
# Poissons Ratio (z) = 0.30048 0.08226
#
# Static dielectric constant tensor:
#      x y z
#    x 4.148470 0.022540 0.238590 
#    y 0.022540 4.271360 -0.202520 
#    z 0.238590 -0.202520 2.974150 
# 
# 
# High freq. dielectric constant tensor:
#      x y z
#    x 1.904640 -0.004030 0.015980 
#    y -0.004030 1.917660 0.004360 
#    z 0.015980 0.004360 1.895090 
# 
# From -- ./inp_files/317921.got.cif
#   From: 2010.06.25/outbox.cif.g09.slc.cpg/sg2_159_cif.got.tgz:317921.got - 2010.06.27 13:26:56.
