data_PCOD8033579
_publ_section_title
;
Structure prediction by ZEFSAII (Michael W. Deem and Ramdas Pophale) SiO2 
 PCOD8033579
Probable space group: P -1
;
_chemical_formula_sum "Si O2"
_cell_formula_units_Z 14
_cell_length_a 9.167647
_cell_length_b 8.499243
_cell_length_c 21.505551
_cell_angle_alpha 38.443727
_cell_angle_beta 44.832318
_cell_angle_gamma 73.338195
_cell_volume 580.334415
_symmetry_space_group_name_H-M "P -1"
_symmetry_group_IT_number 2
_symmetry_cell_setting 'triclinic'
loop_
_space_group_symop_operation_xyz
x,y,z
-x,-y,-z
loop_
_atom_site_type_symbol
_atom_site_label
_atom_site_fract_x
_atom_site_fract_y
_atom_site_fract_z
Si Si1 0.331551 0.150215 0.129857
Si Si2 0.512828 0.323571 0.232402
Si Si3 0.995539 0.218438 0.125429
Si Si4 0.434286 0.030405 0.579962
Si Si5 0.863169 0.177723 0.584274
Si Si6 0.453048 0.308700 0.665472
Si Si7 0.534409 0.283445 0.786209
O O1 0.176259 0.122978 0.124713
O O2 0.135809 0.882313 0.323847
O O3 0.515991 0.052831 0.083157
O O4 0.500000 0.500000 0.000000
O O5 0.581769 0.643645 0.143968
O O6 0.402594 0.037364 0.404386
O O7 0.283734 0.167924 0.298449
O O8 0.788625 0.433461 0.082015
O O9 0.866041 0.239816 0.221309
O O10 0.792749 0.961531 0.216313
O O11 0.490563 0.363376 0.474510
O O12 0.500000 0.000000 0.500000
O O13 0.699210 0.309583 0.577746
O O14 0.157886 0.419662 0.398627
O O15 0.391743 0.261843 0.772320
#
# Coordination Sequence:
#
# PCOD8033579 Si02
#       7
#     2   2   2   2   2   2   2
#     4  11  24  46  71 102 140 189 235 288 356 421
#     4  12  26  45  72 108 144 186 234 297 355 417
#     4  12  26  47  73 103 145 186 233 295 361 417
#     4  12  25  45  71 107 140 185 242 287 347 425
#     4  11  23  47  73  99 143 192 234 289 351 420
#     4  11  24  46  74 101 140 191 240 287 354 422
#     4  11  25  46  69 106 143 184 243 289 348 419
#
# _framework density 24.124020000000002
#
# number of rings (size 3 to 8) (size 9 to 14) (size 15 to 20)
#    0.000    0.571    4.286    4.714    2.000    1.143 
#    2.571    0.000    0.000    0.000    0.000    0.000 
#    0.000    0.000    0.000    0.000    0.000    0.000 
#
# Total GULP energy -173534.411987 kJ/mol
# GULP energy per Si atom -12395.315142 kJ/mol
# Density = 2.406911 g / cm^3
# Si number density = 24.124020 Si / 1000 Ang^3
#
#
#
# Elastic Constant Matrix: (Units=GPa)
#
#
# Indices 1 2 3 4 5 6 
#
# 1 129.0561 47.0597 48.7898 -8.9898 0.8004 21.9682
# 2 47.0597 161.2527 45.5552 -7.3471 5.6213 9.3208
# 3 48.7898 45.5552 102.2207 0.1684 3.2755 6.4522
# 4 -8.9898 -7.3471 0.1684 37.7482 0.6216 10.8177
# 5 0.8004 5.6213 3.2755 0.6216 39.9918 -10.5191
# 6 21.9682 9.3208 6.4522 10.8177 -10.5191 37.6651
#
#
#
# Elastic Compliance Matrix: (Units=1/GPa)
#
#
# Indices 1 2 3 4 5 6 
#
# 1 0.011508 -0.001434 -0.004339 0.004635 -0.001697 -0.007419
# 2 -0.001434 0.007532 -0.002550 0.001549 -0.001206 -0.001373
# 3 -0.004339 -0.002550 0.012907 -0.002006 -0.000193 0.001473
# 4 0.004635 0.001549 -0.002006 0.031691 -0.004052 -0.012977
# 5 -0.001697 -0.001206 -0.000193 -0.004052 0.027998 0.010304
# 6 -0.007419 -0.001373 0.001473 -0.012977 0.010304 0.037569
#
#
# Mechanical properties :
#
#
# Convention : Reuss Voigt Hill
#
# Bulk Modulus (GPa) = 65.34934 75.03765 70.19349
# Shear Modulus (GPa) = 33.12362 39.82269 36.47316
#
# Velocity S-wave (km/s) = 3.70950 4.06735 3.89254
# Velocity P-wave (km/s) = 6.74499 7.29591 7.02585
#
# Compressibility (1/GPa) = 0.01530237
#
# Stress axis : x y z
#
# Youngs Moduli (GPa) = 86.89705 132.76457 77.48028
#
# Poissons Ratio (x) = 0.19032 0.33617
# Poissons Ratio (y) = 0.12457 0.19756
# Poissons Ratio (z) = 0.37703 0.33852
#
# Static dielectric constant tensor:
#      x y z
#    x 4.802760 -0.100660 0.311850 
#    y -0.100660 4.666060 -0.030140 
#    z 0.311850 -0.030140 4.299870 
# 
# 
# High freq. dielectric constant tensor:
#      x y z
#    x 1.974080 0.000690 0.017530 
#    y 0.000690 1.963130 -0.008900 
#    z 0.017530 -0.008900 1.942720 
# 
# From -- ./inp_files/159996.got.cif
#   From: 2010.06.25/outbox.cif.g09.slc.cpg/sg2_80_cif.got.tgz:159996.got - 2010.06.27 13:26:56.
