data_PCOD8033265
_publ_section_title
;
Structure prediction by ZEFSAII (Michael W. Deem and Ramdas Pophale) SiO2 
 PCOD8033265
Probable space group: P -1
;
_chemical_formula_sum "Si O2"
_cell_formula_units_Z 16
_cell_length_a 9.132269
_cell_length_b 15.650155
_cell_length_c 9.502703
_cell_angle_alpha 113.312579
_cell_angle_beta 117.505270
_cell_angle_gamma 35.630667
_cell_volume 701.219369
_symmetry_space_group_name_H-M "P -1"
_symmetry_group_IT_number 2
_symmetry_cell_setting 'triclinic'
loop_
_space_group_symop_operation_xyz
x,y,z
-x,-y,-z
loop_
_atom_site_type_symbol
_atom_site_label
_atom_site_fract_x
_atom_site_fract_y
_atom_site_fract_z
Si Si1 0.972425 0.918684 0.024620
Si Si2 0.461643 0.357514 0.781048
Si Si3 0.154524 0.130823 0.324103
Si Si4 0.529146 0.135527 0.519493
Si Si5 0.312196 0.691561 0.600249
Si Si6 0.008965 0.583528 0.954163
Si Si7 0.689938 0.404685 0.728918
Si Si8 0.578279 0.145888 0.230270
O O1 0.261935 0.765541 0.098421
O O2 0.769647 0.006791 0.121047
O O3 0.847378 0.891667 0.856119
O O4 0.000000 0.000000 0.000000
O O5 0.427289 0.281347 0.617565
O O6 0.468634 0.449587 0.753580
O O7 0.219470 0.467960 0.851817
O O8 0.301522 0.160294 0.446100
O O9 0.866543 0.278104 0.342662
O O10 0.246139 0.998596 0.364619
O O11 0.632653 0.090327 0.376947
O O12 0.590378 0.525217 0.651952
O O13 0.203172 0.721719 0.412706
O O14 0.328870 0.791034 0.705108
O O15 0.727511 0.729367 0.860238
O O16 0.000000 0.500000 0.000000
O O17 0.090408 0.642653 0.109517
#
# Coordination Sequence:
#
# PCOD8033265 Si02
#       8
#     2   2   2   2   2   2   2   2
#     4  12  24  46  75 102 136 186 232 284 350 417
#     4  12  26  46  74  99 141 188 233 280 352 420
#     4  11  26  45  72  99 144 183 232 289 355 407
#     4  11  27  45  69 106 138 184 233 295 342 412
#     4  11  23  45  71  99 140 185 233 282 346 419
#     4  12  27  45  69 105 144 179 231 290 348 405
#     4  11  26  43  68 105 138 189 229 284 346 421
#     4  12  26  46  73 106 140 181 236 287 346 412
#
# _framework density 22.817397
#
# number of rings (size 3 to 8) (size 9 to 14) (size 15 to 20)
#    0.000    0.500    5.000    1.875    7.000    3.000 
#    0.000    0.000    0.000    0.000    0.000    0.000 
#    0.000    0.000    0.000    0.000    0.000    0.000 
#
# Total GULP energy -198335.683251 kJ/mol
# GULP energy per Si atom -12395.980203 kJ/mol
# Density = 2.276546 g / cm^3
# Si number density = 22.817397 Si / 1000 Ang^3
#
#
#
# Elastic Constant Matrix: (Units=GPa)
#
#
# Indices 1 2 3 4 5 6 
#
# 1 116.1511 30.9892 53.2468 3.7808 -6.8159 -9.0432
# 2 30.9892 49.1574 31.8269 0.0577 -2.6076 -25.1594
# 3 53.2468 31.8269 169.0731 11.0969 -4.3743 -21.4615
# 4 3.7808 0.0577 11.0969 24.4936 0.1343 -6.2399
# 5 -6.8159 -2.6076 -4.3743 0.1343 45.6066 3.3529
# 6 -9.0432 -25.1594 -21.4615 -6.2399 3.3529 39.9469
#
#
#
# Elastic Compliance Matrix: (Units=1/GPa)
#
#
# Indices 1 2 3 4 5 6 
#
# 1 0.011652 -0.007587 -0.002596 -0.001605 0.001350 -0.003899
# 2 -0.007587 0.038054 -0.002493 0.007874 -0.000853 0.022212
# 3 -0.002596 -0.002493 0.007566 -0.002643 0.000094 0.001486
# 4 -0.001605 0.007874 -0.002643 0.044874 -0.000930 0.010264
# 5 0.001350 -0.000853 0.000094 -0.000930 0.022253 -0.002195
# 6 -0.003899 0.022212 0.001486 0.010264 -0.002195 0.040726
#
#
# Mechanical properties :
#
#
# Convention : Reuss Voigt Hill
#
# Bulk Modulus (GPa) = 31.32943 62.94528 47.13735
# Shear Modulus (GPa) = 24.86138 36.56398 30.71268
#
# Velocity S-wave (km/s) = 3.30446 4.00742 3.67280
# Velocity P-wave (km/s) = 5.32161 7.00421 6.22007
#
# Compressibility (1/GPa) = 0.03191887
#
# Stress axis : x y z
#
# Youngs Moduli (GPa) = 85.82537 26.27870 132.16874
#
# Poissons Ratio (x) = 0.19937 0.34311
# Poissons Ratio (y) = 0.65113 0.32956
# Poissons Ratio (z) = 0.22280 0.06553
#
# Static dielectric constant tensor:
#      x y z
#    x 4.243620 0.129290 0.000740 
#    y 0.129290 4.064240 -0.029140 
#    z 0.000740 -0.029140 4.487360 
# 
# 
# High freq. dielectric constant tensor:
#      x y z
#    x 1.911910 0.007300 0.001730 
#    y 0.007300 1.892600 0.000490 
#    z 0.001730 0.000490 1.922530 
# 
# From -- ./inp_files/208453.got.cif
#   From: 2010.06.25/outbox.cif.g09.slc.cpg/sg2_105_cif.got.tgz:208453.got - 2010.06.27 13:26:56.
