data_PCOD8033661
_publ_section_title
;
Structure prediction by ZEFSAII (Michael W. Deem and Ramdas Pophale) SiO2 
 PCOD8033661
Probable space group: P -1
;
_chemical_formula_sum "Si O2"
_cell_formula_units_Z 14
_cell_length_a 14.837440
_cell_length_b 12.621090
_cell_length_c 14.148292
_cell_angle_alpha 136.227583
_cell_angle_beta 18.731507
_cell_angle_gamma 137.121435
_cell_volume 574.138507
_symmetry_space_group_name_H-M "P -1"
_symmetry_group_IT_number 2
_symmetry_cell_setting 'triclinic'
loop_
_space_group_symop_operation_xyz
x,y,z
-x,-y,-z
loop_
_atom_site_type_symbol
_atom_site_label
_atom_site_fract_x
_atom_site_fract_y
_atom_site_fract_z
Si Si1 0.557037 0.537740 0.742493
Si Si2 0.944081 0.720849 0.336933
Si Si3 0.688020 0.166760 0.780619
Si Si4 0.534100 0.178164 0.231060
Si Si5 0.617634 0.096680 0.296645
Si Si6 0.954462 0.119045 0.286960
Si Si7 0.033236 0.660967 0.749270
O O1 0.716409 0.565073 0.498723
O O2 0.782432 0.470839 0.541197
O O3 0.494974 0.698389 0.948754
O O4 0.256285 0.411615 0.951492
O O5 0.781597 0.810423 0.482337
O O6 0.070433 0.815480 0.366410
O O7 0.222617 0.695443 0.985535
O O8 0.853442 0.173654 0.522057
O O9 0.456187 0.002569 0.918521
O O10 0.574890 0.206469 0.320746
O O11 0.775257 0.202787 0.291355
O O12 0.304299 0.007069 0.587100
O O13 0.779833 0.962856 0.015532
O O14 0.049959 0.270450 0.222594
#
# Coordination Sequence:
#
# PCOD8033661 Si02
#       7
#     2   2   2   2   2   2   2
#     4  12  26  42  65  97 139 177 217 253 325 412
#     4  12  23  43  63 102 130 176 212 267 332 381
#     4  11  25  41  68 102 138 160 222 270 326 400
#     4  11  24  39  72  97 126 171 218 277 332 360
#     4  11  24  46  69 102 126 163 232 277 314 388
#     4  11  25  43  73 100 126 168 221 279 330 372
#     4  12  25  47  68  92 136 181 212 268 327 382
#
# _framework density 24.384360000000001
#
# number of rings (size 3 to 8) (size 9 to 14) (size 15 to 20)
#    0.000    0.571    2.857    5.143    6.000    1.143 
#    0.000    4.286    0.000    0.000    0.000    0.000 
#    0.000    0.000    0.000    0.000    0.000    0.000 
#
# Total GULP energy -173549.546446 kJ/mol
# GULP energy per Si atom -12396.396175 kJ/mol
# Density = 2.432886 g / cm^3
# Si number density = 24.384360 Si / 1000 Ang^3
#
#
#
# Elastic Constant Matrix: (Units=GPa)
#
#
# Indices 1 2 3 4 5 6 
#
# 1 89.5281 5.0786 18.1927 4.0052 -7.7414 -22.8904
# 2 5.0786 47.2204 17.8077 -12.3489 1.4743 -16.6660
# 3 18.1927 17.8077 102.8353 -8.6609 -16.5375 -13.6871
# 4 4.0052 -12.3489 -8.6609 46.0015 -4.3971 -0.8085
# 5 -7.7414 1.4743 -16.5375 -4.3971 32.6367 -1.3030
# 6 -22.8904 -16.6660 -13.6871 -0.8085 -1.3030 20.8558
#
#
#
# Elastic Compliance Matrix: (Units=1/GPa)
#
#
# Indices 1 2 3 4 5 6 
#
# 1 0.017693 0.007365 -0.000071 0.001355 0.005033 0.025624
# 2 0.007365 0.036365 -0.001581 0.009664 0.002066 0.036609
# 3 -0.000071 -0.001581 0.012326 0.002695 0.006954 0.007286
# 4 0.001355 0.009664 0.002695 0.025432 0.005167 0.012287
# 5 0.005033 0.002066 0.006954 0.005167 0.036529 0.014222
# 6 0.025624 0.036609 0.007286 0.012287 0.014222 0.111473
#
#
# Mechanical properties :
#
#
# Convention : Reuss Voigt Hill
#
# Bulk Modulus (GPa) = 12.85219 35.74910 24.30064
# Shear Modulus (GPa) = 19.65960 33.13244 26.39602
#
# Velocity S-wave (km/s) = 2.84251 3.69013 3.29370
# Velocity P-wave (km/s) = 4.00691 5.73137 4.94489
#
# Compressibility (1/GPa) = 0.07780774
#
# Stress axis : x y z
#
# Youngs Moduli (GPa) = 56.52095 27.49896 81.13041
#
# Poissons Ratio (x) = -0.20253 0.00579
# Poissons Ratio (y) = -0.41627 0.12830
# Poissons Ratio (z) = 0.00403 0.04349
#
# Static dielectric constant tensor:
#      x y z
#    x 4.190630 -0.322670 -0.273240 
#    y -0.322670 4.500030 -0.156680 
#    z -0.273240 -0.156680 4.589620 
# 
# 
# High freq. dielectric constant tensor:
#      x y z
#    x 1.960580 -0.022820 -0.019220 
#    y -0.022820 1.960870 -0.016470 
#    z -0.019220 -0.016470 1.983720 
# 
# From -- ./inp_files/531920.got.cif
#   From: 2010.06.25/outbox.cif.g09.slc.cpg/sg2_266_cif.got.tgz:531920.got - 2010.06.27 13:26:56.
