data_PCOD8033174
_publ_section_title
;
Structure prediction by ZEFSAII (Michael W. Deem and Ramdas Pophale) SiO2 
 PCOD8033174
Probable space group: P -1
;
_chemical_formula_sum "Si O2"
_cell_formula_units_Z 16
_cell_length_a 23.340676
_cell_length_b 9.732569
_cell_length_c 12.374104
_cell_angle_alpha 49.150735
_cell_angle_beta 141.256559
_cell_angle_gamma 154.447523
_cell_volume 745.889184
_symmetry_space_group_name_H-M "P -1"
_symmetry_group_IT_number 2
_symmetry_cell_setting 'triclinic'
loop_
_space_group_symop_operation_xyz
x,y,z
-x,-y,-z
loop_
_atom_site_type_symbol
_atom_site_label
_atom_site_fract_x
_atom_site_fract_y
_atom_site_fract_z
Si Si1 0.517128 0.754459 0.158580
Si Si2 0.543643 0.660135 0.868691
Si Si3 0.026659 0.256238 0.891355
Si Si4 0.578225 0.174419 0.409758
Si Si5 0.923326 0.672431 0.567852
Si Si6 0.134420 0.712997 0.498324
Si Si7 0.609019 0.187947 0.899172
Si Si8 0.094304 0.648576 0.953176
O O1 0.444849 0.452073 0.159112
O O2 0.405399 0.638358 0.153817
O O3 0.694053 0.002204 0.337119
O O4 0.506000 0.878219 0.979363
O O5 0.401959 0.575622 0.689195
O O6 0.500000 0.500000 0.000000
O O7 0.711234 0.048508 0.913302
O O8 0.023801 0.347900 0.955152
O O9 0.889606 0.138716 0.681020
O O10 0.206158 0.577848 0.940045
O O11 0.000000 0.000000 0.000000
O O12 0.761203 0.400366 0.544701
O O13 0.500000 0.000000 0.500000
O O14 0.461332 0.915104 0.272688
O O15 0.879931 0.500128 0.479875
O O16 0.061680 0.778162 0.771750
O O17 0.000000 0.000000 0.500000
O O18 0.000000 0.500000 0.500000
O O19 0.000000 0.500000 0.000000
#
# Coordination Sequence:
#
# PCOD8033174 Si02
#       8
#     2   2   2   2   2   2   2   2
#     4  11  24  43  74 101 135 179 234 296 335 407
#     4  12  24  44  73  98 131 183 236 278 342 411
#     4  11  25  44  68  95 139 182 219 276 347 421
#     4  12  25  45  67  99 146 181 223 288 347 414
#     4  11  26  43  70 103 136 179 233 288 344 413
#     4  11  24  45  67 102 140 172 231 294 345 399
#     4  11  23  45  68 102 138 179 234 283 345 409
#     4  11  25  45  66  98 140 175 225 283 343 415
#
# _framework density 21.450907999999998
#
# number of rings (size 3 to 8) (size 9 to 14) (size 15 to 20)
#    0.000    0.750    5.000    1.500    5.250    2.000 
#    0.000    1.250    0.000    0.000    0.000    0.000 
#    0.000    0.000    0.000    0.000    0.000    0.000 
#
# Total GULP energy -198304.516077 kJ/mol
# GULP energy per Si atom -12394.032255 kJ/mol
# Density = 2.140208 g / cm^3
# Si number density = 21.450908 Si / 1000 Ang^3
#
#
#
# Elastic Constant Matrix: (Units=GPa)
#
#
# Indices 1 2 3 4 5 6 
#
# 1 171.2534 41.9417 46.8201 -11.4545 -2.9803 -10.5427
# 2 41.9417 73.2322 31.0974 -13.8629 -6.7608 -12.0570
# 3 46.8201 31.0974 90.4043 0.0859 -1.1853 -18.1631
# 4 -11.4545 -13.8629 0.0859 36.6057 -1.5171 11.5653
# 5 -2.9803 -6.7608 -1.1853 -1.5171 40.9703 -2.1711
# 6 -10.5427 -12.0570 -18.1631 11.5653 -2.1711 48.0236
#
#
#
# Elastic Compliance Matrix: (Units=1/GPa)
#
#
# Indices 1 2 3 4 5 6 
#
# 1 0.007401 -0.002787 -0.002986 0.001442 0.000016 -0.000551
# 2 -0.002787 0.018902 -0.004829 0.006117 0.003055 0.000972
# 3 -0.002986 -0.004829 0.015259 -0.004378 -0.000473 0.004936
# 4 0.001442 0.006117 -0.004378 0.032560 0.001793 -0.007564
# 5 0.000016 0.003055 -0.000473 0.001793 0.025034 0.001292
# 6 -0.000551 0.000972 0.004936 -0.007564 0.001292 0.024693
#
#
# Mechanical properties :
#
#
# Convention : Reuss Voigt Hill
#
# Bulk Modulus (GPa) = 49.12183 63.84540 56.48361
# Shear Modulus (GPa) = 32.92950 39.45530 36.19240
#
# Velocity S-wave (km/s) = 3.92230 4.29339 4.11203
# Velocity P-wave (km/s) = 6.59257 7.37603 6.99527
#
# Compressibility (1/GPa) = 0.02035755
#
# Stress axis : x y z
#
# Youngs Moduli (GPa) = 135.11522 52.90459 65.53629
#
# Poissons Ratio (x) = 0.14744 0.19571
# Poissons Ratio (y) = 0.37655 0.31648
# Poissons Ratio (z) = 0.40348 0.25548
#
# Static dielectric constant tensor:
#      x y z
#    x 4.208250 -0.034930 0.178490 
#    y -0.034930 3.417700 0.008700 
#    z 0.178490 0.008700 4.380650 
# 
# 
# High freq. dielectric constant tensor:
#      x y z
#    x 1.873730 -0.004210 0.012500 
#    y -0.004210 1.819890 0.005870 
#    z 0.012500 0.005870 1.851010 
# 
# From -- ./inp_files/469860.got.cif
#   From: 2010.06.25/outbox.cif.g09.slc.cpg/sg2_235_cif.got.tgz:469860.got - 2010.06.27 13:26:56.
