data_PCOD8033658
_publ_section_title
;
Structure prediction by ZEFSAII (Michael W. Deem and Ramdas Pophale) SiO2 
 PCOD8033658
Probable space group: P -1
;
_chemical_formula_sum "Si O2"
_cell_formula_units_Z 14
_cell_length_a 6.251653
_cell_length_b 15.820544
_cell_length_c 24.526943
_cell_angle_alpha 17.260123
_cell_angle_beta 58.117268
_cell_angle_gamma 58.411110
_cell_volume 609.357972
_symmetry_space_group_name_H-M "P -1"
_symmetry_group_IT_number 2
_symmetry_cell_setting 'triclinic'
loop_
_space_group_symop_operation_xyz
x,y,z
-x,-y,-z
loop_
_atom_site_type_symbol
_atom_site_label
_atom_site_fract_x
_atom_site_fract_y
_atom_site_fract_z
Si Si1 0.071409 0.296958 0.463888
Si Si2 0.118296 0.028440 0.407641
Si Si3 0.758386 0.822139 0.150330
Si Si4 0.415705 0.498589 0.726800
Si Si5 0.555229 0.460898 0.945582
Si Si6 0.152847 0.841601 0.822771
Si Si7 0.368172 0.260304 0.988922
O O1 0.290253 0.509964 0.291790
O O2 0.063452 0.055734 0.565754
O O3 0.824472 0.520555 0.358849
O O4 0.124043 0.143178 0.609429
O O5 0.355728 0.795575 0.521022
O O6 0.227934 0.330306 0.196281
O O7 0.000000 0.000000 0.500000
O O8 0.654196 0.761476 0.141371
O O9 0.527014 0.982673 0.115077
O O10 0.000000 0.000000 0.000000
O O11 0.275823 0.470011 0.822200
O O12 0.274482 0.586476 0.924358
O O13 0.649241 0.168220 0.146242
O O14 0.556126 0.411103 0.911613
O O15 0.870473 0.807788 0.901553
#
# Coordination Sequence:
#
# PCOD8033658 Si02
#       7
#     2   2   2   2   2   2   2
#     4  11  25  45  70  97 141 179 222 288 339 392
#     4  11  24  39  68 106 136 174 234 276 339 413
#     4  11  26  46  73 103 134 174 238 285 334 406
#     4  11  24  44  71 101 134 180 224 288 340 397
#     4  11  26  43  69 102 142 180 228 276 338 416
#     4  11  27  44  67 102 141 183 226 277 344 405
#     4  12  26  43  74  99 137 187 227 276 346 404
#
# _framework density 22.975000999999999
#
# number of rings (size 3 to 8) (size 9 to 14) (size 15 to 20)
#    0.000    0.857    2.857    2.571   12.000    1.714 
#    0.000    1.429    0.000    0.000    0.000    0.000 
#    0.000    0.000    0.000    0.000    0.000    0.000 
#
# Total GULP energy -173485.859663 kJ/mol
# GULP energy per Si atom -12391.847119 kJ/mol
# Density = 2.292271 g / cm^3
# Si number density = 22.975001 Si / 1000 Ang^3
#
#
#
# Elastic Constant Matrix: (Units=GPa)
#
#
# Indices 1 2 3 4 5 6 
#
# 1 123.8157 58.5761 52.7417 1.0779 -5.6573 22.1964
# 2 58.5761 110.3860 40.3117 12.1463 -12.1152 17.8196
# 3 52.7417 40.3117 94.9926 14.3208 15.9818 11.0730
# 4 1.0779 12.1463 14.3208 24.5269 1.6753 -5.5304
# 5 -5.6573 -12.1152 15.9818 1.6753 53.7759 -1.0991
# 6 22.1964 17.8196 11.0730 -5.5304 -1.0991 46.4632
#
#
#
# Elastic Compliance Matrix: (Units=1/GPa)
#
#
# Indices 1 2 3 4 5 6 
#
# 1 0.013484 -0.004779 -0.006206 0.004693 0.001988 -0.002524
# 2 -0.004779 0.014155 -0.002654 -0.006210 0.003604 -0.003167
# 3 -0.006206 -0.002654 0.017603 -0.008576 -0.006243 -0.001381
# 4 0.004693 -0.006210 -0.008576 0.050480 0.000238 0.008198
# 5 0.001988 0.003604 -0.006243 0.000238 0.021459 -0.000308
# 6 -0.002524 -0.003167 -0.001381 0.008198 -0.000308 0.025240
#
#
# Mechanical properties :
#
#
# Convention : Reuss Voigt Hill
#
# Bulk Modulus (GPa) = 55.67061 70.27257 62.97159
# Shear Modulus (GPa) = 28.45968 36.79087 32.62527
#
# Velocity S-wave (km/s) = 3.52337 4.00602 3.77242
# Velocity P-wave (km/s) = 6.39028 7.21461 6.81492
#
# Compressibility (1/GPa) = 0.01796280
#
# Stress axis : x y z
#
# Youngs Moduli (GPa) = 74.16405 70.64838 56.80729
#
# Poissons Ratio (x) = 0.33766 0.35254
# Poissons Ratio (y) = 0.35447 0.15076
# Poissons Ratio (z) = 0.46026 0.18750
#
# Static dielectric constant tensor:
#      x y z
#    x 4.374530 0.101270 0.312770 
#    y 0.101270 4.108940 -0.033810 
#    z 0.312770 -0.033810 4.133320 
# 
# 
# High freq. dielectric constant tensor:
#      x y z
#    x 1.926080 -0.000490 0.021970 
#    y -0.000490 1.898050 0.006100 
#    z 0.021970 0.006100 1.903890 
# 
# From -- ./inp_files/429245.got.cif
#   From: 2010.06.25/outbox.cif.g09.slc.cpg/sg2_215_cif.got.tgz:429245.got - 2010.06.27 13:26:56.
