data_PCOD8033207
_publ_section_title
;
Structure prediction by ZEFSAII (Michael W. Deem and Ramdas Pophale) SiO2 
 PCOD8033207
Probable space group: P -1
;
_chemical_formula_sum "Si O2"
_cell_formula_units_Z 16
_cell_length_a 17.471568
_cell_length_b 7.606784
_cell_length_c 11.215458
_cell_angle_alpha 126.910092
_cell_angle_beta 52.809609
_cell_angle_gamma 85.265237
_cell_volume 678.500477
_symmetry_space_group_name_H-M "P -1"
_symmetry_group_IT_number 2
_symmetry_cell_setting 'triclinic'
loop_
_space_group_symop_operation_xyz
x,y,z
-x,-y,-z
loop_
_atom_site_type_symbol
_atom_site_label
_atom_site_fract_x
_atom_site_fract_y
_atom_site_fract_z
Si Si1 0.601248 0.116225 0.038224
Si Si2 0.814693 0.394455 0.166678
Si Si3 0.249067 0.016541 0.912871
Si Si4 0.762768 0.197196 0.781312
Si Si5 0.113314 0.922601 0.621295
Si Si6 0.973809 0.346879 0.549259
Si Si7 0.312902 0.431003 0.408343
Si Si8 0.654049 0.786604 0.246221
O O1 0.644861 0.218748 0.937163
O O2 0.644859 0.804266 0.830004
O O3 0.439832 0.371060 0.311178
O O4 0.672111 0.067155 0.073406
O O5 0.757753 0.586584 0.422162
O O6 0.726732 0.619525 0.233271
O O7 0.800703 0.154043 0.108769
O O8 0.966251 0.233773 0.932252
O O9 0.339350 0.964580 0.697815
O O10 0.124747 0.384296 0.153073
O O11 0.812510 0.052904 0.541794
O O12 0.892470 0.970891 0.652379
O O13 0.707826 0.533633 0.988668
O O14 0.206451 0.769251 0.587760
O O15 0.101897 0.708532 0.480824
O O16 0.000000 0.500000 0.500000
O O17 0.500000 0.000000 0.500000
#
# Coordination Sequence:
#
# PCOD8033207 Si02
#       8
#     2   2   2   2   2   2   2   2
#     4  11  23  45  69  95 132 185 233 265 334 412
#     4  12  26  46  68 104 142 170 227 289 337 398
#     4  12  23  42  76 101 130 181 227 282 339 393
#     4  12  23  41  71 103 134 171 234 289 323 402
#     4  12  22  42  66  94 136 178 221 274 338 398
#     4  12  18  37  70  98 124 166 226 274 328 386
#     4  11  26  44  66  93 139 189 218 272 341 410
#     4  12  25  40  67 108 138 170 222 289 344 392
#
# _framework density 23.581413999999999
#
# number of rings (size 3 to 8) (size 9 to 14) (size 15 to 20)
#    0.000    0.250    7.500    2.250    1.750    2.500 
#    2.250    0.625    0.000    0.000    0.000    0.000 
#    0.000    0.000    0.000    0.000    0.000    0.000 
#
# Total GULP energy -198262.020231 kJ/mol
# GULP energy per Si atom -12391.376264 kJ/mol
# Density = 2.352774 g / cm^3
# Si number density = 23.581414 Si / 1000 Ang^3
#
#
#
# Elastic Constant Matrix: (Units=GPa)
#
#
# Indices 1 2 3 4 5 6 
#
# 1 39.5269 11.6898 22.1026 1.2785 -14.1246 -14.2241
# 2 11.6898 121.2473 38.6169 -31.5151 -15.4840 -4.6572
# 3 22.1026 38.6169 100.9256 -19.5282 -31.4132 -26.7598
# 4 1.2785 -31.5151 -19.5282 43.3483 2.6107 -0.4864
# 5 -14.1246 -15.4840 -31.4132 2.6107 32.5011 3.0289
# 6 -14.2241 -4.6572 -26.7598 -0.4864 3.0289 36.7618
#
#
#
# Elastic Compliance Matrix: (Units=1/GPa)
#
#
# Indices 1 2 3 4 5 6 
#
# 1 0.035209 -0.002011 -0.000267 -0.003282 0.013227 0.012041
# 2 -0.002011 0.011169 -0.002120 0.007098 0.001918 -0.000971
# 3 -0.000267 -0.002120 0.021288 0.007152 0.017592 0.013769
# 4 -0.003282 0.007098 0.007152 0.031245 0.005914 0.004761
# 5 0.013227 0.001918 0.017592 0.005914 0.052662 0.013906
# 6 0.012041 -0.000971 0.013769 0.004761 0.013906 0.040679
#
#
# Mechanical properties :
#
#
# Convention : Reuss Voigt Hill
#
# Bulk Modulus (GPa) = 16.98646 45.16873 31.07759
# Shear Modulus (GPa) = 22.65803 35.14159 28.89981
#
# Velocity S-wave (km/s) = 3.10311 3.86453 3.50456
# Velocity P-wave (km/s) = 4.47862 6.25370 5.43906
#
# Compressibility (1/GPa) = 0.05887043
#
# Stress axis : x y z
#
# Youngs Moduli (GPa) = 28.40192 89.52986 46.97469
#
# Poissons Ratio (x) = 0.18005 0.01253
# Poissons Ratio (y) = 0.05712 0.09959
# Poissons Ratio (z) = 0.00758 0.18981
#
# Static dielectric constant tensor:
#      x y z
#    x 4.180530 -0.009020 -0.177850 
#    y -0.009020 4.566620 -0.313460 
#    z -0.177850 -0.313460 4.555220 
# 
# 
# High freq. dielectric constant tensor:
#      x y z
#    x 1.916420 0.001900 -0.015320 
#    y 0.001900 1.942460 -0.015390 
#    z -0.015320 -0.015390 1.951260 
# 
# From -- ./inp_files/462451.got.cif
#   From: 2010.06.25/outbox.cif.g09.slc.cpg/sg2_232_cif.got.tgz:462451.got - 2010.06.27 13:26:56.
