data_PCOD8033547
_publ_section_title
;
Structure prediction by ZEFSAII (Michael W. Deem and Ramdas Pophale) SiO2 
 PCOD8033547
Probable space group: P -1
;
_chemical_formula_sum "Si O2"
_cell_formula_units_Z 14
_cell_length_a 11.032561
_cell_length_b 13.850005
_cell_length_c 19.458705
_cell_angle_alpha 29.141197
_cell_angle_beta 158.339833
_cell_angle_gamma 140.111724
_cell_volume 517.816143
_symmetry_space_group_name_H-M "P -1"
_symmetry_group_IT_number 2
_symmetry_cell_setting 'triclinic'
loop_
_space_group_symop_operation_xyz
x,y,z
-x,-y,-z
loop_
_atom_site_type_symbol
_atom_site_label
_atom_site_fract_x
_atom_site_fract_y
_atom_site_fract_z
Si Si1 0.210017 0.208437 0.334539
Si Si2 0.140674 0.870972 0.027534
Si Si3 0.124683 0.468227 0.829466
Si Si4 0.178322 0.882445 0.416614
Si Si5 0.468645 0.524207 0.200997
Si Si6 0.734948 0.663176 0.379562
Si Si7 0.281466 0.125795 0.569731
O O1 0.294662 0.422543 0.232900
O O2 0.413498 0.110145 0.570495
O O3 0.330646 0.057089 0.425645
O O4 0.802064 0.271761 0.095854
O O5 0.358915 0.726066 0.173969
O O6 0.389565 0.954327 0.158788
O O7 0.899265 0.749047 0.015834
O O8 0.915613 0.062743 0.747166
O O9 0.968677 0.486589 0.659283
O O10 0.891387 0.642421 0.644988
O O11 0.500000 0.500000 0.000000
O O12 0.407420 0.646115 0.687186
O O13 0.875734 0.869369 0.318679
O O14 0.758351 0.590336 0.357260
O O15 0.000000 0.000000 0.500000
#
# Coordination Sequence:
#
# PCOD8033547 Si02
#       7
#     2   2   2   2   2   2   2
#     4  11  24  45  71 103 150 191 241 298 369 434
#     4  11  24  48  74 104 151 200 237 310 374 434
#     4  11  26  45  74 105 146 194 253 301 367 444
#     4  12  26  43  77 109 146 188 255 298 365 440
#     4  11  25  42  73 106 143 193 243 302 363 432
#     4  11  23  47  71 107 147 193 244 303 371 442
#     4  11  25  44  74 103 147 195 242 294 381 437
#
# _framework density 27.036624
#
# number of rings (size 3 to 8) (size 9 to 14) (size 15 to 20)
#    0.000    0.857    1.429    6.429    6.000    3.429 
#    0.000    2.143    0.000    0.000    0.000    0.000 
#    0.000    0.000    0.000    0.000    0.000    0.000 
#
# Total GULP energy -173512.269485 kJ/mol
# GULP energy per Si atom -12393.733535 kJ/mol
# Density = 2.697509 g / cm^3
# Si number density = 27.036624 Si / 1000 Ang^3
#
#
#
# Elastic Constant Matrix: (Units=GPa)
#
#
# Indices 1 2 3 4 5 6 
#
# 1 105.7239 26.2961 27.9008 8.9114 -24.8896 -3.0868
# 2 26.2961 98.9765 26.6536 8.7891 -3.3989 -6.1233
# 3 27.9008 26.6536 100.9581 3.8819 -1.7149 -17.5475
# 4 8.9114 8.7891 3.8819 36.1836 0.8416 2.7103
# 5 -24.8896 -3.3989 -1.7149 0.8416 33.5292 -3.5336
# 6 -3.0868 -6.1233 -17.5475 2.7103 -3.5336 67.6193
#
#
#
# Elastic Compliance Matrix: (Units=1/GPa)
#
#
# Indices 1 2 3 4 5 6 
#
# 1 0.013210 -0.002184 -0.002758 -0.002671 0.009542 0.000295
# 2 -0.002184 0.011489 -0.002290 -0.002026 -0.000480 0.000403
# 3 -0.002758 -0.002290 0.011714 -0.000187 -0.001397 0.002641
# 4 -0.002671 -0.002026 -0.000187 0.029005 -0.003103 -0.001679
# 5 0.009542 -0.000480 -0.001397 -0.003103 0.037086 0.002092
# 6 0.000295 0.000403 0.002641 -0.001679 0.002092 0.015701
#
#
# Mechanical properties :
#
#
# Convention : Reuss Voigt Hill
#
# Bulk Modulus (GPa) = 45.55939 51.92884 48.74411
# Shear Modulus (GPa) = 35.71854 42.45360 39.08607
#
# Velocity S-wave (km/s) = 3.63866 3.96691 3.80632
# Velocity P-wave (km/s) = 5.87713 6.34274 6.11437
#
# Compressibility (1/GPa) = 0.02194937
#
# Stress axis : x y z
#
# Youngs Moduli (GPa) = 75.70241 87.04319 85.36552
#
# Poissons Ratio (x) = 0.19008 0.23544
# Poissons Ratio (y) = 0.16531 0.19547
# Poissons Ratio (z) = 0.20879 0.19932
#
# Static dielectric constant tensor:
#      x y z
#    x 5.110860 0.101960 -0.153160 
#    y 0.101960 4.910710 0.342310 
#    z -0.153160 0.342310 5.038090 
# 
# 
# High freq. dielectric constant tensor:
#      x y z
#    x 2.097440 0.009360 0.003060 
#    y 0.009360 2.092340 0.015130 
#    z 0.003060 0.015130 2.082080 
# 
# From -- ./inp_files/595637.got.cif
#   From: 2010.06.25/outbox.cif.g09.slc.cpg/sg2_298_cif.got.tgz:595637.got - 2010.06.27 13:26:56.
