data_PCOD8033455
_publ_section_title
;
Structure prediction by ZEFSAII (Michael W. Deem and Ramdas Pophale) SiO2 
 PCOD8033455
Probable space group: P -1
;
_chemical_formula_sum "Si O2"
_cell_formula_units_Z 16
_cell_length_a 24.282792
_cell_length_b 22.055169
_cell_length_c 6.751895
_cell_angle_alpha 138.282384
_cell_angle_beta 128.502162
_cell_angle_gamma 19.852713
_cell_volume 764.928709
_symmetry_space_group_name_H-M "P -1"
_symmetry_group_IT_number 2
_symmetry_cell_setting 'triclinic'
loop_
_space_group_symop_operation_xyz
x,y,z
-x,-y,-z
loop_
_atom_site_type_symbol
_atom_site_label
_atom_site_fract_x
_atom_site_fract_y
_atom_site_fract_z
Si Si1 0.755726 0.468070 0.434450
Si Si2 0.437214 0.975395 0.858441
Si Si3 0.114980 0.130016 0.506982
Si Si4 0.316819 0.996005 0.318600
Si Si5 0.197873 0.756089 0.300296
Si Si6 0.598669 0.568754 0.701956
Si Si7 0.151909 0.252719 0.179715
Si Si8 0.651599 0.264709 0.665108
O O1 0.598467 0.718251 0.628483
O O2 0.727667 0.463696 0.581811
O O3 0.931164 0.318115 0.465062
O O4 0.766646 0.370620 0.072613
O O5 0.321646 0.080230 0.669542
O O6 0.500000 0.000000 0.000000
O O7 0.313621 0.118904 0.125363
O O8 0.237129 0.007686 0.295981
O O9 0.204872 0.939511 0.356544
O O10 0.088782 0.249102 0.878606
O O11 0.201975 0.145866 0.234774
O O12 0.516318 0.739544 0.083200
O O13 0.296204 0.629658 0.420924
O O14 0.255889 0.782203 0.401616
O O15 0.000000 0.000000 0.500000
O O16 0.433049 0.722528 0.595189
O O17 0.000000 0.500000 0.500000
O O18 0.500000 0.500000 0.000000
#
# Coordination Sequence:
#
# PCOD8033455 Si02
#       8
#     2   2   2   2   2   2   2   2
#     4  12  26  46  65 101 141 172 222 284 332 397
#     4  11  26  46  71 102 135 175 223 275 337 403
#     4  11  27  43  68 101 139 172 223 282 332 395
#     4  11  23  46  72  95 135 180 219 273 338 397
#     4  12  28  43  67 102 137 179 226 277 337 393
#     4  12  23  46  70  94 136 181 225 275 333 399
#     4  11  26  47  71 102 135 175 225 274 334 404
#     4  12  24  45  70  98 133 181 231 274 331 398
#
# _framework density 20.916982999999998
#
# number of rings (size 3 to 8) (size 9 to 14) (size 15 to 20)
#    0.000    0.500    5.000    2.625    7.000    4.500 
#    0.000    0.000    0.000    0.000    0.000    0.000 
#    0.000    0.000    0.000    0.000    0.000    0.000 
#
# Total GULP energy -198456.001349 kJ/mol
# GULP energy per Si atom -12403.500084 kJ/mol
# Density = 2.086937 g / cm^3
# Si number density = 20.916983 Si / 1000 Ang^3
#
#
#
# Elastic Constant Matrix: (Units=GPa)
#
#
# Indices 1 2 3 4 5 6 
#
# 1 119.1796 11.4394 26.4888 -2.1090 -7.6719 2.3419
# 2 11.4394 75.0119 18.5762 4.8897 -5.1686 2.1314
# 3 26.4888 18.5762 92.7548 17.7969 -8.9284 5.1339
# 4 -2.1090 4.8897 17.7969 42.5545 0.4295 1.1321
# 5 -7.6719 -5.1686 -8.9284 0.4295 33.8878 -1.2663
# 6 2.3419 2.1314 5.1339 1.1321 -1.2663 41.1940
#
#
#
# Elastic Compliance Matrix: (Units=1/GPa)
#
#
# Indices 1 2 3 4 5 6 
#
# 1 0.009165 -0.000758 -0.002653 0.001643 0.001233 -0.000158
# 2 -0.000758 0.014175 -0.002339 -0.000693 0.001370 -0.000338
# 3 -0.002653 -0.002339 0.013366 -0.005448 0.002590 -0.001165
# 4 0.001643 -0.000693 -0.005448 0.025958 -0.001503 -0.000138
# 5 0.001233 0.001370 0.002590 -0.001503 0.030718 0.000522
# 6 -0.000158 -0.000338 -0.001165 -0.000138 0.000522 0.024467
#
#
# Mechanical properties :
#
#
# Convention : Reuss Voigt Hill
#
# Bulk Modulus (GPa) = 39.67312 44.43944 42.05628
# Shear Modulus (GPa) = 36.29740 38.89006 37.59373
#
# Velocity S-wave (km/s) = 4.17022 4.31659 4.24404
# Velocity P-wave (km/s) = 6.49583 6.79232 6.64573
#
# Compressibility (1/GPa) = 0.02520599
#
# Stress axis : x y z
#
# Youngs Moduli (GPa) = 109.11405 70.54559 74.81557
#
# Poissons Ratio (x) = 0.05349 0.19849
# Poissons Ratio (y) = 0.08273 0.17498
# Poissons Ratio (z) = 0.28949 0.16499
#
# Static dielectric constant tensor:
#      x y z
#    x 3.913190 0.194210 0.042330 
#    y 0.194210 3.986560 0.255150 
#    z 0.042330 0.255150 4.864950 
# 
# 
# High freq. dielectric constant tensor:
#      x y z
#    x 1.829510 0.005620 -0.010610 
#    y 0.005620 1.827620 0.002300 
#    z -0.010610 0.002300 1.830830 
# 
# From -- ./inp_files/38089.got.cif
#   From: 2010.06.25/outbox.cif.g09.slc.cpg/sg2_20_cif.got.tgz:38089.got - 2010.06.27 13:26:56.
