data_PCOD8033403
_publ_section_title
;
Structure prediction by ZEFSAII (Michael W. Deem and Ramdas Pophale) SiO2 
 PCOD8033403
Probable space group: P -1
;
_chemical_formula_sum "Si O2"
_cell_formula_units_Z 16
_cell_length_a 14.570842
_cell_length_b 15.002343
_cell_length_c 9.083638
_cell_angle_alpha 141.555810
_cell_angle_beta 83.771706
_cell_angle_gamma 125.645334
_cell_volume 727.480455
_symmetry_space_group_name_H-M "P -1"
_symmetry_group_IT_number 2
_symmetry_cell_setting 'triclinic'
loop_
_space_group_symop_operation_xyz
x,y,z
-x,-y,-z
loop_
_atom_site_type_symbol
_atom_site_label
_atom_site_fract_x
_atom_site_fract_y
_atom_site_fract_z
Si Si1 0.271086 0.593873 0.289465
Si Si2 0.874971 0.074355 0.190920
Si Si3 0.131154 0.101325 0.316756
Si Si4 0.810922 0.803653 0.100886
Si Si5 0.380282 0.945037 0.223578
Si Si6 0.813423 0.522683 0.178502
Si Si7 0.661967 0.785712 0.352914
Si Si8 0.829391 0.298551 0.337359
O O1 0.294643 0.467099 0.197377
O O2 0.168944 0.564730 0.376737
O O3 0.441351 0.873248 0.600410
O O4 0.181401 0.471016 0.991454
O O5 0.783369 0.098323 0.178297
O O6 0.017802 0.310107 0.570627
O O7 0.939274 0.058854 0.024414
O O8 0.766500 0.831861 0.993448
O O9 0.227534 0.368427 0.615216
O O10 0.251491 0.137673 0.409575
O O11 0.990136 0.973412 0.283546
O O12 0.783403 0.886726 0.339040
O O13 0.367057 0.081749 0.482683
O O14 0.316072 0.747797 0.092250
O O15 0.294285 0.830415 0.935155
O O16 0.500000 0.500000 0.000000
O O17 0.000000 0.500000 0.500000
#
# Coordination Sequence:
#
# PCOD8033403 Si02
#       8
#     2   2   2   2   2   2   2   2
#     4  12  27  45  68 104 139 180 225 279 346 405
#     4  11  25  44  71 106 132 179 230 284 335 398
#     4  11  23  46  70 100 137 176 231 280 335 402
#     4  11  24  42  71 100 134 176 227 278 339 395
#     4  12  26  47  70  98 142 184 220 282 342 407
#     4  11  24  43  72 102 136 180 226 279 341 402
#     4  12  24  45  69  99 139 179 229 276 339 402
#     4  12  26  47  69 103 138 179 229 282 339 402
#
# _framework density 21.993718000000001
#
# number of rings (size 3 to 8) (size 9 to 14) (size 15 to 20)
#    0.000    0.500    5.000    3.375    5.250    0.500 
#    0.000    1.250    0.000    0.000    0.000    0.000 
#    0.000    0.000    0.000    0.000    0.000    0.000 
#
# Total GULP energy -198404.904846 kJ/mol
# GULP energy per Si atom -12400.306553 kJ/mol
# Density = 2.194366 g / cm^3
# Si number density = 21.993718 Si / 1000 Ang^3
#
#
#
# Elastic Constant Matrix: (Units=GPa)
#
#
# Indices 1 2 3 4 5 6 
#
# 1 78.5711 42.5153 21.5347 -6.0421 -15.3177 1.6497
# 2 42.5153 121.5179 52.9078 -0.6915 -12.7200 -11.4788
# 3 21.5347 52.9078 106.9274 -9.1268 -6.7893 7.1532
# 4 -6.0421 -0.6915 -9.1268 41.3488 -6.3396 -7.9784
# 5 -15.3177 -12.7200 -6.7893 -6.3396 40.0208 0.8971
# 6 1.6497 -11.4788 7.1532 -7.9784 0.8971 36.6187
#
#
#
# Elastic Compliance Matrix: (Units=1/GPa)
#
#
# Indices 1 2 3 4 5 6 
#
# 1 0.017029 -0.005613 0.000058 0.002814 0.005235 -0.002053
# 2 -0.005613 0.013328 -0.005831 -0.000711 0.000865 0.005394
# 3 0.000058 -0.005831 0.012710 0.002082 0.000742 -0.003878
# 4 0.002814 -0.000711 0.002082 0.026818 0.005341 0.004956
# 5 0.005235 0.000865 0.000742 0.005341 0.028229 0.000363
# 6 -0.002053 0.005394 -0.003878 0.004956 0.000363 0.030920
#
#
# Mechanical properties :
#
#
# Convention : Reuss Voigt Hill
#
# Bulk Modulus (GPa) = 49.27480 60.10355 54.68917
# Shear Modulus (GPa) = 31.53167 36.26823 33.89995
#
# Velocity S-wave (km/s) = 3.79049 4.06523 3.93026
# Velocity P-wave (km/s) = 6.45056 7.03006 6.74653
#
# Compressibility (1/GPa) = 0.02029435
#
# Stress axis : x y z
#
# Youngs Moduli (GPa) = 58.72408 75.03213 78.67975
#
# Poissons Ratio (x) = 0.42115 -0.00454
# Poissons Ratio (y) = 0.32961 0.45876
# Poissons Ratio (z) = -0.00339 0.43749
#
# Static dielectric constant tensor:
#      x y z
#    x 4.077150 -0.263000 -0.204500 
#    y -0.263000 4.103540 -0.007980 
#    z -0.204500 -0.007980 3.992070 
# 
# 
# High freq. dielectric constant tensor:
#      x y z
#    x 1.866690 -0.015130 -0.014620 
#    y -0.015130 1.868200 -0.006600 
#    z -0.014620 -0.006600 1.867140 
# 
# From -- ./inp_files/316089.got.cif
#   From: 2010.06.25/outbox.cif.g09.slc.cpg/sg2_159_cif.got.tgz:316089.got - 2010.06.27 13:26:56.
