data_PCOD8033803
_publ_section_title
;
Structure prediction by ZEFSAII (Michael W. Deem and Ramdas Pophale) SiO2 
 PCOD8033803
Probable space group: P -1
;
_chemical_formula_sum "Si O2"
_cell_formula_units_Z 16
_cell_length_a 5.243502
_cell_length_b 11.729525
_cell_length_c 17.137012
_cell_angle_alpha 129.361343
_cell_angle_beta 121.576080
_cell_angle_gamma 62.872855
_cell_volume 681.867568
_symmetry_space_group_name_H-M "P -1"
_symmetry_group_IT_number 2
_symmetry_cell_setting 'triclinic'
loop_
_space_group_symop_operation_xyz
x,y,z
-x,-y,-z
loop_
_atom_site_type_symbol
_atom_site_label
_atom_site_fract_x
_atom_site_fract_y
_atom_site_fract_z
Si Si1 0.257008 0.498063 0.604074
Si Si2 0.591006 0.225884 0.457103
Si Si3 0.061360 0.570885 0.832056
Si Si4 0.321367 0.084147 0.820783
Si Si5 0.254210 0.384896 0.036290
Si Si6 0.146981 0.299490 0.637884
Si Si7 0.430811 0.241662 0.258900
Si Si8 0.626866 0.067301 0.694775
O O1 0.536400 0.379318 0.563475
O O2 0.179984 0.439643 0.649684
O O3 0.339751 0.661516 0.701548
O O4 0.000000 0.500000 0.500000
O O5 0.470145 0.257293 0.364522
O O6 0.955810 0.188942 0.514095
O O7 0.439266 0.094655 0.412465
O O8 0.424723 0.560763 0.889904
O O9 0.009505 0.398952 0.735067
O O10 0.879545 0.631722 0.907093
O O11 0.912990 0.689618 0.792740
O O12 0.504866 0.103197 0.779037
O O13 0.981704 0.062890 0.737592
O O14 0.483866 0.933400 0.826800
O O15 0.316728 0.222855 0.936190
O O16 0.000000 0.500000 0.000000
O O17 0.463425 0.194308 0.665222
#
# Coordination Sequence:
#
# PCOD8033803 Si02
#       8
#     2   2   2   2   2   2   2   2
#     4  12  22  39  66  92 144 191 234 275 341 408
#     4  11  24  42  66  99 143 191 226 285 344 411
#     4  12  26  43  74 105 136 180 236 289 340 429
#     4  11  26  49  73  99 144 183 226 302 354 413
#     4  12  26  49  75 103 135 180 232 294 363 412
#     4  12  25  42  67 104 142 187 233 291 339 415
#     4  11  24  46  67 107 142 187 237 279 352 417
#     4  11  26  44  71 105 140 184 239 283 351 417
#
# _framework density 23.464964999999999
#
# number of rings (size 3 to 8) (size 9 to 14) (size 15 to 20)
#    0.000    0.500    2.500    5.625    3.500    4.500 
#    0.000    0.000    0.000    0.000    0.000    0.000 
#    0.000    0.000    0.000    0.000    0.000    0.000 
#
# Total GULP energy -198324.229746 kJ/mol
# GULP energy per Si atom -12395.264359 kJ/mol
# Density = 2.341156 g / cm^3
# Si number density = 23.464965 Si / 1000 Ang^3
#
#
#
# Elastic Constant Matrix: (Units=GPa)
#
#
# Indices 1 2 3 4 5 6 
#
# 1 77.1160 7.9137 21.0988 -7.8346 9.5276 -7.1205
# 2 7.9137 124.5446 44.1751 -9.1301 10.7787 -12.5313
# 3 21.0988 44.1751 101.2924 2.5546 23.6135 -7.3543
# 4 -7.8346 -9.1301 2.5546 38.8375 -8.7271 7.8404
# 5 9.5276 10.7787 23.6135 -8.7271 30.3758 -3.0848
# 6 -7.1205 -12.5313 -7.3543 7.8404 -3.0848 36.4319
#
#
#
# Elastic Compliance Matrix: (Units=1/GPa)
#
#
# Indices 1 2 3 4 5 6 
#
# 1 0.014285 0.000579 -0.002782 0.002479 -0.001632 0.001758
# 2 0.000579 0.009934 -0.004535 0.002487 0.000751 0.002143
# 3 -0.002782 -0.004535 0.015137 -0.005261 -0.010677 0.001180
# 4 0.002479 0.002487 -0.005261 0.030676 0.010692 -0.005418
# 5 -0.001632 0.000751 -0.010677 0.010692 0.044462 -0.000752
# 6 0.001758 0.002143 0.001180 -0.005418 -0.000752 0.029870
#
#
# Mechanical properties :
#
#
# Convention : Reuss Voigt Hill
#
# Bulk Modulus (GPa) = 38.64095 49.92535 44.28315
# Shear Modulus (GPa) = 30.03599 36.44675 33.24137
#
# Velocity S-wave (km/s) = 3.58164 3.94539 3.76791
# Velocity P-wave (km/s) = 5.79719 6.48672 6.15163
#
# Compressibility (1/GPa) = 0.02587928
#
# Stress axis : x y z
#
# Youngs Moduli (GPa) = 70.00258 100.66475 66.06255
#
# Poissons Ratio (x) = -0.05830 0.18382
# Poissons Ratio (y) = -0.04054 0.29960
# Poissons Ratio (z) = 0.19478 0.45653
#
# Static dielectric constant tensor:
#      x y z
#    x 4.246230 -0.243230 -0.002880 
#    y -0.243230 4.433430 0.137300 
#    z -0.002880 0.137300 4.367440 
# 
# 
# High freq. dielectric constant tensor:
#      x y z
#    x 1.928460 -0.012040 0.001360 
#    y -0.012040 1.944050 -0.001390 
#    z 0.001360 -0.001390 1.934970 
# 
# From -- ./inp_files/549583.got.cif
#   From: 2010.06.25/outbox.cif.g09.slc.cpg/sg2_275_cif.got.tgz:549583.got - 2010.06.27 13:26:56.
