data_PCOD8033075
_publ_section_title
;
Structure prediction by ZEFSAII (Michael W. Deem and Ramdas Pophale) SiO2 
 PCOD8033075
Probable space group: P -1
;
_chemical_formula_sum "Si O2"
_cell_formula_units_Z 16
_cell_length_a 10.503920
_cell_length_b 19.279919
_cell_length_c 16.966182
_cell_angle_alpha 158.317616
_cell_angle_beta 44.339351
_cell_angle_gamma 147.079845
_cell_volume 652.956603
_symmetry_space_group_name_H-M "P -1"
_symmetry_group_IT_number 2
_symmetry_cell_setting 'triclinic'
loop_
_space_group_symop_operation_xyz
x,y,z
-x,-y,-z
loop_
_atom_site_type_symbol
_atom_site_label
_atom_site_fract_x
_atom_site_fract_y
_atom_site_fract_z
Si Si1 0.635515 0.090369 0.195607
Si Si2 0.895131 0.639114 0.629116
Si Si3 0.325528 0.408177 0.905527
Si Si4 0.267338 0.799665 0.338906
Si Si5 0.278679 0.214958 0.268327
Si Si6 0.495397 0.468942 0.213600
Si Si7 0.096087 0.137022 0.429806
Si Si8 0.720301 0.234731 0.867507
O O1 0.725301 0.335184 0.364815
O O2 0.825212 0.212911 0.315063
O O3 0.358476 0.929459 0.189697
O O4 0.629379 0.905165 0.945728
O O5 0.898258 0.779793 0.701672
O O6 0.783331 0.670222 0.787697
O O7 0.462404 0.440606 0.799369
O O8 0.500000 0.500000 0.000000
O O9 0.215202 0.540834 0.088106
O O10 0.095418 0.112047 0.697554
O O11 0.349147 0.932028 0.355463
O O12 0.018320 0.736094 0.406945
O O13 0.500000 0.000000 0.500000
O O14 0.500000 0.500000 0.500000
O O15 0.138261 0.058231 0.245186
O O16 0.663260 0.682123 0.431891
O O17 0.532049 0.275112 0.001423
O O18 0.000000 0.500000 0.000000
#
# Coordination Sequence:
#
# PCOD8033075 Si02
#       8
#     2   2   2   2   2   2   2   2
#     4  11  27  46  75 108 143 196 250 298 367 438
#     4  11  26  47  73 110 141 201 244 301 363 437
#     4  11  26  42  70 107 142 191 240 301 362 428
#     4  11  25  42  67 102 141 187 233 298 359 424
#     4  12  26  49  71 101 149 187 244 300 361 432
#     4  11  24  47  71 103 148 186 245 294 367 429
#     4  12  25  46  70 102 145 192 237 300 365 428
#     4  11  23  44  73 104 142 186 240 299 361 429
#
# _framework density 24.503924999999999
#
# number of rings (size 3 to 8) (size 9 to 14) (size 15 to 20)
#    0.000    0.750    5.000    0.750    5.250    3.500 
#    0.000    0.000    0.000    0.000    0.000    0.000 
#    0.000    0.000    0.000    0.000    0.000    0.000 
#
# Total GULP energy -198228.996786 kJ/mol
# GULP energy per Si atom -12389.312299 kJ/mol
# Density = 2.444815 g / cm^3
# Si number density = 24.503925 Si / 1000 Ang^3
#
#
#
# Elastic Constant Matrix: (Units=GPa)
#
#
# Indices 1 2 3 4 5 6 
#
# 1 71.7841 15.8960 10.8668 -13.4074 13.9446 -14.0995
# 2 15.8960 110.3610 25.0717 -11.9159 14.7111 -20.4403
# 3 10.8668 25.0717 91.8671 -11.2637 4.6246 -9.0927
# 4 -13.4074 -11.9159 -11.2637 40.6757 -5.2094 4.6092
# 5 13.9446 14.7111 4.6246 -5.2094 41.0611 -9.4923
# 6 -14.0995 -20.4403 -9.0927 4.6092 -9.4923 47.1142
#
#
#
# Elastic Compliance Matrix: (Units=1/GPa)
#
#
# Indices 1 2 3 4 5 6 
#
# 1 0.016366 -0.000605 -0.000739 0.004131 -0.003974 0.003288
# 2 -0.000605 0.010784 -0.002209 0.001652 -0.002408 0.003424
# 3 -0.000739 -0.002209 0.011944 0.002338 0.000211 0.000940
# 4 0.004131 0.001652 0.002338 0.027232 0.001192 -0.000020
# 5 -0.003974 -0.002408 0.000211 0.001192 0.027438 0.003218
# 6 0.003288 0.003424 0.000940 -0.000020 0.003218 0.024526
#
#
# Mechanical properties :
#
#
# Convention : Reuss Voigt Hill
#
# Bulk Modulus (GPa) = 31.26053 41.96459 36.61256
# Shear Modulus (GPa) = 36.74897 40.58204 38.66551
#
# Velocity S-wave (km/s) = 3.87682 4.07399 3.97663
# Velocity P-wave (km/s) = 5.72928 6.26839 6.00489
#
# Compressibility (1/GPa) = 0.03198922
#
# Stress axis : x y z
#
# Youngs Moduli (GPa) = 61.10315 92.73294 83.72068
#
# Poissons Ratio (x) = 0.05607 0.06186
# Poissons Ratio (y) = 0.03695 0.18492
# Poissons Ratio (z) = 0.04515 0.20483
#
# Static dielectric constant tensor:
#      x y z
#    x 5.395940 -0.980150 -2.799480 
#    y -0.980150 5.982510 2.143210 
#    z -2.799480 2.143210 14.435540 
# 
# 
# High freq. dielectric constant tensor:
#      x y z
#    x 1.973380 -0.003320 -0.000290 
#    y -0.003320 1.979420 -0.004240 
#    z -0.000290 -0.004240 1.981550 
# 
# From -- ./inp_files/476362.got.cif
#   From: 2010.06.25/outbox.cif.g09.slc.cpg/sg2_239_cif.got.tgz:476362.got - 2010.06.27 13:26:56.
