data_PCOD8033860
_publ_section_title
;
Structure prediction by ZEFSAII (Michael W. Deem and Ramdas Pophale) SiO2 
 PCOD8033860
Probable space group: P -1
;
_chemical_formula_sum "Si O2"
_cell_formula_units_Z 12
_cell_length_a 11.612527
_cell_length_b 8.533299
_cell_length_c 14.375102
_cell_angle_alpha 139.268371
_cell_angle_beta 144.225418
_cell_angle_gamma 54.706128
_cell_volume 540.813597
_symmetry_space_group_name_H-M "P -1"
_symmetry_group_IT_number 2
_symmetry_cell_setting 'triclinic'
loop_
_space_group_symop_operation_xyz
x,y,z
-x,-y,-z
loop_
_atom_site_type_symbol
_atom_site_label
_atom_site_fract_x
_atom_site_fract_y
_atom_site_fract_z
Si Si1 0.941562 0.985936 0.255488
Si Si2 0.694095 0.124559 0.799893
Si Si3 0.937485 0.495426 0.808594
Si Si4 0.305829 0.270509 0.532520
Si Si5 0.336663 0.135744 0.147548
Si Si6 0.239500 0.725498 0.584392
O O1 0.858568 0.055262 0.332564
O O2 0.116166 0.185426 0.431307
O O3 0.025556 0.725867 0.199457
O O4 0.765926 0.979649 0.063362
O O5 0.499350 0.260841 0.718492
O O6 0.683137 0.884220 0.623232
O O7 0.714641 0.051935 0.887467
O O8 0.884248 0.296721 0.971347
O O9 0.738479 0.603886 0.761720
O O10 0.916931 0.409290 0.649830
O O11 0.298451 0.547023 0.623591
O O12 0.571158 0.168394 0.302395
#
# Coordination Sequence:
#
# PCOD8033860 Si02
#       6
#     2   2   2   2   2   2
#     4  12  26  44  67  99 136 172 213 271 331 387
#     4  11  24  42  70 100 125 172 224 276 311 385
#     4  12  24  44  69  99 130 173 223 265 323 387
#     4  11  24  43  68  97 133 169 222 267 329 381
#     4  12  24  44  69  99 130 173 223 265 323 387
#     4  12  26  44  67  99 136 172 213 271 331 387
#
# _framework density 22.188791999999999
#
# number of rings (size 3 to 8) (size 9 to 14) (size 15 to 20)
#    0.000    0.333    3.333    6.000    4.667    0.000 
#    0.000    2.500    0.000    0.000    0.000    0.000 
#    0.000    0.000    0.000    0.000    0.000    0.000 
#
# Total GULP energy -148934.371141 kJ/mol
# GULP energy per Si atom -12411.197595 kJ/mol
# Density = 2.213829 g / cm^3
# Si number density = 22.188792 Si / 1000 Ang^3
#
#
#
# Elastic Constant Matrix: (Units=GPa)
#
#
# Indices 1 2 3 4 5 6 
#
# 1 89.6503 7.0291 9.6653 3.4642 4.4719 -1.5835
# 2 7.0291 56.3985 -4.3195 -5.1418 4.5117 9.7875
# 3 9.6653 -4.3195 61.4558 -15.2515 -4.8921 -1.0066
# 4 3.4642 -5.1418 -15.2515 29.2328 7.3079 -1.4044
# 5 4.4719 4.5117 -4.8921 7.3079 42.5333 0.0742
# 6 -1.5835 9.7875 -1.0066 -1.4044 0.0742 31.2288
#
#
#
# Elastic Compliance Matrix: (Units=1/GPa)
#
#
# Indices 1 2 3 4 5 6 
#
# 1 0.011790 -0.002063 -0.002782 -0.002953 -0.000835 0.001024
# 2 -0.002063 0.019955 0.002808 0.005561 -0.002522 -0.006012
# 3 -0.002782 0.002808 0.019667 0.010998 0.000367 0.000107
# 4 -0.002953 0.005561 0.010998 0.042889 -0.006384 0.000406
# 5 -0.000835 -0.002522 0.000367 -0.006384 0.025005 0.000413
# 6 0.001024 -0.006012 0.000107 0.000406 0.000413 0.033979
#
#
# Mechanical properties :
#
#
# Convention : Reuss Voigt Hill
#
# Bulk Modulus (GPa) = 21.12432 25.80602 23.46517
# Shear Modulus (GPa) = 28.87874 33.60765 31.24319
#
# Velocity S-wave (km/s) = 3.61155 3.89604 3.75649
# Velocity P-wave (km/s) = 5.18960 5.64750 5.42339
#
# Compressibility (1/GPa) = 0.04733881
#
# Stress axis : x y z
#
# Youngs Moduli (GPa) = 84.81806 50.11236 50.84663
#
# Poissons Ratio (x) = 0.10336 0.14145
# Poissons Ratio (y) = 0.17494 -0.14277
# Poissons Ratio (z) = 0.23595 -0.14070
#
# Static dielectric constant tensor:
#      x y z
#    x 3.896130 -0.044960 -0.009120 
#    y -0.044960 4.060200 -0.171330 
#    z -0.009120 -0.171330 3.973100 
# 
# 
# High freq. dielectric constant tensor:
#      x y z
#    x 1.876990 0.005250 0.000050 
#    y 0.005250 1.878670 -0.010650 
#    z 0.000050 -0.010650 1.879720 
# 
# From -- ./inp_files/146031.got.cif
#   From: 2010.06.25/outbox.cif.g09.slc.cpg/sg2_74_cif.got.tgz:146031.got - 2010.06.27 13:26:56.
