data_PCOD8033778
_publ_section_title
;
Structure prediction by ZEFSAII (Michael W. Deem and Ramdas Pophale) SiO2 
 PCOD8033778
Probable space group: P -1
;
_chemical_formula_sum "Si O2"
_cell_formula_units_Z 14
_cell_length_a 6.759545
_cell_length_b 11.674504
_cell_length_c 13.328426
_cell_angle_alpha 124.056704
_cell_angle_beta 47.491815
_cell_angle_gamma 117.482353
_cell_volume 636.410357
_symmetry_space_group_name_H-M "P -1"
_symmetry_group_IT_number 2
_symmetry_cell_setting 'triclinic'
loop_
_space_group_symop_operation_xyz
x,y,z
-x,-y,-z
loop_
_atom_site_type_symbol
_atom_site_label
_atom_site_fract_x
_atom_site_fract_y
_atom_site_fract_z
Si Si1 0.431465 0.710971 0.168032
Si Si2 0.124650 0.466427 0.042754
Si Si3 0.719737 0.879442 0.764376
Si Si4 0.712831 0.134964 0.512691
Si Si5 0.656040 0.384610 0.292452
Si Si6 0.264684 0.595261 0.498688
Si Si7 0.277790 0.081260 0.986929
O O1 0.182136 0.611360 0.155714
O O2 0.320855 0.812841 0.336376
O O3 0.617606 0.790533 0.057411
O O4 0.613390 0.606753 0.107975
O O5 0.902191 0.358583 0.123570
O O6 0.000000 0.500000 0.000000
O O7 0.598662 0.731464 0.689854
O O8 0.998860 0.919643 0.628397
O O9 0.518422 0.988216 0.861550
O O10 0.777126 0.866520 0.856909
O O11 0.679670 0.258850 0.507344
O O12 0.500000 0.000000 0.500000
O O13 0.542852 0.526710 0.368155
O O14 0.788663 0.380631 0.354383
O O15 0.000000 0.500000 0.500000
O O16 0.000000 0.000000 0.000000
#
# Coordination Sequence:
#
# PCOD8033778 Si02
#       7
#     2   2   2   2   2   2   2
#     4  11  26  44  69 101 142 185 231 294 359 416
#     4  11  24  44  71 102 139 182 240 296 353 419
#     4  11  26  44  70 105 135 187 241 289 353 434
#     4  12  27  46  70 107 152 189 232 302 367 423
#     4  11  24  41  74  99 130 190 240 288 350 412
#     4  11  24  44  68 102 143 177 238 293 346 425
#     4  11  25  46  70  98 140 185 238 288 353 434
#
# _framework density 21.998381999999999
#
# number of rings (size 3 to 8) (size 9 to 14) (size 15 to 20)
#    0.000    0.857    1.429    4.286    8.000    7.429 
#    0.000    0.000    0.000    0.000    0.000    0.000 
#    0.000    0.000    0.000    0.000    0.000    0.000 
#
# Total GULP energy -173618.666376 kJ/mol
# GULP energy per Si atom -12401.333313 kJ/mol
# Density = 2.194831 g / cm^3
# Si number density = 21.998382 Si / 1000 Ang^3
#
#
#
# Elastic Constant Matrix: (Units=GPa)
#
#
# Indices 1 2 3 4 5 6 
#
# 1 153.8637 56.3552 62.5093 -6.6363 19.9523 13.9429
# 2 56.3552 123.3192 30.4494 -6.6598 2.6882 14.9322
# 3 62.5093 30.4494 144.6480 -7.3501 8.7287 15.6470
# 4 -6.6363 -6.6598 -7.3501 33.9478 4.2936 -3.3650
# 5 19.9523 2.6882 8.7287 4.2936 35.4837 -4.5722
# 6 13.9429 14.9322 15.6470 -3.3650 -4.5722 40.4186
#
#
#
# Elastic Compliance Matrix: (Units=1/GPa)
#
#
# Indices 1 2 3 4 5 6 
#
# 1 0.009756 -0.003384 -0.003008 0.001060 -0.004799 -0.001405
# 2 -0.003384 0.010057 -0.000421 0.000893 0.000851 -0.002215
# 3 -0.003008 -0.000421 0.008639 0.001089 -0.000811 -0.002152
# 4 0.001060 0.000893 0.001089 0.030740 -0.004531 0.000930
# 5 -0.004799 0.000851 -0.000811 -0.004531 0.032197 0.004920
# 6 -0.001405 -0.002215 -0.002152 0.000930 0.004920 0.027511
#
#
# Mechanical properties :
#
#
# Convention : Reuss Voigt Hill
#
# Bulk Modulus (GPa) = 67.44943 80.05095 73.75019
# Shear Modulus (GPa) = 36.37165 40.13782 38.25474
#
# Velocity S-wave (km/s) = 4.07059 4.27615 4.17463
# Velocity P-wave (km/s) = 7.26777 7.80058 7.53889
#
# Compressibility (1/GPa) = 0.01482592
#
# Stress axis : x y z
#
# Youngs Moduli (GPa) = 102.50018 99.43169 115.75259
#
# Poissons Ratio (x) = 0.33643 0.34822
# Poissons Ratio (y) = 0.34682 0.04877
# Poissons Ratio (z) = 0.30836 0.04189
#
# Static dielectric constant tensor:
#      x y z
#    x 4.162570 -0.050730 -0.024720 
#    y -0.050730 3.951760 0.030290 
#    z -0.024720 0.030290 4.283170 
# 
# 
# High freq. dielectric constant tensor:
#      x y z
#    x 1.884290 0.001970 -0.001490 
#    y 0.001970 1.868550 -0.001760 
#    z -0.001490 -0.001760 1.875290 
# 
# From -- ./inp_files/76956.got.cif
#   From: 2010.06.25/outbox.cif.g09.slc.cpg/sg2_39_cif.got.tgz:76956.got - 2010.06.27 13:26:56.
