data_PCOD8033698
_publ_section_title
;
Structure prediction by ZEFSAII (Michael W. Deem and Ramdas Pophale) SiO2 
 PCOD8033698
Probable space group: P -1
;
_chemical_formula_sum "Si O2"
_cell_formula_units_Z 16
_cell_length_a 5.716382
_cell_length_b 25.674118
_cell_length_c 6.462381
_cell_angle_alpha 97.383417
_cell_angle_beta 48.362949
_cell_angle_gamma 92.355963
_cell_volume 701.700719
_symmetry_space_group_name_H-M "P -1"
_symmetry_group_IT_number 2
_symmetry_cell_setting 'triclinic'
loop_
_space_group_symop_operation_xyz
x,y,z
-x,-y,-z
loop_
_atom_site_type_symbol
_atom_site_label
_atom_site_fract_x
_atom_site_fract_y
_atom_site_fract_z
Si Si1 0.890835 0.717988 0.099647
Si Si2 0.712256 0.036235 0.264004
Si Si3 0.549866 0.879359 0.820435
Si Si4 0.604742 0.342823 0.922859
Si Si5 0.358734 0.785993 0.633425
Si Si6 0.050582 0.409773 0.437554
Si Si7 0.240550 0.868280 0.413261
Si Si8 0.862427 0.491863 0.294857
O O1 0.162155 0.687898 0.065536
O O2 0.653969 0.687010 0.075514
O O3 0.682432 0.750392 0.409853
O O4 0.066237 0.752641 0.847482
O O5 0.551324 0.062049 0.167929
O O6 0.802566 0.084512 0.375202
O O7 0.500000 0.000000 0.500000
O O8 0.000000 0.000000 0.000000
O O9 0.351790 0.832262 0.830282
O O10 0.895995 0.866179 0.518684
O O11 0.507459 0.879250 0.093698
O O12 0.817402 0.367913 0.637155
O O13 0.406335 0.384907 0.203872
O O14 0.319144 0.812146 0.443776
O O15 0.953709 0.431553 0.278288
O O16 0.001770 0.462509 0.625236
O O17 0.500000 0.500000 0.500000
O O18 0.000000 0.500000 0.000000
#
# Coordination Sequence:
#
# PCOD8033698 Si02
#       8
#     2   2   2   2   2   2   2   2
#     4  12  28  47  74 104 142 192 236 295 364 419
#     4  11  24  41  62  98 138 170 224 278 344 427
#     4  11  24  42  69  96 130 180 225 286 346 406
#     4  12  28  47  74 106 148 188 234 295 364 419
#     4  11  26  46  70  99 136 175 240 293 338 429
#     4  11  26  46  70 108 142 186 240 291 348 431
#     4  11  24  42  69  96 130 180 225 286 346 406
#     4  11  24  43  76 101 139 190 236 289 350 413
#
# _framework density 22.801742000000001
#
# number of rings (size 3 to 8) (size 9 to 14) (size 15 to 20)
#    0.000    0.750    0.000    6.000   10.500    9.000 
#    0.000    0.000    0.000    0.000    0.000    0.000 
#    0.000    0.000    0.000    0.000    0.000    0.000 
#
# Total GULP energy -198291.865238 kJ/mol
# GULP energy per Si atom -12393.241577 kJ/mol
# Density = 2.274984 g / cm^3
# Si number density = 22.801742 Si / 1000 Ang^3
#
#
#
# Elastic Constant Matrix: (Units=GPa)
#
#
# Indices 1 2 3 4 5 6 
#
# 1 120.1445 49.4318 28.8413 -10.6017 -7.0926 -17.9310
# 2 49.4318 111.7739 44.6814 -18.6986 0.0688 -17.6516
# 3 28.8413 44.6814 149.7879 -19.6723 -11.5779 -14.4717
# 4 -10.6017 -18.6986 -19.6723 50.4548 -5.4809 -5.6635
# 5 -7.0926 0.0688 -11.5779 -5.4809 43.9943 -0.4009
# 6 -17.9310 -17.6516 -14.4717 -5.6635 -0.4009 33.4789
#
#
#
# Elastic Compliance Matrix: (Units=1/GPa)
#
#
# Indices 1 2 3 4 5 6 
#
# 1 0.010769 -0.003821 -0.000225 0.001405 0.001894 0.003917
# 2 -0.003821 0.012802 -0.002274 0.003454 -0.000765 0.004296
# 3 -0.000225 -0.002274 0.008242 0.002908 0.002524 0.002766
# 4 0.001405 0.003454 0.002908 0.023855 0.004031 0.007915
# 5 0.001894 -0.000765 0.002524 0.004031 0.024227 0.002674
# 6 0.003917 0.004296 0.002766 0.007915 0.002674 0.036799
#
#
# Mechanical properties :
#
#
# Convention : Reuss Voigt Hill
#
# Bulk Modulus (GPa) = 52.14949 69.73503 60.94226
# Shear Modulus (GPa) = 36.83943 42.83572 39.83758
#
# Velocity S-wave (km/s) = 4.02386 4.33900 4.18440
# Velocity P-wave (km/s) = 6.67152 7.46674 7.08030
#
# Compressibility (1/GPa) = 0.01917564
#
# Stress axis : x y z
#
# Youngs Moduli (GPa) = 92.85485 78.11360 121.33247
#
# Poissons Ratio (x) = 0.29844 0.02726
# Poissons Ratio (y) = 0.35476 0.27585
# Poissons Ratio (z) = 0.02086 0.17759
#
# Static dielectric constant tensor:
#      x y z
#    x 4.320840 -0.100850 0.064860 
#    y -0.100850 4.398380 -0.019050 
#    z 0.064860 -0.019050 4.139570 
# 
# 
# High freq. dielectric constant tensor:
#      x y z
#    x 1.902080 -0.009460 -0.006390 
#    y -0.009460 1.915580 -0.005230 
#    z -0.006390 -0.005230 1.919380 
# 
# From -- ./inp_files/14591.got.cif
#   From: 2010.06.25/outbox.cif.g09.slc.cpg/sg2_8_cif.got.tgz:14591.got - 2010.06.27 13:26:56.
