data_PCOD8033148
_publ_section_title
;
Structure prediction by ZEFSAII (Michael W. Deem and Ramdas Pophale) SiO2 
 PCOD8033148
Probable space group: P -1
;
_chemical_formula_sum "Si O2"
_cell_formula_units_Z 10
_cell_length_a 13.723898
_cell_length_b 14.542575
_cell_length_c 11.610451
_cell_angle_alpha 28.545389
_cell_angle_beta 32.712765
_cell_angle_gamma 20.083027
_cell_volume 378.329487
_symmetry_space_group_name_H-M "P -1"
_symmetry_group_IT_number 2
_symmetry_cell_setting 'triclinic'
loop_
_space_group_symop_operation_xyz
x,y,z
-x,-y,-z
loop_
_atom_site_type_symbol
_atom_site_label
_atom_site_fract_x
_atom_site_fract_y
_atom_site_fract_z
Si Si1 0.427328 0.169392 0.578214
Si Si2 0.683675 0.482640 0.497918
Si Si3 0.855076 0.094646 0.161943
Si Si4 0.852133 0.490401 0.852723
Si Si5 0.171678 0.668417 0.723188
O O1 0.556415 0.222745 0.303343
O O2 0.570996 0.846877 0.763822
O O3 0.479786 0.210039 0.610599
O O4 0.087507 0.418394 0.626752
O O5 0.946610 0.192197 0.633683
O O6 0.477285 0.472890 0.689937
O O7 0.789076 0.479235 0.273364
O O8 0.768782 0.369300 0.999617
O O9 0.000000 0.000000 0.000000
O O10 0.983591 0.329156 0.026144
O O11 0.000000 0.000000 0.500000
#
# Coordination Sequence:
#
# PCOD8033148 Si02
#       5
#     2   2   2   2   2
#     4  12  27  50  75 119 151 194 268 305 383 463
#     4  11  23  49  74 114 152 197 256 306 381 453
#     4  12  28  54  79 107 158 204 253 323 376 446
#     4  12  27  48  79 114 152 201 250 318 385 448
#     4  11  23  44  82 108 157 201 248 312 381 464
#
# _framework density 26.431985000000001
#
# number of rings (size 3 to 8) (size 9 to 14) (size 15 to 20)
#    0.000    0.400    6.000    1.200    2.800    4.000 
#    0.000    0.000    0.000    0.000    0.000    0.000 
#    0.000    0.000    0.000    0.000    0.000    0.000 
#
# Total GULP energy -123968.817440 kJ/mol
# GULP energy per Si atom -12396.881744 kJ/mol
# Density = 2.637183 g / cm^3
# Si number density = 26.431985 Si / 1000 Ang^3
#
#
#
# Elastic Constant Matrix: (Units=GPa)
#
#
# Indices 1 2 3 4 5 6 
#
# 1 45.1189 27.2197 32.6699 -30.2913 27.4190 37.3617
# 2 27.2197 130.9646 27.5039 -5.0609 4.3432 38.9318
# 3 32.6699 27.5039 100.8923 19.2236 2.5924 23.9864
# 4 -30.2913 -5.0609 19.2236 34.4207 19.0535 -11.9257
# 5 27.4190 4.3432 2.5924 19.0535 37.6671 5.0225
# 6 37.3617 38.9318 23.9864 -11.9257 5.0225 67.0966
#
#
#
# Elastic Compliance Matrix: (Units=1/GPa)
#
#
# Indices 1 2 3 4 5 6 
#
# 1 -0.009567 -0.000375 0.008269 -0.025080 0.019569 -0.003333
# 2 -0.000375 0.009419 -0.001402 0.000379 -0.000286 -0.004667
# 3 0.008269 -0.001402 0.007937 0.005684 -0.008616 -0.004973
# 4 -0.025080 0.000379 0.005684 -0.002541 0.017783 0.009931
# 5 0.019569 -0.000286 -0.008616 0.017783 0.004578 -0.004833
# 6 -0.003333 -0.004667 -0.004973 0.009931 -0.004833 0.023373
#
#
# Mechanical properties :
#
#
# Convention : Reuss Voigt Hill
#
# Bulk Modulus (GPa) = 48.14085 50.19587 49.16836
# Shear Modulus (GPa) = 184.22997 40.47571 112.35284
#
# Velocity S-wave (km/s) = 8.35769 3.91745 6.52677
# Velocity P-wave (km/s) = 10.55402 6.28440 8.68565
#
# Compressibility (1/GPa) = 0.02077238
#
# Stress axis : x y z
#
# Youngs Moduli (GPa) = -104.52279 106.16396 125.99411
#
# Poissons Ratio (x) = 0.03984 -1.04180
# Poissons Ratio (y) = -0.03923 0.17660
# Poissons Ratio (z) = 0.86426 0.14880
#
# Static dielectric constant tensor:
#      x y z
#    x 4.967440 0.347010 -0.000210 
#    y 0.347010 5.114380 0.486160 
#    z -0.000210 0.486160 5.100370 
# 
# 
# High freq. dielectric constant tensor:
#      x y z
#    x 2.059970 0.024140 -0.001770 
#    y 0.024140 2.074110 0.016630 
#    z -0.001770 0.016630 2.053970 
# 
# From -- ./inp_files/49614.got.cif
#   From: 2010.06.25/outbox.cif.g09.slc.cpg/sg2_25_cif.got.tgz:49614.got - 2010.06.27 13:26:56.
