data_PCOD8033986
_publ_section_title
;
Structure prediction by ZEFSAII (Michael W. Deem and Ramdas Pophale) SiO2 
 PCOD8033986
Probable space group: P -1
;
_chemical_formula_sum "Si O2"
_cell_formula_units_Z 10
_cell_length_a 6.668151
_cell_length_b 11.844893
_cell_length_c 9.404213
_cell_angle_alpha 54.373342
_cell_angle_beta 59.894785
_cell_angle_gamma 87.343199
_cell_volume 489.353948
_symmetry_space_group_name_H-M "P -1"
_symmetry_group_IT_number 2
_symmetry_cell_setting 'triclinic'
loop_
_space_group_symop_operation_xyz
x,y,z
-x,-y,-z
loop_
_atom_site_type_symbol
_atom_site_label
_atom_site_fract_x
_atom_site_fract_y
_atom_site_fract_z
Si Si1 0.650503 0.145241 0.252566
Si Si2 0.797209 0.690340 0.095372
Si Si3 0.902174 0.631605 0.412024
Si Si4 0.577683 0.147438 0.952786
Si Si5 0.452440 0.570003 0.820977
O O1 0.632611 0.292166 0.221097
O O2 0.500000 0.000000 0.500000
O O3 0.531690 0.118558 0.157941
O O4 0.944617 0.174218 0.123456
O O5 0.785769 0.619210 0.306480
O O6 0.569712 0.748366 0.122393
O O7 0.760125 0.556713 0.095854
O O8 0.704918 0.632646 0.598235
O O9 0.000000 0.500000 0.500000
O O10 0.132832 0.782029 0.234509
O O11 0.500000 0.000000 0.000000
O O12 0.500000 0.500000 0.000000
#
# Coordination Sequence:
#
# PCOD8033986 Si02
#       5
#     2   2   2   2   2
#     4  11  27  43  66 102 133 173 223 274 334 386
#     4  11  24  46  68  94 135 179 220 270 331 395
#     4  11  24  43  69 100 127 174 230 264 326 401
#     4  11  26  44  66  96 135 176 221 269 330 398
#     4  12  23  45  69  98 135 171 221 278 327 392
#
# _framework density 20.435106000000001
#
# number of rings (size 3 to 8) (size 9 to 14) (size 15 to 20)
#    0.000    0.800    4.000    2.400    5.600    4.000 
#    0.000    0.000    0.000    0.000    0.000    0.000 
#    0.000    0.000    0.000    0.000    0.000    0.000 
#
# Total GULP energy -124031.719260 kJ/mol
# GULP energy per Si atom -12403.171926 kJ/mol
# Density = 2.038860 g / cm^3
# Si number density = 20.435106 Si / 1000 Ang^3
#
#
#
# Elastic Constant Matrix: (Units=GPa)
#
#
# Indices 1 2 3 4 5 6 
#
# 1 119.4517 43.5072 58.5005 8.6065 14.6944 19.1292
# 2 43.5072 139.6975 37.6032 -3.7744 11.8081 25.6500
# 3 58.5005 37.6032 151.0649 10.8594 9.1247 18.7397
# 4 8.6065 -3.7744 10.8594 37.3754 -1.7261 -0.8198
# 5 14.6944 11.8081 9.1247 -1.7261 37.4862 2.9145
# 6 19.1292 25.6500 18.7397 -0.8198 2.9145 35.0930
#
#
#
# Elastic Compliance Matrix: (Units=1/GPa)
#
#
# Indices 1 2 3 4 5 6 
#
# 1 0.011741 -0.002020 -0.003343 -0.002140 -0.003023 -0.002937
# 2 -0.002020 0.009088 -0.000891 0.001469 -0.001404 -0.004915
# 3 -0.003343 -0.000891 0.008557 -0.001872 -0.000414 -0.002105
# 4 -0.002140 0.001469 -0.001872 0.028068 0.002001 0.001582
# 5 -0.003023 -0.001404 -0.000414 0.002001 0.028452 0.000579
# 6 -0.002937 -0.004915 -0.002105 0.001582 0.000579 0.034802
#
#
# Mechanical properties :
#
#
# Convention : Reuss Voigt Hill
#
# Bulk Modulus (GPa) = 59.24951 76.60399 67.92675
# Shear Modulus (GPa) = 36.01239 40.03114 38.02176
#
# Velocity S-wave (km/s) = 4.20251 4.43079 4.31816
# Velocity P-wave (km/s) = 7.25293 7.98397 7.62721
#
# Compressibility (1/GPa) = 0.01687778
#
# Stress axis : x y z
#
# Youngs Moduli (GPa) = 85.17226 110.03505 116.86567
#
# Poissons Ratio (x) = 0.22223 0.39070
# Poissons Ratio (y) = 0.17202 0.10415
# Poissons Ratio (z) = 0.28474 0.09806
#
# Static dielectric constant tensor:
#      x y z
#    x 3.909600 0.267970 -0.129390 
#    y 0.267970 3.384950 0.056600 
#    z -0.129390 0.056600 4.015610 
# 
# 
# High freq. dielectric constant tensor:
#      x y z
#    x 1.815750 0.007240 -0.002840 
#    y 0.007240 1.805710 0.003590 
#    z -0.002840 0.003590 1.811550 
# 
# From -- ./inp_files/15114.got.cif
#   From: 2010.06.25/outbox.cif.g09.slc.cpg/sg2_8_cif.got.tgz:15114.got - 2010.06.27 13:26:56.
