data_PCOD8033251
_publ_section_title
;
Structure prediction by ZEFSAII (Michael W. Deem and Ramdas Pophale) SiO2 
 PCOD8033251
Probable space group: P -1
;
_chemical_formula_sum "Si O2"
_cell_formula_units_Z 14
_cell_length_a 10.894141
_cell_length_b 6.510500
_cell_length_c 11.720348
_cell_angle_alpha 66.226705
_cell_angle_beta 127.642866
_cell_angle_gamma 97.102803
_cell_volume 593.706058
_symmetry_space_group_name_H-M "P -1"
_symmetry_group_IT_number 2
_symmetry_cell_setting 'triclinic'
loop_
_space_group_symop_operation_xyz
x,y,z
-x,-y,-z
loop_
_atom_site_type_symbol
_atom_site_label
_atom_site_fract_x
_atom_site_fract_y
_atom_site_fract_z
Si Si1 0.800513 0.067023 0.477180
Si Si2 0.093188 0.635605 0.112048
Si Si3 0.621898 0.543128 0.962955
Si Si4 0.820897 0.906346 0.038322
Si Si5 0.843330 0.099180 0.239083
Si Si6 0.369506 0.285914 0.459191
Si Si7 0.414360 0.566359 0.622525
O O1 0.766755 0.052520 0.326732
O O2 0.753686 0.326361 0.437947
O O3 0.674469 0.962036 0.503844
O O4 0.969925 0.931364 0.634382
O O5 0.231486 0.462929 0.284818
O O6 0.174161 0.837002 0.057791
O O7 0.000000 0.500000 0.000000
O O8 0.977889 0.743133 0.123147
O O9 0.669562 0.795890 0.937764
O O10 0.548783 0.509245 0.806507
O O11 0.500000 0.500000 0.000000
O O12 0.780444 0.357586 0.106683
O O13 0.808208 0.915596 0.167098
O O14 0.390205 0.341198 0.592613
O O15 0.528600 0.274172 0.480129
#
# Coordination Sequence:
#
# PCOD8033251 Si02
#       7
#     2   2   2   2   2   2   2
#     4  11  24  43  68  97 138 179 221 286 344 406
#     4  11  23  45  71 106 138 174 237 288 344 410
#     4  12  26  46  68  99 141 183 233 284 333 413
#     4  11  24  41  73 100 135 185 226 287 346 401
#     4  11  25  44  67 102 134 178 235 278 342 415
#     4  11  24  42  69  97 139 178 227 283 344 408
#     4  11  25  44  65 100 137 181 229 279 344 400
#
# _framework density 23.580693
#
# number of rings (size 3 to 8) (size 9 to 14) (size 15 to 20)
#    0.000    0.857    1.429    5.571    2.000    7.429 
#    0.000    3.571    0.000    0.000    0.000    0.000 
#    0.000    0.000    0.000    0.000    0.000    0.000 
#
# Total GULP energy -173514.409289 kJ/mol
# GULP energy per Si atom -12393.886378 kJ/mol
# Density = 2.352702 g / cm^3
# Si number density = 23.580693 Si / 1000 Ang^3
#
#
#
# Elastic Constant Matrix: (Units=GPa)
#
#
# Indices 1 2 3 4 5 6 
#
# 1 108.2806 39.4140 25.7821 1.8767 -9.3036 -20.6576
# 2 39.4140 103.2889 61.7908 10.3596 0.2280 -2.7967
# 3 25.7821 61.7908 123.3576 24.0506 -7.5244 -18.6642
# 4 1.8767 10.3596 24.0506 31.8082 -6.0648 -5.5816
# 5 -9.3036 0.2280 -7.5244 -6.0648 25.0568 7.7929
# 6 -20.6576 -2.7967 -18.6642 -5.5816 7.7929 50.8412
#
#
#
# Elastic Compliance Matrix: (Units=1/GPa)
#
#
# Indices 1 2 3 4 5 6 
#
# 1 0.012076 -0.004989 0.000479 0.002053 0.003785 0.004454
# 2 -0.004989 0.016143 -0.007700 -0.000388 -0.003317 -0.003500
# 3 0.000479 -0.007700 0.013922 -0.007079 0.001511 0.003873
# 4 0.002053 -0.000388 -0.007079 0.038460 0.007551 0.001279
# 5 0.003785 -0.003317 0.001511 0.007551 0.044916 -0.004146
# 6 0.004454 -0.003500 0.003873 0.001279 -0.004146 0.023484
#
#
# Mechanical properties :
#
#
# Convention : Reuss Voigt Hill
#
# Bulk Modulus (GPa) = 56.42475 65.43343 60.92909
# Shear Modulus (GPa) = 27.88221 35.40393 31.64307
#
# Velocity S-wave (km/s) = 3.44236 3.87899 3.66718
# Velocity P-wave (km/s) = 6.30715 6.91889 6.62009
#
# Compressibility (1/GPa) = 0.01772272
#
# Stress axis : x y z
#
# Youngs Moduli (GPa) = 82.80717 61.94707 71.83132
#
# Poissons Ratio (x) = 0.30903 -0.03443
# Poissons Ratio (y) = 0.41309 0.55307
# Poissons Ratio (z) = -0.03969 0.47697
#
# Static dielectric constant tensor:
#      x y z
#    x 4.450930 -0.161570 -0.173160 
#    y -0.161570 4.343100 0.190990 
#    z -0.173160 0.190990 4.326590 
# 
# 
# High freq. dielectric constant tensor:
#      x y z
#    x 1.950960 -0.019310 -0.006860 
#    y -0.019310 1.933350 0.005510 
#    z -0.006860 0.005510 1.932830 
# 
# From -- ./inp_files/410153.got.cif
#   From: 2010.06.25/outbox.cif.g09.slc.cpg/sg2_206_cif.got.tgz:410153.got - 2010.06.27 13:26:56.
