data_PCOD8033719
_publ_section_title
;
Structure prediction by ZEFSAII (Michael W. Deem and Ramdas Pophale) SiO2 
 PCOD8033719
Probable space group: P -1
;
_chemical_formula_sum "Si O2"
_cell_formula_units_Z 16
_cell_length_a 17.183770
_cell_length_b 10.889185
_cell_length_c 9.489147
_cell_angle_alpha 115.829423
_cell_angle_beta 47.938144
_cell_angle_gamma 143.636159
_cell_volume 759.560691
_symmetry_space_group_name_H-M "P -1"
_symmetry_group_IT_number 2
_symmetry_cell_setting 'triclinic'
loop_
_space_group_symop_operation_xyz
x,y,z
-x,-y,-z
loop_
_atom_site_type_symbol
_atom_site_label
_atom_site_fract_x
_atom_site_fract_y
_atom_site_fract_z
Si Si1 0.149644 0.865969 0.664051
Si Si2 0.840867 0.089528 0.651595
Si Si3 0.383504 0.862833 0.443150
Si Si4 0.624565 0.624578 0.623207
Si Si5 0.840876 0.592177 0.402873
Si Si6 0.282524 0.282504 0.766151
Si Si7 0.149643 0.433343 0.947751
Si Si8 0.616496 0.095819 0.036174
O O1 0.105854 0.832415 0.535468
O O2 0.311707 0.936351 0.517182
O O3 0.177133 0.040228 0.792223
O O4 0.999982 0.648830 0.824398
O O5 0.000010 0.201757 0.600880
O O6 0.702733 0.835608 0.705019
O O7 0.768218 0.151123 0.842964
O O8 0.231780 0.614698 0.539938
O O9 0.500000 0.000000 0.500000
O O10 0.500004 0.916580 0.208289
O O11 0.702714 0.569787 0.571992
O O12 0.427631 0.427635 0.779998
O O13 0.652507 0.652641 0.437972
O O14 0.894192 0.620651 0.190994
O O15 0.177165 0.314057 0.929012
O O16 0.311710 0.687073 0.892553
O O17 0.500000 0.000000 0.000000
#
# Coordination Sequence:
#
# PCOD8033719 Si02
#       8
#     2   2   2   2   2   2   2   2
#     4  11  24  41  66  96 125 166 210 255 313 373
#     4  11  24  42  65  93 130 166 204 260 314 370
#     4  12  25  42  65  93 125 165 215 259 309 370
#     4   9  19  40  66  93 121 165 207 256 314 368
#     4  11  24  42  65  93 130 166 204 260 314 370
#     4   9  19  38  69  92 122 157 215 261 303 366
#     4  11  24  41  66  96 125 166 210 255 313 373
#     4  12  25  42  65  93 125 165 215 259 309 370
#
# _framework density 21.064806999999998
#
# number of rings (size 3 to 8) (size 9 to 14) (size 15 to 20)
#    0.000    1.250    2.500    3.000    7.000    2.000 
#    0.000    0.625    0.000    0.000    0.000    0.000 
#    0.000    0.000    0.000    0.000    0.000    0.000 
#
# Total GULP energy -198438.248172 kJ/mol
# GULP energy per Si atom -12402.390511 kJ/mol
# Density = 2.101686 g / cm^3
# Si number density = 21.064807 Si / 1000 Ang^3
#
#
#
# Elastic Constant Matrix: (Units=GPa)
#
#
# Indices 1 2 3 4 5 6 
#
# 1 105.7767 62.6203 33.3132 8.4699 4.0516 21.6326
# 2 62.6203 97.5516 31.8936 2.1579 -1.8615 17.4935
# 3 33.3132 31.8936 101.1713 -8.2576 9.0156 5.2472
# 4 8.4699 2.1579 -8.2576 30.3097 -1.0644 -0.7384
# 5 4.0516 -1.8615 9.0156 -1.0644 30.0118 4.8428
# 6 21.6326 17.4935 5.2472 -0.7384 4.8428 46.0839
#
#
#
# Elastic Compliance Matrix: (Units=1/GPa)
#
#
# Indices 1 2 3 4 5 6 
#
# 1 0.017114 -0.009259 -0.002774 -0.005035 -0.001565 -0.004119
# 2 -0.009259 0.017525 -0.002611 0.000695 0.003528 -0.002368
# 3 -0.002774 -0.002611 0.012208 0.004196 -0.003522 0.001341
# 4 -0.005035 0.000695 0.004196 0.035559 0.000376 0.002152
# 5 -0.001565 0.003528 -0.003522 0.000376 0.035455 -0.003923
# 6 -0.004119 -0.002368 0.001341 0.002152 -0.003923 0.024827
#
#
# Mechanical properties :
#
#
# Convention : Reuss Voigt Hill
#
# Bulk Modulus (GPa) = 56.95122 62.23931 59.59527
# Shear Modulus (GPa) = 28.11708 33.05922 30.58815
#
# Velocity S-wave (km/s) = 3.65744 3.96587 3.81477
# Velocity P-wave (km/s) = 6.70304 7.11207 6.91058
#
# Compressibility (1/GPa) = 0.01755889
#
# Stress axis : x y z
#
# Youngs Moduli (GPa) = 58.43001 57.06247 81.91639
#
# Poissons Ratio (x) = 0.52833 0.22727
# Poissons Ratio (y) = 0.54099 0.21386
# Poissons Ratio (z) = 0.16211 0.14897
#
# Static dielectric constant tensor:
#      x y z
#    x 3.972720 -0.092210 -0.178810 
#    y -0.092210 3.942720 0.253940 
#    z -0.178810 0.253940 3.343960 
# 
# 
# High freq. dielectric constant tensor:
#      x y z
#    x 1.830680 0.006890 -0.009030 
#    y 0.006890 1.835590 -0.000830 
#    z -0.009030 -0.000830 1.813220 
# 
# From -- ./inp_files/202029.got.cif
#   From: 2010.06.25/outbox.cif.g09.slc.cpg/sg2_102_cif.got.tgz:202029.got - 2010.06.27 13:26:56.
