data_PCOD8033951
_publ_section_title
;
Structure prediction by ZEFSAII (Michael W. Deem and Ramdas Pophale) SiO2 
 PCOD8033951
Probable space group: P -1
;
_chemical_formula_sum "Si O2"
_cell_formula_units_Z 16
_cell_length_a 9.141716
_cell_length_b 14.727519
_cell_length_c 14.983412
_cell_angle_alpha 40.079502
_cell_angle_beta 47.077225
_cell_angle_gamma 77.339124
_cell_volume 730.540078
_symmetry_space_group_name_H-M "P -1"
_symmetry_group_IT_number 2
_symmetry_cell_setting 'triclinic'
loop_
_space_group_symop_operation_xyz
x,y,z
-x,-y,-z
loop_
_atom_site_type_symbol
_atom_site_label
_atom_site_fract_x
_atom_site_fract_y
_atom_site_fract_z
Si Si1 0.488956 0.992034 0.714662
Si Si2 0.074450 0.171785 0.890480
Si Si3 0.552210 0.792368 0.153017
Si Si4 0.155682 0.572969 0.788246
Si Si5 0.359270 0.658160 0.929080
Si Si6 0.732210 0.102120 0.714299
Si Si7 0.606716 0.550105 0.604978
Si Si8 0.701511 0.616293 0.714583
O O1 0.674642 0.206394 0.450213
O O2 0.552239 0.973889 0.803145
O O3 0.512696 0.872995 0.725048
O O4 0.184303 0.885279 0.915297
O O5 0.271275 0.228512 0.844815
O O6 0.204860 0.334276 0.642964
O O7 0.000000 0.000000 0.000000
O O8 0.336322 0.769294 0.322552
O O9 0.442634 0.639308 0.238179
O O10 0.710711 0.987041 0.892775
O O11 0.345226 0.525554 0.731969
O O12 0.000000 0.500000 0.000000
O O13 0.946796 0.466987 0.874085
O O14 0.500077 0.651283 0.790750
O O15 0.405116 0.579838 0.055489
O O16 0.028737 0.231487 0.461272
O O17 0.754480 0.636789 0.571700
#
# Coordination Sequence:
#
# PCOD8033951 Si02
#       8
#     2   2   2   2   2   2   2   2
#     4  12  26  46  74 102 136 185 229 282 349 403
#     4  12  23  43  69  98 141 175 223 285 345 407
#     4  11  25  41  67 103 137 181 225 279 348 409
#     4  12  25  47  71 102 140 176 234 287 333 413
#     4  11  26  48  71  99 137 185 233 285 341 401
#     4  11  24  43  67 100 141 177 229 281 333 417
#     4  12  25  43  70 102 139 180 227 286 347 407
#     4  11  25  46  68  98 142 180 232 286 333 411
#
# _framework density 21.901603000000001
#
# number of rings (size 3 to 8) (size 9 to 14) (size 15 to 20)
#    0.000    0.500    5.000    2.625    3.500    2.500 
#    0.000    0.000    0.000    0.000    0.000    0.000 
#    0.000    0.000    0.000    0.000    0.000    0.000 
#
# Total GULP energy -198406.335357 kJ/mol
# GULP energy per Si atom -12400.395960 kJ/mol
# Density = 2.185175 g / cm^3
# Si number density = 21.901603 Si / 1000 Ang^3
#
#
#
# Elastic Constant Matrix: (Units=GPa)
#
#
# Indices 1 2 3 4 5 6 
#
# 1 92.6604 38.4197 34.1280 -0.3645 0.4377 3.3813
# 2 38.4197 117.5638 50.2775 -23.8254 -2.0750 1.0309
# 3 34.1280 50.2775 112.0818 2.2463 -3.2725 -7.8358
# 4 -0.3645 -23.8254 2.2463 33.5771 3.2478 3.7524
# 5 0.4377 -2.0750 -3.2725 3.2478 34.5188 8.2072
# 6 3.3813 1.0309 -7.8358 3.7524 8.2072 26.5442
#
#
#
# Elastic Compliance Matrix: (Units=1/GPa)
#
#
# Indices 1 2 3 4 5 6 
#
# 1 0.013304 -0.003684 -0.002496 -0.002083 0.000047 -0.002008
# 2 -0.003684 0.014452 -0.005815 0.010971 0.000141 -0.003403
# 3 -0.002496 -0.005815 0.012761 -0.005591 0.000221 0.005033
# 4 -0.002083 0.010971 -0.005591 0.038853 -0.001903 -0.006715
# 5 0.000047 0.000141 0.000221 -0.001903 0.031410 -0.009389
# 6 -0.002008 -0.003403 0.005033 -0.006715 -0.009389 0.043399
#
#
# Mechanical properties :
#
#
# Convention : Reuss Voigt Hill
#
# Bulk Modulus (GPa) = 60.50441 63.10624 61.80533
# Shear Modulus (GPa) = 27.22179 32.22675 29.72427
#
# Velocity S-wave (km/s) = 3.52932 3.84009 3.68798
# Velocity P-wave (km/s) = 6.65535 6.96691 6.81291
#
# Compressibility (1/GPa) = 0.01652772
#
# Stress axis : x y z
#
# Youngs Moduli (GPa) = 75.16757 69.19256 78.36540
#
# Poissons Ratio (x) = 0.25491 0.19557
# Poissons Ratio (y) = 0.27692 0.45569
# Poissons Ratio (z) = 0.18759 0.40235
#
# Static dielectric constant tensor:
#      x y z
#    x 3.950640 -0.073140 0.006070 
#    y -0.073140 3.943400 -0.070400 
#    z 0.006070 -0.070400 3.818920 
# 
# 
# High freq. dielectric constant tensor:
#      x y z
#    x 1.873510 -0.001390 -0.001160 
#    y -0.001390 1.864340 0.000250 
#    z -0.001160 0.000250 1.860960 
# 
# From -- ./inp_files/505233.got.cif
#   From: 2010.06.25/outbox.cif.g09.slc.cpg/sg2_253_cif.got.tgz:505233.got - 2010.06.27 13:26:56.
