data_PCOD8033317
_publ_section_title
;
Structure prediction by ZEFSAII (Michael W. Deem and Ramdas Pophale) SiO2 
 PCOD8033317
Probable space group: P -1
;
_chemical_formula_sum "Si O2"
_cell_formula_units_Z 14
_cell_length_a 15.141709
_cell_length_b 22.836843
_cell_length_c 11.983515
_cell_angle_alpha 150.379354
_cell_angle_beta 28.209688
_cell_angle_gamma 162.691364
_cell_volume 571.101339
_symmetry_space_group_name_H-M "P -1"
_symmetry_group_IT_number 2
_symmetry_cell_setting 'triclinic'
loop_
_space_group_symop_operation_xyz
x,y,z
-x,-y,-z
loop_
_atom_site_type_symbol
_atom_site_label
_atom_site_fract_x
_atom_site_fract_y
_atom_site_fract_z
Si Si1 0.256993 0.518901 0.533464
Si Si2 0.772138 0.544580 0.285989
Si Si3 0.339387 0.145243 0.738276
Si Si4 0.230196 0.773507 0.967053
Si Si5 0.810054 0.192617 0.307993
Si Si6 0.726956 0.568999 0.008251
Si Si7 0.659519 0.862846 0.012085
O O1 0.144321 0.427095 0.630834
O O2 0.369908 0.712720 0.721111
O O3 0.561358 0.599346 0.293055
O O4 0.957955 0.338961 0.490059
O O5 0.500000 0.500000 0.500000
O O6 0.646472 0.356517 0.062724
O O7 0.089776 0.742604 0.192338
O O8 0.554461 0.147518 0.456123
O O9 0.472043 0.340527 0.876186
O O10 0.345383 0.137215 0.850554
O O11 0.982557 0.957045 0.774505
O O12 0.946278 0.623388 0.947143
O O13 0.500000 0.000000 0.000000
O O14 0.079968 0.294440 0.089099
O O15 0.644509 0.988751 0.194224
#
# Coordination Sequence:
#
# PCOD8033317 Si02
#       7
#     2   2   2   2   2   2   2
#     4  12  26  49  79 105 152 197 248 306 369 444
#     4  12  26  53  77 108 155 198 246 308 370 446
#     4  11  23  45  74 108 144 190 252 307 366 439
#     4  12  29  50  75 111 151 201 249 304 376 443
#     4  12  26  44  77 109 149 193 248 308 374 434
#     4  12  25  49  69 110 153 192 247 310 373 436
#     4  11  25  45  74 109 144 193 250 301 372 444
#
# _framework density 24.514036999999998
#
# number of rings (size 3 to 8) (size 9 to 14) (size 15 to 20)
#    0.000    0.286    5.714    1.714    4.000    2.857 
#    0.000    0.000    0.000    0.000    0.000    0.000 
#    0.000    0.000    0.000    0.000    0.000    0.000 
#
# Total GULP energy -173688.656134 kJ/mol
# GULP energy per Si atom -12406.332581 kJ/mol
# Density = 2.445824 g / cm^3
# Si number density = 24.514037 Si / 1000 Ang^3
#
#
#
# Elastic Constant Matrix: (Units=GPa)
#
#
# Indices 1 2 3 4 5 6 
#
# 1 90.5533 27.5629 31.1358 -5.9114 -3.8670 -20.9695
# 2 27.5629 141.0482 57.3705 -12.0884 -7.7869 -32.5703
# 3 31.1358 57.3705 135.4482 -6.4715 -21.8535 -16.5163
# 4 -5.9114 -12.0884 -6.4715 32.1921 -2.0132 -8.0759
# 5 -3.8670 -7.7869 -21.8535 -2.0132 43.2963 2.4855
# 6 -20.9695 -32.5703 -16.5163 -8.0759 2.4855 50.7208
#
#
#
# Elastic Compliance Matrix: (Units=1/GPa)
#
#
# Indices 1 2 3 4 5 6 
#
# 1 0.013259 -0.000256 -0.002181 0.003178 -0.000109 0.005119
# 2 -0.000256 0.010331 -0.003334 0.004717 0.000016 0.006193
# 3 -0.002181 -0.003334 0.010036 0.000664 0.004295 0.000121
# 4 0.003178 0.004717 0.000664 0.036273 0.002568 0.010208
# 5 -0.000109 0.000016 0.004295 0.002568 0.025347 0.000531
# 6 0.005119 0.006193 0.000121 0.010208 0.000531 0.027447
#
#
# Mechanical properties :
#
#
# Convention : Reuss Voigt Hill
#
# Bulk Modulus (GPa) = 45.28057 66.57645 55.92851
# Shear Modulus (GPa) = 35.31172 41.97389 38.64280
#
# Velocity S-wave (km/s) = 3.79947 4.14241 3.97464
# Velocity P-wave (km/s) = 6.14486 7.07791 6.62783
#
# Compressibility (1/GPa) = 0.02208453
#
# Stress axis : x y z
#
# Youngs Moduli (GPa) = 75.41986 96.79642 99.64326
#
# Poissons Ratio (x) = 0.02473 0.21735
# Poissons Ratio (y) = 0.01927 0.33220
# Poissons Ratio (z) = 0.16451 0.32271
#
# Static dielectric constant tensor:
#      x y z
#    x 4.686010 0.189160 -0.254970 
#    y 0.189160 5.140390 -0.551380 
#    z -0.254970 -0.551380 4.808990 
# 
# 
# High freq. dielectric constant tensor:
#      x y z
#    x 1.979980 -0.006120 -0.015290 
#    y -0.006120 1.978750 -0.010500 
#    z -0.015290 -0.010500 1.985720 
# 
# From -- ./inp_files/403519.got.cif
#   From: 2010.06.25/outbox.cif.g09.slc.cpg/sg2_202_cif.got.tgz:403519.got - 2010.06.27 13:26:56.
