data_PCOD8033158
_publ_section_title
;
Structure prediction by ZEFSAII (Michael W. Deem and Ramdas Pophale) SiO2 
 PCOD8033158
Probable space group: P -1
;
_chemical_formula_sum "Si O2"
_cell_formula_units_Z 16
_cell_length_a 8.463727
_cell_length_b 20.022560
_cell_length_c 14.257345
_cell_angle_alpha 22.923989
_cell_angle_beta 125.998212
_cell_angle_gamma 126.977250
_cell_volume 747.384908
_symmetry_space_group_name_H-M "P -1"
_symmetry_group_IT_number 2
_symmetry_cell_setting 'triclinic'
loop_
_space_group_symop_operation_xyz
x,y,z
-x,-y,-z
loop_
_atom_site_type_symbol
_atom_site_label
_atom_site_fract_x
_atom_site_fract_y
_atom_site_fract_z
Si Si1 0.259107 0.969032 0.066707
Si Si2 0.632514 0.217321 0.931741
Si Si3 0.097566 0.873684 0.333350
Si Si4 0.468280 0.594834 0.173670
Si Si5 0.980565 0.514228 0.863168
Si Si6 0.655035 0.888654 0.734638
Si Si7 0.787280 0.385527 0.593626
Si Si8 0.019088 0.165323 0.227669
O O1 0.226130 0.888499 0.264083
O O2 0.221147 0.810750 0.186676
O O3 0.485192 0.074118 0.004496
O O4 0.117907 0.099201 0.812959
O O5 0.808166 0.131047 0.145929
O O6 0.498265 0.289845 0.869010
O O7 0.739406 0.379844 0.695038
O O8 0.095272 0.691186 0.624097
O O9 0.200511 0.024082 0.245199
O O10 0.247574 0.484986 0.239770
O O11 0.620760 0.466509 0.379070
O O12 0.504468 0.718984 0.936507
O O13 0.000000 0.500000 0.000000
O O14 0.054143 0.347541 0.060524
O O15 0.792202 0.830927 0.777277
O O16 0.500000 0.000000 0.500000
O O17 0.000000 0.500000 0.500000
O O18 0.000000 0.000000 0.500000
#
# Coordination Sequence:
#
# PCOD8033158 Si02
#       8
#     2   2   2   2   2   2   2   2
#     4  11  25  42  69 101 138 184 219 287 342 411
#     4  11  23  45  66  96 134 181 226 274 351 407
#     4  11  24  44  68 100 140 176 232 278 348 405
#     4  11  24  42  66  97 132 178 224 280 343 402
#     4  11  25  46  69 101 136 181 229 291 340 405
#     4  12  24  47  70  97 136 183 229 281 340 410
#     4  12  26  39  67 101 136 174 227 281 339 411
#     4  11  25  43  73 100 133 180 231 282 345 409
#
# _framework density 21.407978
#
# number of rings (size 3 to 8) (size 9 to 14) (size 15 to 20)
#    0.000    0.750    1.250    6.750    7.000    2.000 
#    0.000    1.250    0.000    0.000    0.000    0.000 
#    0.000    0.000    0.000    0.000    0.000    0.000 
#
# Total GULP energy -198391.851251 kJ/mol
# GULP energy per Si atom -12399.490703 kJ/mol
# Density = 2.135925 g / cm^3
# Si number density = 21.407978 Si / 1000 Ang^3
#
#
#
# Elastic Constant Matrix: (Units=GPa)
#
#
# Indices 1 2 3 4 5 6 
#
# 1 131.5129 28.2705 43.0330 0.3690 -3.7097 -3.6123
# 2 28.2705 85.9183 17.4418 6.0967 4.0005 3.9930
# 3 43.0330 17.4418 130.3850 12.9830 -10.8506 -3.5754
# 4 0.3690 6.0967 12.9830 35.6173 -1.8032 -3.2669
# 5 -3.7097 4.0005 -10.8506 -1.8032 46.9216 2.9683
# 6 -3.6123 3.9930 -3.5754 -3.2669 2.9683 33.3710
#
#
#
# Elastic Compliance Matrix: (Units=1/GPa)
#
#
# Indices 1 2 3 4 5 6 
#
# 1 0.009097 -0.002606 -0.002745 0.001470 0.000292 0.001120
# 2 -0.002606 0.012980 -0.000839 -0.002147 -0.001462 -0.002005
# 3 -0.002745 -0.000839 0.009152 -0.003042 0.001834 0.000323
# 4 0.001470 -0.002147 -0.003042 0.029837 0.000555 0.002962
# 5 0.000292 -0.001462 0.001834 0.000555 0.022000 -0.001499
# 6 0.001120 -0.002005 0.000323 0.002962 -0.001499 0.030785
#
#
# Mechanical properties :
#
#
# Convention : Reuss Voigt Hill
#
# Bulk Modulus (GPa) = 53.05341 58.36742 55.71042
# Shear Modulus (GPa) = 37.73123 40.45336 39.09229
#
# Velocity S-wave (km/s) = 4.20275 4.35171 4.27788
# Velocity P-wave (km/s) = 6.95605 7.25075 7.10493
#
# Compressibility (1/GPa) = 0.01884893
#
# Stress axis : x y z
#
# Youngs Moduli (GPa) = 109.92406 77.03890 109.26320
#
# Poissons Ratio (x) = 0.20077 0.29995
# Poissons Ratio (y) = 0.28647 0.09170
# Poissons Ratio (z) = 0.30177 0.06465
#
# Static dielectric constant tensor:
#      x y z
#    x 4.083080 -0.056400 -0.146350 
#    y -0.056400 3.809390 0.037880 
#    z -0.146350 0.037880 3.955500 
# 
# 
# High freq. dielectric constant tensor:
#      x y z
#    x 1.857190 0.000170 -0.009850 
#    y 0.000170 1.839630 0.007440 
#    z -0.009850 0.007440 1.852410 
# 
# From -- ./inp_files/189808.got.cif
#   From: 2010.06.25/outbox.cif.g09.slc.cpg/sg2_95_cif.got.tgz:189808.got - 2010.06.27 13:26:56.
