data_PCOD8033667
_publ_section_title
;
Structure prediction by ZEFSAII (Michael W. Deem and Ramdas Pophale) SiO2 
 PCOD8033667
Probable space group: P -1
;
_chemical_formula_sum "Si O2"
_cell_formula_units_Z 16
_cell_length_a 14.026590
_cell_length_b 10.265632
_cell_length_c 13.825316
_cell_angle_alpha 89.381347
_cell_angle_beta 34.930642
_cell_angle_gamma 63.810861
_cell_volume 746.916293
_symmetry_space_group_name_H-M "P -1"
_symmetry_group_IT_number 2
_symmetry_cell_setting 'triclinic'
loop_
_space_group_symop_operation_xyz
x,y,z
-x,-y,-z
loop_
_atom_site_type_symbol
_atom_site_label
_atom_site_fract_x
_atom_site_fract_y
_atom_site_fract_z
Si Si1 0.570810 0.665575 0.611218
Si Si2 0.276469 0.908756 0.376124
Si Si3 0.631322 0.902636 0.994700
Si Si4 0.865335 0.918549 0.959917
Si Si5 0.085247 0.548815 0.509704
Si Si6 0.596757 0.348153 0.554230
Si Si7 0.240816 0.705003 0.260378
Si Si8 0.868526 0.477160 0.180307
O O1 0.671257 0.649095 0.634177
O O2 0.561793 0.514327 0.621844
O O3 0.746703 0.614226 0.377201
O O4 0.293921 0.895351 0.836326
O O5 0.444900 0.937037 0.221120
O O6 0.397120 0.761817 0.366185
O O7 0.303634 0.802297 0.260342
O O8 0.981744 0.129402 0.634047
O O9 0.723706 0.978708 0.973488
O O10 0.881481 0.672770 0.764501
O O11 0.500000 0.000000 0.000000
O O12 0.137830 0.825107 0.720905
O O13 0.906863 0.754363 0.977045
O O14 0.128333 0.666324 0.428725
O O15 0.000000 0.500000 0.500000
O O16 0.364083 0.460274 0.676138
O O17 0.500000 0.500000 0.000000
O O18 0.000000 0.500000 0.000000
#
# Coordination Sequence:
#
# PCOD8033667 Si02
#       8
#     2   2   2   2   2   2   2   2
#     4  11  24  44  69  99 136 176 229 274 338 406
#     4  11  24  40  64  94 131 176 228 274 339 397
#     4  12  22  41  66  96 137 182 225 275 336 399
#     4  11  24  44  69  98 134 177 223 279 338 406
#     4  12  23  42  66 100 139 181 223 275 331 402
#     4  11  24  44  70  97 133 175 224 286 339 397
#     4  11  24  42  62  95 137 178 223 277 329 401
#     4  11  25  48  73  99 135 174 226 287 342 398
#
# _framework density 21.421410999999999
#
# number of rings (size 3 to 8) (size 9 to 14) (size 15 to 20)
#    0.000    0.750    5.000    3.750    3.500    2.500 
#    0.000    1.250    0.000    0.000    0.000    0.000 
#    0.000    0.000    0.000    0.000    0.000    0.000 
#
# Total GULP energy -198348.470543 kJ/mol
# GULP energy per Si atom -12396.779409 kJ/mol
# Density = 2.137265 g / cm^3
# Si number density = 21.421411 Si / 1000 Ang^3
#
#
#
# Elastic Constant Matrix: (Units=GPa)
#
#
# Indices 1 2 3 4 5 6 
#
# 1 102.8587 22.4298 34.4622 0.1509 -6.6174 -8.7640
# 2 22.4298 74.9613 58.7025 2.9002 8.0075 -12.2302
# 3 34.4622 58.7025 136.1568 22.7610 3.8864 6.6109
# 4 0.1509 2.9002 22.7610 48.1656 4.0230 -0.1919
# 5 -6.6174 8.0075 3.8864 4.0230 29.3295 -2.5291
# 6 -8.7640 -12.2302 6.6109 -0.1919 -2.5291 31.3447
#
#
#
# Elastic Compliance Matrix: (Units=1/GPa)
#
#
# Indices 1 2 3 4 5 6 
#
# 1 0.011454 -0.000869 -0.002999 0.001166 0.003385 0.003776
# 2 -0.000869 0.025091 -0.011775 0.004529 -0.005103 0.011646
# 3 -0.002999 -0.011775 0.014623 -0.006287 0.000730 -0.008497
# 4 0.001166 0.004529 -0.006287 0.023729 -0.003109 0.003313
# 5 0.003385 -0.005103 0.000730 -0.003109 0.036733 0.001746
# 6 0.003776 0.011646 -0.008497 0.003313 0.001746 0.039457
#
#
# Mechanical properties :
#
#
# Convention : Reuss Voigt Hill
#
# Bulk Modulus (GPa) = 50.29690 60.57397 55.43544
# Shear Modulus (GPa) = 26.45504 34.99345 30.72425
#
# Velocity S-wave (km/s) = 3.51804 4.04613 3.79129
# Velocity P-wave (km/s) = 6.32715 7.08286 6.71565
#
# Compressibility (1/GPa) = 0.01988194
#
# Stress axis : x y z
#
# Youngs Moduli (GPa) = 87.30335 39.85478 68.38669
#
# Poissons Ratio (x) = 0.03464 0.20512
# Poissons Ratio (y) = 0.07587 0.80523
# Poissons Ratio (z) = 0.26186 0.46928
#
# Static dielectric constant tensor:
#      x y z
#    x 4.257730 -0.329480 -0.465470 
#    y -0.329480 3.956510 0.277200 
#    z -0.465470 0.277200 4.800070 
# 
# 
# High freq. dielectric constant tensor:
#      x y z
#    x 1.844180 -0.012260 -0.014510 
#    y -0.012260 1.836360 0.006980 
#    z -0.014510 0.006980 1.848370 
# 
# From -- ./inp_files/529741.got.cif
#   From: 2010.06.25/outbox.cif.g09.slc.cpg/sg2_265_cif.got.tgz:529741.got - 2010.06.27 13:26:56.
