data_PCOD8033777
_publ_section_title
;
Structure prediction by ZEFSAII (Michael W. Deem and Ramdas Pophale) SiO2 
 PCOD8033777
Probable space group: P -1
;
_chemical_formula_sum "Si O2"
_cell_formula_units_Z 16
_cell_length_a 17.284958
_cell_length_b 9.259202
_cell_length_c 12.203915
_cell_angle_alpha 37.954596
_cell_angle_beta 38.441161
_cell_angle_gamma 41.896689
_cell_volume 704.612165
_symmetry_space_group_name_H-M "P -1"
_symmetry_group_IT_number 2
_symmetry_cell_setting 'triclinic'
loop_
_space_group_symop_operation_xyz
x,y,z
-x,-y,-z
loop_
_atom_site_type_symbol
_atom_site_label
_atom_site_fract_x
_atom_site_fract_y
_atom_site_fract_z
Si Si1 0.642861 0.784681 0.727058
Si Si2 0.918000 0.669735 0.584555
Si Si3 0.021275 0.847241 0.782118
Si Si4 0.391328 0.262311 0.455277
Si Si5 0.195286 0.354203 0.805020
Si Si6 0.563455 0.706849 0.278504
Si Si7 0.399384 0.508732 0.857019
Si Si8 0.888022 0.245209 0.022116
O O1 0.776116 0.821398 0.600157
O O2 0.654694 0.680818 0.652729
O O3 0.525186 0.038982 0.721430
O O4 0.613976 0.575324 0.955711
O O5 0.909711 0.496108 0.800198
O O6 0.000000 0.500000 0.500000
O O7 0.981384 0.881988 0.420414
O O8 0.088953 0.632748 0.746206
O O9 0.103074 0.762015 0.853717
O O10 0.872218 0.852390 0.965904
O O11 0.261654 0.281975 0.656305
O O12 0.463279 0.437462 0.327345
O O13 0.500000 0.000000 0.500000
O O14 0.294326 0.356608 0.789575
O O15 0.500000 0.500000 0.500000
O O16 0.583077 0.707947 0.124129
O O17 0.263427 0.741757 0.844924
O O18 0.000000 0.000000 0.000000
#
# Coordination Sequence:
#
# PCOD8033777 Si02
#       8
#     2   2   2   2   2   2   2   2
#     4  11  26  43  67 104 145 175 235 296 356 423
#     4  11  25  44  71 105 134 188 243 296 358 428
#     4  11  25  47  70 100 149 189 244 296 363 430
#     4  12  25  42  71 105 140 183 236 290 359 423
#     4  11  25  43  71 105 142 193 240 294 361 431
#     4  12  21  44  72 100 135 185 238 285 348 435
#     4  11  25  44  69 102 141 188 228 292 366 420
#     4  11  24  41  74 101 138 183 240 296 357 431
#
# _framework density 22.707526999999999
#
# number of rings (size 3 to 8) (size 9 to 14) (size 15 to 20)
#    0.000    0.750    5.000    1.500    5.250    0.000 
#    2.250    2.500    0.000    0.000    0.000    0.000 
#    0.000    0.000    0.000    0.000    0.000    0.000 
#
# Total GULP energy -198371.139996 kJ/mol
# GULP energy per Si atom -12398.196250 kJ/mol
# Density = 2.265584 g / cm^3
# Si number density = 22.707527 Si / 1000 Ang^3
#
#
#
# Elastic Constant Matrix: (Units=GPa)
#
#
# Indices 1 2 3 4 5 6 
#
# 1 96.2107 22.7223 51.9873 -1.6846 -2.4991 4.9389
# 2 22.7223 113.0993 38.4105 17.5103 -4.7801 3.1849
# 3 51.9873 38.4105 115.7347 7.5811 -9.0671 -1.8695
# 4 -1.6846 17.5103 7.5811 42.8172 4.0723 1.9727
# 5 -2.4991 -4.7801 -9.0671 4.0723 49.1614 10.0183
# 6 4.9389 3.1849 -1.8695 1.9727 10.0183 32.4164
#
#
#
# Elastic Compliance Matrix: (Units=1/GPa)
#
#
# Indices 1 2 3 4 5 6 
#
# 1 0.014157 -0.001010 -0.006224 0.002206 -0.000202 -0.002488
# 2 -0.001010 0.010673 -0.002766 -0.003961 0.001035 -0.001133
# 3 -0.006224 -0.002766 0.012604 -0.001565 0.001550 0.001563
# 4 0.002206 -0.003961 -0.001565 0.025616 -0.002517 -0.000818
# 5 -0.000202 0.001035 0.001550 -0.002517 0.022295 -0.006719
# 6 -0.002488 -0.001133 0.001563 -0.000818 -0.006719 0.033555
#
#
# Mechanical properties :
#
#
# Convention : Reuss Voigt Hill
#
# Bulk Modulus (GPa) = 57.36601 61.25385 59.30993
# Shear Modulus (GPa) = 34.55124 39.00730 36.77927
#
# Velocity S-wave (km/s) = 3.90497 4.14915 4.02891
# Velocity P-wave (km/s) = 6.75645 7.07019 6.91510
#
# Compressibility (1/GPa) = 0.01743193
#
# Stress axis : x y z
#
# Youngs Moduli (GPa) = 70.63664 93.69331 79.34192
#
# Poissons Ratio (x) = 0.09466 0.49386
# Poissons Ratio (y) = 0.07137 0.21947
# Poissons Ratio (z) = 0.43967 0.25917
#
# Static dielectric constant tensor:
#      x y z
#    x 8.103570 -1.219830 -1.946440 
#    y -1.219830 4.616230 0.802010 
#    z -1.946440 0.802010 5.216300 
# 
# 
# High freq. dielectric constant tensor:
#      x y z
#    x 1.898540 0.000390 -0.005010 
#    y 0.000390 1.899140 0.019070 
#    z -0.005010 0.019070 1.901310 
# 
# From -- ./inp_files/461785.got.cif
#   From: 2010.06.25/outbox.cif.g09.slc.cpg/sg2_231_cif.got.tgz:461785.got - 2010.06.27 13:26:56.
