data_PCOD8033807
_publ_section_title
;
Structure prediction by ZEFSAII (Michael W. Deem and Ramdas Pophale) SiO2 
 PCOD8033807
Probable space group: P -1
;
_chemical_formula_sum "Si O2"
_cell_formula_units_Z 14
_cell_length_a 9.492148
_cell_length_b 19.620233
_cell_length_c 13.225304
_cell_angle_alpha 32.222647
_cell_angle_beta 152.515930
_cell_angle_gamma 137.766289
_cell_volume 605.593219
_symmetry_space_group_name_H-M "P -1"
_symmetry_group_IT_number 2
_symmetry_cell_setting 'triclinic'
loop_
_space_group_symop_operation_xyz
x,y,z
-x,-y,-z
loop_
_atom_site_type_symbol
_atom_site_label
_atom_site_fract_x
_atom_site_fract_y
_atom_site_fract_z
Si Si1 0.884239 0.768649 0.827450
Si Si2 0.109002 0.584748 0.355185
Si Si3 0.636209 0.197981 0.068006
Si Si4 0.268065 0.567361 0.030721
Si Si5 0.983394 0.760290 0.460321
Si Si6 0.782747 0.332694 0.477683
Si Si7 0.290030 0.981596 0.485431
O O1 0.571139 0.699355 0.692332
O O2 0.033378 0.817436 0.757174
O O3 0.856411 0.881687 0.749444
O O4 0.118689 0.662908 0.159464
O O5 0.440061 0.528842 0.673770
O O6 0.031236 0.682914 0.277036
O O7 0.848789 0.480610 0.305059
O O8 0.562329 0.074782 0.245001
O O9 0.609769 0.319921 0.967802
O O10 0.382013 0.226548 0.784996
O O11 0.000000 0.500000 0.000000
O O12 0.131932 0.626414 0.765214
O O13 0.088885 0.766323 0.402161
O O14 0.053124 0.879797 0.425143
O O15 0.500000 0.000000 0.500000
#
# Coordination Sequence:
#
# PCOD8033807 Si02
#       7
#     2   2   2   2   2   2   2
#     4  12  26  46  71 103 141 181 230 288 345 401
#     4  11  26  39  70 105 142 179 234 277 341 418
#     4  11  26  45  71 102 139 183 226 288 347 400
#     4  11  24  42  67 104 142 180 231 276 344 418
#     4  11  25  44  73  97 139 184 230 284 341 406
#     4  11  25  41  68 103 139 180 231 281 343 405
#     4  11  26  47  74 101 135 180 240 281 338 419
#
# _framework density 23.117826999999998
#
# number of rings (size 3 to 8) (size 9 to 14) (size 15 to 20)
#    0.000    0.857    2.857    2.571   10.000    4.571 
#    0.000    0.000    0.000    0.000    0.000    0.000 
#    0.000    0.000    0.000    0.000    0.000    0.000 
#
# Total GULP energy -173446.758129 kJ/mol
# GULP energy per Si atom -12389.054152 kJ/mol
# Density = 2.306521 g / cm^3
# Si number density = 23.117827 Si / 1000 Ang^3
#
#
#
# Elastic Constant Matrix: (Units=GPa)
#
#
# Indices 1 2 3 4 5 6 
#
# 1 122.8287 34.1536 40.0064 -0.1219 -5.9737 10.3902
# 2 34.1536 92.7144 54.5863 4.1616 -6.2720 -4.4858
# 3 40.0064 54.5863 104.5023 6.1142 -1.5452 18.2047
# 4 -0.1219 4.1616 6.1142 27.4706 3.4063 0.6839
# 5 -5.9737 -6.2720 -1.5452 3.4063 30.0993 -2.7112
# 6 10.3902 -4.4858 18.2047 0.6839 -2.7112 46.6749
#
#
#
# Elastic Compliance Matrix: (Units=1/GPa)
#
#
# Indices 1 2 3 4 5 6 
#
# 1 0.009695 -0.002225 -0.002334 0.000795 0.001124 -0.001408
# 2 -0.002225 0.017663 -0.009306 -0.001191 0.003440 0.006040
# 3 -0.002334 -0.009306 0.016614 -0.001882 -0.001962 -0.006941
# 4 0.000795 -0.001191 -0.001882 0.037569 -0.004472 -0.000368
# 5 0.001124 0.003440 -0.001962 -0.004472 0.034833 0.002934
# 6 -0.001408 0.006040 -0.006941 -0.000368 0.002934 0.025202
#
#
# Mechanical properties :
#
#
# Convention : Reuss Voigt Hill
#
# Bulk Modulus (GPa) = 61.56896 64.17087 62.86992
# Shear Modulus (GPa) = 28.61745 33.60222 31.10984
#
# Velocity S-wave (km/s) = 3.52219 3.81664 3.67237
# Velocity P-wave (km/s) = 6.57507 6.87319 6.72579
#
# Compressibility (1/GPa) = 0.01624195
#
# Stress axis : x y z
#
# Youngs Moduli (GPa) = 103.14793 56.61641 60.19112
#
# Poissons Ratio (x) = 0.12598 0.14047
# Poissons Ratio (y) = 0.22951 0.56013
# Poissons Ratio (z) = 0.24073 0.52686
#
# Static dielectric constant tensor:
#      x y z
#    x 4.340180 -0.122550 -0.221600 
#    y -0.122550 4.556520 -0.088140 
#    z -0.221600 -0.088140 4.186090 
# 
# 
# High freq. dielectric constant tensor:
#      x y z
#    x 1.924610 -0.008290 -0.008160 
#    y -0.008290 1.926330 0.008380 
#    z -0.008160 0.008380 1.894840 
# 
# From -- ./inp_files/402927.got.cif
#   From: 2010.06.25/outbox.cif.g09.slc.cpg/sg2_202_cif.got.tgz:402927.got - 2010.06.27 13:26:56.
