data_PCOD8033550
_publ_section_title
;
Structure prediction by ZEFSAII (Michael W. Deem and Ramdas Pophale) SiO2 
 PCOD8033550
Probable space group: P -1
;
_chemical_formula_sum "Si O2"
_cell_formula_units_Z 14
_cell_length_a 8.998803
_cell_length_b 11.501423
_cell_length_c 9.734796
_cell_angle_alpha 52.311205
_cell_angle_beta 128.987600
_cell_angle_gamma 99.661190
_cell_volume 579.955122
_symmetry_space_group_name_H-M "P -1"
_symmetry_group_IT_number 2
_symmetry_cell_setting 'triclinic'
loop_
_space_group_symop_operation_xyz
x,y,z
-x,-y,-z
loop_
_atom_site_type_symbol
_atom_site_label
_atom_site_fract_x
_atom_site_fract_y
_atom_site_fract_z
Si Si1 0.743789 0.308198 0.686564
Si Si2 0.705227 0.710364 0.923152
Si Si3 0.653137 0.765719 0.537157
Si Si4 0.882242 0.093922 0.160496
Si Si5 0.098766 0.175451 0.815635
Si Si6 0.314410 0.917396 0.667304
Si Si7 0.084944 0.424383 0.404373
O O1 0.514583 0.310822 0.544019
O O2 0.762563 0.478583 0.557859
O O3 0.867964 0.197800 0.713299
O O4 0.845531 0.249921 0.937572
O O5 0.727636 0.730854 0.760773
O O6 0.465861 0.762257 0.789678
O O7 0.782702 0.830038 0.968535
O O8 0.846133 0.532328 0.171025
O O9 0.848984 0.687556 0.609469
O O10 0.578169 0.953713 0.334455
O O11 0.745653 0.142892 0.181506
O O12 0.801493 0.982844 0.097699
O O13 0.117310 0.000391 0.399185
O O14 0.106102 0.322818 0.626382
#
# Coordination Sequence:
#
# PCOD8033550 Si02
#       7
#     2   2   2   2   2   2   2
#     4  11  24  42  72 103 136 180 231 279 340 408
#     4  11  24  41  70 100 136 178 227 278 338 401
#     4  12  24  45  72 104 138 179 231 282 341 403
#     4  11  24  44  71 102 139 179 231 284 341 405
#     4  11  23  47  71  99 142 181 225 280 345 404
#     4  11  24  43  70 105 138 177 231 287 340 401
#     4  11  25  48  70  99 143 182 225 279 348 405
#
# _framework density 24.139797999999999
#
# number of rings (size 3 to 8) (size 9 to 14) (size 15 to 20)
#    0.000    0.857    1.429    6.857    2.000    2.286 
#    2.571    3.571    0.000    0.000    0.000    0.000 
#    0.000    0.000    0.000    0.000    0.000    0.000 
#
# Total GULP energy -173572.365158 kJ/mol
# GULP energy per Si atom -12398.026083 kJ/mol
# Density = 2.408486 g / cm^3
# Si number density = 24.139798 Si / 1000 Ang^3
#
#
#
# Elastic Constant Matrix: (Units=GPa)
#
#
# Indices 1 2 3 4 5 6 
#
# 1 115.0798 20.9232 56.5385 5.2352 -4.7297 -12.5061
# 2 20.9232 47.0389 24.7973 3.9751 -4.5117 -9.7371
# 3 56.5385 24.7973 83.6305 20.2326 -2.2329 -5.9005
# 4 5.2352 3.9751 20.2326 33.8017 -5.3559 -5.7326
# 5 -4.7297 -4.5117 -2.2329 -5.3559 37.7260 -5.2833
# 6 -12.5061 -9.7371 -5.9005 -5.7326 -5.2833 46.8700
#
#
#
# Elastic Compliance Matrix: (Units=1/GPa)
#
#
# Indices 1 2 3 4 5 6 
#
# 1 0.014025 -0.000348 -0.010282 0.004930 0.002261 0.003233
# 2 -0.000348 0.026844 -0.008024 0.003216 0.003891 0.005306
# 3 -0.010282 -0.008024 0.024103 -0.012948 -0.003124 -0.003312
# 4 0.004930 0.003216 -0.012948 0.038193 0.006464 0.005754
# 5 0.002261 0.003891 -0.003124 0.006464 0.028695 0.005044
# 6 0.003233 0.005306 -0.003312 0.005754 0.005044 0.024156
#
#
# Mechanical properties :
#
#
# Convention : Reuss Voigt Hill
#
# Bulk Modulus (GPa) = 36.14992 50.02969 43.08980
# Shear Modulus (GPa) = 24.68590 33.24555 28.96572
#
# Velocity S-wave (km/s) = 3.20132 3.71510 3.46774
# Velocity P-wave (km/s) = 5.35465 6.25880 5.82430
#
# Compressibility (1/GPa) = 0.02766258
#
# Stress axis : x y z
#
# Youngs Moduli (GPa) = 71.30311 37.25295 41.48803
#
# Poissons Ratio (x) = 0.01297 0.42659
# Poissons Ratio (y) = 0.02483 0.33289
# Poissons Ratio (z) = 0.73316 0.29891
#
# Static dielectric constant tensor:
#      x y z
#    x 4.569540 -0.241090 -0.048860 
#    y -0.241090 4.283620 -0.000630 
#    z -0.048860 -0.000630 4.218850 
# 
# 
# High freq. dielectric constant tensor:
#      x y z
#    x 1.973400 -0.015270 -0.009250 
#    y -0.015270 1.948960 0.004750 
#    z -0.009250 0.004750 1.956920 
# 
# From -- ./inp_files/185481.got.cif
#   From: 2010.06.25/outbox.cif.g09.slc.cpg/sg2_93_cif.got.tgz:185481.got - 2010.06.27 13:26:56.
