data_PCOD8033710
_publ_section_title
;
Structure prediction by ZEFSAII (Michael W. Deem and Ramdas Pophale) SiO2 
 PCOD8033710
Probable space group: P -1
;
_chemical_formula_sum "Si O2"
_cell_formula_units_Z 14
_cell_length_a 8.592389
_cell_length_b 8.957027
_cell_length_c 22.102123
_cell_angle_alpha 38.120601
_cell_angle_beta 38.725000
_cell_angle_gamma 47.607046
_cell_volume 648.812532
_symmetry_space_group_name_H-M "P -1"
_symmetry_group_IT_number 2
_symmetry_cell_setting 'triclinic'
loop_
_space_group_symop_operation_xyz
x,y,z
-x,-y,-z
loop_
_atom_site_type_symbol
_atom_site_label
_atom_site_fract_x
_atom_site_fract_y
_atom_site_fract_z
Si Si1 0.774100 0.240480 0.334848
Si Si2 0.754388 0.394437 0.752010
Si Si3 0.981648 0.322723 0.837415
Si Si4 0.658425 0.173973 0.085470
Si Si5 0.811914 0.695180 0.533884
Si Si6 0.787533 0.914994 0.825190
Si Si7 0.286103 0.465528 0.942125
O O1 0.868410 0.449255 0.279869
O O2 0.476724 0.313472 0.394833
O O3 0.929148 0.226137 0.229013
O O4 0.861839 0.972839 0.423610
O O5 0.845391 0.626488 0.617172
O O6 0.454561 0.452896 0.835055
O O7 0.888241 0.312009 0.800510
O O8 0.807844 0.189440 0.749635
O O9 0.155123 0.074434 0.881420
O O10 0.752786 0.344558 0.949043
O O11 0.387733 0.099230 0.176032
O O12 0.639681 0.319568 0.107275
O O13 0.000000 0.500000 0.500000
O O14 0.657024 0.793605 0.958487
O O15 0.000000 0.500000 0.000000
#
# Coordination Sequence:
#
# PCOD8033710 Si02
#       7
#     2   2   2   2   2   2   2
#     4  11  24  46  75  96 131 185 229 279 344 406
#     4  12  25  42  67 101 138 176 232 285 332 403
#     4  11  24  42  66 102 137 180 224 276 340 415
#     4  11  24  41  65 100 148 180 215 270 353 417
#     4  11  25  48  73  97 131 184 236 283 338 393
#     4  12  22  41  70  99 139 179 221 277 347 412
#     4  12  24  38  63 102 138 177 224 280 344 409
#
# _framework density 21.577884000000001
#
# number of rings (size 3 to 8) (size 9 to 14) (size 15 to 20)
#    0.000    0.571    4.286    4.286    4.000    0.571 
#    0.000    0.714    0.000    0.000    0.000    0.000 
#    0.000    0.000    0.000    0.000    0.000    0.000 
#
# Total GULP energy -173570.521666 kJ/mol
# GULP energy per Si atom -12397.894405 kJ/mol
# Density = 2.152877 g / cm^3
# Si number density = 21.577884 Si / 1000 Ang^3
#
#
#
# Elastic Constant Matrix: (Units=GPa)
#
#
# Indices 1 2 3 4 5 6 
#
# 1 108.4609 36.3690 30.2685 -2.2564 -8.0525 0.5134
# 2 36.3690 92.8621 36.4559 -0.0488 -4.0061 -2.9173
# 3 30.2685 36.4559 114.7703 -5.4740 5.9402 -3.4413
# 4 -2.2564 -0.0488 -5.4740 43.9841 0.9849 -9.3230
# 5 -8.0525 -4.0061 5.9402 0.9849 32.7276 -1.2880
# 6 0.5134 -2.9173 -3.4413 -9.3230 -1.2880 32.0091
#
#
#
# Elastic Compliance Matrix: (Units=1/GPa)
#
#
# Indices 1 2 3 4 5 6 
#
# 1 0.011145 -0.003492 -0.001977 0.000144 0.002647 -0.000561
# 2 -0.003492 0.013588 -0.003468 -0.000448 0.001480 0.000851
# 3 -0.001977 -0.003468 0.010591 0.001527 -0.002833 0.001185
# 4 0.000144 -0.000448 0.001527 0.024480 -0.000749 0.007221
# 5 0.002647 0.001480 -0.002833 -0.000749 0.031958 0.000856
# 6 -0.000561 0.000851 0.001185 0.007221 0.000856 0.033593
#
#
# Mechanical properties :
#
#
# Convention : Reuss Voigt Hill
#
# Bulk Modulus (GPa) = 57.30567 58.03115 57.66841
# Shear Modulus (GPa) = 33.54706 35.94415 34.74561
#
# Velocity S-wave (km/s) = 3.94724 4.08583 4.01713
# Velocity P-wave (km/s) = 6.88401 7.01505 6.94984
#
# Compressibility (1/GPa) = 0.01745028
#
# Stress axis : x y z
#
# Youngs Moduli (GPa) = 89.72834 73.59440 94.42047
#
# Poissons Ratio (x) = 0.25699 0.18667
# Poissons Ratio (y) = 0.31333 0.32742
# Poissons Ratio (z) = 0.17739 0.25520
#
# Static dielectric constant tensor:
#      x y z
#    x 3.841140 -0.120500 0.011100 
#    y -0.120500 4.024370 -0.047200 
#    z 0.011100 -0.047200 4.164710 
# 
# 
# High freq. dielectric constant tensor:
#      x y z
#    x 1.839220 -0.012730 -0.003260 
#    y -0.012730 1.861960 -0.004540 
#    z -0.003260 -0.004540 1.852650 
# 
# From -- ./inp_files/175798.got.cif
#   From: 2010.06.25/outbox.cif.g09.slc.cpg/sg2_88_cif.got.tgz:175798.got - 2010.06.27 13:26:56.
