data_PCOD8033452
_publ_section_title
;
Structure prediction by ZEFSAII (Michael W. Deem and Ramdas Pophale) SiO2 
 PCOD8033452
Probable space group: P -1
;
_chemical_formula_sum "Si O2"
_cell_formula_units_Z 14
_cell_length_a 12.162339
_cell_length_b 23.039701
_cell_length_c 8.569067
_cell_angle_alpha 38.665259
_cell_angle_beta 148.769203
_cell_angle_gamma 152.542765
_cell_volume 571.601256
_symmetry_space_group_name_H-M "P -1"
_symmetry_group_IT_number 2
_symmetry_cell_setting 'triclinic'
loop_
_space_group_symop_operation_xyz
x,y,z
-x,-y,-z
loop_
_atom_site_type_symbol
_atom_site_label
_atom_site_fract_x
_atom_site_fract_y
_atom_site_fract_z
Si Si1 0.102070 0.733814 0.486629
Si Si2 0.173556 0.189822 0.200280
Si Si3 0.923159 0.160735 0.266031
Si Si4 0.174974 0.576103 0.786284
Si Si5 0.742324 0.937660 0.698778
Si Si6 0.224660 0.679301 0.298902
Si Si7 0.307205 0.350515 0.578992
O O1 0.011459 0.597299 0.661518
O O2 0.440999 0.840761 0.630307
O O3 0.012323 0.735554 0.549362
O O4 0.906349 0.735822 0.128699
O O5 0.194689 0.113605 0.260176
O O6 0.482990 0.288221 0.454394
O O7 0.961126 0.113274 0.251180
O O8 0.232637 0.285250 0.455986
O O9 0.746012 0.043353 0.415206
O O10 0.740059 0.199442 0.926255
O O11 0.146484 0.629012 0.484994
O O12 0.021821 0.430537 0.889594
O O13 0.507749 0.666271 0.055116
O O14 0.000000 0.000000 0.000000
O O15 0.500000 0.500000 0.500000
#
# Coordination Sequence:
#
# PCOD8033452 Si02
#       7
#     2   2   2   2   2   2   2
#     4  12  25  48  79 104 154 201 250 312 374 450
#     4  12  25  47  74 114 145 199 252 309 378 445
#     4  12  27  47  75 113 153 195 255 315 371 443
#     4  11  23  46  72 109 153 199 249 303 378 449
#     4  12  28  52  77 110 152 202 255 310 380 452
#     4  11  24  43  74 112 149 195 249 306 380 444
#     4  12  27  48  75 116 153 197 255 307 380 451
#
# _framework density 24.492598999999998
#
# number of rings (size 3 to 8) (size 9 to 14) (size 15 to 20)
#    0.000    0.286    5.714    2.143    2.000    9.143 
#    0.000    0.000    0.000    0.000    0.000    0.000 
#    0.000    0.000    0.000    0.000    0.000    0.000 
#
# Total GULP energy -173447.783989 kJ/mol
# GULP energy per Si atom -12389.127428 kJ/mol
# Density = 2.443685 g / cm^3
# Si number density = 24.492599 Si / 1000 Ang^3
#
#
#
# Elastic Constant Matrix: (Units=GPa)
#
#
# Indices 1 2 3 4 5 6 
#
# 1 126.7892 47.2962 56.8726 0.6797 9.8776 -3.5266
# 2 47.2962 89.8672 46.0603 -4.8034 12.3649 -5.6486
# 3 56.8726 46.0603 127.3224 8.7776 21.8119 -1.7978
# 4 0.6797 -4.8034 8.7776 46.2544 -3.1201 -2.5314
# 5 9.8776 12.3649 21.8119 -3.1201 34.3953 0.4793
# 6 -3.5266 -5.6486 -1.7978 -2.5314 0.4793 34.0670
#
#
#
# Elastic Compliance Matrix: (Units=1/GPa)
#
#
# Indices 1 2 3 4 5 6 
#
# 1 0.010926 -0.003986 -0.003539 0.000150 0.000549 0.000287
# 2 -0.003986 0.015643 -0.003674 0.002368 -0.001965 0.002191
# 3 -0.003539 -0.003674 0.011900 -0.002984 -0.005473 -0.000492
# 4 0.000150 0.002368 -0.002984 0.022738 0.003034 0.001898
# 5 0.000549 -0.001965 -0.005473 0.003034 0.033380 -0.000802
# 6 0.000287 0.002191 -0.000492 0.001898 -0.000802 0.029873
#
#
# Mechanical properties :
#
#
# Convention : Reuss Voigt Hill
#
# Bulk Modulus (GPa) = 62.22270 71.60409 66.91339
# Shear Modulus (GPa) = 32.84826 35.85999 34.35413
#
# Velocity S-wave (km/s) = 3.66615 3.83053 3.74924
# Velocity P-wave (km/s) = 6.58640 6.99016 6.79128
#
# Compressibility (1/GPa) = 0.01607131
#
# Stress axis : x y z
#
# Youngs Moduli (GPa) = 91.52752 63.92606 84.03064
#
# Poissons Ratio (x) = 0.25480 0.29736
# Poissons Ratio (y) = 0.36482 0.30876
# Poissons Ratio (z) = 0.32389 0.23489
#
# Static dielectric constant tensor:
#      x y z
#    x 4.671630 -0.163990 0.063460 
#    y -0.163990 4.442730 -0.002430 
#    z 0.063460 -0.002430 4.747420 
# 
# 
# High freq. dielectric constant tensor:
#      x y z
#    x 1.975550 -0.010180 -0.001240 
#    y -0.010180 1.961560 -0.008570 
#    z -0.001240 -0.008570 1.998790 
# 
# From -- ./inp_files/77528.got.cif
#   From: 2010.06.25/outbox.cif.g09.slc.cpg/sg2_39_cif.got.tgz:77528.got - 2010.06.27 13:26:56.
