data_PCOD8033514
_publ_section_title
;
Structure prediction by ZEFSAII (Michael W. Deem and Ramdas Pophale) SiO2 
 PCOD8033514
Probable space group: P -1
;
_chemical_formula_sum "Si O2"
_cell_formula_units_Z 16
_cell_length_a 24.448253
_cell_length_b 17.736507
_cell_length_c 14.175553
_cell_angle_alpha 20.952464
_cell_angle_beta 150.819624
_cell_angle_gamma 162.117863
_cell_volume 668.034078
_symmetry_space_group_name_H-M "P -1"
_symmetry_group_IT_number 2
_symmetry_cell_setting 'triclinic'
loop_
_space_group_symop_operation_xyz
x,y,z
-x,-y,-z
loop_
_atom_site_type_symbol
_atom_site_label
_atom_site_fract_x
_atom_site_fract_y
_atom_site_fract_z
Si Si1 0.431980 0.382918 0.928130
Si Si2 0.111492 0.523756 0.069227
Si Si3 0.572519 0.257342 0.645294
Si Si4 0.985296 0.336969 0.574048
Si Si5 0.274172 0.485841 0.056039
Si Si6 0.980600 0.262314 0.980982
Si Si7 0.399542 0.236922 0.573110
Si Si8 0.739708 0.577715 0.096589
O O1 0.470206 0.655103 0.610168
O O2 0.500000 0.500000 0.000000
O O3 0.530718 0.319705 0.107044
O O4 0.219447 0.034868 0.013982
O O5 0.215737 0.498114 0.317255
O O6 0.000000 0.500000 0.000000
O O7 0.976880 0.244975 0.109814
O O8 0.259681 0.866031 0.834646
O O9 0.542002 0.332854 0.608737
O O10 0.447649 0.865887 0.912557
O O11 0.924316 0.393455 0.327378
O O12 0.162434 0.469609 0.644757
O O13 0.000000 0.500000 0.500000
O O14 0.834536 0.941483 0.831121
O O15 0.304545 0.283408 0.318898
O O16 0.231405 0.495318 0.875370
O O17 0.103126 0.249331 0.144489
O O18 0.500000 0.500000 0.500000
#
# Coordination Sequence:
#
# PCOD8033514 Si02
#       8
#     2   2   2   2   2   2   2   2
#     4  12  30  49  72 113 158 197 248 313 386 444
#     4  12  29  48  75 116 154 196 248 311 387 445
#     4  12  27  52  76 108 152 200 256 309 371 452
#     4  11  23  46  78 105 144 192 258 312 363 443
#     4  12  24  46  79 106 144 196 253 310 361 452
#     4  12  27  47  73 111 154 195 245 319 377 439
#     4  12  24  47  80 109 146 199 258 301 371 453
#     4  11  25  44  77 107 139 200 252 297 376 450
#
# _framework density 23.950873000000001
#
# number of rings (size 3 to 8) (size 9 to 14) (size 15 to 20)
#    0.000    0.250    5.000    3.375    8.750    2.000 
#    0.000    0.000    0.000    0.000    0.000    0.000 
#    0.000    0.000    0.000    0.000    0.000    0.000 
#
# Total GULP energy -198319.901110 kJ/mol
# GULP energy per Si atom -12394.993819 kJ/mol
# Density = 2.389636 g / cm^3
# Si number density = 23.950873 Si / 1000 Ang^3
#
#
#
# Elastic Constant Matrix: (Units=GPa)
#
#
# Indices 1 2 3 4 5 6 
#
# 1 172.6843 59.5124 17.3973 16.9494 14.7523 1.5822
# 2 59.5124 126.3402 13.3593 19.2362 11.8817 5.4085
# 3 17.3973 13.3593 66.5023 17.8881 11.8068 4.9120
# 4 16.9494 19.2362 17.8881 42.2671 0.8505 8.3619
# 5 14.7523 11.8817 11.8068 0.8505 38.5837 7.1699
# 6 1.5822 5.4085 4.9120 8.3619 7.1699 51.5523
#
#
#
# Elastic Compliance Matrix: (Units=1/GPa)
#
#
# Indices 1 2 3 4 5 6 
#
# 1 0.007148 -0.002961 -0.000661 -0.001324 -0.001702 0.000606
# 2 -0.002961 0.009991 -0.000010 -0.003285 -0.001838 -0.000168
# 3 -0.000661 -0.000010 0.018081 -0.007319 -0.005153 0.000202
# 4 -0.001324 -0.003285 -0.007319 0.029545 0.003896 -0.004252
# 5 -0.001702 -0.001838 -0.005153 0.003896 0.029365 -0.003980
# 6 0.000606 -0.000168 0.000202 -0.004252 -0.003980 0.020621
#
#
# Mechanical properties :
#
#
# Convention : Reuss Voigt Hill
#
# Bulk Modulus (GPa) = 35.77251 60.67389 48.22320
# Shear Modulus (GPa) = 38.07070 44.83113 41.45092
#
# Velocity S-wave (km/s) = 3.99122 4.33112 4.16464
# Velocity P-wave (km/s) = 6.01731 7.09923 6.58054
#
# Compressibility (1/GPa) = 0.02795443
#
# Stress axis : x y z
#
# Youngs Moduli (GPa) = 139.90017 100.08646 55.30778
#
# Poissons Ratio (x) = 0.29639 0.03658
# Poissons Ratio (y) = 0.41429 0.00056
# Poissons Ratio (z) = 0.09253 0.00101
#
# Static dielectric constant tensor:
#      x y z
#    x 4.028150 0.028070 -0.116390 
#    y 0.028070 5.588050 0.726580 
#    z -0.116390 0.726580 5.009360 
# 
# 
# High freq. dielectric constant tensor:
#      x y z
#    x 1.954100 -0.003470 0.010600 
#    y -0.003470 1.963670 0.024230 
#    z 0.010600 0.024230 1.950840 
# 
# From -- ./inp_files/543124.got.cif
#   From: 2010.06.25/outbox.cif.g09.slc.cpg/sg2_272_cif.got.tgz:543124.got - 2010.06.27 13:26:56.
