data_PCOD8033310
_publ_section_title
;
Structure prediction by ZEFSAII (Michael W. Deem and Ramdas Pophale) SiO2 
 PCOD8033310
Probable space group: P -1
;
_chemical_formula_sum "Si O2"
_cell_formula_units_Z 16
_cell_length_a 8.169320
_cell_length_b 6.604142
_cell_length_c 24.459541
_cell_angle_alpha 89.228770
_cell_angle_beta 32.208030
_cell_angle_gamma 89.543879
_cell_volume 703.275210
_symmetry_space_group_name_H-M "P -1"
_symmetry_group_IT_number 2
_symmetry_cell_setting 'triclinic'
loop_
_space_group_symop_operation_xyz
x,y,z
-x,-y,-z
loop_
_atom_site_type_symbol
_atom_site_label
_atom_site_fract_x
_atom_site_fract_y
_atom_site_fract_z
Si Si1 0.403370 0.204168 0.159867
Si Si2 0.145778 0.546360 0.661904
Si Si3 0.767722 0.018910 0.967282
Si Si4 0.300013 0.297411 0.792250
Si Si5 0.766742 0.124997 0.453343
Si Si6 0.175811 0.839194 0.284008
Si Si7 0.677807 0.391877 0.577516
Si Si8 0.921452 0.369272 0.076629
O O1 0.587804 0.265520 0.162283
O O2 0.136284 0.367545 0.222243
O O3 0.246443 0.984589 0.212243
O O4 0.654063 0.190403 0.041121
O O5 0.176849 0.669851 0.596962
O O6 0.461255 0.553802 0.607066
O O7 0.084825 0.314546 0.663011
O O8 0.076393 0.102411 0.850588
O O9 0.829106 0.805833 0.981407
O O10 0.500000 0.000000 0.000000
O O11 0.521095 0.275231 0.782311
O O12 0.501584 0.321005 0.681413
O O13 0.100228 0.495481 0.862685
O O14 0.722641 0.190704 0.528388
O O15 0.500000 0.000000 0.500000
O O16 0.058950 0.976764 0.367367
O O17 0.000000 0.500000 0.500000
O O18 0.000000 0.500000 0.000000
#
# Coordination Sequence:
#
# PCOD8033310 Si02
#       8
#     2   2   2   2   2   2   2   2
#     4  11  24  44  76 103 136 193 245 297 361 451
#     4  11  25  46  76 105 143 189 251 302 366 446
#     4  12  29  45  70 112 155 189 239 307 386 444
#     4  12  27  46  72 107 148 188 242 311 373 437
#     4  11  25  47  75 103 137 197 255 298 363 448
#     4  11  23  45  74 104 140 186 252 299 356 446
#     4  12  29  47  72 109 153 195 239 313 384 432
#     4  12  24  47  77 105 143 199 252 296 365 456
#
# _framework density 22.750695
#
# number of rings (size 3 to 8) (size 9 to 14) (size 15 to 20)
#    0.000    0.500    5.000    2.250    7.000    1.000 
#    0.000    0.000    0.000    0.000    0.000    0.000 
#    0.000    0.000    0.000    0.000    0.000    0.000 
#
# Total GULP energy -198412.160135 kJ/mol
# GULP energy per Si atom -12400.760008 kJ/mol
# Density = 2.269891 g / cm^3
# Si number density = 22.750695 Si / 1000 Ang^3
#
#
#
# Elastic Constant Matrix: (Units=GPa)
#
#
# Indices 1 2 3 4 5 6 
#
# 1 117.2944 52.7591 53.7433 3.5127 -19.1846 6.4048
# 2 52.7591 128.0648 59.9402 -0.2105 1.4585 4.9909
# 3 53.7433 59.9402 142.2963 0.6209 8.0536 3.5431
# 4 3.5127 -0.2105 0.6209 48.5443 -0.6557 -9.4392
# 5 -19.1846 1.4585 8.0536 -0.6557 43.5551 3.0889
# 6 6.4048 4.9909 3.5431 -9.4392 3.0889 34.3523
#
#
#
# Elastic Compliance Matrix: (Units=1/GPa)
#
#
# Indices 1 2 3 4 5 6 
#
# 1 0.013172 -0.003652 -0.003752 -0.001317 0.006776 -0.002510
# 2 -0.003652 0.010784 -0.003078 0.000259 -0.001370 -0.000374
# 3 -0.003752 -0.003078 0.009922 0.000178 -0.003415 0.000479
# 4 -0.001317 0.000259 0.000178 0.021904 -0.000737 0.006275
# 5 0.006776 -0.001370 -0.003415 -0.000737 0.026846 -0.003329
# 6 -0.002510 -0.000374 0.000479 0.006275 -0.003329 0.031606
#
#
# Mechanical properties :
#
#
# Convention : Reuss Voigt Hill
#
# Bulk Modulus (GPa) = 77.42997 80.06007 78.74502
# Shear Modulus (GPa) = 35.84168 40.03788 37.93978
#
# Velocity S-wave (km/s) = 3.97345 4.19961 4.08809
# Velocity P-wave (km/s) = 7.42692 7.66696 7.54789
#
# Compressibility (1/GPa) = 0.01291490
#
# Stress axis : x y z
#
# Youngs Moduli (GPa) = 75.91833 92.72869 100.79050
#
# Poissons Ratio (x) = 0.33865 0.37815
# Poissons Ratio (y) = 0.27726 0.31019
# Poissons Ratio (z) = 0.28483 0.28538
#
# Static dielectric constant tensor:
#      x y z
#    x 3.871760 0.075750 -0.165980 
#    y 0.075750 4.301260 0.199480 
#    z -0.165980 0.199480 4.415840 
# 
# 
# High freq. dielectric constant tensor:
#      x y z
#    x 1.876870 0.005760 -0.014780 
#    y 0.005760 1.907910 0.006750 
#    z -0.014780 0.006750 1.915910 
# 
# From -- ./inp_files/616341.got.cif
#   From: 2010.06.25/outbox.cif.g09.slc.cpg/sg2_309_cif.got.tgz:616341.got - 2010.06.27 13:26:56.
