data_PCOD8033664
_publ_section_title
;
Structure prediction by ZEFSAII (Michael W. Deem and Ramdas Pophale) SiO2 
 PCOD8033664
Probable space group: P -1
;
_chemical_formula_sum "Si O2"
_cell_formula_units_Z 16
_cell_length_a 15.707653
_cell_length_b 8.242085
_cell_length_c 12.884338
_cell_angle_alpha 76.065947
_cell_angle_beta 26.836490
_cell_angle_gamma 76.016926
_cell_volume 729.512730
_symmetry_space_group_name_H-M "P -1"
_symmetry_group_IT_number 2
_symmetry_cell_setting 'triclinic'
loop_
_space_group_symop_operation_xyz
x,y,z
-x,-y,-z
loop_
_atom_site_type_symbol
_atom_site_label
_atom_site_fract_x
_atom_site_fract_y
_atom_site_fract_z
Si Si1 0.839952 0.382114 0.973927
Si Si2 0.472939 0.336490 0.674716
Si Si3 0.226694 0.131210 0.318857
Si Si4 0.482332 0.806412 0.572047
Si Si5 0.431400 0.030385 0.909202
Si Si6 0.154693 0.766043 0.229687
Si Si7 0.707489 0.510322 0.731604
Si Si8 0.256732 0.433387 0.555602
O O1 0.702382 0.547531 0.109511
O O2 0.735699 0.223230 0.157664
O O3 0.887430 0.348002 0.806635
O O4 0.035000 0.407853 0.818655
O O5 0.460067 0.312992 0.569365
O O6 0.463018 0.153121 0.761754
O O7 0.670552 0.417257 0.475058
O O8 0.211254 0.324431 0.337648
O O9 0.010725 0.089360 0.585731
O O10 0.364722 0.013353 0.256469
O O11 0.287185 0.115307 0.136476
O O12 0.624209 0.741689 0.520072
O O13 0.500000 0.000000 0.500000
O O14 0.345772 0.861159 0.985759
O O15 0.173024 0.651962 0.330334
O O16 0.703983 0.508850 0.612151
O O17 0.500000 0.500000 0.000000
#
# Coordination Sequence:
#
# PCOD8033664 Si02
#       8
#     2   2   2   2   2   2   2   2
#     4  11  24  44  71 101 130 173 224 273 328 394
#     4  11  26  44  70  96 131 175 220 276 333 387
#     4  11  24  40  61  96 135 176 222 263 330 389
#     4  11  26  48  72  96 132 169 216 278 341 393
#     4  11  25  42  63  97 139 176 220 272 327 393
#     4  12  24  40  67  97 136 177 221 270 325 394
#     4  12  22  40  67  93 136 179 220 270 321 392
#     4  11  25  43  69  99 129 171 225 271 324 396
#
# _framework density 21.932449999999999
#
# number of rings (size 3 to 8) (size 9 to 14) (size 15 to 20)
#    0.000    0.750    2.500    6.000    5.250    3.500 
#    0.000    0.000    0.000    0.000    0.000    0.000 
#    0.000    0.000    0.000    0.000    0.000    0.000 
#
# Total GULP energy -198426.188417 kJ/mol
# GULP energy per Si atom -12401.636776 kJ/mol
# Density = 2.188253 g / cm^3
# Si number density = 21.932450 Si / 1000 Ang^3
#
#
#
# Elastic Constant Matrix: (Units=GPa)
#
#
# Indices 1 2 3 4 5 6 
#
# 1 111.4307 40.4457 51.7196 1.0407 -3.6176 -5.4181
# 2 40.4457 107.2949 32.7213 -14.0060 1.2086 -9.3935
# 3 51.7196 32.7213 121.5536 6.7604 -7.0814 -18.7609
# 4 1.0407 -14.0060 6.7604 41.4848 1.9839 6.7253
# 5 -3.6176 1.2086 -7.0814 1.9839 24.1353 3.4225
# 6 -5.4181 -9.3935 -18.7609 6.7253 3.4225 29.9629
#
#
#
# Elastic Compliance Matrix: (Units=1/GPa)
#
#
# Indices 1 2 3 4 5 6 
#
# 1 0.012262 -0.003493 -0.004444 -0.000542 0.000988 -0.001652
# 2 -0.003493 0.011913 -0.001906 0.004333 -0.002204 0.001189
# 3 -0.004444 -0.001906 0.012000 -0.003680 0.002306 0.006675
# 4 -0.000542 0.004333 -0.003680 0.027426 -0.002654 -0.006897
# 5 0.000988 -0.002204 0.002306 -0.002654 0.043067 -0.003392
# 6 -0.001652 0.001189 0.006675 -0.006897 -0.003392 0.039564
#
#
# Mechanical properties :
#
#
# Convention : Reuss Voigt Hill
#
# Bulk Modulus (GPa) = 60.65350 65.56137 63.10743
# Shear Modulus (GPa) = 29.16892 33.47611 31.32251
#
# Velocity S-wave (km/s) = 3.65080 3.91106 3.78317
# Velocity P-wave (km/s) = 6.74432 7.09595 6.92237
#
# Compressibility (1/GPa) = 0.01648709
#
# Stress axis : x y z
#
# Youngs Moduli (GPa) = 81.55520 83.94289 83.33219
#
# Poissons Ratio (x) = 0.29324 0.37033
# Poissons Ratio (y) = 0.28490 0.15887
# Poissons Ratio (z) = 0.36243 0.16003
#
# Static dielectric constant tensor:
#      x y z
#    x 4.120710 -0.003050 -0.062660 
#    y -0.003050 3.900170 -0.121540 
#    z -0.062660 -0.121540 4.078330 
# 
# 
# High freq. dielectric constant tensor:
#      x y z
#    x 1.869960 0.003460 -0.003890 
#    y 0.003460 1.859060 -0.004260 
#    z -0.003890 -0.004260 1.871920 
# 
# From -- ./inp_files/447033.got.cif
#   From: 2010.06.25/outbox.cif.g09.slc.cpg/sg2_224_cif.got.tgz:447033.got - 2010.06.27 13:26:56.
