data_PCOD8033904
_publ_section_title
;
Structure prediction by ZEFSAII (Michael W. Deem and Ramdas Pophale) SiO2 
 PCOD8033904
Probable space group: P -1
;
_chemical_formula_sum "Si O2"
_cell_formula_units_Z 14
_cell_length_a 21.473039
_cell_length_b 9.858023
_cell_length_c 9.033709
_cell_angle_alpha 50.338564
_cell_angle_beta 47.766108
_cell_angle_gamma 26.439546
_cell_volume 626.562260
_symmetry_space_group_name_H-M "P -1"
_symmetry_group_IT_number 2
_symmetry_cell_setting 'triclinic'
loop_
_space_group_symop_operation_xyz
x,y,z
-x,-y,-z
loop_
_atom_site_type_symbol
_atom_site_label
_atom_site_fract_x
_atom_site_fract_y
_atom_site_fract_z
Si Si1 0.431726 0.296525 0.947745
Si Si2 0.173400 0.621038 0.339925
Si Si3 0.885342 0.685396 0.427004
Si Si4 0.321481 0.673035 0.576572
Si Si5 0.147552 0.693985 0.662209
Si Si6 0.097253 0.403105 0.042995
Si Si7 0.393890 0.736501 0.135579
O O1 0.416121 0.436323 0.725116
O O2 0.550092 0.175106 0.953275
O O3 0.281160 0.525125 0.116804
O O4 0.500000 0.000000 0.000000
O O5 0.157656 0.438415 0.466808
O O6 0.225457 0.571012 0.461187
O O7 0.023278 0.980231 0.307780
O O8 0.000000 0.500000 0.500000
O O9 0.970328 0.648793 0.193093
O O10 0.742498 0.034131 0.463780
O O11 0.203685 0.731979 0.670346
O O12 0.412279 0.561562 0.360024
O O13 0.177209 0.448054 0.847336
O O14 0.224167 0.046433 0.138351
O O15 0.000000 0.500000 0.000000
O O16 0.500000 0.500000 0.000000
#
# Coordination Sequence:
#
# PCOD8033904 Si02
#       7
#     2   2   2   2   2   2   2
#     4  12  28  46  69  99 147 188 234 285 355 426
#     4  11  24  44  68 104 142 184 231 294 350 415
#     4  12  23  43  75 104 143 180 240 302 346 407
#     4  12  26  46  73 104 138 190 238 293 352 415
#     4  11  24  42  73 102 139 179 241 292 346 410
#     4  12  26  46  75 106 140 188 240 289 352 417
#     4  12  28  48  70 103 146 186 234 288 358 429
#
# _framework density 22.344145999999999
#
# number of rings (size 3 to 8) (size 9 to 14) (size 15 to 20)
#    0.000    0.286    4.286    3.857    8.000    2.286 
#    0.000    2.857    0.000    0.000    0.000    0.000 
#    0.000    0.000    0.000    0.000    0.000    0.000 
#
# Total GULP energy -173551.949879 kJ/mol
# GULP energy per Si atom -12396.567848 kJ/mol
# Density = 2.229329 g / cm^3
# Si number density = 22.344146 Si / 1000 Ang^3
#
#
#
# Elastic Constant Matrix: (Units=GPa)
#
#
# Indices 1 2 3 4 5 6 
#
# 1 130.0576 34.2533 21.9026 -2.6682 15.9344 2.2073
# 2 34.2533 97.0937 50.3913 0.1573 16.4022 8.6638
# 3 21.9026 50.3913 142.1597 13.0979 20.7942 4.5953
# 4 -2.6682 0.1573 13.0979 44.0516 3.7851 -0.6432
# 5 15.9344 16.4022 20.7942 3.7851 38.3148 2.0532
# 6 2.2073 8.6638 4.5953 -0.6432 2.0532 31.9493
#
#
#
# Elastic Compliance Matrix: (Units=1/GPa)
#
#
# Indices 1 2 3 4 5 6 
#
# 1 0.008720 -0.002608 -0.000132 0.000799 -0.002533 0.000303
# 2 -0.002608 0.014115 -0.004239 0.001236 -0.002627 -0.002844
# 3 -0.000132 -0.004239 0.009209 -0.002484 -0.002881 -0.000031
# 4 0.000799 0.001236 -0.002484 0.023653 -0.001880 0.000564
# 5 -0.002533 -0.002627 -0.002881 -0.001880 0.030063 -0.000668
# 6 0.000303 -0.002844 -0.000031 0.000564 -0.000668 0.032109
#
#
# Mechanical properties :
#
#
# Convention : Reuss Voigt Hill
#
# Bulk Modulus (GPa) = 55.29414 64.71172 60.00293
# Shear Modulus (GPa) = 36.27013 40.38072 38.32543
#
# Velocity S-wave (km/s) = 4.03333 4.25575 4.14603
# Velocity P-wave (km/s) = 6.81840 7.29197 7.05916
#
# Compressibility (1/GPa) = 0.01808510
#
# Stress axis : x y z
#
# Youngs Moduli (GPa) = 114.68384 70.84582 108.59417
#
# Poissons Ratio (x) = 0.18477 0.01431
# Poissons Ratio (y) = 0.29911 0.46036
# Poissons Ratio (z) = 0.01511 0.30034
#
# Static dielectric constant tensor:
#      x y z
#    x 4.484050 0.321840 0.106710 
#    y 0.321840 3.952760 0.065710 
#    z 0.106710 0.065710 4.455410 
# 
# 
# High freq. dielectric constant tensor:
#      x y z
#    x 1.899680 0.011030 0.006880 
#    y 0.011030 1.873100 0.004360 
#    z 0.006880 0.004360 1.898350 
# 
# From -- ./inp_files/218206.got.cif
#   From: 2010.06.25/outbox.cif.g09.slc.cpg/sg2_110_cif.got.tgz:218206.got - 2010.06.27 13:26:56.
