data_PCOD8033175
_publ_section_title
;
Structure prediction by ZEFSAII (Michael W. Deem and Ramdas Pophale) SiO2 
 PCOD8033175
Probable space group: P -1
;
_chemical_formula_sum "Si O2"
_cell_formula_units_Z 16
_cell_length_a 16.203223
_cell_length_b 9.126971
_cell_length_c 8.603814
_cell_angle_alpha 106.871569
_cell_angle_beta 64.740479
_cell_angle_gamma 141.292769
_cell_volume 717.536482
_symmetry_space_group_name_H-M "P -1"
_symmetry_group_IT_number 2
_symmetry_cell_setting 'triclinic'
loop_
_space_group_symop_operation_xyz
x,y,z
-x,-y,-z
loop_
_atom_site_type_symbol
_atom_site_label
_atom_site_fract_x
_atom_site_fract_y
_atom_site_fract_z
Si Si1 0.778359 0.629474 0.765800
Si Si2 0.769352 0.030951 0.494738
Si Si3 0.235496 0.323735 0.566941
Si Si4 0.810847 0.162253 0.851584
Si Si5 0.032910 0.888680 0.111970
Si Si6 0.514424 0.837820 0.471409
Si Si7 0.959006 0.642244 0.795996
Si Si8 0.474854 0.290805 0.908140
O O1 0.788321 0.706182 0.607616
O O2 0.873950 0.601453 0.704204
O O3 0.618735 0.385896 0.865049
O O4 0.831354 0.831027 0.898260
O O5 0.734233 0.807320 0.433698
O O6 0.636041 0.965461 0.539269
O O7 0.820424 0.119729 0.655002
O O8 0.896923 0.247070 0.347856
O O9 0.367515 0.597331 0.589771
O O10 0.096092 0.208861 0.719984
O O11 0.921078 0.215390 0.887538
O O12 0.860468 0.400197 0.893188
O O13 0.651415 0.943443 0.968051
O O14 0.994120 0.824331 0.942550
O O15 0.551595 0.777115 0.274439
O O16 0.500000 0.000000 0.500000
O O17 0.500000 0.500000 0.000000
#
# Coordination Sequence:
#
# PCOD8033175 Si02
#       8
#     2   2   2   2   2   2   2   2
#     4  11  23  45  68 103 136 179 230 279 343 406
#     4  12  25  47  69  98 139 184 233 277 344 422
#     4  11  24  44  73  97 138 184 228 280 340 422
#     4  12  26  44  70 101 137 183 227 282 350 403
#     4  12  23  44  70 100 138 178 232 280 339 408
#     4  11  28  45  71 107 140 180 230 293 350 402
#     4  12  28  40  69 105 139 176 226 293 342 405
#     4  11  24  47  75  97 142 186 229 283 341 420
#
# _framework density 22.298518000000001
#
# number of rings (size 3 to 8) (size 9 to 14) (size 15 to 20)
#    0.000    0.500    3.750    4.125    7.000    1.500 
#    0.000    0.000    0.000    0.000    0.000    0.000 
#    0.000    0.000    0.000    0.000    0.000    0.000 
#
# Total GULP energy -198434.715871 kJ/mol
# GULP energy per Si atom -12402.169742 kJ/mol
# Density = 2.224777 g / cm^3
# Si number density = 22.298518 Si / 1000 Ang^3
#
#
#
# Elastic Constant Matrix: (Units=GPa)
#
#
# Indices 1 2 3 4 5 6 
#
# 1 131.4167 26.9725 11.3680 -12.9942 2.4094 14.1135
# 2 26.9725 94.1464 17.8121 -19.5580 -0.6972 12.5207
# 3 11.3680 17.8121 80.9116 -5.3090 -6.1576 13.3530
# 4 -12.9942 -19.5580 -5.3090 29.4616 -0.7858 2.4142
# 5 2.4094 -0.6972 -6.1576 -0.7858 25.1293 -1.2516
# 6 14.1135 12.5207 13.3530 2.4142 -1.2516 34.4285
#
#
#
# Elastic Compliance Matrix: (Units=1/GPa)
#
#
# Indices 1 2 3 4 5 6 
#
# 1 0.008572 -0.001355 -0.000256 0.003069 -0.000984 -0.003173
# 2 -0.001355 0.013666 -0.001512 0.008569 0.000186 -0.004422
# 3 -0.000256 -0.001512 0.013876 0.001858 0.003205 -0.004741
# 4 0.003069 0.008569 0.001858 0.042009 0.001314 -0.007993
# 5 -0.000984 0.000186 0.003205 0.001314 0.040744 0.000482
# 6 -0.003173 -0.004422 -0.004741 -0.007993 0.000482 0.034371
#
#
# Mechanical properties :
#
#
# Convention : Reuss Voigt Hill
#
# Bulk Modulus (GPa) = 33.48086 46.53110 40.00598
# Shear Modulus (GPa) = 29.50893 34.49201 32.00047
#
# Velocity S-wave (km/s) = 3.64175 3.93724 3.79237
# Velocity P-wave (km/s) = 5.72106 6.44840 6.09559
#
# Compressibility (1/GPa) = 0.02986781
#
# Stress axis : x y z
#
# Youngs Moduli (GPa) = 116.66043 73.17610 72.06612
#
# Poissons Ratio (x) = 0.09917 0.01844
# Poissons Ratio (y) = 0.15810 0.10895
# Poissons Ratio (z) = 0.02986 0.11062
#
# Static dielectric constant tensor:
#      x y z
#    x 4.149930 0.108410 0.023900 
#    y 0.108410 4.363370 -0.066210 
#    z 0.023900 -0.066210 3.999260 
# 
# 
# High freq. dielectric constant tensor:
#      x y z
#    x 1.883900 0.009990 -0.000890 
#    y 0.009990 1.893390 -0.002450 
#    z -0.000890 -0.002450 1.873360 
# 
# From -- ./inp_files/205230.got.cif
#   From: 2010.06.25/outbox.cif.g09.slc.cpg/sg2_103_cif.got.tgz:205230.got - 2010.06.27 13:26:56.
