data_PCOD8033527
_publ_section_title
;
Structure prediction by ZEFSAII (Michael W. Deem and Ramdas Pophale) SiO2 
 PCOD8033527
Probable space group: P -1
;
_chemical_formula_sum "Si O2"
_cell_formula_units_Z 16
_cell_length_a 12.793784
_cell_length_b 11.496955
_cell_length_c 9.296943
_cell_angle_alpha 88.321830
_cell_angle_beta 46.522897
_cell_angle_gamma 58.825466
_cell_volume 721.809231
_symmetry_space_group_name_H-M "P -1"
_symmetry_group_IT_number 2
_symmetry_cell_setting 'triclinic'
loop_
_space_group_symop_operation_xyz
x,y,z
-x,-y,-z
loop_
_atom_site_type_symbol
_atom_site_label
_atom_site_fract_x
_atom_site_fract_y
_atom_site_fract_z
Si Si1 0.117588 0.957081 0.247873
Si Si2 0.180094 0.433589 0.233233
Si Si3 0.506514 0.111485 0.084926
Si Si4 0.628981 0.356914 0.278150
Si Si5 0.846330 0.662165 0.052514
Si Si6 0.517497 0.158270 0.394245
Si Si7 0.956602 0.860491 0.958726
Si Si8 0.679733 0.400466 0.940704
O O1 0.212815 0.781634 0.127132
O O2 0.270792 0.972218 0.139199
O O3 0.000000 0.000000 0.500000
O O4 0.999433 0.076167 0.219445
O O5 0.375041 0.284718 0.134923
O O6 0.169677 0.579357 0.237348
O O7 0.000000 0.500000 0.500000
O O8 0.183709 0.379254 0.072332
O O9 0.458088 0.123925 0.302034
O O10 0.500000 0.000000 0.000000
O O11 0.500000 0.500000 0.500000
O O12 0.522313 0.292810 0.352548
O O13 0.593821 0.466408 0.177054
O O14 0.861649 0.216146 0.103414
O O15 0.638205 0.788323 0.334013
O O16 0.947420 0.730656 0.924903
O O17 0.000000 0.500000 0.000000
O O18 0.743418 0.001866 0.232114
O O19 0.500000 0.500000 0.000000
#
# Coordination Sequence:
#
# PCOD8033527 Si02
#       8
#     2   2   2   2   2   2   2   2
#     4  11  26  46  72 104 142 191 239 298 361 426
#     4  12  26  43  70 104 139 188 239 293 354 430
#     4  11  24  47  69 103 140 183 238 294 361 421
#     4  12  25  44  75 105 145 188 237 297 363 429
#     4  12  26  47  69 106 145 193 239 293 369 429
#     4  11  23  47  69 103 143 185 237 298 353 435
#     4  11  25  46  71 105 142 189 245 296 361 430
#     4  12  25  47  70 104 145 187 242 295 360 428
#
# _framework density 22.166523000000002
#
# number of rings (size 3 to 8) (size 9 to 14) (size 15 to 20)
#    0.000    0.500    3.750    5.250    5.250    1.000 
#    0.000    0.000    0.000    0.000    0.000    0.000 
#    0.000    0.000    0.000    0.000    0.000    0.000 
#
# Total GULP energy -198247.351202 kJ/mol
# GULP energy per Si atom -12390.459450 kJ/mol
# Density = 2.211607 g / cm^3
# Si number density = 22.166523 Si / 1000 Ang^3
#
#
#
# Elastic Constant Matrix: (Units=GPa)
#
#
# Indices 1 2 3 4 5 6 
#
# 1 133.5419 45.3487 49.0591 -13.5359 20.2168 -0.3144
# 2 45.3487 134.7045 34.1836 -17.6023 7.5963 0.3830
# 3 49.0591 34.1836 140.3093 -20.9163 29.9336 -10.7540
# 4 -13.5359 -17.6023 -20.9163 40.9283 2.2109 -4.0971
# 5 20.2168 7.5963 29.9336 2.2109 23.9997 -5.1360
# 6 -0.3144 0.3830 -10.7540 -4.0971 -5.1360 59.0619
#
#
#
# Elastic Compliance Matrix: (Units=1/GPa)
#
#
# Indices 1 2 3 4 5 6 
#
# 1 0.009923 -0.002410 -0.001319 0.001850 -0.006247 -0.000587
# 2 -0.002410 0.008794 -0.000989 0.002461 0.000241 -0.000058
# 3 -0.001319 -0.000989 0.011685 0.005972 -0.013406 0.001375
# 4 0.001850 0.002461 0.005972 0.030020 -0.012099 0.002112
# 5 -0.006247 0.000241 -0.013406 -0.012099 0.065192 0.002354
# 6 -0.000587 -0.000058 0.001375 0.002112 0.002354 0.017530
#
#
# Mechanical properties :
#
#
# Convention : Reuss Voigt Hill
#
# Bulk Modulus (GPa) = 47.69554 73.97096 60.83325
# Shear Modulus (GPa) = 31.33443 43.46228 37.39835
#
# Velocity S-wave (km/s) = 3.76386 4.43280 4.11195
# Velocity P-wave (km/s) = 6.36022 7.72287 7.07443
#
# Compressibility (1/GPa) = 0.02096632
#
# Stress axis : x y z
#
# Youngs Moduli (GPa) = 100.77434 113.71189 85.58146
#
# Poissons Ratio (x) = 0.27408 0.11287
# Poissons Ratio (y) = 0.24289 0.08462
# Poissons Ratio (z) = 0.13290 0.11244
#
# Static dielectric constant tensor:
#      x y z
#    x 3.996580 0.006650 -0.058530 
#    y 0.006650 3.150560 0.236470 
#    z -0.058530 0.236470 4.017110 
# 
# 
# High freq. dielectric constant tensor:
#      x y z
#    x 1.884640 0.003360 0.006970 
#    y 0.003360 1.894270 -0.006240 
#    z 0.006970 -0.006240 1.874290 
# 
# From -- ./inp_files/262448.got.cif
#   From: 2010.06.25/outbox.cif.g09.slc.cpg/sg2_132_cif.got.tgz:262448.got - 2010.06.27 13:26:56.
