data_PCOD8033638
_publ_section_title
;
Structure prediction by ZEFSAII (Michael W. Deem and Ramdas Pophale) SiO2 
 PCOD8033638
Probable space group: P -1
;
_chemical_formula_sum "Si O2"
_cell_formula_units_Z 14
_cell_length_a 12.376667
_cell_length_b 9.528420
_cell_length_c 8.815949
_cell_angle_alpha 134.091751
_cell_angle_beta 61.601173
_cell_angle_gamma 110.615469
_cell_volume 656.485756
_symmetry_space_group_name_H-M "P -1"
_symmetry_group_IT_number 2
_symmetry_cell_setting 'triclinic'
loop_
_space_group_symop_operation_xyz
x,y,z
-x,-y,-z
loop_
_atom_site_type_symbol
_atom_site_label
_atom_site_fract_x
_atom_site_fract_y
_atom_site_fract_z
Si Si1 0.773099 0.179235 0.127686
Si Si2 0.307987 0.250979 0.760828
Si Si3 0.268366 0.449458 0.243843
Si Si4 0.454587 0.627854 0.487072
Si Si5 0.834026 0.141528 0.393326
Si Si6 0.106188 0.173257 0.341953
Si Si7 0.872748 0.563384 0.196246
O O1 0.626870 0.191932 0.265142
O O2 0.846774 0.133172 0.196982
O O3 0.812768 0.392596 0.206778
O O4 0.805111 0.012232 0.860850
O O5 0.435727 0.268956 0.601231
O O6 0.211357 0.392472 0.856923
O O7 0.260818 0.027163 0.613361
O O8 0.323942 0.319676 0.975606
O O9 0.375208 0.484762 0.322449
O O10 0.219189 0.652285 0.363264
O O11 0.152702 0.335376 0.312238
O O12 0.500000 0.500000 0.500000
O O13 0.966896 0.106492 0.348362
O O14 0.111565 0.246793 0.565751
O O15 0.000000 0.500000 0.000000
#
# Coordination Sequence:
#
# PCOD8033638 Si02
#       7
#     2   2   2   2   2   2   2
#     4  11  24  43  71  98 136 185 222 284 341 400
#     4  12  25  45  69 102 138 175 233 283 329 406
#     4  11  24  42  73 102 132 185 225 279 341 399
#     4  11  23  50  69  97 142 181 227 280 341 404
#     4  11  24  41  71 104 135 177 227 283 338 403
#     4  12  23  44  71 103 139 178 229 273 352 404
#     4  12  26  43  68 102 143 177 222 286 341 408
#
# _framework density 21.325672000000001
#
# number of rings (size 3 to 8) (size 9 to 14) (size 15 to 20)
#    0.000    0.571    5.714    3.000    2.000    5.714 
#    2.571    1.429    0.000    0.000    0.000    0.000 
#    0.000    0.000    0.000    0.000    0.000    0.000 
#
# Total GULP energy -173676.115709 kJ/mol
# GULP energy per Si atom -12405.436836 kJ/mol
# Density = 2.127713 g / cm^3
# Si number density = 21.325672 Si / 1000 Ang^3
#
#
#
# Elastic Constant Matrix: (Units=GPa)
#
#
# Indices 1 2 3 4 5 6 
#
# 1 121.0570 37.7608 58.3960 4.1777 -5.5920 -0.1153
# 2 37.7608 87.9943 25.3295 6.0862 8.1445 15.6641
# 3 58.3960 25.3295 153.6455 11.3495 -1.5655 4.9636
# 4 4.1777 6.0862 11.3495 28.0240 -5.9330 7.6995
# 5 -5.5920 8.1445 -1.5655 -5.9330 27.4518 0.8485
# 6 -0.1153 15.6641 4.9636 7.6995 0.8485 28.6480
#
#
#
# Elastic Compliance Matrix: (Units=1/GPa)
#
#
# Indices 1 2 3 4 5 6 
#
# 1 0.011760 -0.004901 -0.003781 0.000787 0.003709 0.003061
# 2 -0.004901 0.015631 -0.000403 -0.001544 -0.005748 -0.007911
# 3 -0.003781 -0.000403 0.008219 -0.002708 -0.000753 -0.000469
# 4 0.000787 -0.001544 -0.002708 0.041892 0.009834 -0.010234
# 5 0.003709 -0.005748 -0.000753 0.009834 0.040988 -0.000569
# 6 0.003061 -0.007911 -0.000469 -0.010234 -0.000569 0.042093
#
#
# Mechanical properties :
#
#
# Convention : Reuss Voigt Hill
#
# Bulk Modulus (GPa) = 57.33794 67.29662 62.31728
# Shear Modulus (GPa) = 27.09038 32.90548 29.99793
#
# Velocity S-wave (km/s) = 3.56802 3.93236 3.75461
# Velocity P-wave (km/s) = 6.62718 7.22794 6.93407
#
# Compressibility (1/GPa) = 0.01744046
#
# Stress axis : x y z
#
# Youngs Moduli (GPa) = 85.03186 63.97712 121.66196
#
# Poissons Ratio (x) = 0.31355 0.46000
# Poissons Ratio (y) = 0.41673 0.04904
# Poissons Ratio (z) = 0.32150 0.02579
#
# Static dielectric constant tensor:
#      x y z
#    x 3.960000 0.110690 -0.041250 
#    y 0.110690 4.047130 -0.059260 
#    z -0.041250 -0.059260 3.891500 
# 
# 
# High freq. dielectric constant tensor:
#      x y z
#    x 1.835150 0.001670 -0.002660 
#    y 0.001670 1.846280 -0.002930 
#    z -0.002660 -0.002930 1.844990 
# 
# From -- ./inp_files/186232.got.cif
#   From: 2010.06.25/outbox.cif.g09.slc.cpg/sg2_94_cif.got.tgz:186232.got - 2010.06.27 13:26:56.
