data_PCOD8033211
_publ_section_title
;
Structure prediction by ZEFSAII (Michael W. Deem and Ramdas Pophale) SiO2 
 PCOD8033211
Probable space group: P -1
;
_chemical_formula_sum "Si O2"
_cell_formula_units_Z 16
_cell_length_a 9.290450
_cell_length_b 18.463018
_cell_length_c 20.237507
_cell_angle_alpha 28.804157
_cell_angle_beta 31.133821
_cell_angle_gamma 28.512603
_cell_volume 740.520192
_symmetry_space_group_name_H-M "P -1"
_symmetry_group_IT_number 2
_symmetry_cell_setting 'triclinic'
loop_
_space_group_symop_operation_xyz
x,y,z
-x,-y,-z
loop_
_atom_site_type_symbol
_atom_site_label
_atom_site_fract_x
_atom_site_fract_y
_atom_site_fract_z
Si Si1 0.828939 0.616101 0.138413
Si Si2 0.145025 0.665261 0.367410
Si Si3 0.337846 0.246460 0.192316
Si Si4 0.146899 0.043982 0.344076
Si Si5 0.208530 0.301880 0.653610
Si Si6 0.797682 0.397177 0.868716
Si Si7 0.690310 0.986798 0.370446
Si Si8 0.828148 0.229712 0.192548
O O1 0.446740 0.694682 0.223093
O O2 0.004558 0.411202 0.216852
O O3 0.943825 0.643214 0.142954
O O4 0.912278 0.712595 0.971128
O O5 0.259438 0.465623 0.497105
O O6 0.953455 0.725414 0.325692
O O7 0.920785 0.785603 0.419200
O O8 0.271080 0.177000 0.206265
O O9 0.437463 0.088823 0.330061
O O10 0.617004 0.291970 0.038224
O O11 0.871365 0.146873 0.314648
O O12 0.438215 0.867404 0.338850
O O13 0.000000 0.000000 0.500000
O O14 0.981170 0.326758 0.784344
O O15 0.538605 0.604828 0.801595
O O16 0.887714 0.084521 0.230385
O O17 0.500000 0.000000 0.500000
#
# Coordination Sequence:
#
# PCOD8033211 Si02
#       8
#     2   2   2   2   2   2   2   2
#     4  11  24  46  70 103 135 174 227 278 331 406
#     4  11  27  44  70  98 138 179 223 275 340 398
#     4  11  23  45  69  99 136 177 224 277 331 395
#     4  12  27  45  69  99 138 178 229 275 331 407
#     4  11  27  47  64 101 139 178 219 282 337 395
#     4  11  24  45  72  99 140 173 222 281 336 398
#     4  12  23  44  70  97 132 182 222 273 334 394
#     4  11  25  44  72 101 133 180 225 277 335 394
#
# _framework density 21.606432999999999
#
# number of rings (size 3 to 8) (size 9 to 14) (size 15 to 20)
#    0.000    0.750    3.750    3.000    8.750    3.500 
#    0.000    0.000    0.000    0.000    0.000    0.000 
#    0.000    0.000    0.000    0.000    0.000    0.000 
#
# Total GULP energy -198471.765694 kJ/mol
# GULP energy per Si atom -12404.485356 kJ/mol
# Density = 2.155726 g / cm^3
# Si number density = 21.606433 Si / 1000 Ang^3
#
#
#
# Elastic Constant Matrix: (Units=GPa)
#
#
# Indices 1 2 3 4 5 6 
#
# 1 100.7613 34.5125 32.7260 0.1789 0.9998 7.1265
# 2 34.5125 97.1586 42.7724 8.8974 -10.2683 21.6372
# 3 32.7260 42.7724 78.9603 10.9508 2.3818 0.0690
# 4 0.1789 8.8974 10.9508 34.0741 8.9896 0.4292
# 5 0.9998 -10.2683 2.3818 8.9896 36.0926 -1.8380
# 6 7.1265 21.6372 0.0690 0.4292 -1.8380 39.2236
#
#
#
# Elastic Compliance Matrix: (Units=1/GPa)
#
#
# Indices 1 2 3 4 5 6 
#
# 1 0.012198 -0.002890 -0.003764 0.002311 -0.001524 -0.000712
# 2 -0.002890 0.017901 -0.008186 -0.003533 0.006134 -0.009009
# 3 -0.003764 -0.008186 0.019205 -0.003453 -0.002373 0.005093
# 4 0.002311 -0.003533 -0.003453 0.033791 -0.009220 0.000733
# 5 -0.001524 0.006134 -0.002373 -0.009220 0.031870 -0.001509
# 6 -0.000712 -0.009009 0.005093 0.000733 -0.001509 0.030506
#
#
# Mechanical properties :
#
#
# Convention : Reuss Voigt Hill
#
# Bulk Modulus (GPa) = 50.95910 55.21132 53.08521
# Shear Modulus (GPa) = 27.51865 33.00267 30.26066
#
# Velocity S-wave (km/s) = 3.57267 3.91250 3.74644
# Velocity P-wave (km/s) = 6.37613 6.78372 6.58308
#
# Compressibility (1/GPa) = 0.01962358
#
# Stress axis : x y z
#
# Youngs Moduli (GPa) = 81.97887 55.86216 52.06920
#
# Poissons Ratio (x) = 0.16144 0.19600
# Poissons Ratio (y) = 0.23692 0.42626
# Poissons Ratio (z) = 0.30858 0.45731
#
# Static dielectric constant tensor:
#      x y z
#    x 4.113700 0.150500 -0.106400 
#    y 0.150500 3.985570 -0.207240 
#    z -0.106400 -0.207240 3.960430 
# 
# 
# High freq. dielectric constant tensor:
#      x y z
#    x 1.859210 0.006870 -0.005410 
#    y 0.006870 1.850020 -0.009670 
#    z -0.005410 -0.009670 1.856970 
# 
# From -- ./inp_files/205032.got.cif
#   From: 2010.06.25/outbox.cif.g09.slc.cpg/sg2_103_cif.got.tgz:205032.got - 2010.06.27 13:26:56.
