data_PCOD8033728
_publ_section_title
;
Structure prediction by ZEFSAII (Michael W. Deem and Ramdas Pophale) SiO2 
 PCOD8033728
Probable space group: P -1
;
_chemical_formula_sum "Si O2"
_cell_formula_units_Z 14
_cell_length_a 9.563426
_cell_length_b 22.270793
_cell_length_c 22.299865
_cell_angle_alpha 17.848225
_cell_angle_beta 27.553396
_cell_angle_gamma 26.930884
_cell_volume 634.220081
_symmetry_space_group_name_H-M "P -1"
_symmetry_group_IT_number 2
_symmetry_cell_setting 'triclinic'
loop_
_space_group_symop_operation_xyz
x,y,z
-x,-y,-z
loop_
_atom_site_type_symbol
_atom_site_label
_atom_site_fract_x
_atom_site_fract_y
_atom_site_fract_z
Si Si1 0.825053 0.026718 0.685905
Si Si2 0.368477 0.514013 0.699987
Si Si3 0.678877 0.154430 0.004420
Si Si4 0.784171 0.425080 0.509791
Si Si5 0.752845 0.400668 0.049549
Si Si6 0.260472 0.665887 0.067412
Si Si7 0.815517 0.018258 0.834566
O O1 0.718192 0.086950 0.737904
O O2 0.177016 0.846092 0.728652
O O3 0.814060 0.239177 0.454706
O O4 0.595496 0.940219 0.816534
O O5 0.573620 0.393030 0.793747
O O6 0.635644 0.469657 0.589555
O O7 0.090650 0.417685 0.883279
O O8 0.716216 0.172455 0.044226
O O9 0.000000 0.000000 0.000000
O O10 0.500000 0.500000 0.500000
O O11 0.052306 0.530971 0.299238
O O12 0.941669 0.180094 0.669221
O O13 0.614031 0.519470 0.051546
O O14 0.500000 0.500000 0.000000
O O15 0.094350 0.795814 0.947710
O O16 0.500000 0.000000 0.000000
#
# Coordination Sequence:
#
# PCOD8033728 Si02
#       7
#     2   2   2   2   2   2   2
#     4  11  24  41  67  95 133 179 221 271 334 393
#     4  11  24  43  67  98 136 179 219 279 332 395
#     4  11  25  45  67  98 140 176 220 274 338 401
#     4  12  22  37  67  99 128 165 227 277 331 384
#     4  11  24  44  67  97 139 175 221 277 334 393
#     4  12  26  43  67 100 133 177 222 276 332 397
#     4  12  21  38  66  97 128 168 221 278 330 381
#
# _framework density 22.074356999999999
#
# number of rings (size 3 to 8) (size 9 to 14) (size 15 to 20)
#    0.000    0.571    4.286    5.143    0.000    7.429 
#    0.000    1.429    0.000    0.000    0.000    0.000 
#    0.000    0.000    0.000    0.000    0.000    0.000 
#
# Total GULP energy -173536.935103 kJ/mol
# GULP energy per Si atom -12395.495365 kJ/mol
# Density = 2.202411 g / cm^3
# Si number density = 22.074357 Si / 1000 Ang^3
#
#
#
# Elastic Constant Matrix: (Units=GPa)
#
#
# Indices 1 2 3 4 5 6 
#
# 1 85.6514 13.6928 27.0538 -9.1219 -5.4731 -4.1131
# 2 13.6928 109.3013 29.9271 -21.7804 4.2434 -3.8068
# 3 27.0538 29.9271 101.1731 -23.6388 2.2522 -8.6898
# 4 -9.1219 -21.7804 -23.6388 45.0655 -3.9257 5.4003
# 5 -5.4731 4.2434 2.2522 -3.9257 32.5838 -10.2375
# 6 -4.1131 -3.8068 -8.6898 5.4003 -10.2375 37.8835
#
#
#
# Elastic Compliance Matrix: (Units=1/GPa)
#
#
# Indices 1 2 3 4 5 6 
#
# 1 0.013098 -0.000715 -0.003054 0.000805 0.003026 0.001353
# 2 -0.000715 0.010594 -0.002046 0.003852 -0.000988 -0.000298
# 3 -0.003054 -0.002046 0.012567 0.004784 -0.000018 0.001659
# 4 0.000805 0.003852 0.004784 0.027109 0.002020 -0.001747
# 5 0.003026 -0.000988 -0.000018 0.002020 0.034479 0.009255
# 6 0.001353 -0.000298 0.001659 -0.001747 0.009255 0.029644
#
#
# Mechanical properties :
#
#
# Convention : Reuss Voigt Hill
#
# Bulk Modulus (GPa) = 40.60214 48.60815 44.60514
# Shear Modulus (GPa) = 33.93691 38.13670 36.03680
#
# Velocity S-wave (km/s) = 3.92521 4.16101 4.04483
# Velocity P-wave (km/s) = 6.24310 6.71962 6.48574
#
# Compressibility (1/GPa) = 0.02462925
#
# Stress axis : x y z
#
# Youngs Moduli (GPa) = 76.34608 94.38962 79.57519
#
# Poissons Ratio (x) = 0.06745 0.24303
# Poissons Ratio (y) = 0.05455 0.16284
# Poissons Ratio (z) = 0.23317 0.19316
#
# Static dielectric constant tensor:
#      x y z
#    x 4.797690 -0.191450 0.247150 
#    y -0.191450 4.504590 -0.658810 
#    z 0.247150 -0.658810 4.710050 
# 
# 
# High freq. dielectric constant tensor:
#      x y z
#    x 1.864770 -0.003090 0.005800 
#    y -0.003090 1.876610 -0.025960 
#    z 0.005800 -0.025960 1.866090 
# 
# From -- ./inp_files/473773.got.cif
#   From: 2010.06.25/outbox.cif.g09.slc.cpg/sg2_237_cif.got.tgz:473773.got - 2010.06.27 13:26:56.
