data_PCOD8033055
_publ_section_title
;
Structure prediction by ZEFSAII (Michael W. Deem and Ramdas Pophale) SiO2 
 PCOD8033055
Probable space group: P -1
;
_chemical_formula_sum "Si O2"
_cell_formula_units_Z 16
_cell_length_a 8.890172
_cell_length_b 15.763854
_cell_length_c 9.480845
_cell_angle_alpha 142.926823
_cell_angle_beta 102.311600
_cell_angle_gamma 67.612975
_cell_volume 730.746141
_symmetry_space_group_name_H-M "P -1"
_symmetry_group_IT_number 2
_symmetry_cell_setting 'triclinic'
loop_
_space_group_symop_operation_xyz
x,y,z
-x,-y,-z
loop_
_atom_site_type_symbol
_atom_site_label
_atom_site_fract_x
_atom_site_fract_y
_atom_site_fract_z
Si Si1 0.845701 0.626945 0.897274
Si Si2 0.255452 0.806548 0.485491
Si Si3 0.447793 0.372399 0.506398
Si Si4 0.482696 0.673210 0.853551
Si Si5 0.224945 0.892892 0.272445
Si Si6 0.908656 0.860812 0.034618
Si Si7 0.073250 0.237895 0.642163
Si Si8 0.119198 0.325670 0.468030
O O1 0.671955 0.606319 0.851251
O O2 0.971858 0.486159 0.652508
O O3 0.816413 0.777071 0.001079
O O4 0.916053 0.638223 0.080849
O O5 0.429328 0.695717 0.430236
O O6 0.272068 0.828180 0.351607
O O7 0.118245 0.731963 0.387295
O O8 0.205773 0.964599 0.767717
O O9 0.402242 0.551709 0.723554
O O10 0.533115 0.295698 0.275770
O O11 0.280311 0.342912 0.456831
O O12 0.384949 0.829285 0.120451
O O13 0.082606 0.840044 0.112957
O O14 0.164927 0.072696 0.505938
O O15 0.936416 0.789827 0.789789
O O16 0.160552 0.256204 0.539918
#
# Coordination Sequence:
#
# PCOD8033055 Si02
#       8
#     2   2   2   2   2   2   2   2
#     4  12  23  47  68  96 136 176 226 270 328 397
#     4  11  24  46  70  99 137 173 220 277 327 398
#     4  11  27  45  65 102 136 170 224 276 335 392
#     4  11  27  44  69  98 133 178 218 278 334 392
#     4  11  24  45  72  96 137 178 217 273 334 392
#     4  11  23  44  72  97 132 178 225 269 329 394
#     4  11  25  45  69 103 131 178 224 269 330 396
#     4  12  27  42  71 100 133 179 221 277 328 392
#
# _framework density 21.895429
#
# number of rings (size 3 to 8) (size 9 to 14) (size 15 to 20)
#    0.000    0.750    3.750    3.000    8.750    3.500 
#    0.000    0.000    0.000    0.000    0.000    0.000 
#    0.000    0.000    0.000    0.000    0.000    0.000 
#
# Total GULP energy -198522.629361 kJ/mol
# GULP energy per Si atom -12407.664335 kJ/mol
# Density = 2.184559 g / cm^3
# Si number density = 21.895429 Si / 1000 Ang^3
#
#
#
# Elastic Constant Matrix: (Units=GPa)
#
#
# Indices 1 2 3 4 5 6 
#
# 1 86.1585 22.4345 21.4551 1.5734 -4.9921 -6.0533
# 2 22.4345 70.7775 0.9365 -13.5378 3.4651 -3.0523
# 3 21.4551 0.9365 102.8151 -23.3470 -0.4358 -8.7724
# 4 1.5734 -13.5378 -23.3470 22.3642 -0.3476 -2.6958
# 5 -4.9921 3.4651 -0.4358 -0.3476 33.3732 2.2243
# 6 -6.0533 -3.0523 -8.7724 -2.6958 2.2243 35.9853
#
#
#
# Elastic Compliance Matrix: (Units=1/GPa)
#
#
# Indices 1 2 3 4 5 6 
#
# 1 0.015207 -0.007068 -0.005705 -0.011315 0.002847 -0.000456
# 2 -0.007068 0.020323 0.006007 0.019462 -0.003130 0.003651
# 3 -0.005705 0.006007 0.016192 0.021547 -0.001388 0.005197
# 4 -0.011315 0.019462 0.021547 0.081093 -0.003339 0.011281
# 5 0.002847 -0.003130 -0.001388 -0.003339 0.030814 -0.002280
# 6 -0.000456 0.003651 0.005197 0.011281 -0.002280 0.030275
#
#
# Mechanical properties :
#
#
# Convention : Reuss Voigt Hill
#
# Bulk Modulus (GPa) = 26.18424 38.82261 32.50342
# Shear Modulus (GPa) = 22.71010 32.67288 27.69149
#
# Velocity S-wave (km/s) = 3.22406 3.86712 3.56014
# Velocity P-wave (km/s) = 5.08372 6.14076 5.63707
#
# Compressibility (1/GPa) = 0.03819092
#
# Stress axis : x y z
#
# Youngs Moduli (GPa) = 65.75843 49.20552 61.75762
#
# Poissons Ratio (x) = 0.34779 0.35234
# Poissons Ratio (y) = 0.46478 -0.37101
# Poissons Ratio (z) = 0.37517 -0.29560
#
# Static dielectric constant tensor:
#      x y z
#    x 3.882690 0.108320 0.112990 
#    y 0.108320 3.824710 -0.097280 
#    z 0.112990 -0.097280 4.135430 
# 
# 
# High freq. dielectric constant tensor:
#      x y z
#    x 1.858260 0.005780 0.004260 
#    y 0.005780 1.864090 -0.008540 
#    z 0.004260 -0.008540 1.874030 
# 
# From -- ./inp_files/205387.got.cif
#   From: 2010.06.25/outbox.cif.g09.slc.cpg/sg2_103_cif.got.tgz:205387.got - 2010.06.27 13:26:56.
