data_PCOD8033552
_publ_section_title
;
Structure prediction by ZEFSAII (Michael W. Deem and Ramdas Pophale) SiO2 
 PCOD8033552
Probable space group: P -1
;
_chemical_formula_sum "Si O2"
_cell_formula_units_Z 16
_cell_length_a 15.209781
_cell_length_b 14.777883
_cell_length_c 11.519548
_cell_angle_alpha 58.317143
_cell_angle_beta 40.473249
_cell_angle_gamma 28.657602
_cell_volume 716.844386
_symmetry_space_group_name_H-M "P -1"
_symmetry_group_IT_number 2
_symmetry_cell_setting 'triclinic'
loop_
_space_group_symop_operation_xyz
x,y,z
-x,-y,-z
loop_
_atom_site_type_symbol
_atom_site_label
_atom_site_fract_x
_atom_site_fract_y
_atom_site_fract_z
Si Si1 0.273202 0.032381 0.952546
Si Si2 0.384701 0.865337 0.417745
Si Si3 0.254103 0.362096 0.414414
Si Si4 0.540425 0.769912 0.070269
Si Si5 0.842616 0.655980 0.231538
Si Si6 0.136595 0.677012 0.297697
Si Si7 0.708836 0.311402 0.325050
Si Si8 0.556657 0.530780 0.099969
O O1 0.185537 0.204222 0.874401
O O2 0.466673 0.840829 0.797354
O O3 0.009155 0.142617 0.169361
O O4 0.426478 0.939562 0.985389
O O5 0.365131 0.883220 0.286402
O O6 0.686425 0.685753 0.279219
O O7 0.299271 0.809168 0.587030
O O8 0.183811 0.089555 0.522683
O O9 0.272474 0.278470 0.567412
O O10 0.223561 0.506320 0.382486
O O11 0.000000 0.500000 0.500000
O O12 0.508753 0.681108 0.093380
O O13 0.846364 0.589665 0.917314
O O14 0.285412 0.672987 0.215468
O O15 0.199686 0.633003 0.126967
O O16 0.500000 0.500000 0.500000
O O17 0.637886 0.397379 0.210308
#
# Coordination Sequence:
#
# PCOD8033552 Si02
#       8
#     2   2   2   2   2   2   2   2
#     4  12  26  45  82 107 142 204 246 297 382 439
#     4  12  28  45  74 110 149 197 245 304 376 435
#     4  12  24  47  76 108 151 196 246 306 372 439
#     4  12  25  50  75 105 150 196 248 302 370 449
#     4  12  26  48  72 112 150 187 254 310 360 443
#     4  11  26  44  71 110 144 190 244 311 361 428
#     4  12  26  46  74 109 146 195 247 302 366 444
#     4  11  23  47  71  99 153 184 239 309 360 428
#
# _framework density 22.320046000000001
#
# number of rings (size 3 to 8) (size 9 to 14) (size 15 to 20)
#    0.000    0.250    5.000    3.000    5.250    2.000 
#    2.250    0.000    0.000    0.000    0.000    0.000 
#    0.000    0.000    0.000    0.000    0.000    0.000 
#
# Total GULP energy -198527.035625 kJ/mol
# GULP energy per Si atom -12407.939727 kJ/mol
# Density = 2.226924 g / cm^3
# Si number density = 22.320046 Si / 1000 Ang^3
#
#
#
# Elastic Constant Matrix: (Units=GPa)
#
#
# Indices 1 2 3 4 5 6 
#
# 1 95.1086 10.9183 30.8701 -0.7838 -0.1457 -4.1507
# 2 10.9183 73.8763 23.1170 -3.3507 -3.3621 -7.5080
# 3 30.8701 23.1170 102.7052 6.6714 -6.3387 6.1862
# 4 -0.7838 -3.3507 6.6714 44.0913 -3.7421 6.0989
# 5 -0.1457 -3.3621 -6.3387 -3.7421 44.2573 -6.3175
# 6 -4.1507 -7.5080 6.1862 6.0989 -6.3175 30.0592
#
#
#
# Elastic Compliance Matrix: (Units=1/GPa)
#
#
# Indices 1 2 3 4 5 6 
#
# 1 0.011837 -0.000378 -0.003641 0.000418 -0.000166 0.002170
# 2 -0.000378 0.015298 -0.003595 0.001187 0.001398 0.004562
# 3 -0.003641 -0.003595 0.011999 -0.001618 0.000815 -0.003370
# 4 0.000418 0.001187 -0.001618 0.023665 0.001313 -0.003838
# 5 -0.000166 0.001398 0.000815 0.001313 0.023622 0.004856
# 6 0.002170 0.004562 -0.003370 -0.003838 0.004856 0.037200
#
#
# Mechanical properties :
#
#
# Convention : Reuss Voigt Hill
#
# Bulk Modulus (GPa) = 41.83188 44.61119 43.22153
# Shear Modulus (GPa) = 34.05578 37.46720 35.76149
#
# Velocity S-wave (km/s) = 3.91038 4.10156 4.00711
# Velocity P-wave (km/s) = 6.25864 6.51620 6.38872
#
# Compressibility (1/GPa) = 0.02390521
#
# Stress axis : x y z
#
# Youngs Moduli (GPa) = 84.47827 65.36758 83.34287
#
# Poissons Ratio (x) = 0.02473 0.30345
# Poissons Ratio (y) = 0.03195 0.29964
# Poissons Ratio (z) = 0.30758 0.23501
#
# Static dielectric constant tensor:
#      x y z
#    x 4.460820 -0.360400 -0.155900 
#    y -0.360400 4.266730 -0.082460 
#    z -0.155900 -0.082460 4.346740 
# 
# 
# High freq. dielectric constant tensor:
#      x y z
#    x 1.880950 -0.008240 0.001010 
#    y -0.008240 1.886400 -0.007930 
#    z 0.001010 -0.007930 1.899170 
# 
# From -- ./inp_files/455622.got.cif
#   From: 2010.06.25/outbox.cif.g09.slc.cpg/sg2_228_cif.got.tgz:455622.got - 2010.06.27 13:26:56.
