data_PCOD8033684
_publ_section_title
;
Structure prediction by ZEFSAII (Michael W. Deem and Ramdas Pophale) SiO2 
 PCOD8033684
Probable space group: P -1
;
_chemical_formula_sum "Si O2"
_cell_formula_units_Z 14
_cell_length_a 12.353941
_cell_length_b 9.427300
_cell_length_c 18.669105
_cell_angle_alpha 42.874521
_cell_angle_beta 152.497700
_cell_angle_gamma 145.333473
_cell_volume 571.057389
_symmetry_space_group_name_H-M "P -1"
_symmetry_group_IT_number 2
_symmetry_cell_setting 'triclinic'
loop_
_space_group_symop_operation_xyz
x,y,z
-x,-y,-z
loop_
_atom_site_type_symbol
_atom_site_label
_atom_site_fract_x
_atom_site_fract_y
_atom_site_fract_z
Si Si1 0.083928 0.188475 0.198268
Si Si2 0.819306 0.729176 0.527895
Si Si3 0.194707 0.873532 0.473698
Si Si4 0.446614 0.251889 0.021275
Si Si5 0.320000 0.533833 0.595734
Si Si6 0.067778 0.592404 0.851355
Si Si7 0.560086 0.095478 0.739029
O O1 0.354864 0.387149 0.235308
O O2 0.931420 0.310690 0.102858
O O3 0.222436 0.116183 0.368552
O O4 0.874688 0.946159 0.116992
O O5 0.786850 0.531825 0.524240
O O6 0.946531 0.705227 0.684113
O O7 0.523221 0.700942 0.376324
O O8 0.000000 0.000000 0.500000
O O9 0.274460 0.753331 0.502976
O O10 0.874857 0.694634 0.380430
O O11 0.423005 0.941323 0.643811
O O12 0.623694 0.321724 0.026007
O O13 0.538433 0.109286 0.180731
O O14 0.500000 0.500000 0.000000
O O15 0.896663 0.288451 0.862372
#
# Coordination Sequence:
#
# PCOD8033684 Si02
#       7
#     2   2   2   2   2   2   2
#     4  12  26  46  70 105 141 187 238 284 349 426
#     4  12  20  43  77 110 139 178 234 299 351 411
#     4  11  25  42  73 107 143 180 228 295 351 411
#     4  12  32  49  67 102 147 192 237 291 354 423
#     4  11  24  40  69 108 143 176 231 290 351 409
#     4  12  25  46  77 103 142 188 241 287 352 421
#     4  12  25  47  75 105 140 186 233 294 356 419
#
# _framework density 24.515923000000001
#
# number of rings (size 3 to 8) (size 9 to 14) (size 15 to 20)
#    0.000    0.286    5.714    2.143    8.000    2.286 
#    0.000    0.000    0.000    0.000    0.000    0.000 
#    0.000    0.000    0.000    0.000    0.000    0.000 
#
# Total GULP energy -173553.835904 kJ/mol
# GULP energy per Si atom -12396.702565 kJ/mol
# Density = 2.446012 g / cm^3
# Si number density = 24.515923 Si / 1000 Ang^3
#
#
#
# Elastic Constant Matrix: (Units=GPa)
#
#
# Indices 1 2 3 4 5 6 
#
# 1 121.0707 52.8047 20.8391 15.4608 15.0455 -28.4618
# 2 52.8047 124.6979 18.1320 26.4758 5.4478 -9.1824
# 3 20.8391 18.1320 47.6446 17.7555 3.3024 -9.0362
# 4 15.4608 26.4758 17.7555 45.9528 1.5279 -0.9906
# 5 15.0455 5.4478 3.3024 1.5279 31.4505 5.5642
# 6 -28.4618 -9.1824 -9.0362 -0.9906 5.5642 50.2355
#
#
#
# Elastic Compliance Matrix: (Units=1/GPa)
#
#
# Indices 1 2 3 4 5 6 
#
# 1 0.012988 -0.004250 -0.002013 -0.000779 -0.006452 0.006919
# 2 -0.004250 0.010814 -0.000738 -0.004551 0.000586 -0.000719
# 3 -0.002013 -0.000738 0.026257 -0.008906 -0.001848 0.003477
# 4 -0.000779 -0.004551 -0.008906 0.027995 0.001170 -0.002453
# 5 -0.006452 0.000586 -0.001848 0.001170 0.036312 -0.007880
# 6 0.006919 -0.000719 0.003477 -0.002453 -0.007880 0.025144
#
#
# Mechanical properties :
#
#
# Convention : Reuss Voigt Hill
#
# Bulk Modulus (GPa) = 27.73452 52.99608 40.36530
# Shear Modulus (GPa) = 30.20582 38.97026 34.58804
#
# Velocity S-wave (km/s) = 3.51392 3.99129 3.76019
# Velocity P-wave (km/s) = 5.27266 6.55015 5.94581
#
# Compressibility (1/GPa) = 0.03605616
#
# Stress axis : x y z
#
# Youngs Moduli (GPa) = 76.99656 92.47196 38.08556
#
# Poissons Ratio (x) = 0.39302 0.07668
# Poissons Ratio (y) = 0.32725 0.02809
# Poissons Ratio (z) = 0.15502 0.06821
#
# Static dielectric constant tensor:
#      x y z
#    x 4.292210 0.281010 -0.109410 
#    y 0.281010 4.442090 0.293790 
#    z -0.109410 0.293790 3.888370 
# 
# 
# High freq. dielectric constant tensor:
#      x y z
#    x 1.988200 0.008070 0.003340 
#    y 0.008070 1.991320 0.016520 
#    z 0.003340 0.016520 1.948510 
# 
# From -- ./inp_files/566603.got.cif
#   From: 2010.06.25/outbox.cif.g09.slc.cpg/sg2_284_cif.got.tgz:566603.got - 2010.06.27 13:26:56.
