data_PCOD8033226
_publ_section_title
;
Structure prediction by ZEFSAII (Michael W. Deem and Ramdas Pophale) SiO2 
 PCOD8033226
Probable space group: P -1
;
_chemical_formula_sum "Si O2"
_cell_formula_units_Z 16
_cell_length_a 8.038508
_cell_length_b 10.545332
_cell_length_c 13.104050
_cell_angle_alpha 46.590781
_cell_angle_beta 91.398277
_cell_angle_gamma 115.069706
_cell_volume 668.176831
_symmetry_space_group_name_H-M "P -1"
_symmetry_group_IT_number 2
_symmetry_cell_setting 'triclinic'
loop_
_space_group_symop_operation_xyz
x,y,z
-x,-y,-z
loop_
_atom_site_type_symbol
_atom_site_label
_atom_site_fract_x
_atom_site_fract_y
_atom_site_fract_z
Si Si1 0.998459 0.772858 0.858665
Si Si2 0.378240 0.963250 0.208412
Si Si3 0.185629 0.989918 0.542539
Si Si4 0.758829 0.373401 0.961014
Si Si5 0.690610 0.401665 0.708978
Si Si6 0.439692 0.565977 0.671887
Si Si7 0.835947 0.869096 0.985203
Si Si8 0.150597 0.691610 0.539117
O O1 0.814008 0.595912 0.883312
O O2 0.171807 0.942455 0.690116
O O3 0.057512 0.651890 0.004208
O O4 0.931285 0.891754 0.863084
O O5 0.434041 0.810655 0.242288
O O6 0.239854 0.869636 0.356803
O O7 0.575883 0.181443 0.127168
O O8 0.275251 0.012564 0.089395
O O9 0.398613 0.206996 0.400448
O O10 0.173328 0.797643 0.590681
O O11 0.000000 0.000000 0.500000
O O12 0.701958 0.355600 0.852468
O O13 0.572251 0.515142 0.629646
O O14 0.916672 0.531974 0.595836
O O15 0.321671 0.378294 0.855870
O O16 0.270714 0.577859 0.602359
O O17 0.000000 0.000000 0.000000
#
# Coordination Sequence:
#
# PCOD8033226 Si02
#       8
#     2   2   2   2   2   2   2   2
#     4  11  25  43  75 104 145 190 243 301 371 432
#     4  12  27  45  74 106 147 194 244 304 366 435
#     4  12  24  48  73 106 151 195 242 305 367 437
#     4  11  23  45  70 106 139 195 239 301 366 435
#     4  12  25  50  73 104 154 195 242 305 371 431
#     4  12  27  46  77 107 146 197 241 304 368 437
#     4  12  28  48  74 112 145 188 251 305 364 443
#     4  12  26  48  74 108 150 189 252 300 366 438
#
# _framework density 23.945755999999999
#
# number of rings (size 3 to 8) (size 9 to 14) (size 15 to 20)
#    0.000    0.250    3.750    4.875    5.250    1.000 
#    0.000    0.000    0.000    0.000    0.000    0.000 
#    0.000    0.000    0.000    0.000    0.000    0.000 
#
# Total GULP energy -198418.421047 kJ/mol
# GULP energy per Si atom -12401.151315 kJ/mol
# Density = 2.389125 g / cm^3
# Si number density = 23.945756 Si / 1000 Ang^3
#
#
#
# Elastic Constant Matrix: (Units=GPa)
#
#
# Indices 1 2 3 4 5 6 
#
# 1 137.1707 24.2414 33.3071 -7.8718 6.4103 -1.2428
# 2 24.2414 84.7286 25.8852 -1.9507 -13.2683 -18.7898
# 3 33.3071 25.8852 121.6054 -6.6795 -15.2697 1.0266
# 4 -7.8718 -1.9507 -6.6795 29.0874 -0.7705 2.1759
# 5 6.4103 -13.2683 -15.2697 -0.7705 46.1627 -6.0938
# 6 -1.2428 -18.7898 1.0266 2.1759 -6.0938 27.7287
#
#
#
# Elastic Compliance Matrix: (Units=1/GPa)
#
#
# Indices 1 2 3 4 5 6 
#
# 1 0.008464 -0.002696 -0.001990 0.001737 -0.002862 -0.002139
# 2 -0.002696 0.017109 -0.002280 -0.000913 0.006239 0.013000
# 3 -0.001990 -0.002280 0.009694 0.001721 0.002652 -0.001545
# 4 0.001737 -0.000913 0.001721 0.035438 0.000216 -0.003338
# 5 -0.002862 0.006239 0.002652 0.000216 0.026015 0.009701
# 6 -0.002139 0.013000 -0.001545 -0.003338 0.009701 0.047228
#
#
# Mechanical properties :
#
#
# Convention : Reuss Voigt Hill
#
# Bulk Modulus (GPa) = 46.87172 56.70802 51.78987
# Shear Modulus (GPa) = 30.30430 37.93384 34.11907
#
# Velocity S-wave (km/s) = 3.56130 3.98447 3.77881
# Velocity P-wave (km/s) = 6.04377 6.70084 6.38077
#
# Compressibility (1/GPa) = 0.02133482
#
# Stress axis : x y z
#
# Youngs Moduli (GPa) = 118.14796 58.44805 103.15270
#
# Poissons Ratio (x) = 0.15759 0.20530
# Poissons Ratio (y) = 0.31855 0.23518
# Poissons Ratio (z) = 0.23514 0.13326
#
# Static dielectric constant tensor:
#      x y z
#    x 4.544330 0.042870 -0.054760 
#    y 0.042870 4.142560 -0.174070 
#    z -0.054760 -0.174070 4.430790 
# 
# 
# High freq. dielectric constant tensor:
#      x y z
#    x 1.954510 0.002390 -0.000100 
#    y 0.002390 1.940990 -0.010990 
#    z -0.000100 -0.010990 1.961910 
# 
# From -- ./inp_files/498772.got.cif
#   From: 2010.06.25/outbox.cif.g09.slc.cpg/sg2_250_cif.got.tgz:498772.got - 2010.06.27 13:26:56.
