data_PCOD8033334
_publ_section_title
;
Structure prediction by ZEFSAII (Michael W. Deem and Ramdas Pophale) SiO2 
 PCOD8033334
Probable space group: P -1
;
_chemical_formula_sum "Si O2"
_cell_formula_units_Z 14
_cell_length_a 8.849553
_cell_length_b 9.123621
_cell_length_c 11.939226
_cell_angle_alpha 39.460207
_cell_angle_beta 86.094469
_cell_angle_gamma 85.672320
_cell_volume 610.824714
_symmetry_space_group_name_H-M "P -1"
_symmetry_group_IT_number 2
_symmetry_cell_setting 'triclinic'
loop_
_space_group_symop_operation_xyz
x,y,z
-x,-y,-z
loop_
_atom_site_type_symbol
_atom_site_label
_atom_site_fract_x
_atom_site_fract_y
_atom_site_fract_z
Si Si1 0.737812 0.605987 0.742045
Si Si2 0.685676 0.135061 0.126906
Si Si3 0.984708 0.590580 0.571664
Si Si4 0.856966 0.853587 0.119949
Si Si5 0.643195 0.833485 0.942949
Si Si6 0.798142 0.039613 0.603890
Si Si7 0.615723 0.305213 0.268440
O O1 0.563244 0.694836 0.694804
O O2 0.811279 0.575329 0.632655
O O3 0.838785 0.798997 0.682075
O O4 0.762348 0.371927 0.948276
O O5 0.535072 0.110628 0.074844
O O6 0.652132 0.135104 0.261528
O O7 0.798005 0.921524 0.209209
O O8 0.096654 0.414393 0.738391
O O9 0.045639 0.846701 0.434329
O O10 0.000000 0.500000 0.500000
O O11 0.721531 0.913524 0.005353
O O12 0.000000 0.000000 0.000000
O O13 0.704962 0.986320 0.750314
O O14 0.667672 0.558991 0.081502
O O15 0.700310 0.213065 0.427948
#
# Coordination Sequence:
#
# PCOD8033334 Si02
#       7
#     2   2   2   2   2   2   2
#     4  11  23  46  71 102 139 183 227 291 347 401
#     4  11  23  45  75 103 137 183 232 289 344 415
#     4  12  28  47  65 104 146 187 232 280 351 420
#     4  12  25  47  67  99 144 186 229 279 348 417
#     4  11  23  46  71 104 139 181 235 288 345 406
#     4  12  24  45  74 103 140 179 235 291 344 408
#     4  11  23  46  74 106 137 176 242 288 340 411
#
# _framework density 22.919834000000002
#
# number of rings (size 3 to 8) (size 9 to 14) (size 15 to 20)
#    0.000    0.571    5.714    3.000    2.000    0.000 
#    2.571    3.571    0.000    0.000    0.000    0.000 
#    0.000    0.000    0.000    0.000    0.000    0.000 
#
# Total GULP energy -173599.205899 kJ/mol
# GULP energy per Si atom -12399.943278 kJ/mol
# Density = 2.286767 g / cm^3
# Si number density = 22.919834 Si / 1000 Ang^3
#
#
#
# Elastic Constant Matrix: (Units=GPa)
#
#
# Indices 1 2 3 4 5 6 
#
# 1 90.6726 60.3217 35.9486 10.6328 -22.8259 0.7049
# 2 60.3217 119.5858 21.8418 22.6017 -23.4649 -14.1697
# 3 35.9486 21.8418 85.1147 13.1956 -27.4073 0.1008
# 4 10.6328 22.6017 13.1956 41.9707 2.7867 -5.5857
# 5 -22.8259 -23.4649 -27.4073 2.7867 28.1694 2.5532
# 6 0.7049 -14.1697 0.1008 -5.5857 2.5532 47.4124
#
#
#
# Elastic Compliance Matrix: (Units=1/GPa)
#
#
# Indices 1 2 3 4 5 6 
#
# 1 0.019780 -0.008705 -0.004795 0.000489 0.004341 -0.003062
# 2 -0.008705 0.016058 0.004375 -0.008105 0.011075 0.003368
# 3 -0.004795 0.004375 0.020857 -0.009213 0.021043 -0.000884
# 4 0.000489 -0.008105 -0.009213 0.032533 -0.018758 0.002433
# 5 0.004341 0.011075 0.021043 -0.018758 0.070828 -0.002823
# 6 -0.003062 0.003368 -0.000884 0.002433 -0.002823 0.022584
#
#
# Mechanical properties :
#
#
# Convention : Reuss Voigt Hill
#
# Bulk Modulus (GPa) = 26.01133 59.06637 42.53885
# Shear Modulus (GPa) = 23.39668 35.32790 29.36229
#
# Velocity S-wave (km/s) = 3.19847 3.93029 3.58311
# Velocity P-wave (km/s) = 5.00137 6.81344 5.97648
#
# Compressibility (1/GPa) = 0.03844478
#
# Stress axis : x y z
#
# Youngs Moduli (GPa) = 50.55550 62.27278 47.94644
#
# Poissons Ratio (x) = 0.54210 0.22989
# Poissons Ratio (y) = 0.44010 -0.20975
# Poissons Ratio (z) = 0.24240 -0.27243
#
# Static dielectric constant tensor:
#      x y z
#    x 4.123890 -0.076190 -0.014890 
#    y -0.076190 4.271820 -0.261560 
#    z -0.014890 -0.261560 4.417690 
# 
# 
# High freq. dielectric constant tensor:
#      x y z
#    x 1.900250 -0.001150 -0.012690 
#    y -0.001150 1.909620 -0.000800 
#    z -0.012690 -0.000800 1.912240 
# 
# From -- ./inp_files/177998.got.cif
#   From: 2010.06.25/outbox.cif.g09.slc.cpg/sg2_89_cif.got.tgz:177998.got - 2010.06.27 13:26:56.
