data_PCOD8033605
_publ_section_title
;
Structure prediction by ZEFSAII (Michael W. Deem and Ramdas Pophale) SiO2 
 PCOD8033605
Probable space group: P -1
;
_chemical_formula_sum "Si O2"
_cell_formula_units_Z 14
_cell_length_a 6.686576
_cell_length_b 18.254314
_cell_length_c 16.960839
_cell_angle_alpha 30.054054
_cell_angle_beta 69.162215
_cell_angle_gamma 48.723356
_cell_volume 639.150373
_symmetry_space_group_name_H-M "P -1"
_symmetry_group_IT_number 2
_symmetry_cell_setting 'triclinic'
loop_
_space_group_symop_operation_xyz
x,y,z
-x,-y,-z
loop_
_atom_site_type_symbol
_atom_site_label
_atom_site_fract_x
_atom_site_fract_y
_atom_site_fract_z
Si Si1 0.832868 0.225484 0.347955
Si Si2 0.821317 0.850627 0.472529
Si Si3 0.857868 0.411655 0.600975
Si Si4 0.899186 0.471385 0.818788
Si Si5 0.154750 0.146553 0.952988
Si Si6 0.919764 0.686737 0.881429
Si Si7 0.884015 0.167197 0.703549
O O1 0.468822 0.387404 0.277223
O O2 0.054593 0.170367 0.439109
O O3 0.817986 0.339362 0.168681
O O4 0.000000 0.000000 0.500000
O O5 0.926935 0.629055 0.649309
O O6 0.981908 0.875122 0.363077
O O7 0.436268 0.068763 0.317021
O O8 0.042444 0.205056 0.706753
O O9 0.491780 0.613103 0.441001
O O10 0.000000 0.500000 0.500000
O O11 0.873834 0.336228 0.755746
O O12 0.137619 0.260138 0.925077
O O13 0.027089 0.363326 0.987365
O O14 0.500000 0.000000 0.000000
O O15 0.062415 0.028340 0.098267
O O16 0.000000 0.500000 0.000000
#
# Coordination Sequence:
#
# PCOD8033605 Si02
#       7
#     2   2   2   2   2   2   2
#     4  12  25  49  76 103 147 191 238 298 367 434
#     4  12  27  47  71 107 148 187 242 294 367 433
#     4  11  23  48  71  97 141 184 237 297 359 415
#     4  12  28  47  73 107 149 193 243 301 361 433
#     4  12  27  46  73 104 144 189 245 297 358 426
#     4  12  26  47  76 107 147 188 238 299 363 436
#     4  11  27  43  73 104 137 190 237 296 357 428
#
# _framework density 21.904077999999998
#
# number of rings (size 3 to 8) (size 9 to 14) (size 15 to 20)
#    0.000    0.286    4.286    3.857    8.000    2.286 
#    0.000    0.000    0.000    0.000    0.000    0.000 
#    0.000    0.000    0.000    0.000    0.000    0.000 
#
# Total GULP energy -173576.900820 kJ/mol
# GULP energy per Si atom -12398.350059 kJ/mol
# Density = 2.185422 g / cm^3
# Si number density = 21.904078 Si / 1000 Ang^3
#
#
#
# Elastic Constant Matrix: (Units=GPa)
#
#
# Indices 1 2 3 4 5 6 
#
# 1 118.5238 50.9621 62.2399 0.2348 -27.3393 11.2457
# 2 50.9621 134.8087 54.2938 7.3761 -24.5025 13.5660
# 3 62.2399 54.2938 133.8572 21.0137 -28.4663 12.9099
# 4 0.2348 7.3761 21.0137 46.9229 -1.9533 -4.2143
# 5 -27.3393 -24.5025 -28.4663 -1.9533 55.5319 2.5832
# 6 11.2457 13.5660 12.9099 -4.2143 2.5832 49.0419
#
#
#
# Elastic Compliance Matrix: (Units=1/GPa)
#
#
# Indices 1 2 3 4 5 6 
#
# 1 0.012641 -0.002447 -0.004539 0.002389 0.002946 -0.000977
# 2 -0.002447 0.009787 -0.002117 -0.000649 0.002087 -0.001755
# 3 -0.004539 -0.002117 0.012077 -0.005123 0.002942 -0.002148
# 4 0.002389 -0.000649 -0.005123 0.023931 -0.001038 0.003091
# 5 0.002946 0.002087 0.002942 -0.001038 0.022003 -0.003275
# 6 -0.000977 -0.001755 -0.002148 0.003091 -0.003275 0.022104
#
#
# Mechanical properties :
#
#
# Convention : Reuss Voigt Hill
#
# Bulk Modulus (GPa) = 61.35843 80.24238 70.80041
# Shear Modulus (GPa) = 39.62569 44.94561 42.28565
#
# Velocity S-wave (km/s) = 4.25791 4.53474 4.39850
# Velocity P-wave (km/s) = 7.22816 8.00822 7.62816
#
# Compressibility (1/GPa) = 0.01629768
#
# Stress axis : x y z
#
# Youngs Moduli (GPa) = 79.11061 102.17543 82.80254
#
# Poissons Ratio (x) = 0.25006 0.37586
# Poissons Ratio (y) = 0.19361 0.17528
# Poissons Ratio (z) = 0.35910 0.21629
#
# Static dielectric constant tensor:
#      x y z
#    x -3.731500 -1.374330 -1.195250 
#    y -1.374330 3.691110 -0.183490 
#    z -1.195250 -0.183490 4.059610 
# 
# 
# High freq. dielectric constant tensor:
#      x y z
#    x 1.873260 0.006040 -0.009130 
#    y 0.006040 1.873570 0.006340 
#    z -0.009130 0.006340 1.880470 
# 
# From -- ./inp_files/106169.got.cif
#   From: 2010.06.25/outbox.cif.g09.slc.cpg/sg2_54_cif.got.tgz:106169.got - 2010.06.27 13:26:56.
