data_PCOD8033116
_publ_section_title
;
Structure prediction by ZEFSAII (Michael W. Deem and Ramdas Pophale) SiO2 
 PCOD8033116
Probable space group: P -1
;
_chemical_formula_sum "Si O2"
_cell_formula_units_Z 12
_cell_length_a 8.333353
_cell_length_b 17.486960
_cell_length_c 10.154983
_cell_angle_alpha 136.366395
_cell_angle_beta 137.285910
_cell_angle_gamma 32.677747
_cell_volume 519.091505
_symmetry_space_group_name_H-M "P -1"
_symmetry_group_IT_number 2
_symmetry_cell_setting 'triclinic'
loop_
_space_group_symop_operation_xyz
x,y,z
-x,-y,-z
loop_
_atom_site_type_symbol
_atom_site_label
_atom_site_fract_x
_atom_site_fract_y
_atom_site_fract_z
Si Si1 0.278650 0.745068 0.613912
Si Si2 0.641942 0.569087 0.351762
Si Si3 0.786601 0.307817 0.984577
Si Si4 0.875935 0.058591 0.851774
Si Si5 0.088024 0.381956 0.066589
Si Si6 0.148939 0.313009 0.728036
O O1 0.440403 0.671439 0.480622
O O2 0.547996 0.692757 0.815293
O O3 0.036366 0.922929 0.678256
O O4 0.088072 0.699037 0.501877
O O5 0.469266 0.668993 0.240256
O O6 0.000000 0.500000 0.500000
O O7 0.622124 0.440839 0.159078
O O8 0.967278 0.154640 0.980061
O O9 0.036846 0.306235 0.053916
O O10 0.501429 0.157923 0.741117
O O11 0.000000 0.000000 0.000000
O O12 0.874109 0.557136 0.186498
O O13 0.012450 0.354332 0.845609
#
# Coordination Sequence:
#
# PCOD8033116 Si02
#       6
#     2   2   2   2   2   2
#     4  12  25  45  71 110 141 184 239 283 357 427
#     4  11  23  44  74 111 133 184 243 293 347 416
#     4  11  25  48  72 101 150 180 236 298 352 415
#     4  12  28  49  69 104 151 194 226 291 366 418
#     4  11  23  45  76 106 134 188 239 300 345 409
#     4  11  24  46  72 102 147 182 240 291 348 420
#
# _framework density 23.117312999999999
#
# number of rings (size 3 to 8) (size 9 to 14) (size 15 to 20)
#    0.000    0.667    5.000    3.000    2.333    2.667 
#    3.000    0.000    0.000    0.000    0.000    0.000 
#    0.000    0.000    0.000    0.000    0.000    0.000 
#
# Total GULP energy -148770.940492 kJ/mol
# GULP energy per Si atom -12397.578374 kJ/mol
# Density = 2.306470 g / cm^3
# Si number density = 23.117313 Si / 1000 Ang^3
#
#
#
# Elastic Constant Matrix: (Units=GPa)
#
#
# Indices 1 2 3 4 5 6 
#
# 1 111.6169 50.7689 39.2730 10.0434 15.6896 5.6744
# 2 50.7689 134.2980 45.6344 4.4657 9.4237 -6.0057
# 3 39.2730 45.6344 103.9955 -6.5231 13.8828 -0.9874
# 4 10.0434 4.4657 -6.5231 52.4866 -11.9782 1.7198
# 5 15.6896 9.4237 13.8828 -11.9782 21.4377 6.2048
# 6 5.6744 -6.0057 -0.9874 1.7198 6.2048 49.9737
#
#
#
# Elastic Compliance Matrix: (Units=1/GPa)
#
#
# Indices 1 2 3 4 5 6 
#
# 1 0.013050 -0.003320 -0.002595 -0.004506 -0.008728 -0.000693
# 2 -0.003320 0.009887 -0.002999 -0.000843 -0.000923 0.001650
# 3 -0.002595 -0.002999 0.012588 0.001286 -0.004414 0.000687
# 4 -0.004506 -0.000843 0.001286 0.024117 0.017037 -0.002510
# 5 -0.008728 -0.000923 -0.004414 0.017037 0.068210 -0.008262
# 6 -0.000693 0.001650 0.000687 -0.002510 -0.008262 0.021413
#
#
# Mechanical properties :
#
#
# Convention : Reuss Voigt Hill
#
# Bulk Modulus (GPa) = 56.50758 69.02922 62.76840
# Shear Modulus (GPa) = 28.90293 39.06186 33.98239
#
# Velocity S-wave (km/s) = 3.53975 4.11508 3.83821
# Velocity P-wave (km/s) = 6.41899 7.24595 6.84497
#
# Compressibility (1/GPa) = 0.01769674
#
# Stress axis : x y z
#
# Youngs Moduli (GPa) = 76.62692 101.14556 79.43888
#
# Poissons Ratio (x) = 0.33582 0.20618
# Poissons Ratio (y) = 0.25441 0.23821
# Poissons Ratio (z) = 0.19888 0.30330
#
# Static dielectric constant tensor:
#      x y z
#    x 3.994550 -0.146890 0.036600 
#    y -0.146890 4.251100 -0.048010 
#    z 0.036600 -0.048010 4.521270 
# 
# 
# High freq. dielectric constant tensor:
#      x y z
#    x 1.919880 -0.018250 0.005240 
#    y -0.018250 1.905610 -0.005000 
#    z 0.005240 -0.005000 1.924450 
# 
# From -- ./inp_files/152452.got.cif
#   From: 2010.06.25/outbox.cif.g09.slc.cpg/sg2_77_cif.got.tgz:152452.got - 2010.06.27 13:26:56.
