data_PCOD8033393
_publ_section_title
;
Structure prediction by ZEFSAII (Michael W. Deem and Ramdas Pophale) SiO2 
 PCOD8033393
Probable space group: P -1
;
_chemical_formula_sum "Si O2"
_cell_formula_units_Z 16
_cell_length_a 15.486410
_cell_length_b 9.669189
_cell_length_c 9.459865
_cell_angle_alpha 117.031079
_cell_angle_beta 62.914517
_cell_angle_gamma 143.355197
_cell_volume 742.068165
_symmetry_space_group_name_H-M "P -1"
_symmetry_group_IT_number 2
_symmetry_cell_setting 'triclinic'
loop_
_space_group_symop_operation_xyz
x,y,z
-x,-y,-z
loop_
_atom_site_type_symbol
_atom_site_label
_atom_site_fract_x
_atom_site_fract_y
_atom_site_fract_z
Si Si1 0.074820 0.748477 0.522815
Si Si2 0.614189 0.026709 0.005153
Si Si3 0.599427 0.459317 0.543423
Si Si4 0.923547 0.073780 0.113532
Si Si5 0.084382 0.258676 0.586559
Si Si6 0.912248 0.547322 0.054782
Si Si7 0.586811 0.739976 0.126085
Si Si8 0.366779 0.146608 0.356186
O O1 0.069919 0.877074 0.703786
O O2 0.000000 0.500000 0.500000
O O3 0.991157 0.696895 0.421708
O O4 0.243671 0.921175 0.440881
O O5 0.650544 0.934100 0.826587
O O6 0.743477 0.300694 0.065280
O O7 0.500000 0.000000 0.000000
O O8 0.572594 0.884796 0.115298
O O9 0.747152 0.541501 0.499147
O O10 0.490703 0.325669 0.696009
O O11 0.519014 0.287598 0.386807
O O12 0.652946 0.693345 0.566084
O O13 0.756242 0.887929 0.091464
O O14 0.029371 0.325755 0.079693
O O15 0.000000 0.000000 0.000000
O O16 0.067062 0.284713 0.774914
O O17 0.000000 0.000000 0.500000
O O18 0.000000 0.500000 0.000000
O O19 0.500000 0.500000 0.000000
#
# Coordination Sequence:
#
# PCOD8033393 Si02
#       8
#     2   2   2   2   2   2   2   2
#     4  12  26  45  69 104 144 184 233 293 363 419
#     4  12  27  46  74 105 147 192 240 296 372 440
#     4  11  25  44  75 102 146 184 244 301 349 432
#     4  12  28  46  75 108 143 187 247 298 351 437
#     4  12  26  45  75 106 135 194 250 287 351 439
#     4  12  26  48  73 105 149 192 239 301 369 423
#     4  12  27  47  72 107 148 192 241 302 367 424
#     4  11  23  46  69 102 143 191 233 294 364 419
#
# _framework density 21.561361000000002
#
# number of rings (size 3 to 8) (size 9 to 14) (size 15 to 20)
#    0.000    0.250    5.000    3.750    5.250    1.000 
#    0.000    1.875    0.000    0.000    0.000    0.000 
#    0.000    0.000    0.000    0.000    0.000    0.000 
#
# Total GULP energy -198365.194538 kJ/mol
# GULP energy per Si atom -12397.824659 kJ/mol
# Density = 2.151229 g / cm^3
# Si number density = 21.561361 Si / 1000 Ang^3
#
#
#
# Elastic Constant Matrix: (Units=GPa)
#
#
# Indices 1 2 3 4 5 6 
#
# 1 107.7605 41.1864 2.8255 -2.0944 -1.4925 12.3676
# 2 41.1864 139.5328 24.8522 -5.7434 3.8300 4.0960
# 3 2.8255 24.8522 94.0010 4.5670 6.6703 13.3748
# 4 -2.0944 -5.7434 4.5670 41.7210 0.9122 6.3699
# 5 -1.4925 3.8300 6.6703 0.9122 32.2449 -3.4536
# 6 12.3676 4.0960 13.3748 6.3699 -3.4536 31.1790
#
#
#
# Elastic Compliance Matrix: (Units=1/GPa)
#
#
# Indices 1 2 3 4 5 6 
#
# 1 0.011054 -0.003310 0.001148 0.000666 0.000160 -0.004561
# 2 -0.003310 0.008594 -0.002307 0.001151 -0.000636 0.000868
# 3 0.001148 -0.002307 0.012237 -0.000688 -0.002781 -0.005569
# 4 0.000666 0.001151 -0.000688 0.025085 -0.001250 -0.005384
# 5 0.000160 -0.000636 -0.002781 -0.001250 0.032246 0.005040
# 6 -0.004561 0.000868 -0.005569 -0.005384 0.005040 0.037815
#
#
# Mechanical properties :
#
#
# Convention : Reuss Voigt Hill
#
# Bulk Modulus (GPa) = 43.58013 53.22473 48.40243
# Shear Modulus (GPa) = 34.81465 39.19098 37.00281
#
# Velocity S-wave (km/s) = 4.02266 4.26801 4.14715
# Velocity P-wave (km/s) = 6.46775 7.00191 6.74012
#
# Compressibility (1/GPa) = 0.02294624
#
# Stress axis : x y z
#
# Youngs Moduli (GPa) = 90.46893 116.35859 81.72104
#
# Poissons Ratio (x) = 0.38518 -0.09382
# Poissons Ratio (y) = 0.29948 0.18852
# Poissons Ratio (z) = -0.10387 0.26843
#
# Static dielectric constant tensor:
#      x y z
#    x 3.670840 0.277750 -0.120300 
#    y 0.277750 3.894880 0.003690 
#    z -0.120300 0.003690 3.494630 
# 
# 
# High freq. dielectric constant tensor:
#      x y z
#    x 1.851620 0.006710 0.008270 
#    y 0.006710 1.864370 0.002950 
#    z 0.008270 0.002950 1.859050 
# 
# From -- ./inp_files/299154.got.cif
#   From: 2010.06.25/outbox.cif.g09.slc.cpg/sg2_150_cif.got.tgz:299154.got - 2010.06.27 13:26:56.
