data_PCOD8033679
_publ_section_title
;
Structure prediction by ZEFSAII (Michael W. Deem and Ramdas Pophale) SiO2 
 PCOD8033679
Probable space group: P -1
;
_chemical_formula_sum "Si O2"
_cell_formula_units_Z 16
_cell_length_a 14.671855
_cell_length_b 11.609556
_cell_length_c 14.342955
_cell_angle_alpha 149.929694
_cell_angle_beta 39.749452
_cell_angle_gamma 121.275587
_cell_volume 696.491578
_symmetry_space_group_name_H-M "P -1"
_symmetry_group_IT_number 2
_symmetry_cell_setting 'triclinic'
loop_
_space_group_symop_operation_xyz
x,y,z
-x,-y,-z
loop_
_atom_site_type_symbol
_atom_site_label
_atom_site_fract_x
_atom_site_fract_y
_atom_site_fract_z
Si Si1 0.170297 0.373465 0.997967
Si Si2 0.988581 0.233873 0.307676
Si Si3 0.659055 0.178467 0.006041
Si Si4 0.911081 0.694426 0.286025
Si Si5 0.970419 0.126471 0.453430
Si Si6 0.561508 0.917635 0.746454
Si Si7 0.554812 0.745786 0.439417
Si Si8 0.785006 0.093162 0.250286
O O1 0.016240 0.593012 0.222901
O O2 0.167184 0.572408 0.218946
O O3 0.324929 0.229052 0.710774
O O4 0.139545 0.152228 0.912530
O O5 0.979526 0.094416 0.312377
O O6 0.000000 0.500000 0.500000
O O7 0.838067 0.294677 0.398272
O O8 0.144101 0.007469 0.978014
O O9 0.559354 0.160903 0.160383
O O10 0.642522 0.464088 0.219841
O O11 0.846199 0.968690 0.718345
O O12 0.577172 0.145357 0.951000
O O13 0.743706 0.691498 0.437772
O O14 0.890824 0.971054 0.460794
O O15 0.000000 0.500000 0.000000
O O16 0.506834 0.964214 0.712363
O O17 0.404621 0.778257 0.518961
#
# Coordination Sequence:
#
# PCOD8033679 Si02
#       8
#     2   2   2   2   2   2   2   2
#     4  12  23  43  69 100 144 182 232 285 344 419
#     4  11  25  49  74 101 134 185 239 288 341 415
#     4  11  24  43  66 105 137 183 228 294 346 410
#     4  12  22  40  70 103 140 182 233 291 347 413
#     4  12  23  44  74  99 140 182 235 293 351 406
#     4  11  24  40  68 104 139 178 230 288 356 403
#     4  12  25  44  66 100 147 180 230 281 352 412
#     4  11  27  46  70 101 139 188 232 281 348 417
#
# _framework density 22.972283000000001
#
# number of rings (size 3 to 8) (size 9 to 14) (size 15 to 20)
#    0.000    0.500    5.000    3.375    0.000    6.000 
#    0.000    0.625    0.000    0.000    0.000    0.000 
#    0.000    0.000    0.000    0.000    0.000    0.000 
#
# Total GULP energy -198232.024894 kJ/mol
# GULP energy per Si atom -12389.501556 kJ/mol
# Density = 2.292000 g / cm^3
# Si number density = 22.972283 Si / 1000 Ang^3
#
#
#
# Elastic Constant Matrix: (Units=GPa)
#
#
# Indices 1 2 3 4 5 6 
#
# 1 117.4522 25.7015 32.6648 -2.0528 9.2047 3.7522
# 2 25.7015 69.3763 34.6259 -19.7250 8.1816 -12.8448
# 3 32.6648 34.6259 77.8408 -13.1862 11.8208 -0.4993
# 4 -2.0528 -19.7250 -13.1862 36.6297 4.7531 1.9882
# 5 9.2047 8.1816 11.8208 4.7531 42.3723 -5.0672
# 6 3.7522 -12.8448 -0.4993 1.9882 -5.0672 35.1342
#
#
#
# Elastic Compliance Matrix: (Units=1/GPa)
#
#
# Indices 1 2 3 4 5 6 
#
# 1 0.010159 -0.003103 -0.003117 -0.001999 -0.000785 -0.002264
# 2 -0.003103 0.023678 -0.007210 0.009808 -0.002025 0.008038
# 3 -0.003117 -0.007210 0.018465 0.003230 -0.003775 -0.002768
# 4 -0.001999 0.009808 0.003230 0.034368 -0.006094 0.001021
# 5 -0.000785 -0.002025 -0.003775 -0.006094 0.026309 0.003429
# 6 -0.002264 0.008038 -0.002768 0.001021 0.003429 0.032040
#
#
# Mechanical properties :
#
#
# Convention : Reuss Voigt Hill
#
# Bulk Modulus (GPa) = 39.30508 50.07264 44.68886
# Shear Modulus (GPa) = 27.72281 34.27239 30.99760
#
# Velocity S-wave (km/s) = 3.47766 3.86671 3.67733
# Velocity P-wave (km/s) = 5.76823 6.46371 6.12584
#
# Compressibility (1/GPa) = 0.02544201
#
# Stress axis : x y z
#
# Youngs Moduli (GPa) = 98.43745 42.23385 54.15788
#
# Poissons Ratio (x) = 0.13104 0.16880
# Poissons Ratio (y) = 0.30543 0.39048
# Poissons Ratio (z) = 0.30680 0.30451
#
# Static dielectric constant tensor:
#      x y z
#    x 4.373980 -0.004690 0.315300 
#    y -0.004690 3.961430 -0.234720 
#    z 0.315300 -0.234720 4.128990 
# 
# 
# High freq. dielectric constant tensor:
#      x y z
#    x 1.917030 0.001550 0.023680 
#    y 0.001550 1.905510 -0.026090 
#    z 0.023680 -0.026090 1.907160 
# 
# From -- ./inp_files/532768.got.cif
#   From: 2010.06.25/outbox.cif.g09.slc.cpg/sg2_267_cif.got.tgz:532768.got - 2010.06.27 13:26:56.
