data_PCOD8033140
_publ_section_title
;
Structure prediction by ZEFSAII (Michael W. Deem and Ramdas Pophale) SiO2 
 PCOD8033140
Probable space group: P -1
;
_chemical_formula_sum "Si O2"
_cell_formula_units_Z 12
_cell_length_a 14.282336
_cell_length_b 9.493348
_cell_length_c 14.076112
_cell_angle_alpha 134.343341
_cell_angle_beta 32.810852
_cell_angle_gamma 148.141964
_cell_volume 545.113845
_symmetry_space_group_name_H-M "P -1"
_symmetry_group_IT_number 2
_symmetry_cell_setting 'triclinic'
loop_
_space_group_symop_operation_xyz
x,y,z
-x,-y,-z
loop_
_atom_site_type_symbol
_atom_site_label
_atom_site_fract_x
_atom_site_fract_y
_atom_site_fract_z
Si Si1 0.119829 0.486309 0.805358
Si Si2 0.638698 0.052949 0.639882
Si Si3 0.197407 0.236424 0.005982
Si Si4 0.926280 0.409440 0.730583
Si Si5 0.993521 0.023052 0.275436
Si Si6 0.684445 0.444988 0.656318
O O1 0.954394 0.381146 0.804224
O O2 0.374714 0.779878 0.720166
O O3 0.136825 0.269844 0.713128
O O4 0.000000 0.500000 0.000000
O O5 0.740806 0.126998 0.696815
O O6 0.791265 0.027686 0.430180
O O7 0.676122 0.305489 0.692464
O O8 0.184184 0.460514 0.124643
O O9 0.158768 0.115009 0.086358
O O10 0.426721 0.328085 0.800960
O O11 0.000000 0.000000 0.000000
O O12 0.192765 0.589997 0.547676
O O13 0.163596 0.240873 0.313153
#
# Coordination Sequence:
#
# PCOD8033140 Si02
#       6
#     2   2   2   2   2   2
#     4  12  28  45  65 104 145 178 226 288 343 406
#     4  11  23  46  74  98 138 186 223 289 341 397
#     4  12  24  40  73 105 131 180 233 278 340 406
#     4  11  25  47  70 101 138 181 233 276 343 410
#     4  11  23  46  67 100 140 178 229 281 341 405
#     4  11  23  44  76  99 135 181 229 290 332 398
#
# _framework density 22.013749000000001
#
# number of rings (size 3 to 8) (size 9 to 14) (size 15 to 20)
#    0.000    0.667    3.333    5.000    4.667    4.667 
#    6.000    0.000    0.000    0.000    0.000    0.000 
#    0.000    0.000    0.000    0.000    0.000    0.000 
#
# Total GULP energy -148705.213204 kJ/mol
# GULP energy per Si atom -12392.101100 kJ/mol
# Density = 2.196364 g / cm^3
# Si number density = 22.013749 Si / 1000 Ang^3
#
#
#
# Elastic Constant Matrix: (Units=GPa)
#
#
# Indices 1 2 3 4 5 6 
#
# 1 88.8129 24.9741 41.9833 9.8697 -3.1234 2.8200
# 2 24.9741 104.8656 20.3840 11.4459 -8.7980 2.3192
# 3 41.9833 20.3840 109.8710 -2.0304 -14.7192 -2.3630
# 4 9.8697 11.4459 -2.0304 31.3608 6.4391 -3.0115
# 5 -3.1234 -8.7980 -14.7192 6.4391 30.3982 -4.6470
# 6 2.8200 2.3192 -2.3630 -3.0115 -4.6470 28.7612
#
#
#
# Elastic Compliance Matrix: (Units=1/GPa)
#
#
# Indices 1 2 3 4 5 6 
#
# 1 0.015027 -0.002058 -0.005659 -0.004321 -0.001248 -0.002426
# 2 -0.002058 0.010943 -0.000892 -0.004145 0.003302 -0.000655
# 3 -0.005659 -0.000892 0.012199 0.002121 0.005025 0.002663
# 4 -0.004321 -0.004145 0.002121 0.036854 -0.007886 0.003517
# 5 -0.001248 0.003302 0.005025 -0.007886 0.038699 0.005696
# 6 -0.002426 -0.000655 0.002663 0.003517 0.005696 0.036567
#
#
# Mechanical properties :
#
#
# Convention : Reuss Voigt Hill
#
# Bulk Modulus (GPa) = 47.73146 53.13692 50.43419
# Shear Modulus (GPa) = 28.65458 32.51790 30.58624
#
# Velocity S-wave (km/s) = 3.61178 3.84756 3.73153
# Velocity P-wave (km/s) = 6.25483 6.62788 6.44405
#
# Compressibility (1/GPa) = 0.02095054
#
# Stress axis : x y z
#
# Youngs Moduli (GPa) = 66.54682 91.37860 81.97160
#
# Poissons Ratio (x) = 0.18806 0.46391
# Poissons Ratio (y) = 0.13695 0.07314
# Poissons Ratio (z) = 0.37661 0.08153
#
# Static dielectric constant tensor:
#      x y z
#    x 3.830380 0.152860 -0.049520 
#    y 0.152860 4.143480 0.685550 
#    z -0.049520 0.685550 3.850350 
# 
# 
# High freq. dielectric constant tensor:
#      x y z
#    x 1.852470 0.013020 -0.006050 
#    y 0.013020 1.864350 0.008470 
#    z -0.006050 0.008470 1.887310 
# 
# From -- ./inp_files/146392.got.cif
#   From: 2010.06.25/outbox.cif.g09.slc.cpg/sg2_74_cif.got.tgz:146392.got - 2010.06.27 13:26:56.
