data_PCOD8033952
_publ_section_title
;
Structure prediction by ZEFSAII (Michael W. Deem and Ramdas Pophale) SiO2 
 PCOD8033952
Probable space group: P -1
;
_chemical_formula_sum "Si O2"
_cell_formula_units_Z 16
_cell_length_a 11.472260
_cell_length_b 6.859077
_cell_length_c 13.039834
_cell_angle_alpha 87.729427
_cell_angle_beta 123.244296
_cell_angle_gamma 65.270411
_cell_volume 728.973230
_symmetry_space_group_name_H-M "P -1"
_symmetry_group_IT_number 2
_symmetry_cell_setting 'triclinic'
loop_
_space_group_symop_operation_xyz
x,y,z
-x,-y,-z
loop_
_atom_site_type_symbol
_atom_site_label
_atom_site_fract_x
_atom_site_fract_y
_atom_site_fract_z
Si Si1 0.376115 0.288277 0.530108
Si Si2 0.763638 0.664586 0.975634
Si Si3 0.173002 0.814265 0.458548
Si Si4 0.021994 0.210116 0.023543
Si Si5 0.423339 0.089104 0.770822
Si Si6 0.738770 0.950654 0.668605
Si Si7 0.638370 0.536844 0.111690
Si Si8 0.805168 0.074722 0.310372
O O1 0.290387 0.559047 0.481089
O O2 0.337657 0.205344 0.619647
O O3 0.571130 0.178800 0.618287
O O4 0.305204 0.222932 0.400805
O O5 0.724967 0.616641 0.071297
O O6 0.841322 0.431003 0.951574
O O7 0.895656 0.746522 0.037492
O O8 0.598544 0.861597 0.837687
O O9 0.164849 0.986003 0.365745
O O10 0.242661 0.851645 0.596304
O O11 0.990778 0.866942 0.389697
O O12 0.140787 0.173888 0.176070
O O13 0.000000 0.000000 0.000000
O O14 0.444221 0.267886 0.845289
O O15 0.311457 0.016209 0.780433
O O16 0.777503 0.294210 0.229822
O O17 0.500000 0.500000 0.000000
#
# Coordination Sequence:
#
# PCOD8033952 Si02
#       8
#     2   2   2   2   2   2   2   2
#     4  11  24  44  72  97 135 180 230 289 341 402
#     4  11  26  45  70 106 137 181 239 278 344 414
#     4  11  24  43  67 101 135 176 225 283 345 406
#     4  11  27  47  73 103 143 184 224 293 347 412
#     4  12  24  46  72  95 142 183 230 286 348 410
#     4  11  24  45  69 102 132 177 234 280 345 413
#     4  12  26  43  71 101 136 185 230 282 341 413
#     4  11  25  42  68 101 137 179 228 281 342 417
#
# _framework density 21.948681000000001
#
# number of rings (size 3 to 8) (size 9 to 14) (size 15 to 20)
#    0.000    0.750    5.000    1.500    1.750    6.500 
#    0.000    0.000    0.000    0.000    0.000    0.000 
#    0.000    0.000    0.000    0.000    0.000    0.000 
#
# Total GULP energy -198463.093453 kJ/mol
# GULP energy per Si atom -12403.943341 kJ/mol
# Density = 2.189872 g / cm^3
# Si number density = 21.948681 Si / 1000 Ang^3
#
#
#
# Elastic Constant Matrix: (Units=GPa)
#
#
# Indices 1 2 3 4 5 6 
#
# 1 99.1845 30.2214 23.6952 8.6786 -2.5176 5.5382
# 2 30.2214 120.8321 41.6294 6.8043 15.8123 -1.3870
# 3 23.6952 41.6294 89.5989 4.3011 0.9542 -3.5337
# 4 8.6786 6.8043 4.3011 29.0526 1.8915 0.8984
# 5 -2.5176 15.8123 0.9542 1.8915 36.9257 -8.2113
# 6 5.5382 -1.3870 -3.5337 0.8984 -8.2113 35.0007
#
#
#
# Elastic Compliance Matrix: (Units=1/GPa)
#
#
# Indices 1 2 3 4 5 6 
#
# 1 0.011623 -0.002310 -0.001955 -0.002694 0.001596 -0.001685
# 2 -0.002310 0.011079 -0.004472 -0.000899 -0.004913 -0.000776
# 3 -0.001955 -0.004472 0.013843 -0.000603 0.001897 0.001990
# 4 -0.002694 -0.000899 -0.000603 0.035676 -0.001837 -0.001017
# 5 0.001596 -0.004913 0.001897 -0.001837 0.030905 0.007042
# 6 -0.001685 -0.000776 0.001990 -0.001017 0.007042 0.030686
#
#
# Mechanical properties :
#
#
# Convention : Reuss Voigt Hill
#
# Bulk Modulus (GPa) = 52.43327 55.63417 54.03372
# Shear Modulus (GPa) = 31.71748 34.46711 33.09230
#
# Velocity S-wave (km/s) = 3.80554 3.96706 3.88714
# Velocity P-wave (km/s) = 6.57650 6.81072 6.69463
#
# Compressibility (1/GPa) = 0.01907186
#
# Stress axis : x y z
#
# Youngs Moduli (GPa) = 86.03371 90.26135 72.24043
#
# Poissons Ratio (x) = 0.20852 0.14121
# Poissons Ratio (y) = 0.19875 0.32304
# Poissons Ratio (z) = 0.16817 0.40362
#
# Static dielectric constant tensor:
#      x y z
#    x 4.072060 -0.001230 -0.079320 
#    y -0.001230 3.943490 -0.166970 
#    z -0.079320 -0.166970 3.905500 
# 
# 
# High freq. dielectric constant tensor:
#      x y z
#    x 1.877090 0.001580 -0.003400 
#    y 0.001580 1.868010 -0.013910 
#    z -0.003400 -0.013910 1.857390 
# 
# From -- ./inp_files/81690.got.cif
#   From: 2010.06.25/outbox.cif.g09.slc.cpg/sg2_41_cif.got.tgz:81690.got - 2010.06.27 13:26:56.
