data_PCOD8033875
_publ_section_title
;
Structure prediction by ZEFSAII (Michael W. Deem and Ramdas Pophale) SiO2 
 PCOD8033875
Probable space group: P -1
;
_chemical_formula_sum "Si O2"
_cell_formula_units_Z 14
_cell_length_a 14.018665
_cell_length_b 11.207660
_cell_length_c 8.146584
_cell_angle_alpha 65.223861
_cell_angle_beta 66.003681
_cell_angle_gamma 31.312767
_cell_volume 600.759508
_symmetry_space_group_name_H-M "P -1"
_symmetry_group_IT_number 2
_symmetry_cell_setting 'triclinic'
loop_
_space_group_symop_operation_xyz
x,y,z
-x,-y,-z
loop_
_atom_site_type_symbol
_atom_site_label
_atom_site_fract_x
_atom_site_fract_y
_atom_site_fract_z
Si Si1 0.058399 0.227317 0.718960
Si Si2 0.425640 0.705984 0.267744
Si Si3 0.931231 0.898319 0.863813
Si Si4 0.463948 0.120201 0.792797
Si Si5 0.043226 0.546431 0.790898
Si Si6 0.217843 0.286646 0.411560
Si Si7 0.776780 0.186791 0.342477
O O1 0.192022 0.218544 0.628375
O O2 0.856988 0.485486 0.637144
O O3 0.170946 0.004261 0.666433
O O4 0.011030 0.228275 0.933301
O O5 0.482644 0.784840 0.263879
O O6 0.606277 0.441111 0.229193
O O7 0.296932 0.756617 0.454364
O O8 0.291856 0.856930 0.116462
O O9 0.982218 0.757038 0.753957
O O10 0.036117 0.925259 0.743877
O O11 0.262371 0.320922 0.741733
O O12 0.577874 0.933872 0.673421
O O13 0.500000 0.000000 0.000000
O O14 0.924824 0.626301 0.672652
O O15 0.000000 0.500000 0.000000
#
# Coordination Sequence:
#
# PCOD8033875 Si02
#       7
#     2   2   2   2   2   2   2
#     4  11  24  44  64  92 143 173 210 266 331 395
#     4  11  24  42  70  98 126 168 228 273 315 379
#     4  12  22  41  70  97 126 178 215 265 327 388
#     4  12  21  39  71  98 125 163 222 279 316 374
#     4  12  21  40  69  98 123 166 226 268 317 382
#     4  11  24  44  65  97 133 173 213 273 328 383
#     4  11  24  45  64  96 135 171 218 271 322 385
#
# _framework density 23.303833999999998
#
# number of rings (size 3 to 8) (size 9 to 14) (size 15 to 20)
#    0.000    0.571    7.143    0.857    0.000    0.571 
#    0.000    5.714    0.000    0.000    0.000    0.000 
#    0.000    0.000    0.000    0.000    0.000    0.000 
#
# Total GULP energy -173464.392222 kJ/mol
# GULP energy per Si atom -12390.313730 kJ/mol
# Density = 2.325079 g / cm^3
# Si number density = 23.303834 Si / 1000 Ang^3
#
#
#
# Elastic Constant Matrix: (Units=GPa)
#
#
# Indices 1 2 3 4 5 6 
#
# 1 67.7855 38.4556 12.2315 -6.2624 -13.8856 -7.5995
# 2 38.4556 181.9084 -8.1591 4.4694 -16.7706 10.0403
# 3 12.2315 -8.1591 65.8952 5.1167 -25.4225 1.5586
# 4 -6.2624 4.4694 5.1167 38.8115 -0.0804 -3.6211
# 5 -13.8856 -16.7706 -25.4225 -0.0804 23.2347 2.1554
# 6 -7.5995 10.0403 1.5586 -3.6211 2.1554 49.6028
#
#
#
# Elastic Compliance Matrix: (Units=1/GPa)
#
#
# Indices 1 2 3 4 5 6 
#
# 1 0.019473 -0.003987 -0.002228 0.004272 0.005975 0.003913
# 2 -0.003987 0.007715 0.005700 -0.002539 0.009688 -0.002958
# 3 -0.002228 0.005700 0.031242 -0.005477 0.037366 -0.004500
# 4 0.004272 -0.002539 -0.005477 0.027795 -0.005511 0.003609
# 5 0.005975 0.009688 0.037366 -0.005511 0.095094 -0.006754
# 6 0.003913 -0.002958 -0.004500 0.003609 -0.006754 0.022057
#
#
# Mechanical properties :
#
#
# Convention : Reuss Voigt Hill
#
# Bulk Modulus (GPa) = 17.42110 44.51613 30.96862
# Shear Modulus (GPa) = 22.36761 40.53389 31.45075
#
# Velocity S-wave (km/s) = 3.10147 4.17509 3.67767
# Velocity P-wave (km/s) = 4.50747 6.51044 5.59925
#
# Compressibility (1/GPa) = 0.05740165
#
# Stress axis : x y z
#
# Youngs Moduli (GPa) = 51.35239 129.62565 32.00791
#
# Poissons Ratio (x) = 0.51678 0.07130
# Poissons Ratio (y) = 0.20473 -0.18244
# Poissons Ratio (z) = 0.11439 -0.73887
#
# Static dielectric constant tensor:
#      x y z
#    x 4.072330 0.164310 -0.045880 
#    y 0.164310 4.946890 -0.037110 
#    z -0.045880 -0.037110 4.556220 
# 
# 
# High freq. dielectric constant tensor:
#      x y z
#    x 1.899180 0.005210 -0.013250 
#    y 0.005210 1.951420 -0.003570 
#    z -0.013250 -0.003570 1.928610 
# 
# From -- ./inp_files/269719.got.cif
#   From: 2010.06.25/outbox.cif.g09.slc.cpg/sg2_135_cif.got.tgz:269719.got - 2010.06.27 13:26:56.
