data_PCOD8033257
_publ_section_title
;
Structure prediction by ZEFSAII (Michael W. Deem and Ramdas Pophale) SiO2 
 PCOD8033257
Probable space group: P -1
;
_chemical_formula_sum "Si O2"
_cell_formula_units_Z 14
_cell_length_a 14.808040
_cell_length_b 8.565325
_cell_length_c 14.607236
_cell_angle_alpha 49.729915
_cell_angle_beta 31.320475
_cell_angle_gamma 71.059149
_cell_volume 601.810048
_symmetry_space_group_name_H-M "P -1"
_symmetry_group_IT_number 2
_symmetry_cell_setting 'triclinic'
loop_
_space_group_symop_operation_xyz
x,y,z
-x,-y,-z
loop_
_atom_site_type_symbol
_atom_site_label
_atom_site_fract_x
_atom_site_fract_y
_atom_site_fract_z
Si Si1 0.238815 0.388344 0.139776
Si Si2 0.073295 0.025730 0.749473
Si Si3 0.158251 0.981299 0.488139
Si Si4 0.527822 0.610079 0.645506
Si Si5 0.557789 0.194841 0.687911
Si Si6 0.781952 0.479273 0.207177
Si Si7 0.113848 0.686122 0.246633
O O1 0.274965 0.262949 0.242323
O O2 0.160987 0.556418 0.175890
O O3 0.457663 0.558732 0.831848
O O4 0.078714 0.179630 0.284569
O O5 0.153227 0.981853 0.601587
O O6 0.249275 0.114711 0.643863
O O7 0.039096 0.244535 0.687826
O O8 0.855828 0.759415 0.065856
O O9 0.278133 0.860782 0.393670
O O10 0.571522 0.410430 0.651124
O O11 0.353602 0.609626 0.735429
O O12 0.619807 0.282341 0.496209
O O13 0.326835 0.942953 0.996241
O O14 0.000000 0.500000 0.000000
O O15 0.000000 0.500000 0.500000
#
# Coordination Sequence:
#
# PCOD8033257 Si02
#       7
#     2   2   2   2   2   2   2
#     4  11  24  44  73 105 151 189 249 295 368 435
#     4  12  25  48  73 109 148 188 247 302 362 432
#     4  11  23  45  71 107 146 195 238 309 359 431
#     4  12  27  46  75 110 144 199 242 296 373 427
#     4  12  26  48  73 105 151 192 244 301 366 427
#     4  12  26  52  76 104 151 188 247 306 356 438
#     4  12  26  45  74 108 147 193 243 301 364 430
#
# _framework density 23.263152999999999
#
# number of rings (size 3 to 8) (size 9 to 14) (size 15 to 20)
#    0.000    0.286    5.714    2.143    4.000    2.857 
#    2.571    0.000    0.000    0.000    0.000    0.000 
#    0.000    0.000    0.000    0.000    0.000    0.000 
#
# Total GULP energy -173623.181764 kJ/mol
# GULP energy per Si atom -12401.655840 kJ/mol
# Density = 2.321021 g / cm^3
# Si number density = 23.263153 Si / 1000 Ang^3
#
#
#
# Elastic Constant Matrix: (Units=GPa)
#
#
# Indices 1 2 3 4 5 6 
#
# 1 83.5951 28.0447 34.9145 -12.9517 -16.0484 -6.7987
# 2 28.0447 114.2788 6.1393 17.2653 6.4086 -2.8065
# 3 34.9145 6.1393 109.8423 -13.2473 5.9503 6.8933
# 4 -12.9517 17.2653 -13.2473 44.4379 2.5548 -4.0491
# 5 -16.0484 6.4086 5.9503 2.5548 34.9162 -0.9352
# 6 -6.7987 -2.8065 6.8933 -4.0491 -0.9352 40.4720
#
#
#
# Elastic Compliance Matrix: (Units=1/GPa)
#
#
# Indices 1 2 3 4 5 6 
#
# 1 0.020036 -0.006011 -0.006197 0.006136 0.011050 0.004874
# 2 -0.006011 0.011268 0.000910 -0.005691 -0.004598 -0.001059
# 3 -0.006197 0.000910 0.011650 0.001342 -0.005178 -0.002948
# 4 0.006136 -0.005691 0.001342 0.027091 0.001739 0.003158
# 5 0.011050 -0.004598 -0.005178 0.001739 0.035409 0.003411
# 6 0.004874 -0.001059 -0.002948 0.003158 0.003411 0.026351
#
#
# Mechanical properties :
#
#
# Convention : Reuss Voigt Hill
#
# Bulk Modulus (GPa) = 49.11954 49.54592 49.33273
# Shear Modulus (GPa) = 31.01992 39.87307 35.44649
#
# Velocity S-wave (km/s) = 3.65559 4.14454 3.90772
# Velocity P-wave (km/s) = 6.24326 6.65186 6.45080
#
# Compressibility (1/GPa) = 0.02035849
#
# Stress axis : x y z
#
# Youngs Moduli (GPa) = 49.91108 88.74373 85.83524
#
# Poissons Ratio (x) = 0.53344 0.53192
# Poissons Ratio (y) = 0.30002 -0.07811
# Poissons Ratio (z) = 0.30930 -0.08076
#
# Static dielectric constant tensor:
#      x y z
#    x 4.039120 -0.191150 0.042380 
#    y -0.191150 4.409010 -0.114560 
#    z 0.042380 -0.114560 4.525320 
# 
# 
# High freq. dielectric constant tensor:
#      x y z
#    x 1.912570 -0.008020 -0.005010 
#    y -0.008020 1.931060 -0.003600 
#    z -0.005010 -0.003600 1.932030 
# 
# From -- ./inp_files/175556.got.cif
#   From: 2010.06.25/outbox.cif.g09.slc.cpg/sg2_88_cif.got.tgz:175556.got - 2010.06.27 13:26:56.
