data_PCOD8033801
_publ_section_title
;
Structure prediction by ZEFSAII (Michael W. Deem and Ramdas Pophale) SiO2 
 PCOD8033801
Probable space group: P -1
;
_chemical_formula_sum "Si O2"
_cell_formula_units_Z 14
_cell_length_a 9.341213
_cell_length_b 20.413978
_cell_length_c 6.510576
_cell_angle_alpha 120.855076
_cell_angle_beta 45.968658
_cell_angle_gamma 136.489974
_cell_volume 614.439080
_symmetry_space_group_name_H-M "P -1"
_symmetry_group_IT_number 2
_symmetry_cell_setting 'triclinic'
loop_
_space_group_symop_operation_xyz
x,y,z
-x,-y,-z
loop_
_atom_site_type_symbol
_atom_site_label
_atom_site_fract_x
_atom_site_fract_y
_atom_site_fract_z
Si Si1 0.907287 0.998141 0.365809
Si Si2 0.388725 0.412514 0.817891
Si Si3 0.182502 0.703120 0.839522
Si Si4 0.387142 0.900725 0.829217
Si Si5 0.280908 0.588693 0.836300
Si Si6 0.494095 0.302034 0.812829
Si Si7 0.014142 0.881492 0.850526
O O1 0.616905 0.911048 0.510508
O O2 0.938770 0.093827 0.403853
O O3 0.000000 0.000000 0.500000
O O4 0.069749 0.978432 0.036364
O O5 0.567308 0.441512 0.488771
O O6 0.368000 0.326199 0.807797
O O7 0.500000 0.500000 0.000000
O O8 0.112923 0.375121 0.970916
O O9 0.258511 0.809747 0.965405
O O10 0.302502 0.677519 0.854246
O O11 0.286466 0.699051 0.507095
O O12 0.201346 0.871568 0.775336
O O13 0.500000 0.000000 0.000000
O O14 0.391499 0.617559 0.999060
O O15 0.000000 0.500000 0.000000
O O16 0.271891 0.203757 0.974868
#
# Coordination Sequence:
#
# PCOD8033801 Si02
#       7
#     2   2   2   2   2   2   2
#     4  11  24  42  67  93 138 174 228 283 336 397
#     4  11  24  45  73  99 137 176 223 288 348 413
#     4  11  25  44  68 100 140 181 228 286 346 404
#     4  12  24  43  68  99 138 182 233 281 338 406
#     4  11  26  45  70 104 136 178 231 282 353 418
#     4  11  24  43  69  97 140 177 228 282 345 410
#     4  11  24  42  66  96 129 184 225 280 343 398
#
# _framework density 22.785008999999999
#
# number of rings (size 3 to 8) (size 9 to 14) (size 15 to 20)
#    0.000    0.857    4.286    2.143    2.000    6.857 
#    2.571    0.000    0.000    0.000    0.000    0.000 
#    0.000    0.000    0.000    0.000    0.000    0.000 
#
# Total GULP energy -173448.492121 kJ/mol
# GULP energy per Si atom -12389.178009 kJ/mol
# Density = 2.273315 g / cm^3
# Si number density = 22.785009 Si / 1000 Ang^3
#
#
#
# Elastic Constant Matrix: (Units=GPa)
#
#
# Indices 1 2 3 4 5 6 
#
# 1 108.5330 16.7853 28.5611 -12.5559 -2.4075 1.3476
# 2 16.7853 84.4964 32.1354 -13.1019 -3.1365 1.8866
# 3 28.5611 32.1354 100.7534 -11.4216 -8.2470 17.6289
# 4 -12.5559 -13.1019 -11.4216 45.4894 3.1933 -4.5505
# 5 -2.4075 -3.1365 -8.2470 3.1933 38.3407 -7.8856
# 6 1.3476 1.8866 17.6289 -4.5505 -7.8856 40.2979
#
#
#
# Elastic Compliance Matrix: (Units=1/GPa)
#
#
# Indices 1 2 3 4 5 6 
#
# 1 0.010244 -0.000742 -0.002618 0.002060 0.000071 0.001084
# 2 -0.000742 0.013998 -0.004178 0.002917 0.000282 0.001582
# 3 -0.002618 -0.004178 0.013079 0.000763 0.001191 -0.005120
# 4 0.002060 0.002917 0.000763 0.023852 -0.001054 0.001948
# 5 0.000071 0.000282 0.001191 -0.001054 0.027422 0.004711
# 6 0.001084 0.001582 -0.005120 0.001948 0.004711 0.028086
#
#
# Mechanical properties :
#
#
# Convention : Reuss Voigt Hill
#
# Bulk Modulus (GPa) = 44.94785 49.86070 47.40428
# Shear Modulus (GPa) = 35.92687 39.24568 37.58627
#
# Velocity S-wave (km/s) = 3.97517 4.15472 4.06594
# Velocity P-wave (km/s) = 6.39055 6.70420 6.54925
#
# Compressibility (1/GPa) = 0.02224801
#
# Stress axis : x y z
#
# Youngs Moduli (GPa) = 97.62047 71.43698 76.45621
#
# Poissons Ratio (x) = 0.05297 0.20013
# Poissons Ratio (y) = 0.07239 0.31940
# Poissons Ratio (z) = 0.25553 0.29843
#
# Static dielectric constant tensor:
#      x y z
#    x 3.959480 -0.010760 -0.804100 
#    y -0.010760 3.985400 0.053350 
#    z -0.804100 0.053350 2.830210 
# 
# 
# High freq. dielectric constant tensor:
#      x y z
#    x 1.914980 -0.010600 -0.005480 
#    y -0.010600 1.895510 -0.018120 
#    z -0.005480 -0.018120 1.900440 
# 
# From -- ./inp_files/46908.got.cif
#   From: 2010.06.25/outbox.cif.g09.slc.cpg/sg2_24_cif.got.tgz:46908.got - 2010.06.27 13:26:56.
