data_PCOD8033236
_publ_section_title
;
Structure prediction by ZEFSAII (Michael W. Deem and Ramdas Pophale) SiO2 
 PCOD8033236
Probable space group: P -1
;
_chemical_formula_sum "Si O2"
_cell_formula_units_Z 16
_cell_length_a 15.211493
_cell_length_b 24.359246
_cell_length_c 9.367501
_cell_angle_alpha 50.073339
_cell_angle_beta 149.169102
_cell_angle_gamma 151.024888
_cell_volume 773.598502
_symmetry_space_group_name_H-M "P -1"
_symmetry_group_IT_number 2
_symmetry_cell_setting 'triclinic'
loop_
_space_group_symop_operation_xyz
x,y,z
-x,-y,-z
loop_
_atom_site_type_symbol
_atom_site_label
_atom_site_fract_x
_atom_site_fract_y
_atom_site_fract_z
Si Si1 0.302600 0.984752 0.651761
Si Si2 0.336464 0.503911 0.178524
Si Si3 0.266582 0.748650 0.829651
Si Si4 0.307581 0.233158 0.665207
Si Si5 0.758165 0.111404 0.571709
Si Si6 0.712869 0.742985 0.721913
Si Si7 0.567329 0.502202 0.249338
Si Si8 0.351550 0.757923 0.252446
O O1 0.227373 0.925356 0.494023
O O2 0.978526 0.885745 0.438946
O O3 0.477595 0.119047 0.631633
O O4 0.500000 0.000000 0.000000
O O5 0.500000 0.500000 0.500000
O O6 0.497223 0.633317 0.226922
O O7 0.398485 0.506748 0.094983
O O8 0.979360 0.375183 0.926908
O O9 0.316811 0.832396 0.657437
O O10 0.915935 0.614762 0.578812
O O11 0.451172 0.747372 0.020805
O O12 0.370034 0.797059 0.054570
O O13 0.169642 0.194560 0.376646
O O14 0.500000 0.000000 0.500000
O O15 0.056791 0.202047 0.927916
O O16 0.522779 0.607851 0.647118
O O17 0.526118 0.743205 0.530832
O O18 0.500000 0.500000 0.000000
#
# Coordination Sequence:
#
# PCOD8033236 Si02
#       8
#     2   2   2   2   2   2   2   2
#     4  12  25  45  71  99 136 177 229 270 331 401
#     4  12  22  42  72 100 131 174 233 269 328 399
#     4  11  23  45  70  99 135 174 224 274 335 397
#     4  11  25  44  73 101 130 177 228 279 322 398
#     4  12  27  44  67  96 139 180 219 270 343 398
#     4  11  25  44  68  98 138 171 221 277 341 387
#     4  12  24  42  68  99 136 176 215 275 342 394
#     4  11  25  43  71 102 130 176 228 281 322 396
#
# _framework density 20.682565
#
# number of rings (size 3 to 8) (size 9 to 14) (size 15 to 20)
#    0.000    0.500    5.000    3.000    3.500    3.500 
#    2.250    1.250    0.000    0.000    0.000    0.000 
#    0.000    0.000    0.000    0.000    0.000    0.000 
#
# Total GULP energy -198300.221546 kJ/mol
# GULP energy per Si atom -12393.763847 kJ/mol
# Density = 2.063549 g / cm^3
# Si number density = 20.682565 Si / 1000 Ang^3
#
#
#
# Elastic Constant Matrix: (Units=GPa)
#
#
# Indices 1 2 3 4 5 6 
#
# 1 152.7721 26.7755 85.9870 10.5121 2.4007 -2.2560
# 2 26.7755 109.8564 17.7886 -4.7548 10.5003 -13.9235
# 3 85.9870 17.7886 168.4450 17.2760 0.2474 -1.6045
# 4 10.5121 -4.7548 17.2760 52.9692 2.0347 6.5640
# 5 2.4007 10.5003 0.2474 2.0347 38.5743 1.0014
# 6 -2.2560 -13.9235 -1.6045 6.5640 1.0014 41.7409
#
#
#
# Elastic Compliance Matrix: (Units=1/GPa)
#
#
# Indices 1 2 3 4 5 6 
#
# 1 0.009450 -0.001584 -0.004607 -0.000497 -0.000098 -0.000114
# 2 -0.001584 0.010272 -0.000350 0.001059 -0.002835 0.003229
# 3 -0.004607 -0.000350 0.008527 -0.001946 0.000423 0.000258
# 4 -0.000497 0.001059 -0.001946 0.020112 -0.001231 -0.002882
# 5 -0.000098 -0.002835 0.000423 -0.001231 0.026800 -0.001384
# 6 -0.000114 0.003229 0.000258 -0.002882 -0.001384 0.025524
#
#
# Mechanical properties :
#
#
# Convention : Reuss Voigt Hill
#
# Bulk Modulus (GPa) = 65.93153 76.90842 71.41998
# Shear Modulus (GPa) = 42.07981 46.69170 44.38575
#
# Velocity S-wave (km/s) = 4.51550 4.75651 4.63757
# Velocity P-wave (km/s) = 7.68982 8.21168 7.95503
#
# Compressibility (1/GPa) = 0.01516725
#
# Stress axis : x y z
#
# Youngs Moduli (GPa) = 105.81663 97.35648 117.27823
#
# Poissons Ratio (x) = 0.15421 0.54028
# Poissons Ratio (y) = 0.16761 0.04103
# Poissons Ratio (z) = 0.48748 0.03406
#
# Static dielectric constant tensor:
#      x y z
#    x 4.147500 -0.415510 0.130630 
#    y -0.415510 4.130180 -0.144320 
#    z 0.130630 -0.144320 3.721220 
# 
# 
# High freq. dielectric constant tensor:
#      x y z
#    x 1.823570 -0.003390 0.002320 
#    y -0.003390 1.825200 0.002390 
#    z 0.002320 0.002390 1.814550 
# 
# From -- ./inp_files/215826.got.cif
#   From: 2010.06.25/outbox.cif.g09.slc.cpg/sg2_108_cif.got.tgz:215826.got - 2010.06.27 13:26:56.
