data_PCOD8033705
_publ_section_title
;
Structure prediction by ZEFSAII (Michael W. Deem and Ramdas Pophale) SiO2 
 PCOD8033705
Probable space group: P -1
;
_chemical_formula_sum "Si O2"
_cell_formula_units_Z 16
_cell_length_a 13.843735
_cell_length_b 11.897111
_cell_length_c 9.160511
_cell_angle_alpha 112.491953
_cell_angle_beta 106.658725
_cell_angle_gamma 129.600070
_cell_volume 716.220261
_symmetry_space_group_name_H-M "P -1"
_symmetry_group_IT_number 2
_symmetry_cell_setting 'triclinic'
loop_
_space_group_symop_operation_xyz
x,y,z
-x,-y,-z
loop_
_atom_site_type_symbol
_atom_site_label
_atom_site_fract_x
_atom_site_fract_y
_atom_site_fract_z
Si Si1 0.199034 0.639856 0.623241
Si Si2 0.441870 0.320344 0.032432
Si Si3 0.801121 0.832573 0.397499
Si Si4 0.491833 0.135144 0.575340
Si Si5 0.699091 0.719877 0.764566
Si Si6 0.162299 0.949582 0.223831
Si Si7 0.806357 0.560216 0.722750
Si Si8 0.506946 0.132269 0.909825
O O1 0.170449 0.485080 0.444716
O O2 0.000000 0.500000 0.500000
O O3 0.335821 0.862418 0.693958
O O4 0.302642 0.727913 0.867812
O O5 0.663812 0.578964 0.244192
O O6 0.330380 0.293400 0.081863
O O7 0.325356 0.208114 0.776577
O O8 0.441685 0.178412 0.006778
O O9 0.856469 0.956215 0.630124
O O10 0.000000 0.000000 0.500000
O O11 0.615767 0.331480 0.607998
O O12 0.549227 0.225584 0.811545
O O13 0.500000 0.000000 0.500000
O O14 0.285215 0.969356 0.359562
O O15 0.500000 0.500000 0.500000
O O16 0.819531 0.720503 0.783358
O O17 0.777549 0.927193 0.841719
O O18 0.967467 0.684967 0.968808
#
# Coordination Sequence:
#
# PCOD8033705 Si02
#       8
#     2   2   2   2   2   2   2   2
#     4  11  28  48  71 102 138 185 236 288 351 415
#     4  11  24  43  68  98 139 178 225 286 344 410
#     4  11  24  41  64 102 138 177 222 278 352 415
#     4  12  26  48  72 102 143 190 238 287 349 419
#     4  12  23  46  73 100 142 188 237 290 351 412
#     4  12  27  45  72 105 144 185 237 292 353 417
#     4  12  27  46  73 106 142 186 240 292 349 421
#     4  11  26  48  72  99 139 185 233 286 351 415
#
# _framework density 22.339497999999999
#
# number of rings (size 3 to 8) (size 9 to 14) (size 15 to 20)
#    0.000    0.500    5.000    1.875    7.000    2.500 
#    0.000    0.000    0.000    0.000    0.000    0.000 
#    0.000    0.000    0.000    0.000    0.000    0.000 
#
# Total GULP energy -198360.772267 kJ/mol
# GULP energy per Si atom -12397.548267 kJ/mol
# Density = 2.228865 g / cm^3
# Si number density = 22.339498 Si / 1000 Ang^3
#
#
#
# Elastic Constant Matrix: (Units=GPa)
#
#
# Indices 1 2 3 4 5 6 
#
# 1 130.2597 32.5771 42.5634 1.4208 5.2455 -8.1966
# 2 32.5771 63.0341 15.7213 -15.5219 -0.5307 -4.2164
# 3 42.5634 15.7213 128.3113 -4.9521 10.2347 6.3151
# 4 1.4208 -15.5219 -4.9521 30.1935 -1.1970 -2.7468
# 5 5.2455 -0.5307 10.2347 -1.1970 35.3626 1.9149
# 6 -8.1966 -4.2164 6.3151 -2.7468 1.9149 39.1120
#
#
#
# Elastic Compliance Matrix: (Units=1/GPa)
#
#
# Indices 1 2 3 4 5 6 
#
# 1 0.010122 -0.005274 -0.002860 -0.003530 -0.000971 0.001814
# 2 -0.005274 0.021769 -0.000701 0.011578 0.001591 0.002090
# 3 -0.002860 -0.000701 0.009131 0.001009 -0.002088 -0.001976
# 4 -0.003530 0.011578 0.001009 0.039744 0.001585 0.003059
# 5 -0.000971 0.001591 -0.002088 0.001585 0.029159 -0.001011
# 6 0.001814 0.002090 -0.001976 0.003059 -0.001011 0.026756
#
#
# Mechanical properties :
#
#
# Convention : Reuss Voigt Hill
#
# Bulk Modulus (GPa) = 42.82076 55.92542 49.37309
# Shear Modulus (GPa) = 30.83852 36.31649 33.57751
#
# Velocity S-wave (km/s) = 3.71947 4.03633 3.88113
# Velocity P-wave (km/s) = 6.13643 6.84187 6.49873
#
# Compressibility (1/GPa) = 0.02335316
#
# Stress axis : x y z
#
# Youngs Moduli (GPa) = 98.79311 45.93667 109.52055
#
# Poissons Ratio (x) = 0.24228 0.31318
# Poissons Ratio (y) = 0.52106 0.07673
# Poissons Ratio (z) = 0.28251 0.03218
#
# Static dielectric constant tensor:
#      x y z
#    x 4.475850 -0.312730 -0.231050 
#    y -0.312730 4.025420 0.055060 
#    z -0.231050 0.055060 4.293560 
# 
# 
# High freq. dielectric constant tensor:
#      x y z
#    x 1.885650 -0.003830 -0.000650 
#    y -0.003830 1.870620 -0.006610 
#    z -0.000650 -0.006610 1.897420 
# 
# From -- ./inp_files/308136.got.cif
#   From: 2010.06.25/outbox.cif.g09.slc.cpg/sg2_155_cif.got.tgz:308136.got - 2010.06.27 13:26:56.
