data_PCOD8033594
_publ_section_title
;
Structure prediction by ZEFSAII (Michael W. Deem and Ramdas Pophale) SiO2 
 PCOD8033594
Probable space group: P -1
;
_chemical_formula_sum "Si O2"
_cell_formula_units_Z 16
_cell_length_a 8.764726
_cell_length_b 20.876454
_cell_length_c 11.757878
_cell_angle_alpha 147.324493
_cell_angle_beta 53.859090
_cell_angle_gamma 139.394631
_cell_volume 748.487877
_symmetry_space_group_name_H-M "P -1"
_symmetry_group_IT_number 2
_symmetry_cell_setting 'triclinic'
loop_
_space_group_symop_operation_xyz
x,y,z
-x,-y,-z
loop_
_atom_site_type_symbol
_atom_site_label
_atom_site_fract_x
_atom_site_fract_y
_atom_site_fract_z
Si Si1 0.444490 0.607599 0.885181
Si Si2 0.639319 0.943218 0.307592
Si Si3 0.890446 0.463455 0.265171
Si Si4 0.925964 0.091382 0.610567
Si Si5 0.262845 0.440004 0.950379
Si Si6 0.046377 0.302802 0.260219
Si Si7 0.824863 0.042016 0.128948
Si Si8 0.315604 0.842242 0.003964
O O1 0.259442 0.513349 0.723369
O O2 0.316376 0.506750 0.900968
O O3 0.691887 0.633183 0.800058
O O4 0.484160 0.764546 0.106941
O O5 0.500000 0.000000 0.500000
O O6 0.850776 0.007024 0.397515
O O7 0.729232 0.024977 0.270763
O O8 0.714984 0.296621 0.134843
O O9 0.963169 0.565153 0.497217
O O10 0.125234 0.494392 0.154690
O O11 0.122618 0.263430 0.751593
O O12 0.729723 0.076521 0.756729
O O13 0.000000 0.000000 0.500000
O O14 0.500000 0.500000 0.000000
O O15 0.983534 0.207498 0.259030
O O16 0.859694 0.206239 0.097748
O O17 0.594513 0.947099 0.004182
O O18 0.000000 0.000000 0.000000
#
# Coordination Sequence:
#
# PCOD8033594 Si02
#       8
#     2   2   2   2   2   2   2   2
#     4  12  24  46  68 100 141 176 226 285 334 402
#     4  12  23  44  71  97 134 180 228 281 333 399
#     4  11  24  45  68  98 133 181 227 275 338 402
#     4  11  24  43  72 101 133 176 225 278 340 397
#     4  11  25  44  67 101 140 177 226 282 336 401
#     4  12  26  43  71  98 137 183 223 278 340 404
#     4  12  25  45  66 100 138 178 227 277 337 395
#     4  11  23  48  66  99 138 174 224 284 333 400
#
# _framework density 21.376432000000001
#
# number of rings (size 3 to 8) (size 9 to 14) (size 15 to 20)
#    0.000    0.500    3.750    5.250    3.500    1.000 
#    2.250    0.000    0.000    0.000    0.000    0.000 
#    0.000    0.000    0.000    0.000    0.000    0.000 
#
# Total GULP energy -198289.758640 kJ/mol
# GULP energy per Si atom -12393.109915 kJ/mol
# Density = 2.132778 g / cm^3
# Si number density = 21.376432 Si / 1000 Ang^3
#
#
#
# Elastic Constant Matrix: (Units=GPa)
#
#
# Indices 1 2 3 4 5 6 
#
# 1 120.8290 27.1374 26.8183 -6.0247 5.9976 10.4716
# 2 27.1374 112.9799 39.6332 -8.7030 -16.3369 1.6334
# 3 26.8183 39.6332 103.8894 -6.9530 -6.3255 2.9170
# 4 -6.0247 -8.7030 -6.9530 22.4467 -1.4394 -2.9259
# 5 5.9976 -16.3369 -6.3255 -1.4394 39.3120 0.4097
# 6 10.4716 1.6334 2.9170 -2.9259 0.4097 46.6372
#
#
#
# Elastic Compliance Matrix: (Units=1/GPa)
#
#
# Indices 1 2 3 4 5 6 
#
# 1 0.009419 -0.001915 -0.001742 0.000845 -0.002463 -0.001864
# 2 -0.001915 0.011400 -0.003371 0.003209 0.004601 0.000403
# 3 -0.001742 -0.003371 0.011535 0.001836 0.000789 -0.000104
# 4 0.000845 0.003209 0.001836 0.047122 0.003199 0.002511
# 5 -0.002463 0.004601 0.000789 0.003199 0.027966 0.000298
# 6 -0.001864 0.000403 -0.000104 0.002511 0.000298 0.022008
#
#
# Mechanical properties :
#
#
# Convention : Reuss Voigt Hill
#
# Bulk Modulus (GPa) = 54.65139 58.31955 56.48547
# Shear Modulus (GPa) = 33.42088 37.95312 35.68700
#
# Velocity S-wave (km/s) = 3.95833 4.21820 4.09033
# Velocity P-wave (km/s) = 6.82004 7.14602 6.98493
#
# Compressibility (1/GPa) = 0.01829780
#
# Stress axis : x y z
#
# Youngs Moduli (GPa) = 106.16962 87.71548 86.69167
#
# Poissons Ratio (x) = 0.16802 0.15099
# Poissons Ratio (y) = 0.20337 0.29225
# Poissons Ratio (z) = 0.18492 0.29570
#
# Static dielectric constant tensor:
#      x y z
#    x 4.060760 0.069840 -0.152460 
#    y 0.069840 3.924170 0.022800 
#    z -0.152460 0.022800 3.436970 
# 
# 
# High freq. dielectric constant tensor:
#      x y z
#    x 1.866130 -0.004240 -0.000880 
#    y -0.004240 1.847180 -0.000130 
#    z -0.000880 -0.000130 1.837330 
# 
# From -- ./inp_files/184252.got.cif
#   From: 2010.06.25/outbox.cif.g09.slc.cpg/sg2_93_cif.got.tgz:184252.got - 2010.06.27 13:26:56.
