data_PCOD8033711
_publ_section_title
;
Structure prediction by ZEFSAII (Michael W. Deem and Ramdas Pophale) SiO2 
 PCOD8033711
Probable space group: P -1
;
_chemical_formula_sum "Si O2"
_cell_formula_units_Z 16
_cell_length_a 17.275480
_cell_length_b 19.667989
_cell_length_c 10.941485
_cell_angle_alpha 36.923812
_cell_angle_beta 150.000284
_cell_angle_gamma 158.327333
_cell_volume 686.170627
_symmetry_space_group_name_H-M "P -1"
_symmetry_group_IT_number 2
_symmetry_cell_setting 'triclinic'
loop_
_space_group_symop_operation_xyz
x,y,z
-x,-y,-z
loop_
_atom_site_type_symbol
_atom_site_label
_atom_site_fract_x
_atom_site_fract_y
_atom_site_fract_z
Si Si1 0.283482 0.128076 0.738226
Si Si2 0.546350 0.445147 0.255272
Si Si3 0.727542 0.066282 0.785821
Si Si4 0.621465 0.189782 0.931182
Si Si5 0.982397 0.949945 0.911940
Si Si6 0.381041 0.326463 0.791692
Si Si7 0.046190 0.483527 0.266817
Si Si8 0.100592 0.470390 0.775021
O O1 0.420000 0.161317 0.755636
O O2 0.397830 0.312521 0.687483
O O3 0.000000 0.000000 0.500000
O O4 0.333612 0.061950 0.008525
O O5 0.611381 0.541364 0.337374
O O6 0.787346 0.513937 0.440511
O O7 0.307795 0.227972 0.268351
O O8 0.500000 0.500000 0.000000
O O9 0.907792 0.256297 0.829247
O O10 0.500000 0.000000 0.500000
O O11 0.880488 0.092368 0.849834
O O12 0.746398 0.319298 0.799068
O O13 0.851816 0.303141 0.175897
O O14 0.500000 0.000000 0.000000
O O15 0.115743 0.119191 0.766316
O O16 0.000000 0.000000 0.000000
O O17 0.623683 0.406973 0.069807
O O18 0.881255 0.462516 0.163576
O O19 0.000000 0.500000 0.500000
#
# Coordination Sequence:
#
# PCOD8033711 Si02
#       8
#     2   2   2   2   2   2   2   2
#     4  11  26  48  74 105 143 193 244 300 364 430
#     4  12  25  44  70 107 147 186 231 294 368 430
#     4  11  26  44  72 110 142 190 243 298 369 432
#     4  11  26  52  75  99 142 188 246 304 357 425
#     4  11  24  41  65 102 145 186 237 286 358 434
#     4  11  24  45  66 101 141 189 236 295 354 429
#     4  11  28  45  72 109 137 188 245 291 359 436
#     4  12  23  45  71 103 151 185 237 301 363 437
#
# _framework density 23.317815
#
# number of rings (size 3 to 8) (size 9 to 14) (size 15 to 20)
#    0.000    0.750    3.750    3.000    7.000    0.000 
#    0.000    1.250    0.000    0.000    0.000    0.000 
#    0.000    0.000    0.000    0.000    0.000    0.000 
#
# Total GULP energy -198260.348851 kJ/mol
# GULP energy per Si atom -12391.271803 kJ/mol
# Density = 2.326474 g / cm^3
# Si number density = 23.317815 Si / 1000 Ang^3
#
#
#
# Elastic Constant Matrix: (Units=GPa)
#
#
# Indices 1 2 3 4 5 6 
#
# 1 128.8764 36.0885 4.0073 -1.5159 9.3020 -21.2210
# 2 36.0885 133.3363 16.7005 20.8710 -1.1549 -21.1116
# 3 4.0073 16.7005 101.8857 14.7982 5.9386 3.6434
# 4 -1.5159 20.8710 14.7982 28.0049 5.7784 0.2720
# 5 9.3020 -1.1549 5.9386 5.7784 36.4729 4.6562
# 6 -21.2210 -21.1116 3.6434 0.2720 4.6562 50.3067
#
#
#
# Elastic Compliance Matrix: (Units=1/GPa)
#
#
# Indices 1 2 3 4 5 6 
#
# 1 0.009266 -0.002490 -0.000341 0.003186 -0.003297 0.003176
# 2 -0.002490 0.009944 -0.000643 -0.007623 0.001874 0.003037
# 3 -0.000341 -0.000643 0.010751 -0.005056 -0.000743 -0.001096
# 4 0.003186 -0.007623 -0.005056 0.045759 -0.007345 -0.001056
# 5 -0.003297 0.001874 -0.000743 -0.007345 0.030022 -0.003289
# 6 0.003176 0.003037 -0.001096 -0.001056 -0.003289 0.022882
#
#
# Mechanical properties :
#
#
# Convention : Reuss Voigt Hill
#
# Bulk Modulus (GPa) = 43.45051 53.07677 48.26364
# Shear Modulus (GPa) = 34.90610 43.44370 39.17490
#
# Velocity S-wave (km/s) = 3.87327 4.32106 4.10328
# Velocity P-wave (km/s) = 6.21912 6.90704 6.57208
#
# Compressibility (1/GPa) = 0.02301469
#
# Stress axis : x y z
#
# Youngs Moduli (GPa) = 107.92683 100.55840 93.01846
#
# Poissons Ratio (x) = 0.25034 0.03168
# Poissons Ratio (y) = 0.26868 0.05980
# Poissons Ratio (z) = 0.03676 0.06465
#
# Static dielectric constant tensor:
#      x y z
#    x 6.140850 0.034700 0.627530 
#    y 0.034700 4.334310 0.221290 
#    z 0.627530 0.221290 5.402230 
# 
# 
# High freq. dielectric constant tensor:
#      x y z
#    x 1.940620 -0.013000 0.011410 
#    y -0.013000 1.924900 0.022700 
#    z 0.011410 0.022700 1.918710 
# 
# From -- ./inp_files/467102.got.cif
#   From: 2010.06.25/outbox.cif.g09.slc.cpg/sg2_234_cif.got.tgz:467102.got - 2010.06.27 13:26:56.
