data_PCOD8033264
_publ_section_title
;
Structure prediction by ZEFSAII (Michael W. Deem and Ramdas Pophale) SiO2 
 PCOD8033264
Probable space group: P -1
;
_chemical_formula_sum "Si O2"
_cell_formula_units_Z 16
_cell_length_a 18.899500
_cell_length_b 15.892760
_cell_length_c 12.792590
_cell_angle_alpha 134.159663
_cell_angle_beta 152.243543
_cell_angle_gamma 27.471349
_cell_volume 752.217373
_symmetry_space_group_name_H-M "P -1"
_symmetry_group_IT_number 2
_symmetry_cell_setting 'triclinic'
loop_
_space_group_symop_operation_xyz
x,y,z
-x,-y,-z
loop_
_atom_site_type_symbol
_atom_site_label
_atom_site_fract_x
_atom_site_fract_y
_atom_site_fract_z
Si Si1 0.516095 0.365203 0.851254
Si Si2 0.110464 0.517766 0.078966
Si Si3 0.958131 0.088795 0.826960
Si Si4 0.396026 0.191356 0.999544
Si Si5 0.462627 0.451715 0.617473
Si Si6 0.753687 0.171335 0.398726
Si Si7 0.797092 0.814486 0.753261
Si Si8 0.927678 0.521440 0.541947
O O1 0.418349 0.437454 0.666394
O O2 0.341823 0.379082 0.699613
O O3 0.500000 0.500000 0.000000
O O4 0.821512 0.144811 0.064337
O O5 0.314835 0.321331 0.104433
O O6 0.238077 0.545781 0.329984
O O7 0.000000 0.500000 0.000000
O O8 0.857818 0.722713 0.866142
O O9 0.730910 0.226355 0.734704
O O10 0.839942 0.148813 0.609335
O O11 0.092835 0.126580 0.055738
O O12 0.610772 0.135264 0.173268
O O13 0.158431 0.306465 0.712896
O O14 0.500000 0.000000 0.000000
O O15 0.440784 0.606744 0.709499
O O16 0.000000 0.000000 0.500000
O O17 0.934745 0.648550 0.704162
O O18 0.500000 0.000000 0.500000
O O19 0.000000 0.500000 0.500000
#
# Coordination Sequence:
#
# PCOD8033264 Si02
#       8
#     2   2   2   2   2   2   2   2
#     4  12  29  47  71 107 151 188 236 299 365 429
#     4  11  24  43  72 101 139 184 236 297 351 416
#     4  12  25  47  73 106 136 192 244 291 359 425
#     4  11  27  47  69 107 143 183 239 292 360 429
#     4  12  24  48  75 103 143 188 247 300 351 429
#     4  12  27  45  77 106 146 189 237 300 361 427
#     4  11  23  45  71  99 139 180 243 286 347 427
#     4  11  27  48  70 102 144 190 234 291 362 430
#
# _framework density 21.270447999999998
#
# number of rings (size 3 to 8) (size 9 to 14) (size 15 to 20)
#    0.000    0.500    3.750    4.500   10.500    1.000 
#    0.000    0.000    0.000    0.000    0.000    0.000 
#    0.000    0.000    0.000    0.000    0.000    0.000 
#
# Total GULP energy -198368.758388 kJ/mol
# GULP energy per Si atom -12398.047399 kJ/mol
# Density = 2.122204 g / cm^3
# Si number density = 21.270448 Si / 1000 Ang^3
#
#
#
# Elastic Constant Matrix: (Units=GPa)
#
#
# Indices 1 2 3 4 5 6 
#
# 1 138.8425 46.8646 43.5148 -5.7945 -3.2797 -7.5499
# 2 46.8646 134.3989 43.2716 -12.7015 -2.6044 10.3942
# 3 43.5148 43.2716 109.1327 -9.9020 -0.8829 -2.1503
# 4 -5.7945 -12.7015 -9.9020 43.4568 3.8421 0.8700
# 5 -3.2797 -2.6044 -0.8829 3.8421 44.6784 1.2043
# 6 -7.5499 10.3942 -2.1503 0.8700 1.2043 33.8199
#
#
#
# Elastic Compliance Matrix: (Units=1/GPa)
#
#
# Indices 1 2 3 4 5 6 
#
# 1 0.008999 -0.002531 -0.002549 -0.000209 0.000410 0.002616
# 2 -0.002531 0.009680 -0.002726 0.001923 0.000261 -0.003772
# 3 -0.002549 -0.002726 0.011410 0.001468 -0.000273 0.000966
# 4 -0.000209 0.001923 0.001468 0.024071 -0.001915 -0.001095
# 5 0.000410 0.000261 -0.000273 -0.001915 0.022607 -0.000762
# 6 0.002616 -0.003772 0.000966 -0.001095 -0.000762 0.031428
#
#
# Mechanical properties :
#
#
# Convention : Reuss Voigt Hill
#
# Bulk Modulus (GPa) = 69.07957 72.18622 70.63290
# Shear Modulus (GPa) = 38.87010 40.97255 39.92132
#
# Velocity S-wave (km/s) = 4.27947 4.39369 4.33696
# Velocity P-wave (km/s) = 7.54757 7.72983 7.63925
#
# Compressibility (1/GPa) = 0.01447606
#
# Stress axis : x y z
#
# Youngs Moduli (GPa) = 111.12618 103.31077 87.63944
#
# Poissons Ratio (x) = 0.26153 0.22335
# Poissons Ratio (y) = 0.28131 0.23894
# Poissons Ratio (z) = 0.28321 0.28166
#
# Static dielectric constant tensor:
#      x y z
#    x 3.712230 0.074150 -0.465930 
#    y 0.074150 4.232110 0.153460 
#    z -0.465930 0.153460 3.293530 
# 
# 
# High freq. dielectric constant tensor:
#      x y z
#    x 1.837680 0.000420 -0.001710 
#    y 0.000420 1.848430 0.000330 
#    z -0.001710 0.000330 1.850130 
# 
# From -- ./inp_files/206965.got.cif
#   From: 2010.06.25/outbox.cif.g09.slc.cpg/sg2_104_cif.got.tgz:206965.got - 2010.06.27 13:26:56.
