data_PCOD8033370
_publ_section_title
;
Structure prediction by ZEFSAII (Michael W. Deem and Ramdas Pophale) SiO2 
 PCOD8033370
Probable space group: P -1
;
_chemical_formula_sum "Si O2"
_cell_formula_units_Z 16
_cell_length_a 11.593607
_cell_length_b 7.439036
_cell_length_c 9.206712
_cell_angle_alpha 74.261845
_cell_angle_beta 69.267252
_cell_angle_gamma 93.669735
_cell_volume 703.390170
_symmetry_space_group_name_H-M "P -1"
_symmetry_group_IT_number 2
_symmetry_cell_setting 'triclinic'
loop_
_space_group_symop_operation_xyz
x,y,z
-x,-y,-z
loop_
_atom_site_type_symbol
_atom_site_label
_atom_site_fract_x
_atom_site_fract_y
_atom_site_fract_z
Si Si1 0.720587 0.200509 0.686542
Si Si2 0.619069 0.408637 0.444982
Si Si3 0.489020 0.859952 0.670094
Si Si4 0.292982 0.934981 0.959472
Si Si5 0.810086 0.780459 0.237341
Si Si6 0.106478 0.444071 0.367911
Si Si7 0.050489 0.632003 0.080854
Si Si8 0.224621 0.098210 0.465294
O O1 0.615814 0.241692 0.606782
O O2 0.771136 0.406627 0.679845
O O3 0.813580 0.098450 0.566158
O O4 0.682906 0.072253 0.875597
O O5 0.500000 0.500000 0.500000
O O6 0.604717 0.325176 0.306811
O O7 0.743533 0.568662 0.360473
O O8 0.426286 0.926478 0.827820
O O9 0.628472 0.823210 0.655741
O O10 0.500000 0.000000 0.500000
O O11 0.253343 0.137389 0.891761
O O12 0.184167 0.771395 0.978607
O O13 0.798052 0.924552 0.345907
O O14 0.953836 0.767450 0.144562
O O15 0.064418 0.463857 0.219734
O O16 0.133287 0.234710 0.420990
O O17 0.000000 0.500000 0.500000
O O18 0.000000 0.500000 0.000000
#
# Coordination Sequence:
#
# PCOD8033370 Si02
#       8
#     2   2   2   2   2   2   2   2
#     4  11  25  43  68 104 140 178 232 292 346 396
#     4  12  21  42  71  99 137 188 234 278 341 413
#     4  12  22  44  68  97 135 184 232 278 339 427
#     4  11  26  45  66 104 143 175 231 292 348 408
#     4  12  23  44  70 101 138 187 234 279 343 428
#     4  11  23  46  66 102 138 176 234 286 335 419
#     4  11  25  45  69  98 142 181 229 289 352 406
#     4  12  24  43  73  99 134 183 236 275 348 406
#
# _framework density 22.746977000000001
#
# number of rings (size 3 to 8) (size 9 to 14) (size 15 to 20)
#    0.000    0.500    6.250    1.125    1.750    2.000 
#    0.000    3.125    0.000    0.000    0.000    0.000 
#    0.000    0.000    0.000    0.000    0.000    0.000 
#
# Total GULP energy -198240.095362 kJ/mol
# GULP energy per Si atom -12390.005960 kJ/mol
# Density = 2.269520 g / cm^3
# Si number density = 22.746977 Si / 1000 Ang^3
#
#
#
# Elastic Constant Matrix: (Units=GPa)
#
#
# Indices 1 2 3 4 5 6 
#
# 1 109.0483 15.2777 36.1316 0.5100 6.2794 -31.5334
# 2 15.2777 75.4457 18.9133 11.4632 10.9631 -18.5650
# 3 36.1316 18.9133 93.0502 -2.5043 7.7501 -16.1070
# 4 0.5100 11.4632 -2.5043 37.1164 -7.9344 7.8370
# 5 6.2794 10.9631 7.7501 -7.9344 47.4985 0.1964
# 6 -31.5334 -18.5650 -16.1070 7.8370 0.1964 51.3325
#
#
#
# Elastic Compliance Matrix: (Units=1/GPa)
#
#
# Indices 1 2 3 4 5 6 
#
# 1 0.012467 0.000800 -0.003688 -0.002545 -0.001686 0.007185
# 2 0.000800 0.017500 -0.002387 -0.008231 -0.005161 0.007348
# 3 -0.003688 -0.002387 0.012895 0.001325 -0.000847 0.000718
# 4 -0.002545 -0.008231 0.001325 0.033180 0.007601 -0.009219
# 5 -0.001686 -0.005161 -0.000847 0.007601 0.023893 -0.004420
# 6 0.007185 0.007348 0.000718 -0.009219 -0.004420 0.028202
#
#
# Mechanical properties :
#
#
# Convention : Reuss Voigt Hill
#
# Bulk Modulus (GPa) = 30.94987 46.46551 38.70769
# Shear Modulus (GPa) = 33.45428 41.00424 37.22926
#
# Velocity S-wave (km/s) = 3.83915 4.25034 4.04996
# Velocity P-wave (km/s) = 5.76956 6.67522 6.23885
#
# Compressibility (1/GPa) = 0.03231031
#
# Stress axis : x y z
#
# Youngs Moduli (GPa) = 80.21267 57.14385 77.55174
#
# Poissons Ratio (x) = -0.04569 0.28599
# Poissons Ratio (y) = -0.06414 0.18514
# Poissons Ratio (z) = 0.29580 0.13642
#
# Static dielectric constant tensor:
#      x y z
#    x 4.010820 -0.485940 0.364120 
#    y -0.485940 1.862080 0.782430 
#    z 0.364120 0.782430 4.246960 
# 
# 
# High freq. dielectric constant tensor:
#      x y z
#    x 1.907100 -0.005080 0.011380 
#    y -0.005080 1.899900 0.008520 
#    z 0.011380 0.008520 1.891870 
# 
# From -- ./inp_files/243445.got.cif
#   From: 2010.06.25/outbox.cif.g09.slc.cpg/sg2_122_cif.got.tgz:243445.got - 2010.06.27 13:26:56.
