data_PCOD8033309
_publ_section_title
;
Structure prediction by ZEFSAII (Michael W. Deem and Ramdas Pophale) SiO2 
 PCOD8033309
Probable space group: P -1
;
_chemical_formula_sum "Si O2"
_cell_formula_units_Z 16
_cell_length_a 14.627112
_cell_length_b 9.097878
_cell_length_c 21.177460
_cell_angle_alpha 129.992818
_cell_angle_beta 19.920854
_cell_angle_gamma 132.139934
_cell_volume 711.224456
_symmetry_space_group_name_H-M "P -1"
_symmetry_group_IT_number 2
_symmetry_cell_setting 'triclinic'
loop_
_space_group_symop_operation_xyz
x,y,z
-x,-y,-z
loop_
_atom_site_type_symbol
_atom_site_label
_atom_site_fract_x
_atom_site_fract_y
_atom_site_fract_z
Si Si1 0.524182 0.946408 0.305278
Si Si2 0.825652 0.709777 0.891349
Si Si3 0.037765 0.268630 0.048945
Si Si4 0.988890 0.303648 0.491502
Si Si5 0.958475 0.362145 0.925690
Si Si6 0.574399 0.924074 0.863145
Si Si7 0.751475 0.968922 0.368000
Si Si8 0.784490 0.306122 0.754189
O O1 0.312677 0.846522 0.361123
O O2 0.327789 0.005424 0.501562
O O3 0.709455 0.797716 0.168969
O O4 0.735988 0.135370 0.187338
O O5 0.940211 0.781645 0.905548
O O6 0.887274 0.496019 0.784518
O O7 0.501281 0.688736 0.092438
O O8 0.973365 0.864059 0.784086
O O9 0.042706 0.494283 0.093422
O O10 0.020838 0.334110 0.554490
O O11 0.000000 0.500000 0.500000
O O12 0.241570 0.225076 0.279876
O O13 0.206477 0.252278 0.730639
O O14 0.677134 0.187025 0.050437
O O15 0.000000 0.500000 0.000000
O O16 0.763362 0.108684 0.753377
O O17 0.500000 0.000000 0.000000
O O18 0.500000 0.000000 0.500000
#
# Coordination Sequence:
#
# PCOD8033309 Si02
#       8
#     2   2   2   2   2   2   2   2
#     4  11  24  42  73  99 139 183 239 280 351 415
#     4  11  23  45  74 104 138 184 237 287 358 417
#     4  11  24  46  72 100 142 187 231 290 351 421
#     4  12  26  44  71 107 141 185 238 291 351 427
#     4  12  28  45  73 106 145 184 237 290 357 415
#     4  12  27  49  74 104 146 191 238 296 356 420
#     4  12  24  46  69 103 140 185 229 293 349 424
#     4  11  25  44  73 102 144 185 236 295 352 422
#
# _framework density 22.496414000000001
#
# number of rings (size 3 to 8) (size 9 to 14) (size 15 to 20)
#    0.000    0.500    3.750    4.125    7.000    1.500 
#    2.250    0.000    0.000    0.000    0.000    0.000 
#    0.000    0.000    0.000    0.000    0.000    0.000 
#
# Total GULP energy -198376.751055 kJ/mol
# GULP energy per Si atom -12398.546941 kJ/mol
# Density = 2.244521 g / cm^3
# Si number density = 22.496414 Si / 1000 Ang^3
#
#
#
# Elastic Constant Matrix: (Units=GPa)
#
#
# Indices 1 2 3 4 5 6 
#
# 1 75.1186 31.8146 35.8165 11.0734 13.2353 3.2314
# 2 31.8146 127.1891 52.6655 28.9975 6.3776 -9.8363
# 3 35.8165 52.6655 131.5952 26.8674 13.2438 -1.9018
# 4 11.0734 28.9975 26.8674 39.8235 -0.7497 -7.4491
# 5 13.2353 6.3776 13.2438 -0.7497 40.4769 -2.4077
# 6 3.2314 -9.8363 -1.9018 -7.4491 -2.4077 47.0060
#
#
#
# Elastic Compliance Matrix: (Units=1/GPa)
#
#
# Indices 1 2 3 4 5 6 
#
# 1 0.016862 -0.002702 -0.002838 -0.001312 -0.004318 -0.002269
# 2 -0.002702 0.010891 -0.002544 -0.005174 -0.000004 0.001542
# 3 -0.002838 -0.002544 0.010559 -0.004668 -0.002258 -0.000765
# 4 -0.001312 -0.005174 -0.004668 0.033261 0.003642 0.004276
# 5 -0.004318 -0.000004 -0.002258 0.003642 0.027053 0.002167
# 6 -0.002269 0.001542 -0.000765 0.004276 0.002167 0.022510
#
#
# Mechanical properties :
#
#
# Convention : Reuss Voigt Hill
#
# Bulk Modulus (GPa) = 45.16250 63.83290 54.49770
# Shear Modulus (GPa) = 34.55779 39.70171 37.12975
#
# Velocity S-wave (km/s) = 3.92362 4.20551 4.06701
# Velocity P-wave (km/s) = 6.37538 7.21236 6.80674
#
# Compressibility (1/GPa) = 0.02214226
#
# Stress axis : x y z
#
# Youngs Moduli (GPa) = 59.30544 91.82132 94.70753
#
# Poissons Ratio (x) = 0.24814 0.26880
# Poissons Ratio (y) = 0.16027 0.24093
# Poissons Ratio (z) = 0.16832 0.23359
#
# Static dielectric constant tensor:
#      x y z
#    x 4.745340 0.343330 0.743950 
#    y 0.343330 4.334800 0.210790 
#    z 0.743950 0.210790 4.925910 
# 
# 
# High freq. dielectric constant tensor:
#      x y z
#    x 1.882010 0.008210 0.004610 
#    y 0.008210 1.898310 0.008400 
#    z 0.004610 0.008400 1.892890 
# 
# From -- ./inp_files/186158.got.cif
#   From: 2010.06.25/outbox.cif.g09.slc.cpg/sg2_94_cif.got.tgz:186158.got - 2010.06.27 13:26:56.
