data_PCOD8033235
_publ_section_title
;
Structure prediction by ZEFSAII (Michael W. Deem and Ramdas Pophale) SiO2 
 PCOD8033235
Probable space group: P -1
;
_chemical_formula_sum "Si O2"
_cell_formula_units_Z 16
_cell_length_a 11.385798
_cell_length_b 23.616333
_cell_length_c 8.600069
_cell_angle_alpha 28.222699
_cell_angle_beta 132.768818
_cell_angle_gamma 141.692157
_cell_volume 677.286909
_symmetry_space_group_name_H-M "P -1"
_symmetry_group_IT_number 2
_symmetry_cell_setting 'triclinic'
loop_
_space_group_symop_operation_xyz
x,y,z
-x,-y,-z
loop_
_atom_site_type_symbol
_atom_site_label
_atom_site_fract_x
_atom_site_fract_y
_atom_site_fract_z
Si Si1 0.015799 0.920604 0.355227
Si Si2 0.594429 0.382323 0.647394
Si Si3 0.278621 0.840244 0.266784
Si Si4 0.744550 0.603280 0.783734
Si Si5 0.352115 0.677205 0.474744
Si Si6 0.092096 0.412414 0.344570
Si Si7 0.613183 0.862317 0.704119
Si Si8 0.264035 0.110803 0.571807
O O1 0.913848 0.754657 0.633397
O O2 0.930965 0.946320 0.374791
O O3 0.239300 0.993036 0.419335
O O4 0.000000 0.000000 0.000000
O O5 0.464782 0.422872 0.334358
O O6 0.674614 0.319048 0.744841
O O7 0.775537 0.519784 0.550247
O O8 0.462332 0.269338 0.930682
O O9 0.274367 0.759334 0.301659
O O10 0.432198 0.861015 0.481540
O O11 0.071994 0.749020 0.378041
O O12 0.321476 0.993841 0.891762
O O13 0.777356 0.586977 0.673421
O O14 0.755559 0.486157 0.174792
O O15 0.576948 0.753748 0.518744
O O16 0.000000 0.500000 0.000000
O O17 0.726951 0.841664 0.714771
#
# Coordination Sequence:
#
# PCOD8033235 Si02
#       8
#     2   2   2   2   2   2   2   2
#     4  12  24  45  70 106 139 178 233 286 336 407
#     4  12  25  44  75 100 138 183 228 288 343 403
#     4  11  25  48  71  99 142 185 224 283 340 416
#     4  12  25  47  72 102 142 177 229 291 340 405
#     4  11  23  46  72 103 141 175 233 284 344 402
#     4  12  24  47  68 102 139 182 228 279 343 414
#     4  11  23  45  70  98 139 186 229 274 346 407
#     4  11  24  47  71  99 144 180 231 282 341 408
#
# _framework density 23.623666
#
# number of rings (size 3 to 8) (size 9 to 14) (size 15 to 20)
#    0.000    0.500    5.000    4.125    0.000    1.500 
#    4.500    3.750    0.000    0.000    0.000    0.000 
#    0.000    0.000    0.000    0.000    0.000    0.000 
#
# Total GULP energy -198403.898677 kJ/mol
# GULP energy per Si atom -12400.243667 kJ/mol
# Density = 2.356990 g / cm^3
# Si number density = 23.623666 Si / 1000 Ang^3
#
#
#
# Elastic Constant Matrix: (Units=GPa)
#
#
# Indices 1 2 3 4 5 6 
#
# 1 96.3939 35.1806 39.0039 4.1825 -16.0439 -17.7676
# 2 35.1806 176.4071 34.9358 -18.0226 -5.2958 -2.0742
# 3 39.0039 34.9358 93.9860 -22.4858 -16.5010 -16.0163
# 4 4.1825 -18.0226 -22.4858 32.1835 -3.9955 -8.5842
# 5 -16.0439 -5.2958 -16.5010 -3.9955 42.2574 -0.4401
# 6 -17.7676 -2.0742 -16.0163 -8.5842 -0.4401 41.8745
#
#
#
# Elastic Compliance Matrix: (Units=1/GPa)
#
#
# Indices 1 2 3 4 5 6 
#
# 1 0.014779 -0.002321 -0.005917 -0.006355 0.002436 0.002615
# 2 -0.002321 0.006622 -0.000710 0.003455 -0.000004 -0.000220
# 3 -0.005917 -0.000710 0.020555 0.018092 0.007496 0.009104
# 4 -0.006355 0.003455 0.018092 0.051762 0.010136 0.015112
# 5 0.002436 -0.000004 0.007496 0.010136 0.028540 0.006279
# 6 0.002615 -0.000220 0.009104 0.015112 0.006279 0.031626
#
#
# Mechanical properties :
#
#
# Convention : Reuss Voigt Hill
#
# Bulk Modulus (GPa) = 41.56330 65.00306 53.28318
# Shear Modulus (GPa) = 27.80861 40.44087 34.12474
#
# Velocity S-wave (km/s) = 3.43468 4.14198 3.80480
# Velocity P-wave (km/s) = 5.77594 7.10285 6.47348
#
# Compressibility (1/GPa) = 0.02405968
#
# Stress axis : x y z
#
# Youngs Moduli (GPa) = 67.66502 151.00227 48.64881
#
# Poissons Ratio (x) = 0.35044 0.28788
# Poissons Ratio (y) = 0.15703 0.03456
# Poissons Ratio (z) = 0.40040 0.10726
#
# Static dielectric constant tensor:
#      x y z
#    x 4.521080 -0.035180 -0.264230 
#    y -0.035180 4.426210 -0.139950 
#    z -0.264230 -0.139950 4.130410 
# 
# 
# High freq. dielectric constant tensor:
#      x y z
#    x 1.945480 -0.003310 -0.023910 
#    y -0.003310 1.951070 -0.013530 
#    z -0.023910 -0.013530 1.921130 
# 
# From -- ./inp_files/284579.got.cif
#   From: 2010.06.25/outbox.cif.g09.slc.cpg/sg2_143_cif.got.tgz:284579.got - 2010.06.27 13:26:56.
