data_PCOD8034100
_publ_section_title
;
Structure prediction by ZEFSAII (Michael W. Deem and Ramdas Pophale) SiO2 
 PCOD8034100
Probable space group: P -1
;
_chemical_formula_sum "Si O2"
_cell_formula_units_Z 16
_cell_length_a 19.225892
_cell_length_b 13.246391
_cell_length_c 9.085181
_cell_angle_alpha 38.574243
_cell_angle_beta 40.759988
_cell_angle_gamma 31.293866
_cell_volume 720.266322
_symmetry_space_group_name_H-M "P -1"
_symmetry_group_IT_number 2
_symmetry_cell_setting 'triclinic'
loop_
_space_group_symop_operation_xyz
x,y,z
-x,-y,-z
loop_
_atom_site_type_symbol
_atom_site_label
_atom_site_fract_x
_atom_site_fract_y
_atom_site_fract_z
Si Si1 0.360681 0.541087 0.691147
Si Si2 0.921152 0.717597 0.970645
Si Si3 0.232066 0.090320 0.504970
Si Si4 0.102957 0.023426 0.540486
Si Si5 0.974195 0.832576 0.043694
Si Si6 0.765740 0.554507 0.779418
Si Si7 0.646391 0.816562 0.392244
Si Si8 0.531791 0.821249 0.262712
O O1 0.500000 0.500000 0.500000
O O2 0.236240 0.781334 0.586186
O O3 0.356757 0.406915 0.726859
O O4 0.348346 0.460789 0.959020
O O5 0.003725 0.689363 0.017993
O O6 0.928306 0.871321 0.686547
O O7 0.760039 0.841942 0.135315
O O8 0.000000 0.500000 0.000000
O O9 0.241819 0.271061 0.315910
O O10 0.128463 0.146498 0.472915
O O11 0.385326 0.873892 0.467668
O O12 0.180143 0.049278 0.781435
O O13 0.980976 0.019106 0.790939
O O14 0.082152 0.671396 0.181913
O O15 0.733141 0.610612 0.594661
O O16 0.602684 0.790967 0.336489
O O17 0.500000 0.000000 0.500000
O O18 0.500000 0.000000 0.000000
#
# Coordination Sequence:
#
# PCOD8034100 Si02
#       8
#     2   2   2   2   2   2   2   2
#     4  11  24  44  67 103 141 186 225 286 353 412
#     4  12  27  46  73 105 138 185 242 290 346 421
#     4  12  21  43  69  99 134 186 230 282 342 418
#     4  11  26  42  71  99 144 182 231 288 356 414
#     4  11  25  46  67 100 142 181 230 295 358 406
#     4  11  24  43  72  98 137 182 237 287 345 419
#     4  12  25  44  71 108 137 178 238 292 340 413
#     4  12  23  43  73 102 138 182 236 281 344 420
#
# _framework density 22.214005
#
# number of rings (size 3 to 8) (size 9 to 14) (size 15 to 20)
#    0.000    0.500    5.000    2.625    7.000    0.000 
#    0.000    0.625    0.000    0.000    0.000    0.000 
#    0.000    0.000    0.000    0.000    0.000    0.000 
#
# Total GULP energy -198253.934170 kJ/mol
# GULP energy per Si atom -12390.870886 kJ/mol
# Density = 2.216344 g / cm^3
# Si number density = 22.214005 Si / 1000 Ang^3
#
#
#
# Elastic Constant Matrix: (Units=GPa)
#
#
# Indices 1 2 3 4 5 6 
#
# 1 118.7563 14.5379 46.9977 -2.9531 23.3150 -2.5826
# 2 14.5379 56.6915 67.7141 7.4546 0.5070 2.7354
# 3 46.9977 67.7141 163.3695 -0.3999 3.0347 -17.0785
# 4 -2.9531 7.4546 -0.3999 34.2577 -7.3082 -4.4293
# 5 23.3150 0.5070 3.0347 -7.3082 48.0117 4.8395
# 6 -2.5826 2.7354 -17.0785 -4.4293 4.8395 26.6407
#
#
#
# Elastic Compliance Matrix: (Units=1/GPa)
#
#
# Indices 1 2 3 4 5 6 
#
# 1 0.010670 0.002276 -0.004029 -0.000814 -0.004973 -0.001014
# 2 0.002276 0.045745 -0.021793 -0.012684 -0.000071 -0.020543
# 3 -0.004029 -0.021793 0.017806 0.006578 0.000627 0.014242
# 4 -0.000814 -0.012684 0.006578 0.034208 0.004277 0.010351
# 5 -0.004973 -0.000071 0.000627 0.004277 0.024235 -0.003764
# 6 -0.001014 -0.020543 0.014242 0.010351 -0.003764 0.051082
#
#
# Mechanical properties :
#
#
# Convention : Reuss Voigt Hill
#
# Bulk Modulus (GPa) = 36.85807 66.36853 51.61330
# Shear Modulus (GPa) = 20.84372 35.75317 28.29845
#
# Velocity S-wave (km/s) = 3.06651 4.01619 3.57305
# Velocity P-wave (km/s) = 5.40058 7.17274 6.34880
#
# Compressibility (1/GPa) = 0.02713110
#
# Stress axis : x y z
#
# Youngs Moduli (GPa) = 93.71826 21.86025 56.16067
#
# Poissons Ratio (x) = -0.04976 0.22625
# Poissons Ratio (y) = -0.21332 1.22389
# Poissons Ratio (z) = 0.37756 0.47639
#
# Static dielectric constant tensor:
#      x y z
#    x 4.308580 -0.214090 -0.490460 
#    y -0.214090 5.120810 1.348220 
#    z -0.490460 1.348220 5.657640 
# 
# 
# High freq. dielectric constant tensor:
#      x y z
#    x 1.877200 0.004080 -0.002970 
#    y 0.004080 1.866860 0.022260 
#    z -0.002970 0.022260 1.893590 
# 
# From -- ./inp_files/347464.got.cif
#   From: 2010.06.25/outbox.cif.g09.slc.cpg/sg2_174_cif.got.tgz:347464.got - 2010.06.27 13:26:56.
