data_PCOD8034706
_publ_section_title
;
Structure prediction by ZEFSAII (Michael W. Deem and Ramdas Pophale) SiO2 
 PCOD8034706
Probable space group: P -1
;
_chemical_formula_sum "Si O2"
_cell_formula_units_Z 10
_cell_length_a 12.422596
_cell_length_b 14.736710
_cell_length_c 22.082992
_cell_angle_alpha 19.137545
_cell_angle_beta 21.275912
_cell_angle_gamma 30.146062
_cell_volume 476.762462
_symmetry_space_group_name_H-M "P -1"
_symmetry_group_IT_number 2
_symmetry_cell_setting 'triclinic'
loop_
_space_group_symop_operation_xyz
x,y,z
-x,-y,-z
loop_
_atom_site_type_symbol
_atom_site_label
_atom_site_fract_x
_atom_site_fract_y
_atom_site_fract_z
Si Si1 0.307248 0.497259 0.162684
Si Si2 0.222004 0.475550 0.826734
Si Si3 0.724753 0.075771 0.389359
Si Si4 0.792070 0.856716 0.751973
Si Si5 0.661108 0.395720 0.539557
O O1 0.981937 0.583880 0.262398
O O2 0.265440 0.190462 0.406180
O O3 0.500000 0.500000 0.000000
O O4 0.469989 0.724107 0.979908
O O5 0.378373 0.673777 0.673225
O O6 0.467942 0.416375 0.687336
O O7 0.956372 0.619256 0.845347
O O8 0.060433 0.180311 0.123137
O O9 0.500000 0.000000 0.500000
O O10 0.722412 0.078653 0.698445
O O11 0.000000 0.000000 0.500000
O O12 0.500000 0.500000 0.500000
#
# Coordination Sequence:
#
# PCOD8034706 Si02
#       5
#     2   2   2   2   2
#     4  12  24  44  73 101 137 185 232 280 347 410
#     4  11  24  46  70 101 142 181 229 285 347 407
#     4  11  24  45  75  99 139 187 224 287 350 407
#     4  12  22  45  69  99 142 180 227 288 342 403
#     4  12  26  43  71 107 138 182 234 288 338 413
#
# _framework density 20.974806000000001
#
# number of rings (size 3 to 8) (size 9 to 14) (size 15 to 20)
#    0.000    0.400    8.000    0.000    0.000    3.200 
#    0.000    2.000    0.000    0.000    0.000    0.000 
#    0.000    0.000    0.000    0.000    0.000    0.000 
#
# Total GULP energy -124016.130210 kJ/mol
# GULP energy per Si atom -12401.613021 kJ/mol
# Density = 2.092707 g / cm^3
# Si number density = 20.974806 Si / 1000 Ang^3
#
#
#
# Elastic Constant Matrix: (Units=GPa)
#
#
# Indices 1 2 3 4 5 6 
#
# 1 147.2088 52.7388 76.7424 17.5395 -17.1855 11.7569
# 2 52.7388 105.6813 62.6477 30.7560 -2.2569 15.2814
# 3 76.7424 62.6477 165.6100 13.7553 -1.4746 7.2950
# 4 17.5395 30.7560 13.7553 40.9130 3.4597 9.4431
# 5 -17.1855 -2.2569 -1.4746 3.4597 55.8036 0.2081
# 6 11.7569 15.2814 7.2950 9.4431 0.2081 46.1009
#
#
#
# Elastic Compliance Matrix: (Units=1/GPa)
#
#
# Indices 1 2 3 4 5 6 
#
# 1 0.010099 -0.002262 -0.003635 -0.001438 0.003016 -0.000970
# 2 -0.002262 0.016078 -0.004165 -0.009244 0.000425 -0.002202
# 3 -0.003635 -0.004165 0.009132 0.001591 -0.001147 0.000542
# 4 -0.001438 -0.009244 0.001591 0.032508 -0.002777 -0.003467
# 5 0.003016 0.000425 -0.001147 -0.002777 0.019009 -0.000245
# 6 -0.000970 -0.002202 0.000542 -0.003467 -0.000245 0.023294
#
#
# Mechanical properties :
#
#
# Convention : Reuss Voigt Hill
#
# Bulk Modulus (GPa) = 65.85540 89.19534 77.52537
# Shear Modulus (GPa) = 36.95284 43.65490 40.30387
#
# Velocity S-wave (km/s) = 4.20190 4.56708 4.38829
# Velocity P-wave (km/s) = 7.41666 8.39215 7.91944
#
# Compressibility (1/GPa) = 0.01518478
#
# Stress axis : x y z
#
# Youngs Moduli (GPa) = 99.01591 62.19610 109.50074
#
# Poissons Ratio (x) = 0.14067 0.39808
# Poissons Ratio (y) = 0.22395 0.45612
# Poissons Ratio (z) = 0.35996 0.25908
#
# Static dielectric constant tensor:
#      x y z
#    x 4.284870 0.013720 -0.148650 
#    y 0.013720 3.829510 0.110480 
#    z -0.148650 0.110480 4.329770 
# 
# 
# High freq. dielectric constant tensor:
#      x y z
#    x 1.847440 0.003960 -0.002610 
#    y 0.003960 1.802200 -0.004480 
#    z -0.002610 -0.004480 1.837800 
# 
# From -- ./inp_files/33941.got.cif
#   From: 2010.06.25/outbox.cif.g09.slc.cpg/sg2_17_cif.got.tgz:33941.got - 2010.06.27 13:26:56.
