data_PCOD8034727
_publ_section_title
;
Structure prediction by ZEFSAII (Michael W. Deem and Ramdas Pophale) SiO2 
 PCOD8034727
Probable space group: P -1
;
_chemical_formula_sum "Si O2"
_cell_formula_units_Z 16
_cell_length_a 18.856371
_cell_length_b 12.288355
_cell_length_c 9.386367
_cell_angle_alpha 74.533098
_cell_angle_beta 134.272236
_cell_angle_gamma 141.926952
_cell_volume 737.435929
_symmetry_space_group_name_H-M "P -1"
_symmetry_group_IT_number 2
_symmetry_cell_setting 'triclinic'
loop_
_space_group_symop_operation_xyz
x,y,z
-x,-y,-z
loop_
_atom_site_type_symbol
_atom_site_label
_atom_site_fract_x
_atom_site_fract_y
_atom_site_fract_z
Si Si1 0.678154 0.224169 0.574173
Si Si2 0.506281 0.118616 0.064470
Si Si3 0.602342 0.633807 0.952873
Si Si4 0.164854 0.909134 0.808319
Si Si5 0.985336 0.153815 0.859025
Si Si6 0.807460 0.601172 0.214637
Si Si7 0.954259 0.299938 0.989097
Si Si8 0.320693 0.341359 0.410902
O O1 0.605573 0.189888 0.329987
O O2 0.799847 0.446937 0.745583
O O3 0.500000 0.000000 0.500000
O O4 0.854595 0.308587 0.770785
O O5 0.626384 0.332923 0.070183
O O6 0.500000 0.000000 0.000000
O O7 0.288790 0.958169 0.849267
O O8 0.420797 0.487109 0.644165
O O9 0.500000 0.500000 0.000000
O O10 0.732577 0.656376 0.072736
O O11 0.735610 0.875797 0.078149
O O12 0.139184 0.808337 0.947684
O O13 0.949474 0.728610 0.505790
O O14 0.068718 0.305428 0.787361
O O15 0.169860 0.278067 0.151893
O O16 0.804576 0.895037 0.643125
O O17 0.888125 0.135217 0.849195
O O18 0.500000 0.500000 0.500000
#
# Coordination Sequence:
#
# PCOD8034727 Si02
#       8
#     2   2   2   2   2   2   2   2
#     4  11  25  48  70 101 135 180 243 292 349 410
#     4  12  29  48  73 104 141 188 235 297 356 422
#     4  12  25  44  75 102 146 190 231 286 349 427
#     4  12  26  47  72 108 140 187 236 290 355 420
#     4  11  27  42  71 104 142 189 224 290 351 412
#     4  12  27  48  68 107 149 185 237 286 358 423
#     4  11  26  44  73 101 136 182 234 292 346 415
#     4  11  24  46  65 103 145 182 237 278 340 418
#
# _framework density 21.6968
#
# number of rings (size 3 to 8) (size 9 to 14) (size 15 to 20)
#    0.000    0.500    5.000    1.875    8.750    1.500 
#    0.000    0.000    0.000    0.000    0.000    0.000 
#    0.000    0.000    0.000    0.000    0.000    0.000 
#
# Total GULP energy -198390.569728 kJ/mol
# GULP energy per Si atom -12399.410608 kJ/mol
# Density = 2.164742 g / cm^3
# Si number density = 21.696800 Si / 1000 Ang^3
#
#
#
# Elastic Constant Matrix: (Units=GPa)
#
#
# Indices 1 2 3 4 5 6 
#
# 1 96.0517 27.9328 14.0103 8.0953 -4.5090 -2.1029
# 2 27.9328 111.7692 6.0998 7.3590 1.2629 10.4924
# 3 14.0103 6.0998 74.2504 1.6683 1.7901 -5.8474
# 4 8.0953 7.3590 1.6683 33.4091 3.7574 -4.0538
# 5 -4.5090 1.2629 1.7901 3.7574 29.6321 -0.5439
# 6 -2.1029 10.4924 -5.8474 -4.0538 -0.5439 47.1582
#
#
#
# Elastic Compliance Matrix: (Units=1/GPa)
#
#
# Indices 1 2 3 4 5 6 
#
# 1 0.011830 -0.002792 -0.001949 -0.002329 0.002346 0.000734
# 2 -0.002792 0.010033 -0.000445 -0.001750 -0.000651 -0.002570
# 3 -0.001949 -0.000445 0.014033 0.000209 -0.001120 0.001757
# 4 -0.002329 -0.001750 0.000209 0.031713 -0.004259 0.002988
# 5 0.002346 -0.000651 -0.001120 -0.004259 0.034742 0.000145
# 6 0.000734 -0.002570 0.001757 0.002988 0.000145 0.022286
#
#
# Mechanical properties :
#
#
# Convention : Reuss Voigt Hill
#
# Bulk Modulus (GPa) = 39.17964 42.01744 40.59854
# Shear Modulus (GPa) = 34.83912 37.64177 36.24044
#
# Velocity S-wave (km/s) = 4.01150 4.16973 4.09138
# Velocity P-wave (km/s) = 6.28913 6.52610 6.40871
#
# Compressibility (1/GPa) = 0.02552346
#
# Stress axis : x y z
#
# Youngs Moduli (GPa) = 84.53220 99.67224 71.26084
#
# Poissons Ratio (x) = 0.27830 0.13890
# Poissons Ratio (y) = 0.23602 0.03169
# Poissons Ratio (z) = 0.16477 0.04433
#
# Static dielectric constant tensor:
#      x y z
#    x 3.638740 0.314920 -0.078330 
#    y 0.314920 3.806750 0.125550 
#    z -0.078330 0.125550 4.050650 
# 
# 
# High freq. dielectric constant tensor:
#      x y z
#    x 1.847840 0.006580 -0.000410 
#    y 0.006580 1.868570 -0.001130 
#    z -0.000410 -0.001130 1.869900 
# 
# From -- ./inp_files/72213.got.cif
#   From: 2010.06.25/outbox.cif.g09.slc.cpg/sg2_37_cif.got.tgz:72213.got - 2010.06.27 13:26:56.
