data_PCOD8034395
_publ_section_title
;
Structure prediction by ZEFSAII (Michael W. Deem and Ramdas Pophale) SiO2 
 PCOD8034395
Probable space group: P -1
;
_chemical_formula_sum "Si O2"
_cell_formula_units_Z 16
_cell_length_a 15.546377
_cell_length_b 9.410301
_cell_length_c 11.959263
_cell_angle_alpha 108.335644
_cell_angle_beta 150.982602
_cell_angle_gamma 60.580522
_cell_volume 711.356758
_symmetry_space_group_name_H-M "P -1"
_symmetry_group_IT_number 2
_symmetry_cell_setting 'triclinic'
loop_
_space_group_symop_operation_xyz
x,y,z
-x,-y,-z
loop_
_atom_site_type_symbol
_atom_site_label
_atom_site_fract_x
_atom_site_fract_y
_atom_site_fract_z
Si Si1 0.447234 0.168302 0.293522
Si Si2 0.801454 0.451990 0.816757
Si Si3 0.526696 0.836597 0.924803
Si Si4 0.339720 0.692738 0.847787
Si Si5 0.385364 0.864544 0.160709
Si Si6 0.993897 0.604784 0.409688
Si Si7 0.180740 0.404096 0.348211
Si Si8 0.219799 0.854946 0.190841
O O1 0.301224 0.367178 0.193206
O O2 0.620926 0.091277 0.565037
O O3 0.321028 0.064170 0.133594
O O4 0.557370 0.126193 0.287484
O O5 0.780144 0.472384 0.662483
O O6 0.711325 0.329358 0.720803
O O7 0.032898 0.354175 0.097642
O O8 0.763557 0.722121 0.151975
O O9 0.405378 0.750751 0.824094
O O10 0.500000 0.000000 0.000000
O O11 0.116160 0.711634 0.592321
O O12 0.500000 0.500000 0.000000
O O13 0.347377 0.808487 0.983910
O O14 0.616022 0.762989 0.435718
O O15 0.244824 0.832646 0.080458
O O16 0.089940 0.485963 0.383348
O O17 0.000000 0.500000 0.500000
O O18 0.000000 0.000000 0.000000
#
# Coordination Sequence:
#
# PCOD8034395 Si02
#       8
#     2   2   2   2   2   2   2   2
#     4  12  26  48  73 101 149 188 236 300 370 428
#     4  11  26  45  73 106 136 189 238 298 363 430
#     4  12  27  50  71 109 150 191 245 307 365 433
#     4  12  26  46  76 106 143 195 247 298 364 437
#     4  12  26  47  71 103 146 189 236 302 366 435
#     4  12  26  45  78 107 143 196 247 301 367 436
#     4  11  24  44  74 100 143 183 245 292 370 426
#     4  12  29  45  73 108 144 185 244 295 362 437
#
# _framework density 22.492229999999999
#
# number of rings (size 3 to 8) (size 9 to 14) (size 15 to 20)
#    0.000    0.250    6.250    1.500    8.750    1.500 
#    0.000    0.000    0.000    0.000    0.000    0.000 
#    0.000    0.000    0.000    0.000    0.000    0.000 
#
# Total GULP energy -198413.557028 kJ/mol
# GULP energy per Si atom -12400.847314 kJ/mol
# Density = 2.244104 g / cm^3
# Si number density = 22.492230 Si / 1000 Ang^3
#
#
#
# Elastic Constant Matrix: (Units=GPa)
#
#
# Indices 1 2 3 4 5 6 
#
# 1 176.0978 50.5636 12.6714 4.1628 -9.0672 8.6761
# 2 50.5636 115.1045 6.5836 5.1700 5.3944 4.4226
# 3 12.6714 6.5836 73.9514 9.2276 7.4433 -3.3637
# 4 4.1628 5.1700 9.2276 31.0118 0.3817 8.6817
# 5 -9.0672 5.3944 7.4433 0.3817 40.6797 1.1047
# 6 8.6761 4.4226 -3.3637 8.6817 1.1047 46.7398
#
#
#
# Elastic Compliance Matrix: (Units=1/GPa)
#
#
# Indices 1 2 3 4 5 6 
#
# 1 0.006782 -0.002978 -0.001197 0.000240 0.002155 -0.001159
# 2 -0.002978 0.010152 -0.000048 -0.001215 -0.001986 -0.000139
# 3 -0.001197 -0.000048 0.014733 -0.004809 -0.002972 0.002250
# 4 0.000240 -0.001215 -0.004809 0.035779 0.000947 -0.006944
# 5 0.002155 -0.001986 -0.002972 0.000947 0.025894 -0.001214
# 6 -0.001159 -0.000139 0.002250 -0.006944 -0.001214 0.023104
#
#
# Mechanical properties :
#
#
# Convention : Reuss Voigt Hill
#
# Bulk Modulus (GPa) = 43.06377 56.08785 49.57581
# Shear Modulus (GPa) = 37.69879 43.37529 40.53704
#
# Velocity S-wave (km/s) = 4.09844 4.39618 4.24992
# Velocity P-wave (km/s) = 6.44856 7.12455 6.79497
#
# Compressibility (1/GPa) = 0.02322137
#
# Stress axis : x y z
#
# Youngs Moduli (GPa) = 147.44372 98.50528 67.87373
#
# Poissons Ratio (x) = 0.29336 0.08121
# Poissons Ratio (y) = 0.43911 0.00328
# Poissons Ratio (z) = 0.17642 0.00475
#
# Static dielectric constant tensor:
#      x y z
#    x 4.345050 0.209800 -0.165810 
#    y 0.209800 3.936050 0.225710 
#    z -0.165810 0.225710 4.474170 
# 
# 
# High freq. dielectric constant tensor:
#      x y z
#    x 1.910630 0.003140 -0.005140 
#    y 0.003140 1.884920 0.000010 
#    z -0.005140 0.000010 1.888010 
# 
# From -- ./inp_files/447690.got.cif
#   From: 2010.06.25/outbox.cif.g09.slc.cpg/sg2_224_cif.got.tgz:447690.got - 2010.06.27 13:26:56.
