data_PCOD8034431
_publ_section_title
;
Structure prediction by ZEFSAII (Michael W. Deem and Ramdas Pophale) SiO2 
 PCOD8034431
Probable space group: P -1
;
_chemical_formula_sum "Si O2"
_cell_formula_units_Z 16
_cell_length_a 14.985899
_cell_length_b 11.438157
_cell_length_c 8.646632
_cell_angle_alpha 40.132068
_cell_angle_beta 108.800321
_cell_angle_gamma 123.046294
_cell_volume 788.382960
_symmetry_space_group_name_H-M "P -1"
_symmetry_group_IT_number 2
_symmetry_cell_setting 'triclinic'
loop_
_space_group_symop_operation_xyz
x,y,z
-x,-y,-z
loop_
_atom_site_type_symbol
_atom_site_label
_atom_site_fract_x
_atom_site_fract_y
_atom_site_fract_z
Si Si1 0.245624 0.413802 0.012128
Si Si2 0.768231 0.401611 0.609014
Si Si3 0.723937 0.282488 0.043416
Si Si4 0.714528 0.981924 0.856862
Si Si5 0.340563 0.141803 0.403180
Si Si6 0.577865 0.303279 0.415226
Si Si7 0.491568 0.099496 0.056177
Si Si8 0.879005 0.818931 0.107282
O O1 0.204563 0.535314 0.979854
O O2 0.273523 0.260379 0.280956
O O3 0.352549 0.584023 0.810326
O O4 0.146870 0.275684 0.983485
O O5 0.779609 0.336214 0.853683
O O6 0.770283 0.231013 0.665540
O O7 0.656001 0.407828 0.504059
O O8 0.866465 0.633313 0.401030
O O9 0.705910 0.058274 0.309133
O O10 0.610133 0.287995 0.966793
O O11 0.675670 0.929195 0.712090
O O12 0.608869 0.853528 0.042265
O O13 0.798923 0.905115 0.024624
O O14 0.465836 0.309438 0.343097
O O15 0.540352 0.058541 0.654457
O O16 0.500000 0.000000 0.000000
O O17 0.000000 0.000000 0.000000
#
# Coordination Sequence:
#
# PCOD8034431 Si02
#       8
#     2   2   2   2   2   2   2   2
#     4  10  21  36  56  82 111 148 197 233 281 331
#     4  10  21  36  56  87 117 145 191 229 280 343
#     4  11  20  34  55  86 125 155 172 226 279 343
#     4  10  20  37  60  84 114 151 191 229 277 336
#     4  10  20  32  54  81 117 157 189 218 272 335
#     4   9  17  32  51  78 118 154 186 222 253 334
#     4  10  17  31  53  88 122 154 179 213 271 340
#     4  10  23  43  64  81 103 144 201 254 286 322
#
# _framework density 20.294706000000001
#
# number of rings (size 3 to 8) (size 9 to 14) (size 15 to 20)
#    0.000    2.000    2.500    3.375    0.000    7.000 
#    0.000    1.875    0.000    3.750    0.000    0.000 
#    0.000    0.000    0.000    0.000    0.000    0.000 
#
# Total GULP energy -198210.238221 kJ/mol
# GULP energy per Si atom -12388.139889 kJ/mol
# Density = 2.024851 g / cm^3
# Si number density = 20.294706 Si / 1000 Ang^3
#
#
#
# Elastic Constant Matrix: (Units=GPa)
#
#
# Indices 1 2 3 4 5 6 
#
# 1 37.5382 14.8537 17.0036 -1.4968 4.7506 1.7563
# 2 14.8537 83.8735 40.1251 -7.5110 -3.6686 0.2692
# 3 17.0036 40.1251 100.6808 -2.4100 4.7452 -6.6196
# 4 -1.4968 -7.5110 -2.4100 33.7502 2.0287 -5.5923
# 5 4.7506 -3.6686 4.7452 2.0287 17.8118 -2.7981
# 6 1.7563 0.2692 -6.6196 -5.5923 -2.7981 17.5061
#
#
#
# Elastic Compliance Matrix: (Units=1/GPa)
#
#
# Indices 1 2 3 4 5 6 
#
# 1 0.031374 -0.004255 -0.003568 -0.000248 -0.009205 -0.005982
# 2 -0.004255 0.015960 -0.005868 0.002552 0.005644 -0.000320
# 3 -0.003568 -0.005868 0.013372 0.000534 -0.003066 0.005185
# 4 -0.000248 0.002552 0.000534 0.032003 -0.001600 0.010155
# 5 -0.009205 0.005644 -0.003066 -0.001600 0.062190 0.009106
# 6 -0.005982 -0.000320 0.005185 0.010155 0.009106 0.064388
#
#
# Mechanical properties :
#
#
# Convention : Reuss Voigt Hill
#
# Bulk Modulus (GPa) = 30.00870 40.67303 35.34086
# Shear Modulus (GPa) = 19.39654 23.82096 21.60875
#
# Velocity S-wave (km/s) = 3.09486 3.42972 3.26659
# Velocity P-wave (km/s) = 5.25257 5.98070 5.62842
#
# Compressibility (1/GPa) = 0.03332367
#
# Stress axis : x y z
#
# Youngs Moduli (GPa) = 31.87307 62.65690 74.78396
#
# Poissons Ratio (x) = 0.26660 0.26686
# Poissons Ratio (y) = 0.13561 0.43884
# Poissons Ratio (z) = 0.11374 0.36767
#
# Static dielectric constant tensor:
#      x y z
#    x 3.410570 -0.001840 0.150390 
#    y -0.001840 3.694230 -0.004040 
#    z 0.150390 -0.004040 3.837070 
# 
# 
# High freq. dielectric constant tensor:
#      x y z
#    x 1.744590 -0.004190 0.014190 
#    y -0.004190 1.789470 0.001370 
#    z 0.014190 0.001370 1.793300 
# 
# From -- ./inp_files/306261.got.cif
#   From: 2010.06.25/outbox.cif.g09.slc.cpg/sg2_154_cif.got.tgz:306261.got - 2010.06.27 13:26:56.
