data_PCOD8034561
_publ_section_title
;
Structure prediction by ZEFSAII (Michael W. Deem and Ramdas Pophale) SiO2 
 PCOD8034561
Probable space group: P -1
;
_chemical_formula_sum "Si O2"
_cell_formula_units_Z 16
_cell_length_a 17.074486
_cell_length_b 8.658947
_cell_length_c 12.110323
_cell_angle_alpha 116.904020
_cell_angle_beta 32.725664
_cell_angle_gamma 129.255365
_cell_volume 735.767330
_symmetry_space_group_name_H-M "P -1"
_symmetry_group_IT_number 2
_symmetry_cell_setting 'triclinic'
loop_
_space_group_symop_operation_xyz
x,y,z
-x,-y,-z
loop_
_atom_site_type_symbol
_atom_site_label
_atom_site_fract_x
_atom_site_fract_y
_atom_site_fract_z
Si Si1 0.328017 0.998466 0.196302
Si Si2 0.632650 0.733578 0.403754
Si Si3 0.537945 0.542626 0.841219
Si Si4 0.827266 0.277131 0.914826
Si Si5 0.789302 0.408138 0.419772
Si Si6 0.225862 0.373176 0.994271
Si Si7 0.369266 0.822330 0.675320
Si Si8 0.841505 0.108620 0.409664
O O1 0.352904 0.219159 0.235945
O O2 0.228227 0.884272 0.168298
O O3 0.218702 0.877043 0.392878
O O4 0.500000 0.000000 0.000000
O O5 0.500000 0.500000 0.500000
O O6 0.502219 0.806098 0.585571
O O7 0.766051 0.872414 0.386378
O O8 0.739102 0.761500 0.176196
O O9 0.640327 0.437218 0.649820
O O10 0.500000 0.500000 0.000000
O O11 0.361865 0.449712 0.954916
O O12 0.769476 0.439041 0.012852
O O13 0.029863 0.387693 0.715609
O O14 0.746773 0.155655 0.086779
O O15 0.759514 0.364534 0.310046
O O16 0.783391 0.220180 0.428422
O O17 0.043709 0.222451 0.214175
O O18 0.500000 0.000000 0.500000
#
# Coordination Sequence:
#
# PCOD8034561 Si02
#       8
#     2   2   2   2   2   2   2   2
#     4  12  25  46  73 100 138 183 230 275 344 419
#     4  12  22  43  71 100 138 177 235 278 340 408
#     4  12  27  45  70 102 138 181 228 283 346 405
#     4  11  26  45  70 100 138 187 230 279 345 411
#     4  11  26  46  69 101 141 180 229 287 343 404
#     4  11  24  45  71 102 137 182 231 287 336 414
#     4  12  24  43  71 101 137 180 227 285 349 402
#     4  11  26  45  71 103 138 184 232 277 344 411
#
# _framework density 21.746005
#
# number of rings (size 3 to 8) (size 9 to 14) (size 15 to 20)
#    0.000    0.500    5.000    3.000    3.500    1.500 
#    2.250    0.000    0.000    0.000    0.000    0.000 
#    0.000    0.000    0.000    0.000    0.000    0.000 
#
# Total GULP energy -198301.606949 kJ/mol
# GULP energy per Si atom -12393.850434 kJ/mol
# Density = 2.169651 g / cm^3
# Si number density = 21.746005 Si / 1000 Ang^3
#
#
#
# Elastic Constant Matrix: (Units=GPa)
#
#
# Indices 1 2 3 4 5 6 
#
# 1 104.5660 30.5447 67.2349 -8.4898 4.2408 39.2357
# 2 30.5447 101.4205 44.7478 -15.1613 -1.2335 31.9233
# 3 67.2349 44.7478 155.5179 -20.1959 16.8516 22.4347
# 4 -8.4898 -15.1613 -20.1959 36.6939 4.6994 3.8956
# 5 4.2408 -1.2335 16.8516 4.6994 48.8237 2.2331
# 6 39.2357 31.9233 22.4347 3.8956 2.2331 43.7025
#
#
#
# Elastic Compliance Matrix: (Units=1/GPa)
#
#
# Indices 1 2 3 4 5 6 
#
# 1 0.019293 0.002743 -0.006388 0.003698 0.000994 -0.016426
# 2 0.002743 0.015392 -0.003049 0.006524 0.001160 -0.012781
# 3 -0.006388 -0.003049 0.010526 0.003254 -0.003581 0.002452
# 4 0.003698 0.006524 0.003254 0.034449 -0.004018 -0.012621
# 5 0.000994 0.001160 -0.003581 -0.004018 0.022078 -0.000671
# 6 -0.016426 -0.012781 0.002452 -0.012621 -0.000671 0.046866
#
#
# Mechanical properties :
#
#
# Convention : Reuss Voigt Hill
#
# Bulk Modulus (GPa) = 31.42455 71.83990 51.63222
# Shear Modulus (GPa) = 28.96881 40.44249 34.70565
#
# Velocity S-wave (km/s) = 3.65381 4.31718 3.99927
# Velocity P-wave (km/s) = 5.68178 7.61304 6.71718
#
# Compressibility (1/GPa) = 0.03182225
#
# Stress axis : x y z
#
# Youngs Moduli (GPa) = 51.83296 64.97018 95.00225
#
# Poissons Ratio (x) = -0.17822 0.60688
# Poissons Ratio (y) = -0.14219 0.28968
# Poissons Ratio (z) = 0.33111 0.19811
#
# Static dielectric constant tensor:
#      x y z
#    x 3.796590 -0.083040 -0.522930 
#    y -0.083040 3.650230 -0.559550 
#    z -0.522930 -0.559550 3.352840 
# 
# 
# High freq. dielectric constant tensor:
#      x y z
#    x 1.861120 0.014450 0.001110 
#    y 0.014450 1.857230 -0.006530 
#    z 0.001110 -0.006530 1.871310 
# 
# From -- ./inp_files/208538.got.cif
#   From: 2010.06.25/outbox.cif.g09.slc.cpg/sg2_105_cif.got.tgz:208538.got - 2010.06.27 13:26:56.
