data_PCOD8034337
_publ_section_title
;
Structure prediction by ZEFSAII (Michael W. Deem and Ramdas Pophale) SiO2 
 PCOD8034337
Probable space group: P -1
;
_chemical_formula_sum "Si O2"
_cell_formula_units_Z 16
_cell_length_a 12.880834
_cell_length_b 21.591580
_cell_length_c 9.714022
_cell_angle_alpha 37.208389
_cell_angle_beta 50.791988
_cell_angle_gamma 28.045333
_cell_volume 743.943960
_symmetry_space_group_name_H-M "P -1"
_symmetry_group_IT_number 2
_symmetry_cell_setting 'triclinic'
loop_
_space_group_symop_operation_xyz
x,y,z
-x,-y,-z
loop_
_atom_site_type_symbol
_atom_site_label
_atom_site_fract_x
_atom_site_fract_y
_atom_site_fract_z
Si Si1 0.411701 0.955819 0.072912
Si Si2 0.384855 0.839562 0.796722
Si Si3 0.855941 0.875283 0.284081
Si Si4 0.621941 0.392191 0.725060
Si Si5 0.551053 0.556355 0.750174
Si Si6 0.781038 0.072545 0.520019
Si Si7 0.128940 0.358346 0.259674
Si Si8 0.842592 0.544867 0.444084
O O1 0.220722 0.028857 0.207758
O O2 0.615619 0.750006 0.240170
O O3 0.500000 0.000000 0.000000
O O4 0.295640 0.051715 0.854136
O O5 0.235273 0.943501 0.599408
O O6 0.623915 0.747163 0.734495
O O7 0.251976 0.968945 0.808160
O O8 0.428934 0.693896 0.047974
O O9 0.851405 0.774531 0.558425
O O10 0.108292 0.754628 0.244017
O O11 0.500000 0.500000 0.500000
O O12 0.488329 0.544539 0.678386
O O13 0.422854 0.734065 0.596097
O O14 0.799498 0.454975 0.696230
O O15 0.500000 0.500000 0.000000
O O16 0.000000 0.000000 0.500000
O O17 0.979013 0.454544 0.349941
O O18 0.000000 0.500000 0.000000
O O19 0.000000 0.500000 0.500000
#
# Coordination Sequence:
#
# PCOD8034337 Si02
#       8
#     2   2   2   2   2   2   2   2
#     4  11  25  44  71 102 139 185 232 288 364 417
#     4  12  26  45  69 106 142 184 238 290 356 427
#     4  12  26  48  71 102 147 185 234 300 356 427
#     4  12  27  45  72 103 141 191 241 292 359 421
#     4  11  24  46  70  99 139 182 239 295 349 419
#     4  11  25  43  67 100 137 180 232 290 351 421
#     4  12  25  46  71 103 138 186 235 289 355 425
#     4  11  24  44  72 102 141 183 237 293 349 422
#
# _framework density 21.506996000000001
#
# number of rings (size 3 to 8) (size 9 to 14) (size 15 to 20)
#    0.000    0.500    2.500    6.000    5.250    1.000 
#    0.000    0.000    0.000    0.000    0.000    0.000 
#    0.000    0.000    0.000    0.000    0.000    0.000 
#
# Total GULP energy -198303.872314 kJ/mol
# GULP energy per Si atom -12393.992020 kJ/mol
# Density = 2.145804 g / cm^3
# Si number density = 21.506996 Si / 1000 Ang^3
#
#
#
# Elastic Constant Matrix: (Units=GPa)
#
#
# Indices 1 2 3 4 5 6 
#
# 1 126.6750 29.6611 38.6186 18.0487 10.3055 12.9647
# 2 29.6611 74.5405 15.3415 23.6582 8.2910 -3.3405
# 3 38.6186 15.3415 118.9286 23.4482 1.2274 -1.0572
# 4 18.0487 23.6582 23.4482 38.0089 -4.3650 -2.4793
# 5 10.3055 8.2910 1.2274 -4.3650 52.4776 4.6497
# 6 12.9647 -3.3405 -1.0572 -2.4793 4.6497 41.1648
#
#
#
# Elastic Compliance Matrix: (Units=1/GPa)
#
#
# Indices 1 2 3 4 5 6 
#
# 1 0.010068 -0.002935 -0.002564 -0.001745 -0.001295 -0.003434
# 2 -0.002935 0.018307 0.000760 -0.010721 -0.003418 0.002170
# 3 -0.002564 0.000760 0.010253 -0.005571 -0.000394 0.000841
# 4 -0.001745 -0.010721 -0.005571 0.037927 0.005212 0.001232
# 5 -0.001295 -0.003418 -0.000394 0.005212 0.020459 -0.001877
# 6 -0.003434 0.002170 0.000841 0.001232 -0.001877 0.025858
#
#
# Mechanical properties :
#
#
# Convention : Reuss Voigt Hill
#
# Bulk Modulus (GPa) = 34.30449 54.15406 44.22927
# Shear Modulus (GPa) = 35.19452 42.09845 38.64649
#
# Velocity S-wave (km/s) = 4.04966 4.42909 4.24362
# Velocity P-wave (km/s) = 6.15234 7.16869 6.67988
#
# Compressibility (1/GPa) = 0.02915070
#
# Stress axis : x y z
#
# Youngs Moduli (GPa) = 99.32001 54.62364 97.53347
#
# Poissons Ratio (x) = 0.16030 0.25007
# Poissons Ratio (y) = 0.29148 -0.07410
# Poissons Ratio (z) = 0.25465 -0.04150
#
# Static dielectric constant tensor:
#      x y z
#    x 3.965160 -0.160660 0.003680 
#    y -0.160660 3.895610 0.393880 
#    z 0.003680 0.393880 3.497060 
# 
# 
# High freq. dielectric constant tensor:
#      x y z
#    x 1.863370 0.003720 -0.014020 
#    y 0.003720 1.856200 0.015920 
#    z -0.014020 0.015920 1.857620 
# 
# From -- ./inp_files/184070.got.cif
#   From: 2010.06.25/outbox.cif.g09.slc.cpg/sg2_93_cif.got.tgz:184070.got - 2010.06.27 13:26:56.
