data_PCOD8034292
_publ_section_title
;
Structure prediction by ZEFSAII (Michael W. Deem and Ramdas Pophale) SiO2 
 PCOD8034292
Probable space group: P -1
;
_chemical_formula_sum "Si O2"
_cell_formula_units_Z 16
_cell_length_a 9.008776
_cell_length_b 17.465450
_cell_length_c 17.767492
_cell_angle_alpha 149.200863
_cell_angle_beta 135.721921
_cell_angle_gamma 29.880472
_cell_volume 708.555638
_symmetry_space_group_name_H-M "P -1"
_symmetry_group_IT_number 2
_symmetry_cell_setting 'triclinic'
loop_
_space_group_symop_operation_xyz
x,y,z
-x,-y,-z
loop_
_atom_site_type_symbol
_atom_site_label
_atom_site_fract_x
_atom_site_fract_y
_atom_site_fract_z
Si Si1 0.969457 0.004919 0.116014
Si Si2 0.804935 0.893371 0.211265
Si Si3 0.769202 0.885564 0.599507
Si Si4 0.148870 0.661876 0.995765
Si Si5 0.340751 0.286542 0.455853
Si Si6 0.223958 0.669285 0.305313
Si Si7 0.470505 0.771418 0.982283
Si Si8 0.852337 0.685082 0.310080
O O1 0.050859 0.799298 0.001535
O O2 0.974595 0.130866 0.288412
O O3 0.210990 0.941827 0.089863
O O4 0.647160 0.159162 0.088397
O O5 0.975778 0.834730 0.145854
O O6 0.001411 0.855860 0.321594
O O7 0.485892 0.138991 0.308680
O O8 0.746446 0.746124 0.073577
O O9 0.633332 0.839880 0.572427
O O10 0.916209 0.717094 0.443529
O O11 0.499889 0.125259 0.675760
O O12 0.500000 0.500000 0.000000
O O13 0.054465 0.535355 0.846628
O O14 0.528779 0.340218 0.584957
O O15 0.000000 0.500000 0.500000
O O16 0.404541 0.453277 0.143077
O O17 0.048559 0.684808 0.324279
#
# Coordination Sequence:
#
# PCOD8034292 Si02
#       8
#     2   2   2   2   2   2   2   2
#     4  11  24  44  71 100 150 187 232 295 362 425
#     4  12  26  46  75 103 145 185 247 299 348 426
#     4  11  24  45  68 101 146 185 238 291 359 423
#     4  12  26  44  73 110 142 190 243 296 359 422
#     4  12  28  47  71 106 144 191 240 291 363 431
#     4  12  25  45  74 105 140 189 242 296 353 430
#     4  11  24  45  73 103 140 188 235 299 360 422
#     4  11  25  43  70 104 142 184 240 300 349 420
#
# _framework density 22.581149
#
# number of rings (size 3 to 8) (size 9 to 14) (size 15 to 20)
#    0.000    0.500    5.000    2.250    7.000    0.500 
#    2.250    1.250    0.000    0.000    0.000    0.000 
#    0.000    0.000    0.000    0.000    0.000    0.000 
#
# Total GULP energy -198460.886195 kJ/mol
# GULP energy per Si atom -12403.805387 kJ/mol
# Density = 2.252975 g / cm^3
# Si number density = 22.581149 Si / 1000 Ang^3
#
#
#
# Elastic Constant Matrix: (Units=GPa)
#
#
# Indices 1 2 3 4 5 6 
#
# 1 85.0633 32.4877 37.4376 -7.4964 -5.6255 -5.6555
# 2 32.4877 95.5728 35.8279 -0.4339 -7.4741 -1.2939
# 3 37.4376 35.8279 129.1586 -6.9350 -9.4445 -8.8975
# 4 -7.4964 -0.4339 -6.9350 37.2473 -5.5657 -2.3417
# 5 -5.6255 -7.4741 -9.4445 -5.5657 46.1357 3.3870
# 6 -5.6555 -1.2939 -8.8975 -2.3417 3.3870 28.4529
#
#
#
# Elastic Compliance Matrix: (Units=1/GPa)
#
#
# Indices 1 2 3 4 5 6 
#
# 1 0.014943 -0.003887 -0.002915 0.002660 0.000769 0.002009
# 2 -0.003887 0.012774 -0.002475 -0.001011 0.001053 -0.001174
# 3 -0.002915 -0.002475 0.009601 0.001499 0.001222 0.002288
# 4 0.002660 -0.001011 0.001499 0.028379 0.003682 0.002849
# 5 0.000769 0.001053 0.001222 0.003682 0.022768 -0.001824
# 6 0.002009 -0.001174 0.002288 0.002849 -0.001824 0.036659
#
#
# Mechanical properties :
#
#
# Convention : Reuss Voigt Hill
#
# Bulk Modulus (GPa) = 53.29561 57.92234 55.60897
# Shear Modulus (GPa) = 33.34805 35.96995 34.65900
#
# Velocity S-wave (km/s) = 3.84710 3.99547 3.92198
# Velocity P-wave (km/s) = 6.58685 6.85503 6.72228
#
# Compressibility (1/GPa) = 0.01876327
#
# Stress axis : x y z
#
# Youngs Moduli (GPa) = 66.92309 78.28280 104.15055
#
# Poissons Ratio (x) = 0.30429 0.30365
# Poissons Ratio (y) = 0.26013 0.25777
# Poissons Ratio (z) = 0.19511 0.19375
#
# Static dielectric constant tensor:
#      x y z
#    x 4.039400 0.003300 -0.099560 
#    y 0.003300 4.052450 0.049130 
#    z -0.099560 0.049130 4.266520 
# 
# 
# High freq. dielectric constant tensor:
#      x y z
#    x 1.890110 -0.004740 0.001280 
#    y -0.004740 1.880930 0.000850 
#    z 0.001280 0.000850 1.905630 
# 
# From -- ./inp_files/208229.got.cif
#   From: 2010.06.25/outbox.cif.g09.slc.cpg/sg2_105_cif.got.tgz:208229.got - 2010.06.27 13:26:56.
