data_PCOD8034255
_publ_section_title
;
Structure prediction by ZEFSAII (Michael W. Deem and Ramdas Pophale) SiO2 
 PCOD8034255
Probable space group: P -1
;
_chemical_formula_sum "Si O2"
_cell_formula_units_Z 16
_cell_length_a 8.396953
_cell_length_b 11.831263
_cell_length_c 8.422895
_cell_angle_alpha 114.630950
_cell_angle_beta 106.240641
_cell_angle_gamma 61.779638
_cell_volume 666.660314
_symmetry_space_group_name_H-M "P -1"
_symmetry_group_IT_number 2
_symmetry_cell_setting 'triclinic'
loop_
_space_group_symop_operation_xyz
x,y,z
-x,-y,-z
loop_
_atom_site_type_symbol
_atom_site_label
_atom_site_fract_x
_atom_site_fract_y
_atom_site_fract_z
Si Si1 0.317263 0.804173 0.394845
Si Si2 0.013203 0.412923 0.798054
Si Si3 0.209945 0.692104 0.872665
Si Si4 0.712489 0.403251 0.505931
Si Si5 0.478260 0.812514 0.987607
Si Si6 0.971053 0.835932 0.156849
Si Si7 0.587844 0.036446 0.243874
Si Si8 0.374079 0.405995 0.858205
O O1 0.267787 0.738806 0.496823
O O2 0.136664 0.876485 0.279750
O O3 0.468073 0.689278 0.267128
O O4 0.391084 0.913479 0.544970
O O5 0.826491 0.469824 0.677194
O O6 0.057264 0.259062 0.772406
O O7 0.179224 0.417088 0.741466
O O8 0.000000 0.500000 0.000000
O O9 0.197614 0.628980 0.662568
O O10 0.355107 0.564448 0.946101
O O11 0.279396 0.812185 0.944250
O O12 0.019886 0.757968 0.953696
O O13 0.500000 0.500000 0.500000
O O14 0.491149 0.931693 0.172258
O O15 0.612506 0.662350 0.002326
O O16 0.526193 0.838400 0.834844
O O17 0.783108 0.966670 0.168505
#
# Coordination Sequence:
#
# PCOD8034255 Si02
#       8
#     2   2   2   2   2   2   2   2
#     4  11  24  44  70 100 138 190 233 289 358 419
#     4  11  25  44  69 105 147 185 232 293 353 420
#     4  12  24  45  71 106 138 179 236 293 360 418
#     4  11  25  44  69 105 147 185 232 293 353 420
#     4  11  25  44  70  99 137 190 238 286 357 410
#     4  11  24  44  70 100 138 190 233 289 358 419
#     4  11  25  48  66 100 141 189 240 290 341 432
#     4  12  24  45  71 106 138 179 236 293 360 418
#
# _framework density 24.000229000000001
#
# number of rings (size 3 to 8) (size 9 to 14) (size 15 to 20)
#    0.000    0.750    6.250    0.750    1.750    1.500 
#    4.500    0.000    0.000    0.000    0.000    0.000 
#    0.000    0.000    0.000    0.000    0.000    0.000 
#
# Total GULP energy -198310.502155 kJ/mol
# GULP energy per Si atom -12394.406385 kJ/mol
# Density = 2.394560 g / cm^3
# Si number density = 24.000229 Si / 1000 Ang^3
#
#
#
# Elastic Constant Matrix: (Units=GPa)
#
#
# Indices 1 2 3 4 5 6 
#
# 1 81.3688 30.3795 37.8648 9.5056 4.9053 1.7299
# 2 30.3795 85.5788 34.5843 -1.7793 6.9126 12.3669
# 3 37.8648 34.5843 154.6925 9.9160 8.6942 -2.8417
# 4 9.5056 -1.7793 9.9160 35.0169 3.4686 2.0897
# 5 4.9053 6.9126 8.6942 3.4686 37.9623 7.8599
# 6 1.7299 12.3669 -2.8417 2.0897 7.8599 39.3472
#
#
#
# Elastic Compliance Matrix: (Units=1/GPa)
#
#
# Indices 1 2 3 4 5 6 
#
# 1 0.015666 -0.004729 -0.002493 -0.003798 -0.000433 0.000906
# 2 -0.004729 0.015185 -0.002474 0.003127 -0.000893 -0.004731
# 3 -0.002493 -0.002474 0.007836 -0.001652 -0.001241 0.001789
# 4 -0.003798 0.003127 -0.001652 0.030546 -0.002046 -0.002149
# 5 -0.000433 -0.000893 -0.001241 -0.002046 0.028129 -0.005300
# 6 0.000906 -0.004731 0.001789 -0.002149 -0.005300 0.028164
#
#
# Mechanical properties :
#
#
# Convention : Reuss Voigt Hill
#
# Bulk Modulus (GPa) = 51.82784 58.58859 55.20821
# Shear Modulus (GPa) = 33.03604 37.05272 35.04438
#
# Velocity S-wave (km/s) = 3.71413 3.93345 3.82536
# Velocity P-wave (km/s) = 6.32729 6.71521 6.52413
#
# Compressibility (1/GPa) = 0.01929465
#
# Stress axis : x y z
#
# Youngs Moduli (GPa) = 63.83323 65.85642 127.60963
#
# Poissons Ratio (x) = 0.31141 0.31813
# Poissons Ratio (y) = 0.30184 0.31577
# Poissons Ratio (z) = 0.15914 0.16296
#
# Static dielectric constant tensor:
#      x y z
#    x 4.745020 0.151950 0.434390 
#    y 0.151950 4.374500 -0.246620 
#    z 0.434390 -0.246620 4.386380 
# 
# 
# High freq. dielectric constant tensor:
#      x y z
#    x 1.952540 0.011160 0.018840 
#    y 0.011160 1.943650 -0.006490 
#    z 0.018840 -0.006490 1.945420 
# 
# From -- ./inp_files/190255.got.cif
#   From: 2010.06.25/outbox.cif.g09.slc.cpg/sg2_96_cif.got.tgz:190255.got - 2010.06.27 13:26:56.
