data_PCOD8034945
_publ_section_title
;
Structure prediction by ZEFSAII (Michael W. Deem and Ramdas Pophale) SiO2 
 PCOD8034945
Probable space group: P -1
;
_chemical_formula_sum "Si O2"
_cell_formula_units_Z 16
_cell_length_a 11.311461
_cell_length_b 12.959000
_cell_length_c 9.089665
_cell_angle_alpha 53.489576
_cell_angle_beta 137.106663
_cell_angle_gamma 135.103889
_cell_volume 632.043405
_symmetry_space_group_name_H-M "P -1"
_symmetry_group_IT_number 2
_symmetry_cell_setting 'triclinic'
loop_
_space_group_symop_operation_xyz
x,y,z
-x,-y,-z
loop_
_atom_site_type_symbol
_atom_site_label
_atom_site_fract_x
_atom_site_fract_y
_atom_site_fract_z
Si Si1 0.102668 0.902255 0.176451
Si Si2 0.205571 0.417441 0.891712
Si Si3 0.872295 0.411717 0.097334
Si Si4 0.375099 0.959476 0.123643
Si Si5 0.837574 0.129371 0.406782
Si Si6 0.577766 0.304351 0.685919
Si Si7 0.359893 0.447992 0.692445
Si Si8 0.210572 0.138408 0.658828
O O1 0.313262 0.980262 0.213787
O O2 0.155817 0.877984 0.407291
O O3 0.944209 0.755102 0.073069
O O4 0.000000 0.000000 0.000000
O O5 0.100257 0.499142 0.803920
O O6 0.234621 0.452572 0.714726
O O7 0.410852 0.467182 0.121274
O O8 0.944866 0.297801 0.307093
O O9 0.644504 0.341317 0.887473
O O10 0.000000 0.500000 0.000000
O O11 0.319537 0.788434 0.201911
O O12 0.607821 0.055377 0.214008
O O13 0.258487 0.011467 0.863387
O O14 0.963639 0.061815 0.495208
O O15 0.657490 0.453937 0.537723
O O16 0.333428 0.207492 0.558428
O O17 0.275403 0.275955 0.716842
#
# Coordination Sequence:
#
# PCOD8034945 Si02
#       8
#     2   2   2   2   2   2   2   2
#     4  12  26  49  76 112 154 199 260 316 376 465
#     4  11  25  46  78 110 151 199 252 315 387 450
#     4  12  27  47  74 114 153 198 254 316 388 457
#     4  12  27  50  73 112 155 204 253 313 382 460
#     4  12  27  47  80 107 154 207 250 318 388 447
#     4  12  27  47  77 110 158 198 257 321 378 456
#     4  11  24  46  79 113 146 200 257 317 380 456
#     4  12  24  51  76 107 157 196 258 313 382 459
#
# _framework density 25.314717000000002
#
# number of rings (size 3 to 8) (size 9 to 14) (size 15 to 20)
#    0.000    0.250    5.000    2.625    5.250    2.000 
#    0.000    0.000    0.000    0.000    0.000    0.000 
#    0.000    0.000    0.000    0.000    0.000    0.000 
#
# Total GULP energy -198367.361861 kJ/mol
# GULP energy per Si atom -12397.960116 kJ/mol
# Density = 2.525710 g / cm^3
# Si number density = 25.314717 Si / 1000 Ang^3
#
#
#
# Elastic Constant Matrix: (Units=GPa)
#
#
# Indices 1 2 3 4 5 6 
#
# 1 201.3876 44.9694 43.6140 -15.3900 3.9829 -9.1352
# 2 44.9694 85.0334 32.4765 -23.3515 16.8599 -5.8726
# 3 43.6140 32.4765 120.4427 -21.5061 4.8426 -2.9604
# 4 -15.3900 -23.3515 -21.5061 37.1559 8.8502 -2.2516
# 5 3.9829 16.8599 4.8426 8.8502 45.2135 3.1973
# 6 -9.1352 -5.8726 -2.9604 -2.2516 3.1973 42.9103
#
#
#
# Elastic Compliance Matrix: (Units=1/GPa)
#
#
# Indices 1 2 3 4 5 6 
#
# 1 0.005885 -0.002685 -0.001449 -0.000193 0.000624 0.000729
# 2 -0.002685 0.019354 -0.001524 0.012642 -0.009528 0.003345
# 3 -0.001449 -0.001524 0.010137 0.004661 -0.001340 0.000527
# 4 -0.000193 0.012642 0.004661 0.041028 -0.013593 0.005176
# 5 0.000624 -0.009528 -0.001340 -0.013593 0.028711 -0.004116
# 6 0.000729 0.003345 0.000527 0.005176 -0.004116 0.024532
#
#
# Mechanical properties :
#
#
# Convention : Reuss Voigt Hill
#
# Bulk Modulus (GPa) = 41.56170 72.10927 56.83548
# Shear Modulus (GPa) = 33.56115 44.10953 38.83534
#
# Velocity S-wave (km/s) = 3.64504 4.17879 3.92101
# Velocity P-wave (km/s) = 5.84541 7.19931 6.55739
#
# Compressibility (1/GPa) = 0.02406061
#
# Stress axis : x y z
#
# Youngs Moduli (GPa) = 169.92751 51.66882 98.64720
#
# Poissons Ratio (x) = 0.13876 0.14290
# Poissons Ratio (y) = 0.45634 0.15030
# Poissons Ratio (z) = 0.24615 0.07872
#
# Static dielectric constant tensor:
#      x y z
#    x 5.045430 0.119240 0.390400 
#    y 0.119240 5.100400 0.321680 
#    z 0.390400 0.321680 4.573390 
# 
# 
# High freq. dielectric constant tensor:
#      x y z
#    x 2.041590 0.000030 0.007900 
#    y 0.000030 2.028260 0.004700 
#    z 0.007900 0.004700 2.006630 
# 
# From -- ./inp_files/262199.got.cif
#   From: 2010.06.25/outbox.cif.g09.slc.cpg/sg2_132_cif.got.tgz:262199.got - 2010.06.27 13:26:56.
