data_PCOD8034653
_publ_section_title
;
Structure prediction by ZEFSAII (Michael W. Deem and Ramdas Pophale) SiO2 
 PCOD8034653
Probable space group: P -1
;
_chemical_formula_sum "Si O2"
_cell_formula_units_Z 14
_cell_length_a 17.701069
_cell_length_b 8.971221
_cell_length_c 11.817168
_cell_angle_alpha 127.194699
_cell_angle_beta 150.888104
_cell_angle_gamma 38.774271
_cell_volume 553.391519
_symmetry_space_group_name_H-M "P -1"
_symmetry_group_IT_number 2
_symmetry_cell_setting 'triclinic'
loop_
_space_group_symop_operation_xyz
x,y,z
-x,-y,-z
loop_
_atom_site_type_symbol
_atom_site_label
_atom_site_fract_x
_atom_site_fract_y
_atom_site_fract_z
Si Si1 0.935352 0.879111 0.282614
Si Si2 0.305878 0.239313 0.972527
Si Si3 0.235282 0.193733 0.618703
Si Si4 0.596075 0.160702 0.670770
Si Si5 0.695356 0.467504 0.715106
Si Si6 0.959235 0.061541 0.168618
Si Si7 0.279359 0.309660 0.486038
O O1 0.744528 0.923514 0.112895
O O2 0.879510 0.015416 0.153499
O O3 0.112539 0.589843 0.357258
O O4 0.000000 0.000000 0.500000
O O5 0.201193 0.339023 0.756692
O O6 0.215845 0.473697 0.040423
O O7 0.549264 0.081849 0.210835
O O8 0.248466 0.316585 0.583920
O O9 0.047193 0.197306 0.366864
O O10 0.389229 0.333198 0.404510
O O11 0.506938 0.202687 0.700904
O O12 0.740696 0.876466 0.687550
O O13 0.746792 0.225833 0.892294
O O14 0.500000 0.500000 0.500000
O O15 0.872417 0.190582 0.788382
#
# Coordination Sequence:
#
# PCOD8034653 Si02
#       7
#     2   2   2   2   2   2   2
#     4  12  26  47  72 109 147 200 246 302 375 439
#     4  11  24  45  74 100 152 190 244 301 367 440
#     4  11  24  47  73 105 144 199 243 300 376 432
#     4  11  25  45  77 112 145 191 251 304 368 440
#     4  12  24  46  77 113 147 195 246 305 372 434
#     4  12  25  47  76 111 150 190 250 308 366 443
#     4  11  24  47  73 108 149 191 251 303 368 446
#
# _framework density 25.298542999999999
#
# number of rings (size 3 to 8) (size 9 to 14) (size 15 to 20)
#    0.000    0.571    5.714    1.714    2.000    5.143 
#    2.571    1.429    0.000    0.000    0.000    0.000 
#    0.000    0.000    0.000    0.000    0.000    0.000 
#
# Total GULP energy -173538.046408 kJ/mol
# GULP energy per Si atom -12395.574743 kJ/mol
# Density = 2.524096 g / cm^3
# Si number density = 25.298543 Si / 1000 Ang^3
#
#
#
# Elastic Constant Matrix: (Units=GPa)
#
#
# Indices 1 2 3 4 5 6 
#
# 1 143.4893 11.7626 42.1052 13.2038 2.5808 -11.9824
# 2 11.7626 69.1713 19.1930 -2.5731 -6.7836 -5.0990
# 3 42.1052 19.1930 145.7533 17.0886 10.4875 -9.3057
# 4 13.2038 -2.5731 17.0886 27.1198 0.2842 4.3141
# 5 2.5808 -6.7836 10.4875 0.2842 41.8982 5.3443
# 6 -11.9824 -5.0990 -9.3057 4.3141 5.3443 29.8356
#
#
#
# Elastic Compliance Matrix: (Units=1/GPa)
#
#
# Indices 1 2 3 4 5 6 
#
# 1 0.008110 -0.000905 -0.001551 -0.003567 -0.000648 0.003250
# 2 -0.000905 0.015743 -0.002390 0.003321 0.003111 0.000544
# 3 -0.001551 -0.002390 0.008640 -0.005354 -0.002792 0.002938
# 4 -0.003567 0.003321 -0.005354 0.043763 0.003000 -0.009400
# 5 -0.000648 0.003111 -0.002792 0.003000 0.025811 -0.005657
# 6 0.003250 0.000544 0.002938 -0.009400 -0.005657 0.038204
#
#
# Mechanical properties :
#
#
# Convention : Reuss Voigt Hill
#
# Bulk Modulus (GPa) = 43.86065 56.05950 49.96007
# Shear Modulus (GPa) = 31.73328 38.79427 35.26378
#
# Velocity S-wave (km/s) = 3.54553 3.92019 3.73755
# Velocity P-wave (km/s) = 5.84259 6.53435 6.19813
#
# Compressibility (1/GPa) = 0.02279948
#
# Stress axis : x y z
#
# Youngs Moduli (GPa) = 123.30613 63.52146 115.74221
#
# Poissons Ratio (x) = 0.05751 0.17953
# Poissons Ratio (y) = 0.11164 0.27662
# Poissons Ratio (z) = 0.19127 0.15182
#
# Static dielectric constant tensor:
#      x y z
#    x 5.278990 0.199600 -0.322380 
#    y 0.199600 4.436070 -0.200940 
#    z -0.322380 -0.200940 5.001260 
# 
# 
# High freq. dielectric constant tensor:
#      x y z
#    x 2.033010 -0.004600 0.003780 
#    y -0.004600 2.000150 -0.003430 
#    z 0.003780 -0.003430 2.016300 
# 
# From -- ./inp_files/462493.got.cif
#   From: 2010.06.25/outbox.cif.g09.slc.cpg/sg2_232_cif.got.tgz:462493.got - 2010.06.27 13:26:56.
