data_PCOD8034182
_publ_section_title
;
Structure prediction by ZEFSAII (Michael W. Deem and Ramdas Pophale) SiO2 
 PCOD8034182
Probable space group: P -1
;
_chemical_formula_sum "Si O2"
_cell_formula_units_Z 16
_cell_length_a 5.242349
_cell_length_b 18.052393
_cell_length_c 20.805642
_cell_angle_alpha 21.859475
_cell_angle_beta 104.025932
_cell_angle_gamma 105.008725
_cell_volume 708.093770
_symmetry_space_group_name_H-M "P -1"
_symmetry_group_IT_number 2
_symmetry_cell_setting 'triclinic'
loop_
_space_group_symop_operation_xyz
x,y,z
-x,-y,-z
loop_
_atom_site_type_symbol
_atom_site_label
_atom_site_fract_x
_atom_site_fract_y
_atom_site_fract_z
Si Si1 0.306189 0.951219 0.339867
Si Si2 0.483413 0.448617 0.646597
Si Si3 0.823962 0.427865 0.905008
Si Si4 0.137315 0.136606 0.952733
Si Si5 0.460006 0.791626 0.279732
Si Si6 0.602820 0.609038 0.982112
Si Si7 0.201545 0.303512 0.435372
Si Si8 0.921185 0.064255 0.125021
O O1 0.568867 0.844608 0.429993
O O2 0.083505 0.812891 0.476025
O O3 0.379780 0.153572 0.221739
O O4 0.197103 0.012966 0.214019
O O5 0.266404 0.344195 0.765659
O O6 0.344431 0.617194 0.461790
O O7 0.576332 0.285264 0.734013
O O8 0.734066 0.536465 0.632441
O O9 0.800861 0.594980 0.715460
O O10 0.597787 0.452951 0.922558
O O11 0.777035 0.205151 0.051503
O O12 0.112418 0.462276 0.926464
O O13 0.951723 0.187108 0.960278
O O14 0.336090 0.999673 0.110552
O O15 0.000000 0.000000 0.000000
O O16 0.762766 0.849388 0.273145
O O17 0.500000 0.500000 0.000000
#
# Coordination Sequence:
#
# PCOD8034182 Si02
#       8
#     2   2   2   2   2   2   2   2
#     4  11  25  44  72 102 138 189 221 295 355 427
#     4  11  25  41  66  92 139 190 244 302 360 409
#     4  11  26  43  76 108 141 187 232 290 355 428
#     4  12  26  40  63  94 134 187 247 311 360 408
#     4  11  24  46  59  96 135 192 246 305 355 420
#     4  11  25  51  78 107 140 182 229 278 355 449
#     4  12  25  44  67 108 147 180 239 291 355 416
#     4  11  24  44  66  94 138 185 247 292 352 424
#
# _framework density 22.595877000000002
#
# number of rings (size 3 to 8) (size 9 to 14) (size 15 to 20)
#    0.000    0.750    2.500    4.500   10.500    0.500 
#    0.000    3.750    0.000    0.000    0.000    0.000 
#    0.000    0.000    0.000    0.000    0.000    0.000 
#
# Total GULP energy -198407.736530 kJ/mol
# GULP energy per Si atom -12400.483533 kJ/mol
# Density = 2.254445 g / cm^3
# Si number density = 22.595877 Si / 1000 Ang^3
#
#
#
# Elastic Constant Matrix: (Units=GPa)
#
#
# Indices 1 2 3 4 5 6 
#
# 1 74.2595 25.9167 21.4345 -5.9407 -19.6824 1.0661
# 2 25.9167 149.6826 44.8443 -14.8385 -23.7205 8.4800
# 3 21.4345 44.8443 110.0537 9.0816 -24.3789 0.6543
# 4 -5.9407 -14.8385 9.0816 33.0121 -5.0367 -10.2306
# 5 -19.6824 -23.7205 -24.3789 -5.0367 43.6732 7.9090
# 6 1.0661 8.4800 0.6543 -10.2306 7.9090 31.2430
#
#
#
# Elastic Compliance Matrix: (Units=1/GPa)
#
#
# Indices 1 2 3 4 5 6 
#
# 1 0.016289 -0.000873 -0.001688 0.003780 0.006485 -0.000687
# 2 -0.000873 0.008865 -0.003026 0.004684 0.003577 -0.001685
# 3 -0.001688 -0.003026 0.011973 -0.004965 0.004074 -0.002029
# 4 0.003780 0.004684 -0.004965 0.038219 0.004037 0.010197
# 5 0.006485 0.003577 0.004074 0.004037 0.031960 -0.008046
# 6 -0.000687 -0.001685 -0.002029 0.010197 -0.008046 0.037906
#
#
# Mechanical properties :
#
#
# Convention : Reuss Voigt Hill
#
# Bulk Modulus (GPa) = 38.53281 57.59853 48.06567
# Shear Modulus (GPa) = 30.29596 37.70568 34.00082
#
# Velocity S-wave (km/s) = 3.66563 4.08940 3.88330
# Velocity P-wave (km/s) = 5.91657 6.91691 6.43621
#
# Compressibility (1/GPa) = 0.02595191
#
# Stress axis : x y z
#
# Youngs Moduli (GPa) = 61.38958 112.79771 83.52461
#
# Poissons Ratio (x) = 0.09852 0.14099
# Poissons Ratio (y) = 0.05362 0.25278
# Poissons Ratio (z) = 0.10362 0.34137
#
# Static dielectric constant tensor:
#      x y z
#    x 4.054250 0.059140 -0.105170 
#    y 0.059140 4.017850 0.078060 
#    z -0.105170 0.078060 4.254600 
# 
# 
# High freq. dielectric constant tensor:
#      x y z
#    x 1.891850 0.001830 -0.004940 
#    y 0.001830 1.885060 0.008440 
#    z -0.004940 0.008440 1.903090 
# 
# From -- ./inp_files/584026.got.cif
#   From: 2010.06.25/outbox.cif.g09.slc.cpg/sg2_293_cif.got.tgz:584026.got - 2010.06.27 13:26:56.
