data_PCOD8034788
_publ_section_title
;
Structure prediction by ZEFSAII (Michael W. Deem and Ramdas Pophale) SiO2 
 PCOD8034788
Probable space group: P -1
;
_chemical_formula_sum "Si O2"
_cell_formula_units_Z 12
_cell_length_a 7.387415
_cell_length_b 10.938166
_cell_length_c 8.352884
_cell_angle_alpha 67.546287
_cell_angle_beta 129.187928
_cell_angle_gamma 123.246716
_cell_volume 436.854590
_symmetry_space_group_name_H-M "P -1"
_symmetry_group_IT_number 2
_symmetry_cell_setting 'triclinic'
loop_
_space_group_symop_operation_xyz
x,y,z
-x,-y,-z
loop_
_atom_site_type_symbol
_atom_site_label
_atom_site_fract_x
_atom_site_fract_y
_atom_site_fract_z
Si Si1 0.393051 0.604535 0.801967
Si Si2 0.792166 0.485207 0.594820
Si Si3 0.862906 0.767497 0.652910
Si Si4 0.321586 0.045450 0.725022
Si Si5 0.821304 0.859305 0.072613
Si Si6 0.867769 0.236314 0.888639
O O1 0.410607 0.594092 0.622873
O O2 0.548015 0.767933 0.876717
O O3 0.093101 0.557476 0.687327
O O4 0.500000 0.500000 0.000000
O O5 0.758997 0.359303 0.770305
O O6 0.722228 0.613359 0.558583
O O7 0.704317 0.865588 0.490498
O O8 0.154803 0.871612 0.698956
O O9 0.893346 0.730896 0.873034
O O10 0.627139 0.081251 0.888218
O O11 0.217896 0.108858 0.783315
O O12 0.002701 0.768673 0.208989
O O13 0.000000 0.000000 0.000000
#
# Coordination Sequence:
#
# PCOD8034788 Si02
#       6
#     2   2   2   2   2   2
#     4  11  24  46  70 109 151 184 247 303 351 439
#     4  11  26  44  75 111 142 198 242 293 374 429
#     4  11  25  47  72 103 152 189 237 307 359 424
#     4  11  27  48  72 110 147 188 246 302 356 435
#     4  12  26  48  78 105 147 195 242 299 366 429
#     4  12  26  47  75 112 141 195 244 295 371 426
#
# _framework density 27.469093999999998
#
# number of rings (size 3 to 8) (size 9 to 14) (size 15 to 20)
#    0.000    0.667    3.333    3.000    7.000    0.667 
#    0.000    4.167    0.000    0.000    0.000    0.000 
#    0.000    0.000    0.000    0.000    0.000    0.000 
#
# Total GULP energy -148758.394059 kJ/mol
# GULP energy per Si atom -12396.532838 kJ/mol
# Density = 2.740657 g / cm^3
# Si number density = 27.469094 Si / 1000 Ang^3
#
#
#
# Elastic Constant Matrix: (Units=GPa)
#
#
# Indices 1 2 3 4 5 6 
#
# 1 68.5394 -15.9570 -4.5972 12.0526 -4.2756 10.0096
# 2 -15.9570 150.2086 37.2697 28.5804 -3.3241 10.5705
# 3 -4.5972 37.2697 130.0765 2.1269 -3.7830 -1.7814
# 4 12.0526 28.5804 2.1269 57.5443 6.4767 16.1921
# 5 -4.2756 -3.3241 -3.7830 6.4767 38.5987 2.9337
# 6 10.0096 10.5705 -1.7814 16.1921 2.9337 30.1897
#
#
#
# Elastic Compliance Matrix: (Units=1/GPa)
#
#
# Indices 1 2 3 4 5 6 
#
# 1 0.016887 0.003012 -0.000174 -0.004028 0.003154 -0.004810
# 2 0.003012 0.008556 -0.002247 -0.004457 0.001743 -0.001906
# 3 -0.000174 -0.002247 0.008344 0.000507 0.000442 0.001022
# 4 -0.004028 -0.004457 0.000507 0.023479 -0.004015 -0.009277
# 5 0.003154 0.001743 0.000442 -0.004015 0.027286 -0.002128
# 6 -0.004810 -0.001906 0.001022 -0.009277 -0.002128 0.040628
#
#
# Mechanical properties :
#
#
# Convention : Reuss Voigt Hill
#
# Bulk Modulus (GPa) = 28.59818 42.47283 35.53550
# Shear Modulus (GPa) = 36.85796 47.40713 42.13254
#
# Velocity S-wave (km/s) = 3.66703 4.15882 3.92065
# Velocity P-wave (km/s) = 5.32570 6.20940 5.78445
#
# Compressibility (1/GPa) = 0.03496726
#
# Stress axis : x y z
#
# Youngs Moduli (GPa) = 59.21627 116.88034 119.84450
#
# Poissons Ratio (x) = -0.35204 0.02090
# Poissons Ratio (y) = -0.17836 0.26935
# Poissons Ratio (z) = 0.01033 0.26269
#
# Static dielectric constant tensor:
#      x y z
#    x 5.504030 -0.079820 0.155440 
#    y -0.079820 5.735800 0.167600 
#    z 0.155440 0.167600 5.041450 
# 
# 
# High freq. dielectric constant tensor:
#      x y z
#    x 2.110210 0.029090 0.023570 
#    y 0.029090 2.134370 0.006820 
#    z 0.023570 0.006820 2.108780 
# 
# From -- ./inp_files/175629.got.cif
#   From: 2010.06.25/outbox.cif.g09.slc.cpg/sg2_88_cif.got.tgz:175629.got - 2010.06.27 13:26:56.
