data_PCOD8034158
_publ_section_title
;
Structure prediction by ZEFSAII (Michael W. Deem and Ramdas Pophale) SiO2 
 PCOD8034158
Probable space group: P -1
;
_chemical_formula_sum "Si O2"
_cell_formula_units_Z 16
_cell_length_a 9.421210
_cell_length_b 13.039571
_cell_length_c 7.680048
_cell_angle_alpha 69.415469
_cell_angle_beta 74.713130
_cell_angle_gamma 121.649642
_cell_volume 621.738029
_symmetry_space_group_name_H-M "P -1"
_symmetry_group_IT_number 2
_symmetry_cell_setting 'triclinic'
loop_
_space_group_symop_operation_xyz
x,y,z
-x,-y,-z
loop_
_atom_site_type_symbol
_atom_site_label
_atom_site_fract_x
_atom_site_fract_y
_atom_site_fract_z
Si Si1 0.113698 0.292820 0.096060
Si Si2 0.436191 0.827046 0.480386
Si Si3 0.227502 0.588442 0.979602
Si Si4 0.127290 0.527315 0.600611
Si Si5 0.768962 0.870502 0.210721
Si Si6 0.064644 0.257492 0.742172
Si Si7 0.213787 0.914956 0.383277
Si Si8 0.387994 0.228841 0.047434
O O1 0.285209 0.291908 0.088045
O O2 0.958786 0.207524 0.354994
O O3 0.209006 0.463891 0.954862
O O4 0.008230 0.207828 0.995414
O O5 0.334014 0.740204 0.746160
O O6 0.674428 0.912595 0.349401
O O7 0.406749 0.939374 0.368579
O O8 0.329184 0.699449 0.442790
O O9 0.374896 0.643097 0.063028
O O10 0.008597 0.521845 0.150797
O O11 0.184185 0.431449 0.599282
O O12 0.000000 0.500000 0.500000
O O13 0.773702 0.752207 0.369193
O O14 0.625832 0.804493 0.130542
O O15 0.000000 0.000000 0.000000
O O16 0.863942 0.153755 0.747396
O O17 0.276497 0.073351 0.282087
#
# Coordination Sequence:
#
# PCOD8034158 Si02
#       8
#     2   2   2   2   2   2   2   2
#     4  11  24  47  75 109 153 198 250 312 372 446
#     4  12  26  43  76 109 146 196 248 309 376 440
#     4  12  25  46  73 113 156 191 249 313 371 450
#     4  12  22  44  73 110 147 193 244 309 373 439
#     4  11  26  49  69 105 145 195 253 303 373 448
#     4  11  24  43  77 104 146 197 243 313 366 439
#     4  12  25  47  77 111 149 198 253 307 377 449
#     4  11  27  45  72 108 148 201 247 305 378 447
#
# _framework density 25.734311000000002
#
# number of rings (size 3 to 8) (size 9 to 14) (size 15 to 20)
#    0.000    0.500    5.000    2.625    1.750    4.500 
#    2.250    0.000    0.000    0.000    0.000    0.000 
#    0.000    0.000    0.000    0.000    0.000    0.000 
#
# Total GULP energy -198282.630077 kJ/mol
# GULP energy per Si atom -12392.664380 kJ/mol
# Density = 2.567574 g / cm^3
# Si number density = 25.734311 Si / 1000 Ang^3
#
#
#
# Elastic Constant Matrix: (Units=GPa)
#
#
# Indices 1 2 3 4 5 6 
#
# 1 169.2488 14.0408 44.8270 -2.7724 9.7785 -24.9511
# 2 14.0408 52.4366 6.1885 1.5167 6.9244 4.6366
# 3 44.8270 6.1885 72.7122 3.3656 -0.1100 -4.4638
# 4 -2.7724 1.5167 3.3656 31.3893 -1.1631 9.0150
# 5 9.7785 6.9244 -0.1100 -1.1631 45.2869 -7.0265
# 6 -24.9511 4.6366 -4.4638 9.0150 -7.0265 48.7919
#
#
#
# Elastic Compliance Matrix: (Units=1/GPa)
#
#
# Indices 1 2 3 4 5 6 
#
# 1 0.007821 -0.001778 -0.004459 0.000189 -0.000864 0.003601
# 2 -0.001778 0.020379 -0.000840 -0.000209 -0.003260 -0.003353
# 3 -0.004459 -0.000840 0.016662 -0.002059 0.001057 -0.000144
# 4 0.000189 -0.000209 -0.002059 0.033927 -0.000129 -0.006359
# 5 -0.000864 -0.003260 0.001057 -0.000129 0.023284 0.003342
# 6 0.003601 -0.003353 -0.000144 -0.006359 0.003342 0.024298
#
#
# Mechanical properties :
#
#
# Convention : Reuss Voigt Hill
#
# Bulk Modulus (GPa) = 32.56459 47.16781 39.86620
# Shear Modulus (GPa) = 33.16529 40.38303 36.77416
#
# Velocity S-wave (km/s) = 3.59382 3.96565 3.78430
# Velocity P-wave (km/s) = 5.46831 6.27192 5.88385
#
# Compressibility (1/GPa) = 0.03070820
#
# Stress axis : x y z
#
# Youngs Moduli (GPa) = 127.86234 49.07066 60.01847
#
# Poissons Ratio (x) = 0.08723 0.26764
# Poissons Ratio (y) = 0.22730 0.05039
# Poissons Ratio (z) = 0.57017 0.04120
#
# Static dielectric constant tensor:
#      x y z
#    x 5.988470 -0.482890 -0.214180 
#    y -0.482890 5.088440 0.435820 
#    z -0.214180 0.435820 4.791970 
# 
# 
# High freq. dielectric constant tensor:
#      x y z
#    x 2.051680 0.000620 0.021540 
#    y 0.000620 2.037810 0.006950 
#    z 0.021540 0.006950 2.012470 
# 
# From -- ./inp_files/205905.got.cif
#   From: 2010.06.25/outbox.cif.g09.slc.cpg/sg2_103_cif.got.tgz:205905.got - 2010.06.27 13:26:56.
