data_PCOD8034787
_publ_section_title
;
Structure prediction by ZEFSAII (Michael W. Deem and Ramdas Pophale) SiO2 
 PCOD8034787
Probable space group: P -1
;
_chemical_formula_sum "Si O2"
_cell_formula_units_Z 14
_cell_length_a 14.553706
_cell_length_b 11.049707
_cell_length_c 5.978497
_cell_angle_alpha 87.006309
_cell_angle_beta 127.545183
_cell_angle_gamma 120.517031
_cell_volume 608.353867
_symmetry_space_group_name_H-M "P -1"
_symmetry_group_IT_number 2
_symmetry_cell_setting 'triclinic'
loop_
_space_group_symop_operation_xyz
x,y,z
-x,-y,-z
loop_
_atom_site_type_symbol
_atom_site_label
_atom_site_fract_x
_atom_site_fract_y
_atom_site_fract_z
Si Si1 0.984925 0.429275 0.233887
Si Si2 0.347677 0.341800 0.251750
Si Si3 0.801542 0.101637 0.402729
Si Si4 0.107558 0.283514 0.605692
Si Si5 0.702650 0.173281 0.643142
Si Si6 0.415192 0.110977 0.259575
Si Si7 0.853079 0.883859 0.668539
O O1 0.000000 0.500000 0.500000
O O2 0.102312 0.393145 0.413837
O O3 0.820252 0.273939 0.003434
O O4 0.000000 0.500000 0.000000
O O5 0.500000 0.500000 0.500000
O O6 0.367243 0.220241 0.187543
O O7 0.258920 0.274597 0.355688
O O8 0.257253 0.376159 0.956625
O O9 0.784257 0.210508 0.521625
O O10 0.967600 0.207717 0.561435
O O11 0.773981 0.961021 0.512143
O O12 0.677941 0.023567 0.042450
O O13 0.099690 0.149547 0.486952
O O14 0.587173 0.210826 0.454113
O O15 0.618652 0.991180 0.561270
O O16 0.000000 0.000000 0.000000
#
# Coordination Sequence:
#
# PCOD8034787 Si02
#       7
#     2   2   2   2   2   2   2
#     4  12  29  50  74 112 153 202 261 329 393 470
#     4  12  28  47  72 111 159 200 255 323 398 467
#     4  12  21  44  75 112 141 192 266 321 380 459
#     4  12  26  45  77 105 145 201 257 318 393 465
#     4  11  25  45  75 104 149 199 256 316 387 461
#     4  11  24  46  70 106 148 201 252 317 388 470
#     4  12  23  41  75 108 145 190 252 320 378 466
#
# _framework density 23.012923000000001
#
# number of rings (size 3 to 8) (size 9 to 14) (size 15 to 20)
#    0.000    0.286    5.714    3.429    4.000    0.571 
#    2.571    0.000    0.000    0.000    0.000    0.000 
#    0.000    0.000    0.000    0.000    0.000    0.000 
#
# Total GULP energy -173461.849497 kJ/mol
# GULP energy per Si atom -12390.132107 kJ/mol
# Density = 2.296054 g / cm^3
# Si number density = 23.012923 Si / 1000 Ang^3
#
#
#
# Elastic Constant Matrix: (Units=GPa)
#
#
# Indices 1 2 3 4 5 6 
#
# 1 141.0595 22.0740 61.2740 5.3101 8.1732 0.1306
# 2 22.0740 90.9899 42.8501 -9.4978 11.2027 10.7845
# 3 61.2740 42.8501 159.0803 9.1944 22.6226 2.8429
# 4 5.3101 -9.4978 9.1944 49.0109 -6.5788 6.9020
# 5 8.1732 11.2027 22.6226 -6.5788 47.6495 -1.5756
# 6 0.1306 10.7845 2.8429 6.9020 -1.5756 35.8938
#
#
#
# Elastic Compliance Matrix: (Units=1/GPa)
#
#
# Indices 1 2 3 4 5 6 
#
# 1 0.008563 -0.000762 -0.003087 -0.000559 0.000117 0.000555
# 2 -0.000762 0.013899 -0.003434 0.003933 -0.001119 -0.004706
# 3 -0.003087 -0.003434 0.009000 -0.002553 -0.003266 0.000678
# 4 -0.000559 0.003933 -0.002553 0.022895 0.003371 -0.005232
# 5 0.000117 -0.001119 -0.003266 0.003371 0.023278 0.000968
# 6 0.000555 -0.004706 0.000678 -0.005232 0.000968 0.030267
#
#
# Mechanical properties :
#
#
# Convention : Reuss Voigt Hill
#
# Bulk Modulus (GPa) = 59.18999 71.50288 65.34644
# Shear Modulus (GPa) = 39.03187 44.17295 41.60241
#
# Velocity S-wave (km/s) = 4.12282 4.38594 4.25642
# Velocity P-wave (km/s) = 6.95987 7.53571 7.25350
#
# Compressibility (1/GPa) = 0.01689475
#
# Stress axis : x y z
#
# Youngs Moduli (GPa) = 116.77730 71.95002 111.10670
#
# Poissons Ratio (x) = 0.05483 0.34304
# Poissons Ratio (y) = 0.08898 0.38157
# Poissons Ratio (z) = 0.36054 0.24710
#
# Static dielectric constant tensor:
#      x y z
#    x 4.195410 -0.095630 0.105260 
#    y -0.095630 4.381210 -0.261910 
#    z 0.105260 -0.261910 4.251030 
# 
# 
# High freq. dielectric constant tensor:
#      x y z
#    x 1.915180 -0.002890 0.004590 
#    y -0.002890 1.903700 -0.009470 
#    z 0.004590 -0.009470 1.919750 
# 
# From -- ./inp_files/71209.got.cif
#   From: 2010.06.25/outbox.cif.g09.slc.cpg/sg2_36_cif.got.tgz:71209.got - 2010.06.27 13:26:56.
