data_PCOD8034494
_publ_section_title
;
Structure prediction by ZEFSAII (Michael W. Deem and Ramdas Pophale) SiO2 
 PCOD8034494
Probable space group: P -1
;
_chemical_formula_sum "Si O2"
_cell_formula_units_Z 14
_cell_length_a 8.141537
_cell_length_b 9.502390
_cell_length_c 9.081315
_cell_angle_alpha 109.368142
_cell_angle_beta 108.937914
_cell_angle_gamma 95.267771
_cell_volume 611.070634
_symmetry_space_group_name_H-M "P -1"
_symmetry_group_IT_number 2
_symmetry_cell_setting 'triclinic'
loop_
_space_group_symop_operation_xyz
x,y,z
-x,-y,-z
loop_
_atom_site_type_symbol
_atom_site_label
_atom_site_fract_x
_atom_site_fract_y
_atom_site_fract_z
Si Si1 0.741038 0.145953 0.373145
Si Si2 0.621840 0.082167 0.871394
Si Si3 0.067810 0.244997 0.304171
Si Si4 0.474659 0.627142 0.923332
Si Si5 0.335418 0.543140 0.545369
Si Si6 0.853471 0.038996 0.667561
Si Si7 0.818537 0.851157 0.998019
O O1 0.665945 0.288744 0.458707
O O2 0.849706 0.086488 0.513904
O O3 0.868545 0.209377 0.295833
O O4 0.582883 0.010203 0.224126
O O5 0.705398 0.101573 0.738483
O O6 0.732588 0.992034 0.975836
O O7 0.624594 0.250297 0.991627
O O8 0.153918 0.423885 0.408455
O O9 0.060201 0.192622 0.112997
O O10 0.187810 0.145898 0.393252
O O11 0.353340 0.543458 0.726880
O O12 0.667257 0.704456 0.941772
O O13 0.500000 0.500000 0.000000
O O14 0.500000 0.500000 0.500000
O O15 0.054785 0.100490 0.807738
#
# Coordination Sequence:
#
# PCOD8034494 Si02
#       7
#     2   2   2   2   2   2   2
#     4  12  26  45  75 104 139 186 233 287 342 417
#     4  11  24  47  75 101 139 184 239 275 354 412
#     4  11  24  45  69 103 143 182 228 286 352 410
#     4  12  28  44  75 102 139 185 234 290 340 417
#     4  12  26  48  69 101 145 187 229 284 356 410
#     4  11  26  43  76 105 139 179 235 297 332 411
#     4  11  24  49  72 102 140 185 229 291 343 416
#
# _framework density 22.910609000000001
#
# number of rings (size 3 to 8) (size 9 to 14) (size 15 to 20)
#    0.000    0.571    2.857    5.143   10.000    0.000 
#    0.000    1.429    0.000    0.000    0.000    0.000 
#    0.000    0.000    0.000    0.000    0.000    0.000 
#
# Total GULP energy -173674.330395 kJ/mol
# GULP energy per Si atom -12405.309314 kJ/mol
# Density = 2.285846 g / cm^3
# Si number density = 22.910609 Si / 1000 Ang^3
#
#
#
# Elastic Constant Matrix: (Units=GPa)
#
#
# Indices 1 2 3 4 5 6 
#
# 1 100.2482 2.8977 10.1127 7.8308 -6.0901 -0.2594
# 2 2.8977 104.5397 31.0571 11.3532 -9.2578 -8.8722
# 3 10.1127 31.0571 101.3401 16.5722 9.4929 -8.2923
# 4 7.8308 11.3532 16.5722 29.1788 1.9340 -7.5788
# 5 -6.0901 -9.2578 9.4929 1.9340 34.7441 7.2760
# 6 -0.2594 -8.8722 -8.2923 -7.5788 7.2760 34.6528
#
#
#
# Elastic Compliance Matrix: (Units=1/GPa)
#
#
# Indices 1 2 3 4 5 6 
#
# 1 0.010454 0.000472 -0.001069 -0.002883 0.002672 -0.001248
# 2 0.000472 0.011260 -0.003383 -0.002686 0.004022 0.000645
# 3 -0.001069 -0.003383 0.012363 -0.004576 -0.004643 0.002058
# 4 -0.002883 -0.002686 -0.004576 0.041026 -0.003928 0.007993
# 5 0.002672 0.004022 -0.004643 -0.003928 0.033474 -0.007949
# 6 -0.001248 0.000645 0.002058 0.007993 -0.007949 0.032923
#
#
# Mechanical properties :
#
#
# Convention : Reuss Voigt Hill
#
# Bulk Modulus (GPa) = 38.28897 43.80700 41.04799
# Shear Modulus (GPa) = 31.61269 37.18584 34.39927
#
# Velocity S-wave (km/s) = 3.71863 4.03312 3.87907
# Velocity P-wave (km/s) = 5.93180 6.39144 6.16590
#
# Compressibility (1/GPa) = 0.02611718
#
# Stress axis : x y z
#
# Youngs Moduli (GPa) = 95.65964 88.80873 80.88832
#
# Poissons Ratio (x) = -0.04187 0.08644
# Poissons Ratio (y) = -0.04510 0.27362
# Poissons Ratio (z) = 0.10222 0.30041
#
# Static dielectric constant tensor:
#      x y z
#    x 4.413400 -0.003370 -0.215020 
#    y -0.003370 4.268810 0.250010 
#    z -0.215020 0.250010 4.286350 
# 
# 
# High freq. dielectric constant tensor:
#      x y z
#    x 1.923560 -0.003030 -0.009130 
#    y -0.003030 1.896110 0.011460 
#    z -0.009130 0.011460 1.912800 
# 
# From -- ./inp_files/159984.got.cif
#   From: 2010.06.25/outbox.cif.g09.slc.cpg/sg2_80_cif.got.tgz:159984.got - 2010.06.27 13:26:56.
