data_PCOD8034590
_publ_section_title
;
Structure prediction by ZEFSAII (Michael W. Deem and Ramdas Pophale) SiO2 
 PCOD8034590
Probable space group: P -1
;
_chemical_formula_sum "Si O2"
_cell_formula_units_Z 16
_cell_length_a 14.933639
_cell_length_b 26.146648
_cell_length_c 18.259340
_cell_angle_alpha 20.864048
_cell_angle_beta 20.975294
_cell_angle_gamma 19.345879
_cell_volume 754.822983
_symmetry_space_group_name_H-M "P -1"
_symmetry_group_IT_number 2
_symmetry_cell_setting 'triclinic'
loop_
_space_group_symop_operation_xyz
x,y,z
-x,-y,-z
loop_
_atom_site_type_symbol
_atom_site_label
_atom_site_fract_x
_atom_site_fract_y
_atom_site_fract_z
Si Si1 0.402079 0.619267 0.485651
Si Si2 0.304464 0.229427 0.671088
Si Si3 0.424484 0.616279 0.193089
Si Si4 0.621056 0.845881 0.962045
Si Si5 0.302841 0.188691 0.218623
Si Si6 0.207675 0.520616 0.164139
Si Si7 0.781678 0.799527 0.390248
Si Si8 0.761579 0.329419 0.204559
O O1 0.500000 0.500000 0.500000
O O2 0.550589 0.501905 0.600560
O O3 0.043321 0.740319 0.603055
O O4 0.522430 0.742866 0.223950
O O5 0.167392 0.246147 0.673479
O O6 0.601542 0.232903 0.432610
O O7 0.060840 0.385421 0.698268
O O8 0.393752 0.048860 0.880477
O O9 0.526900 0.506136 0.188493
O O10 0.079241 0.774767 0.232238
O O11 0.631195 0.688880 0.950193
O O12 0.612517 0.805270 0.937771
O O13 0.955812 0.793180 0.795324
O O14 0.500441 0.994204 0.359064
O O15 0.281077 0.330666 0.346662
O O16 0.500000 0.500000 0.000000
O O17 0.110334 0.630010 0.018220
#
# Coordination Sequence:
#
# PCOD8034590 Si02
#       8
#     2   2   2   2   2   2   2   2
#     4  12  24  45  72  99 135 177 225 272 339 401
#     4  11  25  45  66  99 140 173 225 277 335 395
#     4  12  23  46  71  97 137 176 227 274 333 402
#     4  11  25  42  70 101 133 176 221 281 336 392
#     4  11  25  46  69 100 140 171 221 284 335 393
#     4  12  24  42  67  96 134 181 224 269 334 400
#     4  11  24  45  71  99 136 180 221 279 335 391
#     4  12  24  43  69  98 133 181 224 273 336 399
#
# _framework density 21.197023000000002
#
# number of rings (size 3 to 8) (size 9 to 14) (size 15 to 20)
#    0.000    0.500    5.000    3.750    1.750    0.500 
#    0.000    1.250    0.000    0.000    0.000    0.000 
#    0.000    0.000    0.000    0.000    0.000    0.000 
#
# Total GULP energy -198509.591239 kJ/mol
# GULP energy per Si atom -12406.849452 kJ/mol
# Density = 2.114878 g / cm^3
# Si number density = 21.197023 Si / 1000 Ang^3
#
#
#
# Elastic Constant Matrix: (Units=GPa)
#
#
# Indices 1 2 3 4 5 6 
#
# 1 73.5561 32.2452 27.2983 -1.5632 -5.1981 -15.2368
# 2 32.2452 115.9779 42.0324 -3.1603 -0.1823 -17.4750
# 3 27.2983 42.0324 123.6497 -8.5018 -5.3890 -6.4772
# 4 -1.5632 -3.1603 -8.5018 37.1302 -4.4851 -5.2632
# 5 -5.1981 -0.1823 -5.3890 -4.4851 27.1735 9.6607
# 6 -15.2368 -17.4750 -6.4772 -5.2632 9.6607 36.1294
#
#
#
# Elastic Compliance Matrix: (Units=1/GPa)
#
#
# Indices 1 2 3 4 5 6 
#
# 1 0.016953 -0.003084 -0.002329 0.000767 0.001088 0.005061
# 2 -0.003084 0.011226 -0.002989 0.000446 -0.002580 0.004348
# 3 -0.002329 -0.002989 0.009800 0.002016 0.002149 -0.000952
# 4 0.000767 0.000446 0.002016 0.028497 0.003820 0.004030
# 5 0.001088 -0.002580 0.002149 0.003820 0.041985 -0.011074
# 6 0.005061 0.004348 -0.000952 0.004030 -0.011074 0.035293
#
#
# Mechanical properties :
#
#
# Convention : Reuss Voigt Hill
#
# Bulk Modulus (GPa) = 47.22671 57.37064 52.29867
# Shear Modulus (GPa) = 29.82972 34.19381 32.01177
#
# Velocity S-wave (km/s) = 3.75542 4.02075 3.89035
# Velocity P-wave (km/s) = 6.41346 6.97706 6.70119
#
# Compressibility (1/GPa) = 0.02117446
#
# Stress axis : x y z
#
# Youngs Moduli (GPa) = 58.98660 89.07531 102.03927
#
# Poissons Ratio (x) = 0.27472 0.23766
# Poissons Ratio (y) = 0.18192 0.30503
# Poissons Ratio (z) = 0.13739 0.26628
#
# Static dielectric constant tensor:
#      x y z
#    x 3.968870 -0.108110 0.046100 
#    y -0.108110 3.890020 -0.094600 
#    z 0.046100 -0.094600 3.954790 
# 
# 
# High freq. dielectric constant tensor:
#      x y z
#    x 1.838420 -0.012840 -0.007330 
#    y -0.012840 1.836870 -0.006130 
#    z -0.007330 -0.006130 1.838170 
# 
# From -- ./inp_files/70894.got.cif
#   From: 2010.06.25/outbox.cif.g09.slc.cpg/sg2_36_cif.got.tgz:70894.got - 2010.06.27 13:26:56.
