data_PCOD8034445
_publ_section_title
;
Structure prediction by ZEFSAII (Michael W. Deem and Ramdas Pophale) SiO2 
 PCOD8034445
Probable space group: P -1
;
_chemical_formula_sum "Si O2"
_cell_formula_units_Z 12
_cell_length_a 15.051865
_cell_length_b 5.720123
_cell_length_c 9.403361
_cell_angle_alpha 82.467135
_cell_angle_beta 51.867143
_cell_angle_gamma 118.443369
_cell_volume 441.638408
_symmetry_space_group_name_H-M "P -1"
_symmetry_group_IT_number 2
_symmetry_cell_setting 'triclinic'
loop_
_space_group_symop_operation_xyz
x,y,z
-x,-y,-z
loop_
_atom_site_type_symbol
_atom_site_label
_atom_site_fract_x
_atom_site_fract_y
_atom_site_fract_z
Si Si1 0.564598 0.181257 0.071605
Si Si2 0.328465 0.333662 0.644528
Si Si3 0.856948 0.970495 0.674827
Si Si4 0.182031 0.772720 0.048765
Si Si5 0.111117 0.383276 0.902735
Si Si6 0.756329 0.070401 0.488328
O O1 0.409464 0.030614 0.325687
O O2 0.690242 0.585382 0.899699
O O3 0.650266 0.087500 0.070475
O O4 0.500000 0.000000 0.000000
O O5 0.500000 0.500000 0.500000
O O6 0.295480 0.553477 0.705420
O O7 0.288818 0.238312 0.524682
O O8 0.205944 0.982322 0.877430
O O9 0.905316 0.213384 0.739549
O O10 0.836810 0.122390 0.553176
O O11 0.000000 0.000000 0.500000
O O12 0.077724 0.410055 0.099425
O O13 0.111109 0.586132 0.764954
O O14 0.000000 0.000000 0.000000
#
# Coordination Sequence:
#
# PCOD8034445 Si02
#       6
#     2   2   2   2   2   2
#     4  12  26  49  81 118 159 209 262 323 394 481
#     4  11  24  44  77 113 151 199 261 328 390 471
#     4  12  29  51  79 118 163 210 267 331 398 472
#     4  11  25  49  79 112 161 203 266 325 399 465
#     4  11  27  51  78 116 158 209 266 330 396 471
#     4  11  26  48  82 114 158 209 265 323 399 469
#
# _framework density 27.17155
#
# number of rings (size 3 to 8) (size 9 to 14) (size 15 to 20)
#    0.000    0.667    1.667    4.500    4.667   10.000 
#    3.000    3.333    0.000    0.000    0.000    0.000 
#    0.000    0.000    0.000    0.000    0.000    0.000 
#
# Total GULP energy -148739.375896 kJ/mol
# GULP energy per Si atom -12394.947991 kJ/mol
# Density = 2.710971 g / cm^3
# Si number density = 27.171550 Si / 1000 Ang^3
#
#
#
# Elastic Constant Matrix: (Units=GPa)
#
#
# Indices 1 2 3 4 5 6 
#
# 1 135.3035 52.7422 27.6214 24.0643 -14.1830 -9.8077
# 2 52.7422 197.3719 60.5659 48.0967 -1.6303 21.6153
# 3 27.6214 60.5659 125.4175 20.5245 -3.6493 12.7184
# 4 24.0643 48.0967 20.5245 60.6417 -1.8057 -3.8687
# 5 -14.1830 -1.6303 -3.6493 -1.8057 57.2959 9.9448
# 6 -9.8077 21.6153 12.7184 -3.8687 9.9448 40.3978
#
#
#
# Elastic Compliance Matrix: (Units=1/GPa)
#
#
# Indices 1 2 3 4 5 6 
#
# 1 0.009048 -0.002112 -0.001032 -0.001320 0.001526 0.003149
# 2 -0.002112 0.008039 -0.002095 -0.005122 0.000227 -0.004700
# 3 -0.001032 -0.002095 0.009706 -0.001351 0.000692 -0.002485
# 4 -0.001320 -0.005122 -0.001351 0.021838 -0.000760 0.005124
# 5 0.001526 0.000227 0.000692 -0.000760 0.018662 -0.004636
# 6 0.003149 -0.004700 -0.002485 0.005124 -0.004636 0.030448
#
#
# Mechanical properties :
#
#
# Convention : Reuss Voigt Hill
#
# Bulk Modulus (GPa) = 61.29732 82.21687 71.75709
# Shear Modulus (GPa) = 43.99264 52.81131 48.40197
#
# Velocity S-wave (km/s) = 4.02813 4.41344 4.22518
# Velocity P-wave (km/s) = 6.65153 7.50303 7.09007
#
# Compressibility (1/GPa) = 0.01631393
#
# Stress axis : x y z
#
# Youngs Moduli (GPa) = 110.52713 124.39976 103.03124
#
# Poissons Ratio (x) = 0.26270 0.10631
# Poissons Ratio (y) = 0.23341 0.21590
# Poissons Ratio (z) = 0.11404 0.26067
#
# Static dielectric constant tensor:
#      x y z
#    x 5.698880 -0.429100 -0.394790 
#    y -0.429100 5.484960 0.254480 
#    z -0.394790 0.254480 4.727950 
# 
# 
# High freq. dielectric constant tensor:
#      x y z
#    x 2.127950 0.000300 -0.016220 
#    y 0.000300 2.103860 0.016130 
#    z -0.016220 0.016130 2.102140 
# 
# From -- ./inp_files/288581.got.cif
#   From: 2010.06.25/outbox.cif.g09.slc.cpg/sg2_145_cif.got.tgz:288581.got - 2010.06.27 13:26:56.
