data_PCOD8034368
_publ_section_title
;
Structure prediction by ZEFSAII (Michael W. Deem and Ramdas Pophale) SiO2 
 PCOD8034368
Probable space group: P -1
;
_chemical_formula_sum "Si O2"
_cell_formula_units_Z 12
_cell_length_a 8.949961
_cell_length_b 9.913587
_cell_length_c 12.787576
_cell_angle_alpha 33.273846
_cell_angle_beta 78.157194
_cell_angle_gamma 63.282116
_cell_volume 521.217442
_symmetry_space_group_name_H-M "P -1"
_symmetry_group_IT_number 2
_symmetry_cell_setting 'triclinic'
loop_
_space_group_symop_operation_xyz
x,y,z
-x,-y,-z
loop_
_atom_site_type_symbol
_atom_site_label
_atom_site_fract_x
_atom_site_fract_y
_atom_site_fract_z
Si Si1 0.453505 0.681054 0.170296
Si Si2 0.118369 0.319838 0.291083
Si Si3 0.940659 0.751780 0.429732
Si Si4 0.326339 0.615506 0.021091
Si Si5 0.762265 0.157798 0.570452
Si Si6 0.264397 0.168845 0.028086
O O1 0.570834 0.439293 0.395410
O O2 0.284890 0.936125 0.090069
O O3 0.379873 0.564362 0.167857
O O4 0.564310 0.800020 0.019060
O O5 0.158906 0.290438 0.429190
O O6 0.163692 0.010802 0.440671
O O7 0.227741 0.437026 0.135836
O O8 0.908558 0.529130 0.168056
O O9 0.000000 0.500000 0.500000
O O10 0.111812 0.747958 0.454261
O O11 0.809729 0.051014 0.198342
O O12 0.500000 0.500000 0.000000
O O13 0.742566 0.936346 0.788268
#
# Coordination Sequence:
#
# PCOD8034368 Si02
#       6
#     2   2   2   2   2   2
#     4  11  26  44  70 107 144 182 238 293 344 421
#     4  12  26  47  76 102 144 192 233 287 359 421
#     4  12  28  46  74 107 143 185 240 290 353 422
#     4  12  28  47  71 107 146 182 238 299 351 412
#     4  12  25  46  75 103 139 191 239 282 351 428
#     4  11  24  44  73 102 140 190 233 285 352 420
#
# _framework density 23.023021
#
# number of rings (size 3 to 8) (size 9 to 14) (size 15 to 20)
#    0.000    0.333    3.333    4.500    7.000    5.333 
#    0.000    0.000    0.000    0.000    0.000    0.000 
#    0.000    0.000    0.000    0.000    0.000    0.000 
#
# Total GULP energy -148854.381756 kJ/mol
# GULP energy per Si atom -12404.531813 kJ/mol
# Density = 2.297062 g / cm^3
# Si number density = 23.023021 Si / 1000 Ang^3
#
#
#
# Elastic Constant Matrix: (Units=GPa)
#
#
# Indices 1 2 3 4 5 6 
#
# 1 69.8329 27.0746 27.1928 -1.7515 -0.4606 10.7677
# 2 27.0746 102.7186 19.8148 6.1655 -22.4913 25.1501
# 3 27.1928 19.8148 106.2758 2.4612 3.9430 9.9997
# 4 -1.7515 6.1655 2.4612 37.1883 5.9214 -4.5929
# 5 -0.4606 -22.4913 3.9430 5.9214 29.1037 4.2825
# 6 10.7677 25.1501 9.9997 -4.5929 4.2825 36.0704
#
#
#
# Elastic Compliance Matrix: (Units=1/GPa)
#
#
# Indices 1 2 3 4 5 6 
#
# 1 0.017623 -0.004793 -0.003522 0.002369 -0.003395 -0.000238
# 2 -0.004793 0.019796 -0.001549 -0.008384 0.019391 -0.015312
# 3 -0.003522 -0.001549 0.010756 -0.000284 -0.002567 -0.000582
# 4 0.002369 -0.008384 -0.000284 0.032091 -0.014555 0.011031
# 5 -0.003395 0.019391 -0.002567 -0.014555 0.055580 -0.020247
# 6 -0.000238 -0.015312 -0.000582 0.011031 -0.020247 0.042441
#
#
# Mechanical properties :
#
#
# Convention : Reuss Voigt Hill
#
# Bulk Modulus (GPa) = 35.15355 47.44352 41.29853
# Shear Modulus (GPa) = 24.09676 34.12216 29.10946
#
# Velocity S-wave (km/s) = 3.23869 3.85397 3.55965
# Velocity P-wave (km/s) = 5.41179 6.36049 5.90522
#
# Compressibility (1/GPa) = 0.02844663
#
# Stress axis : x y z
#
# Youngs Moduli (GPa) = 56.74274 50.51627 92.97092
#
# Poissons Ratio (x) = 0.24213 0.32746
# Poissons Ratio (y) = 0.27197 0.14401
# Poissons Ratio (z) = 0.19986 0.07825
#
# Static dielectric constant tensor:
#      x y z
#    x 4.028780 -0.025280 -0.028920 
#    y -0.025280 4.368480 0.074440 
#    z -0.028920 0.074440 4.248340 
# 
# 
# High freq. dielectric constant tensor:
#      x y z
#    x 1.904350 0.000020 -0.003090 
#    y 0.000020 1.925570 0.001250 
#    z -0.003090 0.001250 1.924510 
# 
# From -- ./inp_files/148596.got.cif
#   From: 2010.06.25/outbox.cif.g09.slc.cpg/sg2_75_cif.got.tgz:148596.got - 2010.06.27 13:26:56.
