data_PCOD8034434
_publ_section_title
;
Structure prediction by ZEFSAII (Michael W. Deem and Ramdas Pophale) SiO2 
 PCOD8034434
Probable space group: P -1
;
_chemical_formula_sum "Si O2"
_cell_formula_units_Z 14
_cell_length_a 10.099106
_cell_length_b 20.211718
_cell_length_c 7.997347
_cell_angle_alpha 144.837658
_cell_angle_beta 50.244429
_cell_angle_gamma 142.808066
_cell_volume 567.956972
_symmetry_space_group_name_H-M "P -1"
_symmetry_group_IT_number 2
_symmetry_cell_setting 'triclinic'
loop_
_space_group_symop_operation_xyz
x,y,z
-x,-y,-z
loop_
_atom_site_type_symbol
_atom_site_label
_atom_site_fract_x
_atom_site_fract_y
_atom_site_fract_z
Si Si1 0.289511 0.968481 0.806016
Si Si2 0.248861 0.386376 0.922681
Si Si3 0.835502 0.693381 0.524956
Si Si4 0.102912 0.437639 0.477855
Si Si5 0.798153 0.888958 0.548153
Si Si6 0.535459 0.268657 0.073050
Si Si7 0.371894 0.757264 0.415957
O O1 0.402710 0.906830 0.677395
O O2 0.196212 0.015465 0.115746
O O3 0.464300 0.108139 0.838986
O O4 0.082590 0.840159 0.600977
O O5 0.212745 0.413120 0.813860
O O6 0.167959 0.222223 0.633362
O O7 0.500000 0.500000 0.000000
O O8 0.107923 0.392038 0.190226
O O9 0.814540 0.619261 0.566234
O O10 0.667193 0.729290 0.737542
O O11 0.266530 0.613785 0.720275
O O12 0.852641 0.369792 0.572003
O O13 0.568706 0.791744 0.437476
O O14 0.000000 0.000000 0.500000
O O15 0.628140 0.309347 0.896260
#
# Coordination Sequence:
#
# PCOD8034434 Si02
#       7
#     2   2   2   2   2   2   2
#     4  11  24  45  65 107 137 182 234 291 347 407
#     4  12  25  46  73 108 137 183 239 290 344 415
#     4  11  24  44  76 101 143 180 239 290 344 412
#     4  11  25  48  68 106 142 186 230 291 354 412
#     4  12  25  46  73 100 138 184 235 290 351 419
#     4  12  22  44  71 100 139 183 235 283 346 418
#     4  11  26  44  68 100 146 183 229 287 358 413
#
# _framework density 24.649751999999999
#
# number of rings (size 3 to 8) (size 9 to 14) (size 15 to 20)
#    0.000    0.571    2.857    5.571    4.000    0.000 
#    5.143    1.429    0.000    0.000    0.000    0.000 
#    0.000    0.000    0.000    0.000    0.000    0.000 
#
# Total GULP energy -173652.562214 kJ/mol
# GULP energy per Si atom -12403.754444 kJ/mol
# Density = 2.459365 g / cm^3
# Si number density = 24.649752 Si / 1000 Ang^3
#
#
#
# Elastic Constant Matrix: (Units=GPa)
#
#
# Indices 1 2 3 4 5 6 
#
# 1 118.3961 -388.9081 323.9432 -202.7057 -225.1292 -90.0000
# 2 -388.9081 2661.7294-1911.8181 1244.8262 1516.5819 614.1911
# 3 323.9432-1911.8181 1580.4036 -967.5532-1123.2120 -470.9640
# 4 -202.7057 1244.8262 -967.5532 667.5452 739.7851 302.2188
# 5 -225.1292 1516.5819-1123.2120 739.7851 943.4033 362.3867
# 6 -90.0000 614.1911 -470.9640 302.2188 362.3867 184.1730
#
#
#
# Elastic Compliance Matrix: (Units=1/GPa)
#
#
# Indices 1 2 3 4 5 6 
#
# 1 0.019940 0.000321 -0.004143 0.002320 -0.001267 -0.003235
# 2 0.000321 0.005982 0.001594 -0.001690 -0.005509 -0.002104
# 3 -0.004143 0.001594 0.008186 0.005108 0.000770 0.003696
# 4 0.002320 -0.001690 0.005108 0.018608 -0.004621 -0.001610
# 5 -0.001267 -0.005509 0.000770 -0.004621 0.015013 -0.002235
# 6 -0.003235 -0.002104 0.003696 -0.001610 -0.002235 0.027357
#
#
# Mechanical properties :
#
#
# Convention : Reuss Voigt Hill
#
# Bulk Modulus (GPa) = 33.72385 45.21814 39.47099
# Shear Modulus (GPa) = 45.69312 781.51178 413.60245
#
# Velocity S-wave (km/s) = 4.31013 17.82512 12.96750
# Velocity P-wave (km/s) = 6.20327 21.02452 15.50018
#
# Compressibility (1/GPa) = 0.02965261
#
# Stress axis : x y z
#
# Youngs Moduli (GPa) = 50.14940 167.15985 122.16342
#
# Poissons Ratio (x) = -0.05369 0.50610
# Poissons Ratio (y) = -0.01611 -0.19469
# Poissons Ratio (z) = 0.20776 -0.26640
#
# Static dielectric constant tensor:
#      x y z
#    x 4.287710 -0.128750 -0.117730 
#    y -0.128750 4.640500 0.044950 
#    z -0.117730 0.044950 4.551690 
# 
# 
# High freq. dielectric constant tensor:
#      x y z
#    x 1.977780 -0.004030 0.005950 
#    y -0.004030 1.997070 -0.000920 
#    z 0.005950 -0.000920 1.996240 
# 
# From -- ./inp_files/285229.got.cif
#   From: 2010.06.25/outbox.cif.g09.slc.cpg/sg2_143_cif.got.tgz:285229.got - 2010.06.27 13:26:56.
