data_PCOD8034276
_publ_section_title
;
Structure prediction by ZEFSAII (Michael W. Deem and Ramdas Pophale) SiO2 
 PCOD8034276
Probable space group: P -1
;
_chemical_formula_sum "Si O2"
_cell_formula_units_Z 16
_cell_length_a 5.039756
_cell_length_b 11.778855
_cell_length_c 25.507277
_cell_angle_alpha 28.826445
_cell_angle_beta 65.630396
_cell_angle_gamma 63.454232
_cell_volume 652.325716
_symmetry_space_group_name_H-M "P -1"
_symmetry_group_IT_number 2
_symmetry_cell_setting 'triclinic'
loop_
_space_group_symop_operation_xyz
x,y,z
-x,-y,-z
loop_
_atom_site_type_symbol
_atom_site_label
_atom_site_fract_x
_atom_site_fract_y
_atom_site_fract_z
Si Si1 0.570325 0.185021 0.299040
Si Si2 0.442001 0.528024 0.258583
Si Si3 0.788741 0.976641 0.891007
Si Si4 0.602984 0.555925 0.411883
Si Si5 0.730111 0.684385 0.544409
Si Si6 0.192942 0.319136 0.182729
Si Si7 0.565577 0.076569 0.162204
Si Si8 0.900475 0.779431 0.068366
O O1 0.373504 0.399976 0.262361
O O2 0.379351 0.136753 0.283883
O O3 0.868494 0.263410 0.223246
O O4 0.654848 0.953367 0.421473
O O5 0.476489 0.329770 0.381985
O O6 0.734919 0.642842 0.179816
O O7 0.185470 0.746419 0.210794
O O8 0.556391 0.953174 0.874102
O O9 0.692366 0.872792 0.996521
O O10 0.117113 0.845474 0.900339
O O11 0.500000 0.500000 0.500000
O O12 0.348796 0.497898 0.418204
O O13 0.601780 0.836163 0.291210
O O14 0.921773 0.390874 0.439736
O O15 0.176373 0.587899 0.098457
O O16 0.354656 0.288479 0.125714
O O17 0.000000 0.000000 0.000000
#
# Coordination Sequence:
#
# PCOD8034276 Si02
#       8
#     2   2   2   2   2   2   2   2
#     4  11  24  44  70 105 143 186 230 288 354 419
#     4  11  24  46  70 104 142 182 236 295 346 422
#     4  12  25  44  72 101 140 183 236 292 350 408
#     4  12  24  42  68 100 144 188 231 279 342 424
#     4  12  24  42  70 105 139 185 235 282 353 415
#     4  11  26  47  71 103 144 183 233 290 352 417
#     4  12  24  45  68 102 143 180 233 291 343 420
#     4  11  26  48  77 104 137 189 238 296 358 415
#
# _framework density 24.527623999999999
#
# number of rings (size 3 to 8) (size 9 to 14) (size 15 to 20)
#    0.000    0.500    2.500    5.625    0.000    7.000 
#    0.000    4.375    0.000    0.000    0.000    0.000 
#    0.000    0.000    0.000    0.000    0.000    0.000 
#
# Total GULP energy -198397.178934 kJ/mol
# GULP energy per Si atom -12399.823683 kJ/mol
# Density = 2.447180 g / cm^3
# Si number density = 24.527624 Si / 1000 Ang^3
#
#
#
# Elastic Constant Matrix: (Units=GPa)
#
#
# Indices 1 2 3 4 5 6 
#
# 1 82.5628 16.7357 7.4831 10.4357 14.1675 2.5574
# 2 16.7357 134.1153 24.5835 9.0723 1.0351 -1.9874
# 3 7.4831 24.5835 83.9525 13.9552 4.3103 -1.9470
# 4 10.4357 9.0723 13.9552 47.3609 2.0637 4.7649
# 5 14.1675 1.0351 4.3103 2.0637 36.9415 3.9863
# 6 2.5574 -1.9874 -1.9470 4.7649 3.9863 28.7899
#
#
#
# Elastic Compliance Matrix: (Units=1/GPa)
#
#
# Indices 1 2 3 4 5 6 
#
# 1 0.013594 -0.001474 -0.000124 -0.002437 -0.004998 -0.000222
# 2 -0.001474 0.008082 -0.002138 -0.000676 0.000564 0.000578
# 3 -0.000124 -0.002138 0.013249 -0.003561 -0.001406 0.001543
# 4 -0.002437 -0.000676 -0.003561 0.023209 0.000502 -0.003982
# 5 -0.004998 0.000564 -0.001406 0.000502 0.029515 -0.003782
# 6 -0.000222 0.000578 0.001543 -0.003982 -0.003782 0.036081
#
#
# Mechanical properties :
#
#
# Convention : Reuss Voigt Hill
#
# Bulk Modulus (GPa) = 36.42527 44.24835 40.33681
# Shear Modulus (GPa) = 35.62455 39.40701 37.51578
#
# Velocity S-wave (km/s) = 3.81520 4.01264 3.91517
# Velocity P-wave (km/s) = 5.85582 6.28870 6.07612
#
# Compressibility (1/GPa) = 0.02745347
#
# Stress axis : x y z
#
# Youngs Moduli (GPa) = 73.55985 123.73041 75.47954
#
# Poissons Ratio (x) = 0.18233 0.00934
# Poissons Ratio (y) = 0.10840 0.16141
# Poissons Ratio (z) = 0.00910 0.26459
#
# Static dielectric constant tensor:
#      x y z
#    x 4.175910 -0.021060 0.192580 
#    y -0.021060 4.632610 0.062310 
#    z 0.192580 0.062310 4.704050 
# 
# 
# High freq. dielectric constant tensor:
#      x y z
#    x 1.961000 -0.000620 0.007590 
#    y -0.000620 1.988040 0.007880 
#    z 0.007590 0.007880 1.990290 
# 
# From -- ./inp_files/604365.got.cif
#   From: 2010.06.25/outbox.cif.g09.slc.cpg/sg2_303_cif.got.tgz:604365.got - 2010.06.27 13:26:56.
