data_PCOD8034682
_publ_section_title
;
Structure prediction by ZEFSAII (Michael W. Deem and Ramdas Pophale) SiO2 
 PCOD8034682
Probable space group: P -1
;
_chemical_formula_sum "Si O2"
_cell_formula_units_Z 14
_cell_length_a 6.472393
_cell_length_b 13.772365
_cell_length_c 11.429491
_cell_angle_alpha 55.124962
_cell_angle_beta 58.061566
_cell_angle_gamma 95.683804
_cell_volume 579.465854
_symmetry_space_group_name_H-M "P -1"
_symmetry_group_IT_number 2
_symmetry_cell_setting 'triclinic'
loop_
_space_group_symop_operation_xyz
x,y,z
-x,-y,-z
loop_
_atom_site_type_symbol
_atom_site_label
_atom_site_fract_x
_atom_site_fract_y
_atom_site_fract_z
Si Si1 0.612232 0.245661 0.991569
Si Si2 0.282240 0.083446 0.516381
Si Si3 0.824931 0.365686 0.229869
Si Si4 0.062906 0.191319 0.328256
Si Si5 0.223686 0.954855 0.866628
Si Si6 0.734027 0.465686 0.416532
Si Si7 0.563676 0.816098 0.172906
O O1 0.486191 0.167479 0.958581
O O2 0.922229 0.400148 0.775430
O O3 0.366936 0.258536 0.117997
O O4 0.653330 0.141306 0.132637
O O5 0.605504 0.232419 0.301961
O O6 0.060880 0.121163 0.501169
O O7 0.226925 0.047642 0.694545
O O8 0.226388 0.942992 0.562484
O O9 0.659593 0.399595 0.352848
O O10 0.027454 0.322485 0.264143
O O11 0.000000 0.500000 0.000000
O O12 0.432566 0.064532 0.832024
O O13 0.881391 0.841849 0.085300
O O14 0.500000 0.500000 0.500000
O O15 0.697631 0.345995 0.598184
#
# Coordination Sequence:
#
# PCOD8034682 Si02
#       7
#     2   2   2   2   2   2   2
#     4  12  26  45  78 108 153 189 253 308 367 449
#     4  11  25  47  78 106 151 190 249 309 367 446
#     4  12  29  51  77 106 154 197 247 308 374 448
#     4  11  28  47  76 116 139 197 250 310 374 436
#     4  11  24  45  74 110 149 192 245 312 373 430
#     4  12  27  50  73 108 147 204 244 302 376 439
#     4  11  24  47  72 109 146 196 250 303 369 443
#
# _framework density 24.160178999999999
#
# number of rings (size 3 to 8) (size 9 to 14) (size 15 to 20)
#    0.000    0.571    4.286    2.143   10.000    2.286 
#   10.286    0.000    0.000    0.000    0.000    0.000 
#    0.000    0.000    0.000    0.000    0.000    0.000 
#
# Total GULP energy -173576.438787 kJ/mol
# GULP energy per Si atom -12398.317056 kJ/mol
# Density = 2.410519 g / cm^3
# Si number density = 24.160179 Si / 1000 Ang^3
#
#
#
# Elastic Constant Matrix: (Units=GPa)
#
#
# Indices 1 2 3 4 5 6 
#
# 1 83.3319 62.1397 46.8455 -10.3790 9.1435 8.3058
# 2 62.1397 127.3951 54.7380 -1.7243 -0.9932 -10.3400
# 3 46.8455 54.7380 145.7930 -13.5378 -6.2786 -2.7426
# 4 -10.3790 -1.7243 -13.5378 40.4861 11.0355 2.0743
# 5 9.1435 -0.9932 -6.2786 11.0355 48.3639 -3.1589
# 6 8.3058 -10.3400 -2.7426 2.0743 -3.1589 41.3510
#
#
#
# Elastic Compliance Matrix: (Units=1/GPa)
#
#
# Indices 1 2 3 4 5 6 
#
# 1 0.025281 -0.011471 -0.003639 0.007361 -0.007765 -0.009150
# 2 -0.011471 0.014785 -0.001988 -0.004285 0.003607 0.006360
# 3 -0.003639 -0.001988 0.008999 0.001532 0.001523 0.000870
# 4 0.007361 -0.004285 0.001532 0.029409 -0.008289 -0.004557
# 5 -0.007765 0.003607 0.001523 -0.008289 0.024625 0.004860
# 6 -0.009150 0.006360 0.000870 -0.004557 0.004860 0.028269
#
#
# Mechanical properties :
#
#
# Convention : Reuss Voigt Hill
#
# Bulk Modulus (GPa) = 67.25855 75.99626 71.62741
# Shear Modulus (GPa) = 29.32174 38.89331 34.10753
#
# Velocity S-wave (km/s) = 3.48751 4.01660 3.76137
# Velocity P-wave (km/s) = 6.64199 7.28246 6.96958
#
# Compressibility (1/GPa) = 0.01486800
#
# Stress axis : x y z
#
# Youngs Moduli (GPa) = 39.55591 67.63385 111.12246
#
# Poissons Ratio (x) = 0.77583 0.40440
# Poissons Ratio (y) = 0.45375 0.22094
# Poissons Ratio (z) = 0.14395 0.13448
#
# Static dielectric constant tensor:
#      x y z
#    x 4.373820 0.180320 0.000490 
#    y 0.180320 4.341720 -0.150870 
#    z 0.000490 -0.150870 4.446720 
# 
# 
# High freq. dielectric constant tensor:
#      x y z
#    x 1.956600 0.006620 0.003360 
#    y 0.006620 1.956700 -0.008210 
#    z 0.003360 -0.008210 1.977690 
# 
# From -- ./inp_files/367446.got.cif
#   From: 2010.06.25/outbox.cif.g09.slc.cpg/sg2_184_cif.got.tgz:367446.got - 2010.06.27 13:26:56.
