data_PCOD8034529
_publ_section_title
;
Structure prediction by ZEFSAII (Michael W. Deem and Ramdas Pophale) SiO2 
 PCOD8034529
Probable space group: P -1
;
_chemical_formula_sum "Si O2"
_cell_formula_units_Z 12
_cell_length_a 9.840006
_cell_length_b 9.054218
_cell_length_c 9.143031
_cell_angle_alpha 111.967518
_cell_angle_beta 47.458630
_cell_angle_gamma 112.835964
_cell_volume 545.603018
_symmetry_space_group_name_H-M "P -1"
_symmetry_group_IT_number 2
_symmetry_cell_setting 'triclinic'
loop_
_space_group_symop_operation_xyz
x,y,z
-x,-y,-z
loop_
_atom_site_type_symbol
_atom_site_label
_atom_site_fract_x
_atom_site_fract_y
_atom_site_fract_z
Si Si1 0.139560 0.223192 0.518883
Si Si2 0.183990 0.895012 0.485934
Si Si3 0.480917 0.420685 0.204065
Si Si4 0.808116 0.059129 0.166412
Si Si5 0.868264 0.334487 0.990164
Si Si6 0.521670 0.748396 0.149683
O O1 0.314551 0.373630 0.427833
O O2 0.032917 0.180928 0.425100
O O3 0.981026 0.252131 0.758125
O O4 0.233667 0.076141 0.451374
O O5 0.229802 0.895501 0.623920
O O6 0.315765 0.783095 0.276422
O O7 0.515490 0.614742 0.232431
O O8 0.672857 0.368853 0.087924
O O9 0.401679 0.324602 0.078569
O O10 0.647677 0.916895 0.169953
O O11 0.820471 0.219190 0.121210
O O12 0.000000 0.000000 0.000000
O O13 0.000000 0.500000 0.000000
#
# Coordination Sequence:
#
# PCOD8034529 Si02
#       6
#     2   2   2   2   2   2
#     4  11  25  46  74 101 136 183 231 281 345 408
#     4  11  24  45  70 104 133 184 234 276 345 409
#     4  11  26  46  70 102 143 181 228 285 341 410
#     4  12  24  44  70 101 142 178 229 286 339 410
#     4  12  27  47  71 104 140 179 228 288 345 404
#     4  11  25  45  70 103 139 184 230 281 345 404
#
# _framework density 21.994014
#
# number of rings (size 3 to 8) (size 9 to 14) (size 15 to 20)
#    0.000    0.667    3.333    3.500    4.667    4.000 
#    0.000    0.000    0.000    0.000    0.000    0.000 
#    0.000    0.000    0.000    0.000    0.000    0.000 
#
# Total GULP energy -148827.911237 kJ/mol
# GULP energy per Si atom -12402.325936 kJ/mol
# Density = 2.194396 g / cm^3
# Si number density = 21.994014 Si / 1000 Ang^3
#
#
#
# Elastic Constant Matrix: (Units=GPa)
#
#
# Indices 1 2 3 4 5 6 
#
# 1 108.4985 61.6469 34.3885 -9.2252 -3.2925 -17.5541
# 2 61.6469 158.9781 30.9660 -13.7098 -1.9399 -16.1933
# 3 34.3885 30.9660 67.2428 -9.5378 -11.7950 -6.2894
# 4 -9.2252 -13.7098 -9.5378 34.9036 0.0611 -3.0964
# 5 -3.2925 -1.9399 -11.7950 0.0611 40.1522 11.6225
# 6 -17.5541 -16.1933 -6.2894 -3.0964 11.6225 44.7257
#
#
#
# Elastic Compliance Matrix: (Units=1/GPa)
#
#
# Indices 1 2 3 4 5 6 
#
# 1 0.013638 -0.003865 -0.004977 0.001061 -0.001617 0.003747
# 2 -0.003865 0.008437 -0.001622 0.001999 -0.000874 0.001675
# 3 -0.004977 -0.001622 0.019504 0.003278 0.005530 -0.001008
# 4 0.001061 0.001999 0.003278 0.030944 0.000017 0.003739
# 5 -0.001617 -0.000874 0.005530 0.000017 0.028552 -0.007592
# 6 0.003747 0.001675 -0.001008 0.003739 -0.007592 0.026525
#
#
# Mechanical properties :
#
#
# Convention : Reuss Voigt Hill
#
# Bulk Modulus (GPa) = 48.42311 65.41358 56.91835
# Shear Modulus (GPa) = 32.17236 37.80416 34.98826
#
# Velocity S-wave (km/s) = 3.82878 4.15039 3.99282
# Velocity P-wave (km/s) = 6.45061 7.26455 6.86964
#
# Compressibility (1/GPa) = 0.02065129
#
# Stress axis : x y z
#
# Youngs Moduli (GPa) = 73.32532 118.52086 51.27092
#
# Poissons Ratio (x) = 0.45814 0.25517
# Poissons Ratio (y) = 0.28344 0.08314
# Poissons Ratio (z) = 0.36494 0.19219
#
# Static dielectric constant tensor:
#      x y z
#    x 0.940150 0.138650 -0.615820 
#    y 0.138650 3.940880 0.182830 
#    z -0.615820 0.182830 3.870530 
# 
# 
# High freq. dielectric constant tensor:
#      x y z
#    x 1.879620 -0.005810 -0.006500 
#    y -0.005810 1.872630 0.001980 
#    z -0.006500 0.001980 1.869030 
# 
# From -- ./inp_files/147628.got.cif
#   From: 2010.06.25/outbox.cif.g09.slc.cpg/sg2_74_cif.got.tgz:147628.got - 2010.06.27 13:26:56.
