data_PCOD8034900
_publ_section_title
;
Structure prediction by ZEFSAII (Michael W. Deem and Ramdas Pophale) SiO2 
 PCOD8034900
Probable space group: P -1
;
_chemical_formula_sum "Si O2"
_cell_formula_units_Z 14
_cell_length_a 8.667204
_cell_length_b 13.420331
_cell_length_c 14.336047
_cell_angle_alpha 148.937877
_cell_angle_beta 48.654715
_cell_angle_gamma 111.336038
_cell_volume 551.112113
_symmetry_space_group_name_H-M "P -1"
_symmetry_group_IT_number 2
_symmetry_cell_setting 'triclinic'
loop_
_space_group_symop_operation_xyz
x,y,z
-x,-y,-z
loop_
_atom_site_type_symbol
_atom_site_label
_atom_site_fract_x
_atom_site_fract_y
_atom_site_fract_z
Si Si1 0.173465 0.893024 0.207015
Si Si2 0.332839 0.155088 0.061054
Si Si3 0.622404 0.201488 0.367191
Si Si4 0.863099 0.414200 0.167521
Si Si5 0.620377 0.893099 0.269439
Si Si6 0.844566 0.477851 0.436566
Si Si7 0.295544 0.731029 0.221311
O O1 0.210504 0.723890 0.143813
O O2 0.398889 0.922864 0.135817
O O3 0.141918 0.795247 0.044663
O O4 0.936942 0.141554 0.516629
O O5 0.278343 0.255836 0.269718
O O6 0.132002 0.361230 0.241732
O O7 0.306212 0.940556 0.873529
O O8 0.332726 0.357070 0.622462
O O9 0.742148 0.354792 0.444755
O O10 0.711684 0.033601 0.286053
O O11 0.772736 0.455775 0.343686
O O12 0.138953 0.355320 0.004295
O O13 0.422536 0.877635 0.276442
O O14 0.500000 0.000000 0.500000
O O15 0.500000 0.500000 0.000000
#
# Coordination Sequence:
#
# PCOD8034900 Si02
#       7
#     2   2   2   2   2   2   2
#     4  11  24  47  69 111 149 184 248 308 356 449
#     4  11  24  46  74 107 147 192 249 297 365 444
#     4  12  26  47  77 105 152 194 243 304 367 435
#     4  12  26  45  76 108 149 188 250 300 371 438
#     4  12  27  48  70 109 142 193 248 300 371 442
#     4  11  25  50  74 109 150 198 244 304 367 443
#     4  11  26  46  74 104 149 195 245 302 375 431
#
# _framework density 25.403178
#
# number of rings (size 3 to 8) (size 9 to 14) (size 15 to 20)
#    0.000    0.571    5.714    0.857    4.000    1.143 
#    0.000    0.000    0.000    0.000    0.000    0.000 
#    0.000    0.000    0.000    0.000    0.000    0.000 
#
# Total GULP energy -173492.681318 kJ/mol
# GULP energy per Si atom -12392.334380 kJ/mol
# Density = 2.534536 g / cm^3
# Si number density = 25.403178 Si / 1000 Ang^3
#
#
#
# Elastic Constant Matrix: (Units=GPa)
#
#
# Indices 1 2 3 4 5 6 
#
# 1 118.0996 21.2605 57.9322 -15.7819 5.3724 -5.0590
# 2 21.2605 46.0115 18.7114 -6.9400 4.8821 -6.9742
# 3 57.9322 18.7114 167.7521 -1.8392 -11.9882 -6.9317
# 4 -15.7819 -6.9400 -1.8392 22.2370 -0.7520 -1.6912
# 5 5.3724 4.8821 -11.9882 -0.7520 70.1231 -9.3713
# 6 -5.0590 -6.9742 -6.9317 -1.6912 -9.3713 38.8492
#
#
#
# Elastic Compliance Matrix: (Units=1/GPa)
#
#
# Indices 1 2 3 4 5 6 
#
# 1 0.011845 -0.002645 -0.003788 0.007257 -0.001238 0.000409
# 2 -0.002645 0.025321 -0.001777 0.006127 -0.001285 0.003841
# 3 -0.003788 -0.001777 0.007605 -0.002486 0.001804 0.000872
# 4 0.007257 0.006127 -0.002486 0.052104 -0.000343 0.003787
# 5 -0.001238 -0.001285 0.001804 -0.000343 0.015229 0.003589
# 6 0.000409 0.003841 0.000872 0.003787 0.003589 0.027669
#
#
# Mechanical properties :
#
#
# Convention : Reuss Voigt Hill
#
# Bulk Modulus (GPa) = 35.27040 58.63015 46.95028
# Shear Modulus (GPa) = 30.18526 41.83911 36.01219
#
# Velocity S-wave (km/s) = 3.45084 4.06273 3.76922
# Velocity P-wave (km/s) = 5.45821 6.71846 6.12086
#
# Compressibility (1/GPa) = 0.02835238
#
# Stress axis : x y z
#
# Youngs Moduli (GPa) = 84.42211 39.49266 131.49079
#
# Poissons Ratio (x) = 0.10446 0.49805
# Poissons Ratio (y) = 0.22330 0.23364
# Poissons Ratio (z) = 0.31976 0.07017
#
# Static dielectric constant tensor:
#      x y z
#    x 5.122790 0.091370 -0.037840 
#    y 0.091370 3.921390 -0.132340 
#    z -0.037840 -0.132340 4.971150 
# 
# 
# High freq. dielectric constant tensor:
#      x y z
#    x 2.036950 -0.002030 -0.007770 
#    y -0.002030 1.962680 -0.011990 
#    z -0.007770 -0.011990 2.039800 
# 
# From -- ./inp_files/505682.got.cif
#   From: 2010.06.25/outbox.cif.g09.slc.cpg/sg2_253_cif.got.tgz:505682.got - 2010.06.27 13:26:56.
