data_PCOD8034836
_publ_section_title
;
Structure prediction by ZEFSAII (Michael W. Deem and Ramdas Pophale) SiO2 
 PCOD8034836
Probable space group: P -1
;
_chemical_formula_sum "Si O2"
_cell_formula_units_Z 14
_cell_length_a 11.166098
_cell_length_b 6.424806
_cell_length_c 11.790615
_cell_angle_alpha 117.549235
_cell_angle_beta 132.300303
_cell_angle_gamma 67.538133
_cell_volume 551.442207
_symmetry_space_group_name_H-M "P -1"
_symmetry_group_IT_number 2
_symmetry_cell_setting 'triclinic'
loop_
_space_group_symop_operation_xyz
x,y,z
-x,-y,-z
loop_
_atom_site_type_symbol
_atom_site_label
_atom_site_fract_x
_atom_site_fract_y
_atom_site_fract_z
Si Si1 0.202616 0.594704 0.363845
Si Si2 0.437036 0.134130 0.108204
Si Si3 0.703276 0.919296 0.382120
Si Si4 0.534427 0.626457 0.368474
Si Si5 0.188536 0.795210 0.183650
Si Si6 0.074993 0.469610 0.662416
Si Si7 0.861919 0.104121 0.078305
O O1 0.376607 0.457122 0.477510
O O2 0.168438 0.569783 0.199419
O O3 0.056937 0.502194 0.315194
O O4 0.201381 0.874080 0.455677
O O5 0.466074 0.410766 0.199282
O O6 0.532460 0.010497 0.242901
O O7 0.500000 0.000000 0.000000
O O8 0.248949 0.101827 0.010273
O O9 0.674927 0.729004 0.412179
O O10 0.816144 0.781191 0.322618
O O11 0.380553 0.827351 0.343027
O O12 0.175336 0.764575 0.033182
O O13 0.053680 0.009182 0.184908
O O14 0.180230 0.688652 0.804485
O O15 0.000000 0.500000 0.500000
#
# Coordination Sequence:
#
# PCOD8034836 Si02
#       7
#     2   2   2   2   2   2   2
#     4  11  26  45  73 107 136 189 234 284 350 417
#     4  11  26  43  72 106 139 182 235 286 358 413
#     4  11  24  46  72 103 144 177 232 299 345 412
#     4  11  24  47  72 105 136 188 232 287 351 407
#     4  11  26  48  68 102 146 186 239 279 342 423
#     4  12  25  45  74 104 140 179 233 290 356 410
#     4  11  27  46  71 105 141 189 230 290 345 417
#
# _framework density 25.387975000000001
#
# number of rings (size 3 to 8) (size 9 to 14) (size 15 to 20)
#    0.000    0.857    2.857    2.571    6.000    5.143 
#    0.000    0.000    0.000    0.000    0.000    0.000 
#    0.000    0.000    0.000    0.000    0.000    0.000 
#
# Total GULP energy -173467.108124 kJ/mol
# GULP energy per Si atom -12390.507723 kJ/mol
# Density = 2.533019 g / cm^3
# Si number density = 25.387975 Si / 1000 Ang^3
#
#
#
# Elastic Constant Matrix: (Units=GPa)
#
#
# Indices 1 2 3 4 5 6 
#
# 1 103.5308 18.2257 15.6981 -14.6533 9.8150 1.5492
# 2 18.2257 95.7825 41.6491 -12.9053 14.7722 -1.5449
# 3 15.6981 41.6491 84.9152 -22.0534 3.0084 4.6751
# 4 -14.6533 -12.9053 -22.0534 51.6982 5.0576 4.7901
# 5 9.8150 14.7722 3.0084 5.0576 38.0147 -12.8620
# 6 1.5492 -1.5449 4.6751 4.7901 -12.8620 47.6267
#
#
#
# Elastic Compliance Matrix: (Units=1/GPa)
#
#
# Indices 1 2 3 4 5 6 
#
# 1 0.010661 -0.000905 -0.000542 0.003025 -0.003272 -0.001511
# 2 -0.000905 0.014310 -0.006354 0.001139 -0.005103 -0.000375
# 3 -0.000542 -0.006354 0.016591 0.005592 -0.000278 -0.002455
# 4 0.003025 0.001139 0.005592 0.023944 -0.006463 -0.004764
# 5 -0.003272 -0.005103 -0.000278 -0.006463 0.033264 0.009601
# 6 -0.001511 -0.000375 -0.002455 -0.004764 0.009601 0.024347
#
#
# Mechanical properties :
#
#
# Convention : Reuss Voigt Hill
#
# Bulk Modulus (GPa) = 38.52296 48.37492 43.44894
# Shear Modulus (GPa) = 33.92774 41.37830 37.65302
#
# Velocity S-wave (km/s) = 3.65961 4.04151 3.85529
# Velocity P-wave (km/s) = 5.75010 6.39328 6.08020
#
# Compressibility (1/GPa) = 0.02595854
#
# Stress axis : x y z
#
# Youngs Moduli (GPa) = 93.79649 69.88180 60.27525
#
# Poissons Ratio (x) = 0.06325 0.03270
# Poissons Ratio (y) = 0.08489 0.38300
# Poissons Ratio (z) = 0.05088 0.44404
#
# Static dielectric constant tensor:
#      x y z
#    x 4.875570 -0.199820 -0.046220 
#    y -0.199820 4.707700 -0.245960 
#    z -0.046220 -0.245960 4.578950 
# 
# 
# High freq. dielectric constant tensor:
#      x y z
#    x 2.024340 -0.001900 0.001460 
#    y -0.001900 2.012730 -0.017320 
#    z 0.001460 -0.017320 2.011970 
# 
# From -- ./inp_files/95572.got.cif
#   From: 2010.06.25/outbox.cif.g09.slc.cpg/sg2_48_cif.got.tgz:95572.got - 2010.06.27 13:26:56.
