data_PCOD8034868
_publ_section_title
;
Structure prediction by ZEFSAII (Michael W. Deem and Ramdas Pophale) SiO2 
 PCOD8034868
Probable space group: P -1
;
_chemical_formula_sum "Si O2"
_cell_formula_units_Z 16
_cell_length_a 9.083250
_cell_length_b 11.052899
_cell_length_c 12.918727
_cell_angle_alpha 144.916380
_cell_angle_beta 108.297887
_cell_angle_gamma 82.472283
_cell_volume 688.683291
_symmetry_space_group_name_H-M "P -1"
_symmetry_group_IT_number 2
_symmetry_cell_setting 'triclinic'
loop_
_space_group_symop_operation_xyz
x,y,z
-x,-y,-z
loop_
_atom_site_type_symbol
_atom_site_label
_atom_site_fract_x
_atom_site_fract_y
_atom_site_fract_z
Si Si1 0.820125 0.609223 0.849559
Si Si2 0.163672 0.524739 0.892442
Si Si3 0.334865 0.337906 0.361680
Si Si4 0.823530 0.363404 0.367313
Si Si5 0.670582 0.287028 0.746951
Si Si6 0.354312 0.862739 0.021762
Si Si7 0.325216 0.147803 0.654125
Si Si8 0.288402 0.039855 0.810127
O O1 0.777166 0.665855 0.764959
O O2 0.684051 0.412336 0.728067
O O3 0.988161 0.540113 0.831890
O O4 0.829628 0.819980 0.071882
O O5 0.194166 0.289140 0.705467
O O6 0.188674 0.571385 0.052647
O O7 0.300571 0.702985 0.992519
O O8 0.500000 0.500000 0.500000
O O9 0.265287 0.440769 0.516153
O O10 0.346612 0.098731 0.225307
O O11 0.000000 0.500000 0.500000
O O12 0.785085 0.212254 0.355470
O O13 0.767867 0.208306 0.149139
O O14 0.502856 0.286124 0.764577
O O15 0.705604 0.051520 0.572355
O O16 0.537157 0.872825 0.036517
O O17 0.311065 0.061046 0.707241
#
# Coordination Sequence:
#
# PCOD8034868 Si02
#       8
#     2   2   2   2   2   2   2   2
#     4  12  26  44  74 104 149 187 234 300 368 422
#     4  12  26  46  68 109 147 190 232 298 363 423
#     4  12  26  48  75 106 140 192 248 295 357 436
#     4  12  27  46  72 108 144 186 238 301 369 423
#     4  11  24  46  73 104 139 188 243 292 357 427
#     4  12  26  47  74 103 145 193 244 297 357 429
#     4  11  25  46  74 102 139 186 246 294 347 434
#     4  12  23  48  75 101 145 192 241 298 358 428
#
# _framework density 23.232741000000001
#
# number of rings (size 3 to 8) (size 9 to 14) (size 15 to 20)
#    0.000    0.250    5.000    4.125    1.750    2.500 
#    2.250    0.000    0.000    0.000    0.000    0.000 
#    0.000    0.000    0.000    0.000    0.000    0.000 
#
# Total GULP energy -198408.913500 kJ/mol
# GULP energy per Si atom -12400.557094 kJ/mol
# Density = 2.317986 g / cm^3
# Si number density = 23.232741 Si / 1000 Ang^3
#
#
#
# Elastic Constant Matrix: (Units=GPa)
#
#
# Indices 1 2 3 4 5 6 
#
# 1 127.7118 22.3592 46.4210 14.3028 -1.1984 -15.2606
# 2 22.3592 76.8434 15.5699 23.1701 2.6142 -0.8401
# 3 46.4210 15.5699 105.9436 22.5891 -16.9856 -5.9055
# 4 14.3028 23.1701 22.5891 37.7519 -4.4694 2.9998
# 5 -1.1984 2.6142 -16.9856 -4.4694 45.0907 13.8110
# 6 -15.2606 -0.8401 -5.9055 2.9998 13.8110 37.7343
#
#
#
# Elastic Compliance Matrix: (Units=1/GPa)
#
#
# Indices 1 2 3 4 5 6 
#
# 1 0.010293 -0.001691 -0.004227 -0.001014 -0.002711 0.004536
# 2 -0.001691 0.016593 0.000134 -0.010012 -0.002368 0.001369
# 3 -0.004227 0.000134 0.013180 -0.005763 0.004532 -0.000844
# 4 -0.001014 -0.010012 -0.005763 0.037401 0.003909 -0.005939
# 5 -0.002711 -0.002368 0.004532 0.003909 0.027669 -0.010878
# 6 0.004536 0.001369 -0.000844 -0.005939 -0.010878 0.032687
#
#
# Mechanical properties :
#
#
# Convention : Reuss Voigt Hill
#
# Bulk Modulus (GPa) = 35.09110 53.24433 44.16771
# Shear Modulus (GPa) = 31.46822 39.19195 35.33008
#
# Velocity S-wave (km/s) = 3.68431 4.11168 3.90385
# Velocity P-wave (km/s) = 5.76505 6.74602 6.27473
#
# Compressibility (1/GPa) = 0.02849726
#
# Stress axis : x y z
#
# Youngs Moduli (GPa) = 97.15572 60.26667 75.87350
#
# Poissons Ratio (x) = 0.10191 0.32072
# Poissons Ratio (y) = 0.16428 -0.01015
# Poissons Ratio (z) = 0.41068 -0.00806
#
# Static dielectric constant tensor:
#      x y z
#    x 4.318780 -0.125120 -0.223490 
#    y -0.125120 4.649520 0.283030 
#    z -0.223490 0.283030 4.240850 
# 
# 
# High freq. dielectric constant tensor:
#      x y z
#    x 1.925030 0.005480 -0.011350 
#    y 0.005480 1.918980 0.012170 
#    z -0.011350 0.012170 1.925880 
# 
# From -- ./inp_files/447296.got.cif
#   From: 2010.06.25/outbox.cif.g09.slc.cpg/sg2_224_cif.got.tgz:447296.got - 2010.06.27 13:26:56.
