data_PCOD8034362
_publ_section_title
;
Structure prediction by ZEFSAII (Michael W. Deem and Ramdas Pophale) SiO2 
 PCOD8034362
Probable space group: P -1
;
_chemical_formula_sum "Si O2"
_cell_formula_units_Z 16
_cell_length_a 8.102964
_cell_length_b 13.879994
_cell_length_c 6.394646
_cell_angle_alpha 109.203224
_cell_angle_beta 94.396551
_cell_angle_gamma 78.234548
_cell_volume 664.877159
_symmetry_space_group_name_H-M "P -1"
_symmetry_group_IT_number 2
_symmetry_cell_setting 'triclinic'
loop_
_space_group_symop_operation_xyz
x,y,z
-x,-y,-z
loop_
_atom_site_type_symbol
_atom_site_label
_atom_site_fract_x
_atom_site_fract_y
_atom_site_fract_z
Si Si1 0.125031 0.185576 0.645159
Si Si2 0.615228 0.759816 0.948653
Si Si3 0.366228 0.928446 0.819175
Si Si4 0.095886 0.535450 0.834893
Si Si5 0.405064 0.617691 0.050201
Si Si6 0.842679 0.652455 0.558514
Si Si7 0.247327 0.813679 0.377634
Si Si8 0.663476 0.001655 0.716982
O O1 0.072218 0.271434 0.521929
O O2 0.944817 0.173676 0.713062
O O3 0.215417 0.076554 0.478738
O O4 0.240012 0.224531 0.861843
O O5 0.494915 0.867372 0.961019
O O6 0.682137 0.721429 0.698705
O O7 0.516908 0.670286 0.943335
O O8 0.249184 0.858255 0.646729
O O9 0.472326 0.975738 0.682178
O O10 0.266336 0.010687 0.038860
O O11 0.207445 0.434263 0.662895
O O12 0.960760 0.596428 0.709480
O O13 0.218227 0.614561 0.949826
O O14 0.000000 0.500000 0.000000
O O15 0.359237 0.695829 0.301166
O O16 0.500000 0.500000 0.000000
O O17 0.340261 0.880941 0.278487
#
# Coordination Sequence:
#
# PCOD8034362 Si02
#       8
#     2   2   2   2   2   2   2   2
#     4  12  27  45  74 103 150 191 232 294 360 430
#     4  12  26  46  71 106 141 188 238 296 351 424
#     4  11  26  45  75 103 143 186 241 295 358 423
#     4  11  25  48  71 105 144 189 235 302 354 421
#     4  12  26  45  73 101 145 186 239 293 358 422
#     4  11  24  44  73 100 144 190 238 284 365 422
#     4  12  27  46  71 105 146 186 240 299 357 427
#     4  11  25  48  72 107 143 190 236 297 361 426
#
# _framework density 24.064596999999999
#
# number of rings (size 3 to 8) (size 9 to 14) (size 15 to 20)
#    0.000    0.500    2.500    5.250    7.000    3.000 
#    0.000    0.000    0.000    0.000    0.000    0.000 
#    0.000    0.000    0.000    0.000    0.000    0.000 
#
# Total GULP energy -198270.233645 kJ/mol
# GULP energy per Si atom -12391.889603 kJ/mol
# Density = 2.400983 g / cm^3
# Si number density = 24.064597 Si / 1000 Ang^3
#
#
#
# Elastic Constant Matrix: (Units=GPa)
#
#
# Indices 1 2 3 4 5 6 
#
# 1 105.7327 36.9945 47.6313 1.5570 6.9861 26.0056
# 2 36.9945 124.1002 31.5979 3.7204 4.4155 8.8918
# 3 47.6313 31.5979 127.2619 20.0253 -4.4556 11.7361
# 4 1.5570 3.7204 20.0253 46.5753 -5.7044 -2.1018
# 5 6.9861 4.4155 -4.4556 -5.7044 36.1056 10.9329
# 6 26.0056 8.8918 11.7361 -2.1018 10.9329 38.6399
#
#
#
# Elastic Compliance Matrix: (Units=1/GPa)
#
#
# Indices 1 2 3 4 5 6 
#
# 1 0.014076 -0.002631 -0.004124 0.001118 -0.000488 -0.007416
# 2 -0.002631 0.009197 -0.001331 -0.000171 -0.000899 0.000304
# 3 -0.004124 -0.001331 0.010521 -0.004089 0.001876 -0.000866
# 4 0.001118 -0.000171 -0.004089 0.023584 0.002710 0.001045
# 5 -0.000488 -0.000899 0.001876 0.002710 0.031199 -0.008714
# 6 -0.007416 0.000304 -0.000866 0.001045 -0.008714 0.033587
#
#
# Mechanical properties :
#
#
# Convention : Reuss Voigt Hill
#
# Bulk Modulus (GPa) = 56.75141 65.50468 61.12804
# Shear Modulus (GPa) = 34.67152 40.32225 37.49688
#
# Velocity S-wave (km/s) = 3.79986 4.09783 3.95166
# Velocity P-wave (km/s) = 6.54875 7.04763 6.80276
#
# Compressibility (1/GPa) = 0.01762071
#
# Stress axis : x y z
#
# Youngs Moduli (GPa) = 71.04197 108.73612 95.04815
#
# Poissons Ratio (x) = 0.28606 0.39201
# Poissons Ratio (y) = 0.18690 0.12655
# Poissons Ratio (z) = 0.29300 0.14477
#
# Static dielectric constant tensor:
#      x y z
#    x 4.249130 0.189430 -0.149430 
#    y 0.189430 4.796160 0.299120 
#    z -0.149430 0.299120 4.789330 
# 
# 
# High freq. dielectric constant tensor:
#      x y z
#    x 1.941110 0.005730 -0.009970 
#    y 0.005730 1.969460 0.018450 
#    z -0.009970 0.018450 1.978940 
# 
# From -- ./inp_files/39868.got.cif
#   From: 2010.06.25/outbox.cif.g09.slc.cpg/sg2_20_cif.got.tgz:39868.got - 2010.06.27 13:26:56.
