data_PCOD8034879
_publ_section_title
;
Structure prediction by ZEFSAII (Michael W. Deem and Ramdas Pophale) SiO2 
 PCOD8034879
Probable space group: P -1
;
_chemical_formula_sum "Si O2"
_cell_formula_units_Z 12
_cell_length_a 14.122675
_cell_length_b 9.123127
_cell_length_c 9.284910
_cell_angle_alpha 59.093868
_cell_angle_beta 110.252510
_cell_angle_gamma 149.446567
_cell_volume 508.940022
_symmetry_space_group_name_H-M "P -1"
_symmetry_group_IT_number 2
_symmetry_cell_setting 'triclinic'
loop_
_space_group_symop_operation_xyz
x,y,z
-x,-y,-z
loop_
_atom_site_type_symbol
_atom_site_label
_atom_site_fract_x
_atom_site_fract_y
_atom_site_fract_z
Si Si1 0.929924 0.188943 0.186934
Si Si2 0.367577 0.313267 0.163323
Si Si3 0.162474 0.775036 0.159588
Si Si4 0.408775 0.501663 0.556490
Si Si5 0.676792 0.357770 0.980914
Si Si6 0.483117 0.981074 0.329363
O O1 0.971139 0.383529 0.241763
O O2 0.126195 0.415103 0.101444
O O3 0.814198 0.862534 0.351484
O O4 0.797108 0.091494 0.047127
O O5 0.466603 0.325397 0.320363
O O6 0.337846 0.458357 0.139310
O O7 0.163464 0.932510 0.197338
O O8 0.500000 0.500000 0.000000
O O9 0.334781 0.903152 0.231517
O O10 0.500000 0.500000 0.500000
O O11 0.412068 0.691772 0.389690
O O12 0.500000 0.000000 0.000000
O O13 0.677623 0.308746 0.178098
O O14 0.500000 0.000000 0.500000
#
# Coordination Sequence:
#
# PCOD8034879 Si02
#       6
#     2   2   2   2   2   2
#     4  11  26  48  73 105 140 190 252 287 350 436
#     4  12  21  47  73 101 142 192 240 283 351 438
#     4  11  24  46  74 100 144 191 239 294 346 437
#     4  12  27  45  73 107 145 186 231 304 367 413
#     4  12  24  46  78 101 138 199 242 285 349 434
#     4  12  24  46  71 105 146 183 233 300 362 410
#
# _framework density 23.578417999999999
#
# number of rings (size 3 to 8) (size 9 to 14) (size 15 to 20)
#    0.000    0.333    6.667    1.000    7.000    1.333 
#    0.000    1.667    0.000    0.000    0.000    0.000 
#    0.000    0.000    0.000    0.000    0.000    0.000 
#
# Total GULP energy -148687.493284 kJ/mol
# GULP energy per Si atom -12390.624440 kJ/mol
# Density = 2.352475 g / cm^3
# Si number density = 23.578418 Si / 1000 Ang^3
#
#
#
# Elastic Constant Matrix: (Units=GPa)
#
#
# Indices 1 2 3 4 5 6 
#
# 1 114.0578 50.8049 37.2287 -9.0029 15.2312 -11.6770
# 2 50.8049 146.2754 31.1540 -2.2903 4.4097 -20.1718
# 3 37.2287 31.1540 77.6148 -11.7807 3.0873 16.5064
# 4 -9.0029 -2.2903 -11.7807 42.7086 -10.0608 2.1592
# 5 15.2312 4.4097 3.0873 -10.0608 41.2616 -8.3158
# 6 -11.6770 -20.1718 16.5064 2.1592 -8.3158 40.5447
#
#
#
# Elastic Compliance Matrix: (Units=1/GPa)
#
#
# Indices 1 2 3 4 5 6 
#
# 1 0.012605 -0.002479 -0.005806 -0.000023 -0.003129 0.004120
# 2 -0.002479 0.009304 -0.004007 -0.001162 0.001114 0.005837
# 3 -0.005806 -0.004007 0.020656 0.004815 -0.000298 -0.012393
# 4 -0.000023 -0.001162 0.004815 0.026132 0.005581 -0.002792
# 5 -0.003129 0.001114 -0.000298 0.005581 0.027694 0.005157
# 6 0.004120 0.005837 -0.012393 -0.002792 0.005157 0.035006
#
#
# Mechanical properties :
#
#
# Convention : Reuss Voigt Hill
#
# Bulk Modulus (GPa) = 55.61892 64.03590 59.82741
# Shear Modulus (GPa) = 30.86897 39.48700 35.17798
#
# Velocity S-wave (km/s) = 3.62222 4.09676 3.86678
# Velocity P-wave (km/s) = 6.41359 7.04241 6.73534
#
# Compressibility (1/GPa) = 0.01797949
#
# Stress axis : x y z
#
# Youngs Moduli (GPa) = 79.33549 107.47902 48.41239
#
# Poissons Ratio (x) = 0.26646 0.28108
# Poissons Ratio (y) = 0.19669 0.19401
# Poissons Ratio (z) = 0.46062 0.43071
#
# Static dielectric constant tensor:
#      x y z
#    x 4.519780 -0.883840 0.489780 
#    y -0.883840 5.251040 -0.628500 
#    z 0.489780 -0.628500 5.547520 
# 
# 
# High freq. dielectric constant tensor:
#      x y z
#    x 1.928480 -0.029360 0.020340 
#    y -0.029360 1.942360 0.006300 
#    z 0.020340 0.006300 1.937270 
# 
# From -- ./inp_files/174014.got.cif
#   From: 2010.06.25/outbox.cif.g09.slc.cpg/sg2_88_cif.got.tgz:174014.got - 2010.06.27 13:26:56.
