data_PCOD8034922
_publ_section_title
;
Structure prediction by ZEFSAII (Michael W. Deem and Ramdas Pophale) SiO2 
 PCOD8034922
Probable space group: P -1
;
_chemical_formula_sum "Si O2"
_cell_formula_units_Z 16
_cell_length_a 11.827306
_cell_length_b 12.503214
_cell_length_c 12.859879
_cell_angle_alpha 76.523755
_cell_angle_beta 41.151004
_cell_angle_gamma 110.994706
_cell_volume 671.307630
_symmetry_space_group_name_H-M "P -1"
_symmetry_group_IT_number 2
_symmetry_cell_setting 'triclinic'
loop_
_space_group_symop_operation_xyz
x,y,z
-x,-y,-z
loop_
_atom_site_type_symbol
_atom_site_label
_atom_site_fract_x
_atom_site_fract_y
_atom_site_fract_z
Si Si1 0.389858 0.435378 0.707264
Si Si2 0.274575 0.789340 0.572158
Si Si3 0.489386 0.795703 0.818233
Si Si4 0.226779 0.768554 0.833910
Si Si5 0.248015 0.462318 0.164167
Si Si6 0.233350 0.893313 0.287574
Si Si7 0.144619 0.161833 0.586403
Si Si8 0.262962 0.126314 0.876465
O O1 0.500000 0.500000 0.500000
O O2 0.579951 0.617121 0.608721
O O3 0.419281 0.326200 0.751694
O O4 0.031449 0.276542 0.987752
O O5 0.238431 0.709571 0.728686
O O6 0.936351 0.643569 0.794025
O O7 0.446467 0.996095 0.425693
O O8 0.464156 0.810353 0.360131
O O9 0.183724 0.666221 0.988952
O O10 0.724940 0.878775 0.547147
O O11 0.619660 0.974593 0.741346
O O12 0.421255 0.672517 0.986314
O O13 0.989958 0.325039 0.466778
O O14 0.500000 0.500000 0.000000
O O15 0.008532 0.858722 0.398230
O O16 0.500000 0.000000 0.000000
O O17 0.888052 0.001853 0.886380
O O18 0.000000 0.000000 0.000000
#
# Coordination Sequence:
#
# PCOD8034922 Si02
#       8
#     2   2   2   2   2   2   2   2
#     4  12  27  44  72 110 156 191 251 313 378 465
#     4  11  24  46  75 111 154 199 253 314 377 464
#     4  12  28  49  81 107 153 201 257 315 384 455
#     4  11  25  44  74 112 149 196 249 312 389 449
#     4  12  27  49  78 112 151 202 265 311 377 457
#     4  12  29  52  79 109 154 199 260 320 382 452
#     4  12  27  46  74 112 147 205 251 309 379 456
#     4  12  24  46  75 110 156 205 245 311 397 453
#
# _framework density 23.83408
#
# number of rings (size 3 to 8) (size 9 to 14) (size 15 to 20)
#    0.000    0.250    5.000    2.625    5.250    3.500 
#    0.000    0.000    0.000    0.000    0.000    0.000 
#    0.000    0.000    0.000    0.000    0.000    0.000 
#
# Total GULP energy -198357.778494 kJ/mol
# GULP energy per Si atom -12397.361156 kJ/mol
# Density = 2.377983 g / cm^3
# Si number density = 23.834080 Si / 1000 Ang^3
#
#
#
# Elastic Constant Matrix: (Units=GPa)
#
#
# Indices 1 2 3 4 5 6 
#
# 1 146.9395 33.2849 40.9955 5.2269 3.9062 5.6342
# 2 33.2849 92.0232 34.5352 24.2240 -6.7222 4.3144
# 3 40.9955 34.5352 118.6059 17.9457 14.6061 0.4101
# 4 5.2269 24.2240 17.9457 34.6150 0.0671 4.1925
# 5 3.9062 -6.7222 14.6061 0.0671 50.4551 -3.9358
# 6 5.6342 4.3144 0.4101 4.1925 -3.9358 40.2585
#
#
#
# Elastic Compliance Matrix: (Units=1/GPa)
#
#
# Indices 1 2 3 4 5 6 
#
# 1 0.007989 -0.002506 -0.002260 0.001848 -0.000383 -0.001056
# 2 -0.002506 0.015345 -0.002608 -0.009009 0.003003 -0.000035
# 3 -0.002260 -0.002608 0.010912 -0.003549 -0.003285 0.000533
# 4 0.001848 -0.009009 -0.003549 0.037142 -0.000614 -0.003185
# 5 -0.000383 0.003003 -0.003285 -0.000614 0.021351 0.001917
# 6 -0.001056 -0.000035 0.000533 -0.003185 0.001917 0.025505
#
#
# Mechanical properties :
#
#
# Convention : Reuss Voigt Hill
#
# Bulk Modulus (GPa) = 51.29376 63.91110 57.60243
# Shear Modulus (GPa) = 35.84477 41.64927 38.74702
#
# Velocity S-wave (km/s) = 3.88226 4.18481 4.03637
# Velocity P-wave (km/s) = 6.45475 7.08684 6.77817
#
# Compressibility (1/GPa) = 0.01949555
#
# Stress axis : x y z
#
# Youngs Moduli (GPa) = 125.17519 65.16866 91.64520
#
# Poissons Ratio (x) = 0.16333 0.20715
# Poissons Ratio (y) = 0.31372 0.23904
# Poissons Ratio (z) = 0.28294 0.16998
#
# Static dielectric constant tensor:
#      x y z
#    x 4.738410 -0.143320 0.236530 
#    y -0.143320 4.005750 -0.017250 
#    z 0.236530 -0.017250 4.374850 
# 
# 
# High freq. dielectric constant tensor:
#      x y z
#    x 1.967590 0.001170 0.007980 
#    y 0.001170 1.933160 -0.004740 
#    z 0.007980 -0.004740 1.954890 
# 
# From -- ./inp_files/428080.got.cif
#   From: 2010.06.25/outbox.cif.g09.slc.cpg/sg2_215_cif.got.tgz:428080.got - 2010.06.27 13:26:56.
