data_PCOD8034649
_publ_section_title
;
Structure prediction by ZEFSAII (Michael W. Deem and Ramdas Pophale) SiO2 
 PCOD8034649
Probable space group: P -1
;
_chemical_formula_sum "Si O2"
_cell_formula_units_Z 16
_cell_length_a 17.733677
_cell_length_b 15.202299
_cell_length_c 11.724861
_cell_angle_alpha 128.097736
_cell_angle_beta 29.944035
_cell_angle_gamma 148.138796
_cell_volume 743.157313
_symmetry_space_group_name_H-M "P -1"
_symmetry_group_IT_number 2
_symmetry_cell_setting 'triclinic'
loop_
_space_group_symop_operation_xyz
x,y,z
-x,-y,-z
loop_
_atom_site_type_symbol
_atom_site_label
_atom_site_fract_x
_atom_site_fract_y
_atom_site_fract_z
Si Si1 0.916304 0.287850 0.462775
Si Si2 0.415884 0.057985 0.228093
Si Si3 0.785125 0.370851 0.504551
Si Si4 0.140073 0.231891 0.010318
Si Si5 0.886705 0.485207 0.025788
Si Si6 0.210948 0.079534 0.956968
Si Si7 0.874028 0.911015 0.475797
Si Si8 0.615835 0.537592 0.494489
O O1 0.762717 0.279118 0.572700
O O2 0.046446 0.424028 0.510120
O O3 0.733524 0.080045 0.578272
O O4 0.133419 0.357396 0.157859
O O5 0.250410 0.044718 0.359017
O O6 0.644645 0.268657 0.139374
O O7 0.500000 0.000000 0.000000
O O8 0.509039 0.241521 0.718323
O O9 0.925924 0.397652 0.234356
O O10 0.135205 0.156179 0.070855
O O11 0.403068 0.354520 0.704991
O O12 0.899287 0.071614 0.113780
O O13 0.834075 0.579365 0.212915
O O14 0.000000 0.500000 0.000000
O O15 0.068765 0.980468 0.182869
O O16 0.690897 0.700367 0.579108
O O17 0.000000 0.000000 0.500000
O O18 0.500000 0.500000 0.500000
#
# Coordination Sequence:
#
# PCOD8034649 Si02
#       8
#     2   2   2   2   2   2   2   2
#     4  11  26  46  70 100 143 186 230 289 358 417
#     4  12  26  49  71 102 145 187 237 293 354 420
#     4  11  27  45  68 106 141 186 233 289 352 423
#     4  11  24  45  73  98 136 184 229 290 349 413
#     4  12  27  46  73 106 145 188 239 290 354 419
#     4  11  25  45  68 104 138 178 237 284 352 416
#     4  12  29  46  73 106 141 187 239 293 354 422
#     4  12  24  47  73 100 142 188 237 292 345 417
#
# _framework density 21.529762999999999
#
# number of rings (size 3 to 8) (size 9 to 14) (size 15 to 20)
#    0.000    0.500    5.000    1.500    8.750    2.000 
#    0.000    0.000    0.000    0.000    0.000    0.000 
#    0.000    0.000    0.000    0.000    0.000    0.000 
#
# Total GULP energy -198303.697048 kJ/mol
# GULP energy per Si atom -12393.981065 kJ/mol
# Density = 2.148076 g / cm^3
# Si number density = 21.529763 Si / 1000 Ang^3
#
#
#
# Elastic Constant Matrix: (Units=GPa)
#
#
# Indices 1 2 3 4 5 6 
#
# 1 148.9462 46.9294 39.2188 -3.7628 -10.2740 10.7255
# 2 46.9294 98.7527 24.1118 5.3567 -8.4394 -7.1421
# 3 39.2188 24.1118 95.1965 6.7021 -11.4518 1.7836
# 4 -3.7628 5.3567 6.7021 44.6895 -4.0361 -2.0695
# 5 -10.2740 -8.4394 -11.4518 -4.0361 29.4626 0.6882
# 6 10.7255 -7.1421 1.7836 -2.0695 0.6882 34.0477
#
#
#
# Elastic Compliance Matrix: (Units=1/GPa)
#
#
# Indices 1 2 3 4 5 6 
#
# 1 0.008996 -0.003858 -0.002618 0.001572 0.001310 -0.003437
# 2 -0.003858 0.012792 -0.001451 -0.001328 0.001483 0.003864
# 3 -0.002618 -0.001451 0.012468 -0.001632 0.003301 -0.000299
# 4 0.001572 -0.001328 -0.001632 0.023187 0.002694 0.000667
# 5 0.001310 0.001483 0.003301 0.002694 0.036495 -0.000849
# 6 -0.003437 0.003864 -0.000299 0.000667 -0.000849 0.031337
#
#
# Mechanical properties :
#
#
# Convention : Reuss Voigt Hill
#
# Bulk Modulus (GPa) = 54.33944 62.60173 58.47059
# Shear Modulus (GPa) = 33.95268 37.14899 35.55083
#
# Velocity S-wave (km/s) = 3.97547 4.15839 4.06796
# Velocity P-wave (km/s) = 6.80929 7.22469 7.02007
#
# Compressibility (1/GPa) = 0.01840284
#
# Stress axis : x y z
#
# Youngs Moduli (GPa) = 111.15800 78.17267 80.20387
#
# Poissons Ratio (x) = 0.30158 0.20995
# Poissons Ratio (y) = 0.42884 0.11640
# Poissons Ratio (z) = 0.29098 0.11345
#
# Static dielectric constant tensor:
#      x y z
#    x 3.957410 -0.004920 0.091180 
#    y -0.004920 3.904940 0.086930 
#    z 0.091180 0.086930 3.870350 
# 
# 
# High freq. dielectric constant tensor:
#      x y z
#    x 1.859470 -0.003580 0.007200 
#    y -0.003580 1.853180 0.007500 
#    z 0.007200 0.007500 1.853460 
# 
# From -- ./inp_files/218331.got.cif
#   From: 2010.06.25/outbox.cif.g09.slc.cpg/sg2_110_cif.got.tgz:218331.got - 2010.06.27 13:26:56.
