data_PCOD8034813
_publ_section_title
;
Structure prediction by ZEFSAII (Michael W. Deem and Ramdas Pophale) SiO2 
 PCOD8034813
Probable space group: P -1
;
_chemical_formula_sum "Si O2"
_cell_formula_units_Z 14
_cell_length_a 15.177497
_cell_length_b 12.245291
_cell_length_c 8.422902
_cell_angle_alpha 121.861053
_cell_angle_beta 31.015771
_cell_angle_gamma 130.703279
_cell_volume 609.562835
_symmetry_space_group_name_H-M "P -1"
_symmetry_group_IT_number 2
_symmetry_cell_setting 'triclinic'
loop_
_space_group_symop_operation_xyz
x,y,z
-x,-y,-z
loop_
_atom_site_type_symbol
_atom_site_label
_atom_site_fract_x
_atom_site_fract_y
_atom_site_fract_z
Si Si1 0.842800 0.090523 0.730540
Si Si2 0.596419 0.367993 0.670123
Si Si3 0.119969 0.917108 0.700910
Si Si4 0.749228 0.771956 0.677342
Si Si5 0.678696 0.557219 0.386490
Si Si6 0.506439 0.094566 0.415173
Si Si7 0.030171 0.598323 0.685577
O O1 0.859421 0.076651 0.510979
O O2 0.046084 0.212836 0.571679
O O3 0.763361 0.929906 0.803290
O O4 0.693927 0.147617 0.056348
O O5 0.645638 0.499657 0.575455
O O6 0.502911 0.236206 0.592006
O O7 0.780790 0.381072 0.495017
O O8 0.427183 0.345854 0.036794
O O9 0.031623 0.750226 0.760007
O O10 0.329406 0.001425 0.509256
O O11 0.000000 0.000000 0.000000
O O12 0.729852 0.723475 0.482663
O O13 0.500000 0.500000 0.500000
O O14 0.843675 0.524822 0.030065
O O15 0.500000 0.000000 0.500000
O O16 0.000000 0.500000 0.500000
#
# Coordination Sequence:
#
# PCOD8034813 Si02
#       7
#     2   2   2   2   2   2   2
#     4  11  25  42  75 104 141 184 230 300 351 427
#     4  12  26  47  74 100 147 193 233 298 356 431
#     4  12  27  45  76 105 145 187 239 297 353 425
#     4  11  24  46  71 107 141 180 239 289 365 418
#     4  12  29  45  72 103 143 190 241 293 357 428
#     4  12  24  46  71 105 141 182 238 289 360 421
#     4  12  28  49  72 107 147 191 243 292 360 429
#
# _framework density 22.967279999999999
#
# number of rings (size 3 to 8) (size 9 to 14) (size 15 to 20)
#    0.000    0.286    2.857    4.714   12.000    0.000 
#    0.000    0.000    0.000    0.000    0.000    0.000 
#    0.000    0.000    0.000    0.000    0.000    0.000 
#
# Total GULP energy -173531.296458 kJ/mol
# GULP energy per Si atom -12395.092604 kJ/mol
# Density = 2.291501 g / cm^3
# Si number density = 22.967280 Si / 1000 Ang^3
#
#
#
# Elastic Constant Matrix: (Units=GPa)
#
#
# Indices 1 2 3 4 5 6 
#
# 1 138.1151 43.3636 68.2592 -7.2671 -2.0461 25.7870
# 2 43.3636 90.2656 43.1256 9.0657 -0.7101 18.9893
# 3 68.2592 43.1256 177.7746 -1.1837 5.6910 14.5055
# 4 -7.2671 9.0657 -1.1837 39.4790 11.4004 4.9217
# 5 -2.0461 -0.7101 5.6910 11.4004 42.6240 0.0855
# 6 25.7870 18.9893 14.5055 4.9217 0.0855 51.4232
#
#
#
# Elastic Compliance Matrix: (Units=1/GPa)
#
#
# Indices 1 2 3 4 5 6 
#
# 1 0.010530 -0.003200 -0.002958 0.003013 0.000048 -0.003553
# 2 -0.003200 0.014670 -0.002176 -0.004101 0.001484 -0.002809
# 3 -0.002958 -0.002176 0.007320 0.000527 -0.001297 0.000174
# 4 0.003013 -0.004101 0.000527 0.029484 -0.007874 -0.002954
# 5 0.000048 0.001484 -0.001297 -0.007874 0.025766 0.000504
# 6 -0.003553 -0.002809 0.000174 -0.002954 0.000504 0.022498
#
#
# Mechanical properties :
#
#
# Convention : Reuss Voigt Hill
#
# Bulk Modulus (GPa) = 63.08746 79.51689 71.30218
# Shear Modulus (GPa) = 37.81608 43.46567 40.64088
#
# Velocity S-wave (km/s) = 4.06213 4.35501 4.21112
# Velocity P-wave (km/s) = 7.03771 7.74501 7.39981
#
# Compressibility (1/GPa) = 0.01585101
#
# Stress axis : x y z
#
# Youngs Moduli (GPa) = 94.96986 68.16852 136.61911
#
# Poissons Ratio (x) = 0.21813 0.40417
# Poissons Ratio (y) = 0.30390 0.29723
# Poissons Ratio (z) = 0.28096 0.14831
#
# Static dielectric constant tensor:
#      x y z
#    x 4.133030 -0.144710 0.049950 
#    y -0.144710 4.312110 0.117590 
#    z 0.049950 0.117590 4.287370 
# 
# 
# High freq. dielectric constant tensor:
#      x y z
#    x 1.913850 0.018060 0.008160 
#    y 0.018060 1.926110 0.006420 
#    z 0.008160 0.006420 1.927440 
# 
# From -- ./inp_files/160250.got.cif
#   From: 2010.06.25/outbox.cif.g09.slc.cpg/sg2_81_cif.got.tgz:160250.got - 2010.06.27 13:26:56.
