data_PCOD8034771
_publ_section_title
;
Structure prediction by ZEFSAII (Michael W. Deem and Ramdas Pophale) SiO2 
 PCOD8034771
Probable space group: P -1
;
_chemical_formula_sum "Si O2"
_cell_formula_units_Z 16
_cell_length_a 11.700679
_cell_length_b 9.335508
_cell_length_c 12.686161
_cell_angle_alpha 130.424181
_cell_angle_beta 130.557833
_cell_angle_gamma 51.422626
_cell_volume 751.024919
_symmetry_space_group_name_H-M "P -1"
_symmetry_group_IT_number 2
_symmetry_cell_setting 'triclinic'
loop_
_space_group_symop_operation_xyz
x,y,z
-x,-y,-z
loop_
_atom_site_type_symbol
_atom_site_label
_atom_site_fract_x
_atom_site_fract_y
_atom_site_fract_z
Si Si1 0.332179 0.978579 0.406233
Si Si2 0.413430 0.802653 0.590346
Si Si3 0.350755 0.654788 0.864561
Si Si4 0.304955 0.644055 0.070861
Si Si5 0.668404 0.006322 0.141933
Si Si6 0.256888 0.485512 0.384346
Si Si7 0.068050 0.433380 0.895906
Si Si8 0.821866 0.575699 0.466531
O O1 0.319899 0.936970 0.501866
O O2 0.304778 0.813410 0.235136
O O3 0.500000 0.000000 0.500000
O O4 0.203156 0.195475 0.410850
O O5 0.355150 0.920241 0.718186
O O6 0.350946 0.619317 0.458277
O O7 0.608696 0.737005 0.662267
O O8 0.542226 0.559101 0.919743
O O9 0.281468 0.844695 0.835210
O O10 0.283607 0.474706 0.712731
O O11 0.302595 0.728094 0.990711
O O12 0.151120 0.582621 0.970200
O O13 0.811041 0.793830 0.129662
O O14 0.500000 0.000000 0.000000
O O15 0.219070 0.529032 0.505328
O O16 0.085415 0.536916 0.253486
O O17 0.000000 0.500000 0.000000
O O18 0.000000 0.500000 0.500000
#
# Coordination Sequence:
#
# PCOD8034771 Si02
#       8
#     2   2   2   2   2   2   2   2
#     4  12  25  44  75 103 137 190 239 283 350 419
#     4  11  25  44  74 102 139 183 245 284 345 425
#     4  11  24  46  73 103 140 182 239 289 349 418
#     4  11  25  46  72 105 140 185 236 292 347 424
#     4  12  26  43  74 105 138 187 235 288 354 423
#     4  11  24  46  70 101 140 186 228 299 350 411
#     4  12  27  45  70 104 147 182 232 295 359 416
#     4  12  26  45  70 106 145 183 231 294 355 414
#
# _framework density 21.304220000000001
#
# number of rings (size 3 to 8) (size 9 to 14) (size 15 to 20)
#    0.000    0.500    5.000    2.250    7.000    3.500 
#    0.000    1.875    0.000    0.000    0.000    0.000 
#    0.000    0.000    0.000    0.000    0.000    0.000 
#
# Total GULP energy -198345.058526 kJ/mol
# GULP energy per Si atom -12396.566158 kJ/mol
# Density = 2.125573 g / cm^3
# Si number density = 21.304220 Si / 1000 Ang^3
#
#
#
# Elastic Constant Matrix: (Units=GPa)
#
#
# Indices 1 2 3 4 5 6 
#
# 1 133.3151 44.3948 50.7197 -3.2327 3.1593 -2.7820
# 2 44.3948 91.0572 50.3540 4.7100 5.9556 -2.2454
# 3 50.7197 50.3540 142.1091 -2.7177 -5.6036 -1.3877
# 4 -3.2327 4.7100 -2.7177 30.3089 -0.9022 -0.7135
# 5 3.1593 5.9556 -5.6036 -0.9022 43.5364 -10.6337
# 6 -2.7820 -2.2454 -1.3877 -0.7135 -10.6337 39.3308
#
#
#
# Elastic Compliance Matrix: (Units=1/GPa)
#
#
# Indices 1 2 3 4 5 6 
#
# 1 0.009532 -0.003496 -0.002149 0.001363 -0.000384 0.000320
# 2 -0.003496 0.015443 -0.004390 -0.003249 -0.002557 -0.000271
# 3 -0.002149 -0.004390 0.009475 0.001379 0.002135 0.000534
# 4 0.001363 -0.003249 0.001379 0.033834 0.001461 0.000968
# 5 -0.000384 -0.002557 0.002135 0.001461 0.025306 0.006770
# 6 0.000320 -0.000271 0.000534 0.000968 0.006770 0.027299
#
#
# Mechanical properties :
#
#
# Convention : Reuss Voigt Hill
#
# Bulk Modulus (GPa) = 69.54311 73.04648 71.29479
# Shear Modulus (GPa) = 34.30493 37.36942 35.83717
#
# Velocity S-wave (km/s) = 4.01713 4.19272 4.10587
# Velocity P-wave (km/s) = 7.36412 7.60265 7.48434
#
# Compressibility (1/GPa) = 0.01437957
#
# Stress axis : x y z
#
# Youngs Moduli (GPa) = 104.91260 64.75499 105.54079
#
# Poissons Ratio (x) = 0.22641 0.22681
# Poissons Ratio (y) = 0.36681 0.46329
# Poissons Ratio (z) = 0.22546 0.28425
#
# Static dielectric constant tensor:
#      x y z
#    x 3.254580 4.155660 -3.686940 
#    y 4.155660 -16.948210 18.328300 
#    z -3.686940 18.328300 -12.862730 
# 
# 
# High freq. dielectric constant tensor:
#      x y z
#    x 1.854870 0.004320 -0.007350 
#    y 0.004320 1.835370 -0.001320 
#    z -0.007350 -0.001320 1.844600 
# 
# From -- ./inp_files/299073.got.cif
#   From: 2010.06.25/outbox.cif.g09.slc.cpg/sg2_150_cif.got.tgz:299073.got - 2010.06.27 13:26:56.
