data_PCOD8034604
_publ_section_title
;
Structure prediction by ZEFSAII (Michael W. Deem and Ramdas Pophale) SiO2 
 PCOD8034604
Probable space group: P -1
;
_chemical_formula_sum "Si O2"
_cell_formula_units_Z 16
_cell_length_a 9.070479
_cell_length_b 15.122976
_cell_length_c 9.442120
_cell_angle_alpha 106.403852
_cell_angle_beta 45.388738
_cell_angle_gamma 78.163690
_cell_volume 713.650248
_symmetry_space_group_name_H-M "P -1"
_symmetry_group_IT_number 2
_symmetry_cell_setting 'triclinic'
loop_
_space_group_symop_operation_xyz
x,y,z
-x,-y,-z
loop_
_atom_site_type_symbol
_atom_site_label
_atom_site_fract_x
_atom_site_fract_y
_atom_site_fract_z
Si Si1 0.661652 0.526702 0.816999
Si Si2 0.846781 0.032741 0.478521
Si Si3 0.075174 0.235684 0.992065
Si Si4 0.479130 0.592712 0.659318
Si Si5 0.202634 0.317647 0.457291
Si Si6 0.360390 0.262461 0.020419
Si Si7 0.709361 0.860811 0.477242
Si Si8 0.133226 0.035656 0.025794
O O1 0.580999 0.531449 0.712714
O O2 0.571094 0.649012 0.989831
O O3 0.962020 0.432685 0.599855
O O4 0.500000 0.500000 0.000000
O O5 0.009646 0.052068 0.269309
O O6 0.838097 0.926813 0.399267
O O7 0.565287 0.146742 0.746408
O O8 0.000000 0.000000 0.500000
O O9 0.107460 0.313423 0.114085
O O10 0.073590 0.152596 0.065552
O O11 0.820777 0.303138 0.097671
O O12 0.304970 0.172136 0.690383
O O13 0.500000 0.500000 0.500000
O O14 0.635034 0.647513 0.547923
O O15 0.344238 0.237863 0.186445
O O16 0.129476 0.253633 0.584358
O O17 0.436706 0.937430 0.773310
O O18 0.000000 0.000000 0.000000
#
# Coordination Sequence:
#
# PCOD8034604 Si02
#       8
#     2   2   2   2   2   2   2   2
#     4  11  25  46  71 101 140 184 233 295 353 417
#     4  12  28  43  71 104 144 189 240 287 345 427
#     4  12  24  43  72 103 143 186 232 292 351 422
#     4  11  24  45  72 104 136 182 238 289 353 419
#     4  11  25  45  73 101 143 185 231 297 352 415
#     4  11  25  45  69 104 140 183 238 288 355 418
#     4  12  26  46  68 106 145 185 240 286 350 419
#     4  12  24  45  68  99 144 186 232 287 351 407
#
# _framework density 22.419944000000001
#
# number of rings (size 3 to 8) (size 9 to 14) (size 15 to 20)
#    0.000    0.500    2.500    6.375    7.000    3.000 
#    0.000    2.500    0.000    0.000    0.000    0.000 
#    0.000    0.000    0.000    0.000    0.000    0.000 
#
# Total GULP energy -198284.054103 kJ/mol
# GULP energy per Si atom -12392.753381 kJ/mol
# Density = 2.236892 g / cm^3
# Si number density = 22.419944 Si / 1000 Ang^3
#
#
#
# Elastic Constant Matrix: (Units=GPa)
#
#
# Indices 1 2 3 4 5 6 
#
# 1 151.4484 46.6235 42.7345 0.8619 18.4293 1.8591
# 2 46.6235 149.6645 57.4089 -21.0135 20.9149 -5.6443
# 3 42.7345 57.4089 99.7046 -15.9702 17.7763 1.8411
# 4 0.8619 -21.0135 -15.9702 40.9240 -1.7702 0.7805
# 5 18.4293 20.9149 17.7763 -1.7702 39.4886 6.4996
# 6 1.8591 -5.6443 1.8411 0.7805 6.4996 32.6353
#
#
#
# Elastic Compliance Matrix: (Units=1/GPa)
#
#
# Indices 1 2 3 4 5 6 
#
# 1 0.008039 -0.001566 -0.002539 -0.002041 -0.001843 -0.000170
# 2 -0.001566 0.009609 -0.003868 0.003286 -0.002876 0.002463
# 3 -0.002539 -0.003868 0.014469 0.003601 -0.002981 -0.000833
# 4 -0.002041 0.003286 0.003601 0.027519 -0.001185 0.000059
# 5 -0.001843 -0.002876 -0.002981 -0.001185 0.030012 -0.006173
# 6 -0.000170 0.002463 -0.000833 0.000059 -0.006173 0.032352
#
#
# Mechanical properties :
#
#
# Convention : Reuss Voigt Hill
#
# Bulk Modulus (GPa) = 61.83967 77.15015 69.49491
# Shear Modulus (GPa) = 34.88269 39.54630 37.21450
#
# Velocity S-wave (km/s) = 3.94874 4.20442 4.07859
# Velocity P-wave (km/s) = 6.95934 7.61943 7.29685
#
# Compressibility (1/GPa) = 0.01617085
#
# Stress axis : x y z
#
# Youngs Moduli (GPa) = 124.38662 104.06543 69.11367
#
# Poissons Ratio (x) = 0.16294 0.17551
# Poissons Ratio (y) = 0.19476 0.26735
# Poissons Ratio (z) = 0.31587 0.40256
#
# Static dielectric constant tensor:
#      x y z
#    x 4.085820 0.059290 0.433010 
#    y 0.059290 3.925210 -0.240340 
#    z 0.433010 -0.240340 3.257410 
# 
# 
# High freq. dielectric constant tensor:
#      x y z
#    x 1.903280 -0.001900 0.003750 
#    y -0.001900 1.893370 -0.000260 
#    z 0.003750 -0.000260 1.882210 
# 
# From -- ./inp_files/208150.got.cif
#   From: 2010.06.25/outbox.cif.g09.slc.cpg/sg2_105_cif.got.tgz:208150.got - 2010.06.27 13:26:56.
