data_PCOD8034215
_publ_section_title
;
Structure prediction by ZEFSAII (Michael W. Deem and Ramdas Pophale) SiO2 
 PCOD8034215
Probable space group: P -1
;
_chemical_formula_sum "Si O2"
_cell_formula_units_Z 16
_cell_length_a 28.011312
_cell_length_b 13.128999
_cell_length_c 5.232151
_cell_angle_alpha 132.260841
_cell_angle_beta 50.824864
_cell_angle_gamma 151.842378
_cell_volume 667.860757
_symmetry_space_group_name_H-M "P -1"
_symmetry_group_IT_number 2
_symmetry_cell_setting 'triclinic'
loop_
_space_group_symop_operation_xyz
x,y,z
-x,-y,-z
loop_
_atom_site_type_symbol
_atom_site_label
_atom_site_fract_x
_atom_site_fract_y
_atom_site_fract_z
Si Si1 0.277099 0.866052 0.806164
Si Si2 0.903261 0.830053 0.287922
Si Si3 0.382239 0.514511 0.958565
Si Si4 0.088388 0.615330 0.707191
Si Si5 0.955073 0.137247 0.278764
Si Si6 0.217027 0.005683 0.584498
Si Si7 0.775205 0.540489 0.715176
Si Si8 0.501772 0.666131 0.304061
O O1 0.196372 0.776638 0.730381
O O2 0.252235 0.664441 0.618422
O O3 0.385518 0.072063 0.653082
O O4 0.266532 0.951788 0.225143
O O5 0.840552 0.725281 0.580954
O O6 0.949015 0.063112 0.462025
O O7 0.831474 0.652532 0.988443
O O8 0.004947 0.916758 0.127661
O O9 0.306694 0.251297 0.824880
O O10 0.462304 0.623627 0.649972
O O11 0.328920 0.557914 0.110752
O O12 0.437531 0.630121 0.239684
O O13 0.045099 0.403953 0.362824
O O14 0.114952 0.787785 0.722551
O O15 0.000000 0.500000 0.000000
O O16 0.838980 0.987167 0.404232
O O17 0.500000 0.500000 0.000000
#
# Coordination Sequence:
#
# PCOD8034215 Si02
#       8
#     2   2   2   2   2   2   2   2
#     4  12  28  46  76 107 152 193 248 309 375 438
#     4  11  26  45  72 105 150 201 250 295 366 441
#     4  12  28  50  80 108 149 192 252 307 374 438
#     4  12  26  41  70 108 150 193 248 302 369 437
#     4  11  24  44  68 107 147 200 246 305 361 442
#     4  12  26  45  73 110 148 200 247 312 366 444
#     4  12  27  49  74 107 149 198 245 305 368 445
#     4  12  27  51  81 114 142 191 249 315 373 438
#
# _framework density 23.957087999999999
#
# number of rings (size 3 to 8) (size 9 to 14) (size 15 to 20)
#    0.000    0.250    5.000    3.000    5.250    3.000 
#    0.000    0.000    0.000    0.000    0.000    0.000 
#    0.000    0.000    0.000    0.000    0.000    0.000 
#
# Total GULP energy -198223.030211 kJ/mol
# GULP energy per Si atom -12388.939388 kJ/mol
# Density = 2.390256 g / cm^3
# Si number density = 23.957088 Si / 1000 Ang^3
#
#
#
# Elastic Constant Matrix: (Units=GPa)
#
#
# Indices 1 2 3 4 5 6 
#
# 1 92.3557 30.3328 19.9122 3.5378 -4.8127 8.5155
# 2 30.3328 151.0874 23.2449 -7.8872 4.0928 1.2279
# 3 19.9122 23.2449 73.3329 -3.0365 -13.5485 -10.5639
# 4 3.5378 -7.8872 -3.0365 58.5218 -1.6991 -10.1587
# 5 -4.8127 4.0928 -13.5485 -1.6991 40.2813 -2.7767
# 6 8.5155 1.2279 -10.5639 -10.1587 -2.7767 56.5700
#
#
#
# Elastic Compliance Matrix: (Units=1/GPa)
#
#
# Indices 1 2 3 4 5 6 
#
# 1 0.012526 -0.002111 -0.003114 -0.001660 0.000408 -0.002699
# 2 -0.002111 0.007459 -0.002083 0.000951 -0.001681 -0.000145
# 3 -0.003114 -0.002083 0.016916 0.001697 0.005895 0.004267
# 4 -0.001660 0.000951 0.001697 0.018113 0.001306 0.003863
# 5 0.000408 -0.001681 0.005895 0.001306 0.027265 0.002649
# 6 -0.002699 -0.000145 0.004267 0.003863 0.002649 0.019707
#
#
# Mechanical properties :
#
#
# Convention : Reuss Voigt Hill
#
# Bulk Modulus (GPa) = 44.87439 51.52841 48.20140
# Shear Modulus (GPa) = 40.31165 47.29370 43.80267
#
# Velocity S-wave (km/s) = 4.10647 4.44791 4.28060
# Velocity P-wave (km/s) = 6.42308 6.92342 6.67794
#
# Compressibility (1/GPa) = 0.02228443
#
# Stress axis : x y z
#
# Youngs Moduli (GPa) = 79.83158 134.05842 59.11391
#
# Poissons Ratio (x) = 0.28306 0.18410
# Poissons Ratio (y) = 0.16856 0.12314
# Poissons Ratio (z) = 0.24862 0.27926
#
# Static dielectric constant tensor:
#      x y z
#    x 4.670960 -0.227330 -0.506810 
#    y -0.227330 4.835870 0.516090 
#    z -0.506810 0.516090 5.001680 
# 
# 
# High freq. dielectric constant tensor:
#      x y z
#    x 1.965490 0.000000 -0.014750 
#    y 0.000000 1.964680 -0.000390 
#    z -0.014750 -0.000390 1.945030 
# 
# From -- ./inp_files/126931.got.cif
#   From: 2010.06.25/outbox.cif.g09.slc.cpg/sg2_64_cif.got.tgz:126931.got - 2010.06.27 13:26:56.
