data_PCOD8034830
_publ_section_title
;
Structure prediction by ZEFSAII (Michael W. Deem and Ramdas Pophale) SiO2 
 PCOD8034830
Probable space group: P -1
;
_chemical_formula_sum "Si O2"
_cell_formula_units_Z 16
_cell_length_a 14.736258
_cell_length_b 9.529374
_cell_length_c 9.001063
_cell_angle_alpha 47.760165
_cell_angle_beta 71.875646
_cell_angle_gamma 102.490003
_cell_volume 708.405700
_symmetry_space_group_name_H-M "P -1"
_symmetry_group_IT_number 2
_symmetry_cell_setting 'triclinic'
loop_
_space_group_symop_operation_xyz
x,y,z
-x,-y,-z
loop_
_atom_site_type_symbol
_atom_site_label
_atom_site_fract_x
_atom_site_fract_y
_atom_site_fract_z
Si Si1 0.380617 0.438619 0.028991
Si Si2 0.654644 0.169651 0.137941
Si Si3 0.429565 0.860659 0.284625
Si Si4 0.626088 0.603769 0.290969
Si Si5 0.787973 0.042453 0.376980
Si Si6 0.186296 0.845378 0.145051
Si Si7 0.984550 0.178333 0.959955
Si Si8 0.822175 0.315186 0.428630
O O1 0.274785 0.193034 0.328263
O O2 0.500000 0.500000 0.000000
O O3 0.350088 0.622469 0.946656
O O4 0.383347 0.408623 0.873215
O O5 0.696614 0.065189 0.312556
O O6 0.519172 0.956496 0.310097
O O7 0.741432 0.249545 0.892486
O O8 0.350434 0.574015 0.523044
O O9 0.323488 0.880706 0.354995
O O10 0.500000 0.000000 0.000000
O O11 0.500000 0.500000 0.500000
O O12 0.727032 0.867058 0.111444
O O13 0.863523 0.267536 0.289248
O O14 0.884177 0.042090 0.234028
O O15 0.065264 0.729984 0.197387
O O16 0.137733 0.753231 0.399494
O O17 0.112562 0.401844 0.800274
O O18 0.000000 0.000000 0.000000
#
# Coordination Sequence:
#
# PCOD8034830 Si02
#       8
#     2   2   2   2   2   2   2   2
#     4  12  27  42  71 106 150 190 232 290 356 434
#     4  11  25  44  69 111 143 191 231 293 359 428
#     4  12  24  40  74 104 147 187 234 290 362 431
#     4  12  24  43  65 104 143 183 236 282 351 433
#     4  11  26  49  72 103 150 187 241 298 363 424
#     4  11  24  46  72 101 142 186 238 297 354 428
#     4  11  27  47  73 103 135 188 246 305 355 425
#     4  12  23  46  71 100 142 188 240 292 363 422
#
# _framework density 22.585927000000002
#
# number of rings (size 3 to 8) (size 9 to 14) (size 15 to 20)
#    0.000    0.500    3.750    3.750    5.250    1.500 
#    0.000    0.625    0.000    0.000    0.000    0.000 
#    0.000    0.000    0.000    0.000    0.000    0.000 
#
# Total GULP energy -198305.730004 kJ/mol
# GULP energy per Si atom -12394.108125 kJ/mol
# Density = 2.253452 g / cm^3
# Si number density = 22.585927 Si / 1000 Ang^3
#
#
#
# Elastic Constant Matrix: (Units=GPa)
#
#
# Indices 1 2 3 4 5 6 
#
# 1 82.3100 45.6222 44.7604 11.2623 -20.0656 -11.2735
# 2 45.6222 156.8351 61.2795 11.0489 -10.9440 -13.2752
# 3 44.7604 61.2795 129.1355 6.2466 7.5725 0.5228
# 4 11.2623 11.0489 6.2466 42.3640 4.9627 3.8963
# 5 -20.0656 -10.9440 7.5725 4.9627 30.2184 -4.1340
# 6 -11.2735 -13.2752 0.5228 3.8963 -4.1340 35.6129
#
#
#
# Elastic Compliance Matrix: (Units=1/GPa)
#
#
# Indices 1 2 3 4 5 6 
#
# 1 0.026182 -0.000577 -0.009741 -0.009127 0.022738 0.011854
# 2 -0.000577 0.009102 -0.004305 -0.002549 0.004976 0.004130
# 3 -0.009741 -0.004305 0.013770 0.003837 -0.013041 -0.006824
# 4 -0.009127 -0.002549 0.003837 0.028541 -0.013812 -0.008622
# 5 0.022738 0.004976 -0.013041 -0.013812 0.057920 0.017479
# 6 0.011854 0.004130 -0.006824 -0.008622 0.017479 0.036444
#
#
# Mechanical properties :
#
#
# Convention : Reuss Voigt Hill
#
# Bulk Modulus (GPa) = 50.48362 74.62275 62.55319
# Shear Modulus (GPa) = 24.06082 36.08028 30.07055
#
# Velocity S-wave (km/s) = 3.26744 4.00117 3.65277
# Velocity P-wave (km/s) = 6.05270 7.37950 6.74879
#
# Compressibility (1/GPa) = 0.01980840
#
# Stress axis : x y z
#
# Youngs Moduli (GPa) = 38.19475 109.86403 72.62375
#
# Poissons Ratio (x) = 0.06339 0.70743
# Poissons Ratio (y) = 0.02204 0.31261
# Poissons Ratio (z) = 0.37205 0.47291
#
# Static dielectric constant tensor:
#      x y z
#    x 4.934330 0.192680 -0.431310 
#    y 0.192680 4.482780 0.050350 
#    z -0.431310 0.050350 4.134380 
# 
# 
# High freq. dielectric constant tensor:
#      x y z
#    x 1.888570 0.002920 -0.002010 
#    y 0.002920 1.907510 0.004650 
#    z -0.002010 0.004650 1.898000 
# 
# From -- ./inp_files/297384.got.cif
#   From: 2010.06.25/outbox.cif.g09.slc.cpg/sg2_149_cif.got.tgz:297384.got - 2010.06.27 13:26:56.
