data_PCOD8034093
_publ_section_title
;
Structure prediction by ZEFSAII (Michael W. Deem and Ramdas Pophale) SiO2 
 PCOD8034093
Probable space group: P -1
;
_chemical_formula_sum "Si O2"
_cell_formula_units_Z 14
_cell_length_a 10.786378
_cell_length_b 13.800297
_cell_length_c 8.840759
_cell_angle_alpha 122.978756
_cell_angle_beta 69.037715
_cell_angle_gamma 148.022397
_cell_volume 568.400767
_symmetry_space_group_name_H-M "P -1"
_symmetry_group_IT_number 2
_symmetry_cell_setting 'triclinic'
loop_
_space_group_symop_operation_xyz
x,y,z
-x,-y,-z
loop_
_atom_site_type_symbol
_atom_site_label
_atom_site_fract_x
_atom_site_fract_y
_atom_site_fract_z
Si Si1 0.733453 0.114062 0.075285
Si Si2 0.194980 0.080131 0.616256
Si Si3 0.406648 0.036212 0.670135
Si Si4 0.868424 0.501493 0.969207
Si Si5 0.033636 0.127514 0.976266
Si Si6 0.769945 0.624439 0.356344
Si Si7 0.632182 0.505130 0.640243
O O1 0.970476 0.352705 0.121716
O O2 0.710814 0.113504 0.263549
O O3 0.782508 0.010332 0.937439
O O4 0.500000 0.000000 0.000000
O O5 0.214186 0.974954 0.615025
O O6 0.169914 0.176229 0.812167
O O7 0.433850 0.263780 0.564778
O O8 0.939131 0.863669 0.461887
O O9 0.610409 0.273548 0.834059
O O10 0.500000 0.000000 0.500000
O O11 0.852869 0.596575 0.170446
O O12 0.000000 0.500000 0.000000
O O13 0.189193 0.343360 0.168627
O O14 0.000000 0.000000 0.000000
O O15 0.773773 0.573257 0.481823
O O16 0.497326 0.465800 0.308776
#
# Coordination Sequence:
#
# PCOD8034093 Si02
#       7
#     2   2   2   2   2   2   2
#     4  12  27  48  76 108 145 199 243 302 369 429
#     4  12  24  44  72 107 148 191 245 302 364 438
#     4  12  27  48  74 107 147 191 243 302 366 441
#     4  12  26  46  72 103 143 192 244 295 361 438
#     4  12  23  46  75 105 148 192 247 301 363 432
#     4  11  25  43  68 110 147 184 243 302 364 434
#     4  11  24  43  72 107 146 192 234 304 370 427
#
# _framework density 24.630507000000001
#
# number of rings (size 3 to 8) (size 9 to 14) (size 15 to 20)
#    0.000    0.286    4.286    4.286    0.000    2.857 
#    0.000    0.000    0.000    0.000    0.000    0.000 
#    0.000    0.000    0.000    0.000    0.000    0.000 
#
# Total GULP energy -173584.112602 kJ/mol
# GULP energy per Si atom -12398.865186 kJ/mol
# Density = 2.457445 g / cm^3
# Si number density = 24.630507 Si / 1000 Ang^3
#
#
#
# Elastic Constant Matrix: (Units=GPa)
#
#
# Indices 1 2 3 4 5 6 
#
# 1 110.5982 13.1869 7.6563 -3.8366 -19.8893 -1.3344
# 2 13.1869 168.1497 63.5106 -20.7390 1.0243 -16.2686
# 3 7.6563 63.5106 135.7426 -12.4115 -14.9528 0.5984
# 4 -3.8366 -20.7390 -12.4115 42.4579 5.3158 5.6586
# 5 -19.8893 1.0243 -14.9528 5.3158 31.0493 -3.5776
# 6 -1.3344 -16.2686 0.5984 5.6586 -3.5776 38.7665
#
#
#
# Elastic Compliance Matrix: (Units=1/GPa)
#
#
# Indices 1 2 3 4 5 6 
#
# 1 0.010409 -0.001106 0.000683 -0.000377 0.007167 0.000600
# 2 -0.001106 0.008096 -0.003814 0.002746 -0.002966 0.002744
# 3 0.000683 -0.003814 0.009723 0.000597 0.004987 -0.001354
# 4 -0.000377 0.002746 0.000597 0.026060 -0.004866 -0.003123
# 5 0.007167 -0.002966 0.004987 -0.004866 0.040520 0.003375
# 6 0.000600 0.002744 -0.001354 -0.003123 0.003375 0.027756
#
#
# Mechanical properties :
#
#
# Convention : Reuss Voigt Hill
#
# Bulk Modulus (GPa) = 50.62196 64.79977 57.71087
# Shear Modulus (GPa) = 36.33129 44.46384 40.39756
#
# Velocity S-wave (km/s) = 3.84481 4.25341 4.05426
# Velocity P-wave (km/s) = 6.34880 7.10548 6.73777
#
# Compressibility (1/GPa) = 0.01975427
#
# Stress axis : x y z
#
# Youngs Moduli (GPa) = 96.06681 123.51134 102.85365
#
# Poissons Ratio (x) = 0.13666 -0.07024
# Poissons Ratio (y) = 0.10629 0.39223
# Poissons Ratio (z) = -0.06560 0.47101
#
# Static dielectric constant tensor:
#      x y z
#    x 4.854870 -0.048000 0.180720 
#    y -0.048000 4.549660 -0.213100 
#    z 0.180720 -0.213100 4.239550 
# 
# 
# High freq. dielectric constant tensor:
#      x y z
#    x 2.003120 -0.003140 0.014660 
#    y -0.003140 1.997440 -0.014680 
#    z 0.014660 -0.014680 1.963530 
# 
# From -- ./inp_files/274317.got.cif
#   From: 2010.06.25/outbox.cif.g09.slc.cpg/sg2_138_cif.got.tgz:274317.got - 2010.06.27 13:26:56.
