data_PCOD8034592
_publ_section_title
;
Structure prediction by ZEFSAII (Michael W. Deem and Ramdas Pophale) SiO2 
 PCOD8034592
Probable space group: P -1
;
_chemical_formula_sum "Si O2"
_cell_formula_units_Z 16
_cell_length_a 6.845977
_cell_length_b 8.805605
_cell_length_c 21.905126
_cell_angle_alpha 134.385738
_cell_angle_beta 123.973821
_cell_angle_gamma 55.877340
_cell_volume 749.679201
_symmetry_space_group_name_H-M "P -1"
_symmetry_group_IT_number 2
_symmetry_cell_setting 'triclinic'
loop_
_space_group_symop_operation_xyz
x,y,z
-x,-y,-z
loop_
_atom_site_type_symbol
_atom_site_label
_atom_site_fract_x
_atom_site_fract_y
_atom_site_fract_z
Si Si1 0.137330 0.675425 0.171652
Si Si2 0.924422 0.454292 0.406663
Si Si3 0.827109 0.851953 0.411871
Si Si4 0.004762 0.451524 0.759668
Si Si5 0.594566 0.295691 0.101206
Si Si6 0.337634 0.086455 0.903212
Si Si7 0.492931 0.790917 0.733235
Si Si8 0.635682 0.925124 0.670818
O O1 0.341487 0.447464 0.128456
O O2 0.040087 0.670495 0.221656
O O3 0.913036 0.716861 0.096169
O O4 0.240802 0.882990 0.241390
O O5 0.825253 0.684629 0.418970
O O6 0.710764 0.337590 0.335283
O O7 0.000000 0.500000 0.500000
O O8 0.162623 0.305367 0.371852
O O9 0.908241 0.729696 0.328089
O O10 0.549837 0.011175 0.400944
O O11 0.000000 0.000000 0.500000
O O12 0.215683 0.568873 0.842698
O O13 0.760103 0.628340 0.744927
O O14 0.715874 0.104103 0.117178
O O15 0.536910 0.188479 0.998150
O O16 0.443893 0.985790 0.828798
O O17 0.478509 0.900664 0.695457
#
# Coordination Sequence:
#
# PCOD8034592 Si02
#       8
#     2   2   2   2   2   2   2   2
#     4  12  24  45  70 101 134 181 228 277 338 397
#     4  12  28  47  71 103 138 177 228 278 336 406
#     4  12  27  46  71 104 137 177 228 280 335 404
#     4  12  25  45  71  98 140 178 225 281 336 401
#     4  11  25  47  66 102 139 176 227 281 334 403
#     4  11  24  45  71  99 138 179 225 279 339 399
#     4  12  24  47  71 100 137 183 223 278 340 398
#     4  12  26  46  75  97 139 182 223 281 338 399
#
# _framework density 21.342462000000001
#
# number of rings (size 3 to 8) (size 9 to 14) (size 15 to 20)
#    0.000    0.250    5.000    4.125    3.500    2.500 
#    2.250    0.000    0.000    0.000    0.000    0.000 
#    0.000    0.000    0.000    0.000    0.000    0.000 
#
# Total GULP energy -198518.259223 kJ/mol
# GULP energy per Si atom -12407.391201 kJ/mol
# Density = 2.129389 g / cm^3
# Si number density = 21.342462 Si / 1000 Ang^3
#
#
#
# Elastic Constant Matrix: (Units=GPa)
#
#
# Indices 1 2 3 4 5 6 
#
# 1 113.8829 41.3232 54.0142 -8.3201 6.2768 14.0328
# 2 41.3232 122.2572 35.2780 -29.6292 6.9100 9.4442
# 3 54.0142 35.2780 133.7312 -2.6867 9.2350 12.8564
# 4 -8.3201 -29.6292 -2.6867 31.7175 2.4779 3.2738
# 5 6.2768 6.9100 9.2350 2.4779 24.8817 -10.7401
# 6 14.0328 9.4442 12.8564 3.2738 -10.7401 39.4063
#
#
#
# Elastic Compliance Matrix: (Units=1/GPa)
#
#
# Indices 1 2 3 4 5 6 
#
# 1 0.012021 -0.002282 -0.003731 0.001250 -0.002572 -0.003321
# 2 -0.002282 0.013015 -0.001454 0.012328 -0.005621 -0.004389
# 3 -0.003731 -0.001454 0.009788 -0.001023 -0.003178 -0.002297
# 4 0.001250 0.012328 -0.001023 0.045294 -0.012260 -0.010170
# 5 -0.002572 -0.005621 -0.003178 -0.012260 0.052886 0.018732
# 6 -0.003321 -0.004389 -0.002297 -0.010170 0.018732 0.034311
#
#
# Mechanical properties :
#
#
# Convention : Reuss Voigt Hill
#
# Bulk Modulus (GPa) = 50.27686 70.12246 60.19966
# Shear Modulus (GPa) = 26.47206 35.15149 30.81178
#
# Velocity S-wave (km/s) = 3.52568 4.06275 3.80371
# Velocity P-wave (km/s) = 6.33894 7.41182 6.89628
#
# Compressibility (1/GPa) = 0.01988986
#
# Stress axis : x y z
#
# Youngs Moduli (GPa) = 83.18814 76.83617 102.16508
#
# Poissons Ratio (x) = 0.17531 0.38122
# Poissons Ratio (y) = 0.18980 0.14854
# Poissons Ratio (z) = 0.31041 0.11172
#
# Static dielectric constant tensor:
#      x y z
#    x 3.995530 -0.230790 -0.024860 
#    y -0.230790 4.459650 -0.146540 
#    z -0.024860 -0.146540 4.039170 
# 
# 
# High freq. dielectric constant tensor:
#      x y z
#    x 1.841410 -0.002790 0.002890 
#    y -0.002790 1.863350 -0.007500 
#    z 0.002890 -0.007500 1.846390 
# 
# From -- ./inp_files/46511.got.cif
#   From: 2010.06.25/outbox.cif.g09.slc.cpg/sg2_24_cif.got.tgz:46511.got - 2010.06.27 13:26:56.
