data_PCOD8034138
_publ_section_title
;
Structure prediction by ZEFSAII (Michael W. Deem and Ramdas Pophale) SiO2 
 PCOD8034138
Probable space group: P -1
;
_chemical_formula_sum "Si O2"
_cell_formula_units_Z 16
_cell_length_a 11.322886
_cell_length_b 9.180468
_cell_length_c 14.072483
_cell_angle_alpha 129.286673
_cell_angle_beta 140.272533
_cell_angle_gamma 73.679686
_cell_volume 657.918586
_symmetry_space_group_name_H-M "P -1"
_symmetry_group_IT_number 2
_symmetry_cell_setting 'triclinic'
loop_
_space_group_symop_operation_xyz
x,y,z
-x,-y,-z
loop_
_atom_site_type_symbol
_atom_site_label
_atom_site_fract_x
_atom_site_fract_y
_atom_site_fract_z
Si Si1 0.406620 0.376393 0.112154
Si Si2 0.854843 0.244168 0.104226
Si Si3 0.795778 0.301517 0.297735
Si Si4 0.914203 0.968118 0.327161
Si Si5 0.643234 0.222855 0.776720
Si Si6 0.311815 0.217635 0.183641
Si Si7 0.757589 0.444262 0.602165
Si Si8 0.778035 0.138506 0.634036
O O1 0.617343 0.357999 0.247151
O O2 0.450658 0.616436 0.245208
O O3 0.262165 0.259633 0.063085
O O4 0.275650 0.258160 0.890058
O O5 0.735326 0.215657 0.117475
O O6 0.078118 0.436905 0.330035
O O7 0.753111 0.306699 0.978617
O O8 0.839690 0.015261 0.976945
O O9 0.000000 0.500000 0.500000
O O10 0.826113 0.136262 0.317400
O O11 0.089235 0.986370 0.366434
O O12 0.000000 0.000000 0.500000
O O13 0.800214 0.207798 0.787661
O O14 0.460844 0.999320 0.586572
O O15 0.553016 0.268609 0.359508
O O16 0.274721 0.367135 0.295020
O O17 0.848754 0.339543 0.693235
#
# Coordination Sequence:
#
# PCOD8034138 Si02
#       8
#     2   2   2   2   2   2   2   2
#     4  12  26  49  77 103 154 194 254 305 380 441
#     4  12  26  44  76 107 149 198 255 300 378 451
#     4  12  29  50  72 109 149 199 256 309 369 453
#     4  12  30  47  77 108 149 201 245 310 373 447
#     4  11  26  46  78 111 144 202 240 321 371 449
#     4  11  24  45  72 110 145 196 244 311 374 445
#     4  11  24  43  74 108 152 189 244 314 376 443
#     4  11  25  48  73 110 155 185 254 306 380 441
#
# _framework density 24.319118
#
# number of rings (size 3 to 8) (size 9 to 14) (size 15 to 20)
#    0.000    0.500    3.750    3.000    8.750    2.500 
#    0.000    0.000    0.000    0.000    0.000    0.000 
#    0.000    0.000    0.000    0.000    0.000    0.000 
#
# Total GULP energy -198383.384440 kJ/mol
# GULP energy per Si atom -12398.961528 kJ/mol
# Density = 2.426377 g / cm^3
# Si number density = 24.319118 Si / 1000 Ang^3
#
#
#
# Elastic Constant Matrix: (Units=GPa)
#
#
# Indices 1 2 3 4 5 6 
#
# 1 109.0024 50.2124 10.1284 -9.9059 -7.4457 -1.9545
# 2 50.2124 125.1312 15.8626 7.3849 -5.1665 4.9652
# 3 10.1284 15.8626 73.2222 5.3325 -3.3379 12.4914
# 4 -9.9059 7.3849 5.3325 44.5438 13.5771 0.3051
# 5 -7.4457 -5.1665 -3.3379 13.5771 36.8599 1.1919
# 6 -1.9545 4.9652 12.4914 0.3051 1.1919 41.2264
#
#
#
# Elastic Compliance Matrix: (Units=1/GPa)
#
#
# Indices 1 2 3 4 5 6 
#
# 1 0.011886 -0.004885 -0.001073 0.003483 0.000289 0.001443
# 2 -0.004885 0.010385 -0.001072 -0.003150 0.001570 -0.001180
# 3 -0.001073 -0.001072 0.015084 -0.002461 0.002052 -0.004533
# 4 0.003483 -0.003150 -0.002461 0.027073 -0.009977 0.001378
# 5 0.000289 0.001570 0.002052 -0.009977 0.031322 -0.001629
# 6 0.001443 -0.001180 -0.004533 0.001378 -0.001629 0.025877
#
#
# Mechanical properties :
#
#
# Convention : Reuss Voigt Hill
#
# Bulk Modulus (GPa) = 42.92404 51.08473 47.00438
# Shear Modulus (GPa) = 34.85519 39.93618 37.39568
#
# Velocity S-wave (km/s) = 3.78993 4.05677 3.92562
# Velocity P-wave (km/s) = 6.06960 6.55704 6.31802
#
# Compressibility (1/GPa) = 0.02329697
#
# Stress axis : x y z
#
# Youngs Moduli (GPa) = 84.13234 96.29177 66.29661
#
# Poissons Ratio (x) = 0.47034 0.07111
# Poissons Ratio (y) = 0.41094 0.07106
# Poissons Ratio (z) = 0.09024 0.10321
#
# Static dielectric constant tensor:
#      x y z
#    x 4.708150 0.003680 -0.153520 
#    y 0.003680 4.375890 0.048440 
#    z -0.153520 0.048440 4.534690 
# 
# 
# High freq. dielectric constant tensor:
#      x y z
#    x 1.967020 0.004830 -0.007050 
#    y 0.004830 1.965710 0.006550 
#    z -0.007050 0.006550 1.977880 
# 
# From -- ./inp_files/516313.got.cif
#   From: 2010.06.25/outbox.cif.g09.slc.cpg/sg2_259_cif.got.tgz:516313.got - 2010.06.27 13:26:56.
