data_PCOD8034378
_publ_section_title
;
Structure prediction by ZEFSAII (Michael W. Deem and Ramdas Pophale) SiO2 
 PCOD8034378
Probable space group: P -1
;
_chemical_formula_sum "Si O2"
_cell_formula_units_Z 16
_cell_length_a 12.157908
_cell_length_b 20.287560
_cell_length_c 11.988661
_cell_angle_alpha 29.077823
_cell_angle_beta 41.762557
_cell_angle_gamma 28.957098
_cell_volume 693.566537
_symmetry_space_group_name_H-M "P -1"
_symmetry_group_IT_number 2
_symmetry_cell_setting 'triclinic'
loop_
_space_group_symop_operation_xyz
x,y,z
-x,-y,-z
loop_
_atom_site_type_symbol
_atom_site_label
_atom_site_fract_x
_atom_site_fract_y
_atom_site_fract_z
Si Si1 0.742600 0.788520 0.859418
Si Si2 0.932334 0.224379 0.015458
Si Si3 0.489194 0.240111 0.107318
Si Si4 0.142728 0.021097 0.633570
Si Si5 0.545889 0.104719 0.881620
Si Si6 0.867879 0.470402 0.884425
Si Si7 0.846756 0.469278 0.511387
Si Si8 0.275861 0.679597 0.345737
O O1 0.704360 0.727924 0.863494
O O2 0.820818 0.897873 0.616280
O O3 0.512695 0.900716 0.938168
O O4 0.940791 0.614762 0.040723
O O5 0.869150 0.325974 0.032538
O O6 0.877079 0.368128 0.751617
O O7 0.791739 0.167153 0.180851
O O8 0.186816 0.019779 0.134623
O O9 0.371221 0.384052 0.087396
O O10 0.674678 0.035972 0.325517
O O11 0.646180 0.249876 0.902189
O O12 0.888546 0.170101 0.655902
O O13 0.396564 0.312622 0.634355
O O14 0.500000 0.000000 0.000000
O O15 0.933686 0.554335 0.624332
O O16 0.856786 0.362640 0.556655
O O17 0.500000 0.500000 0.500000
#
# Coordination Sequence:
#
# PCOD8034378 Si02
#       8
#     2   2   2   2   2   2   2   2
#     4  11  24  45  70 100 140 183 236 292 344 417
#     4  12  25  47  71 104 150 184 238 286 352 431
#     4  12  25  44  69 103 140 179 241 292 349 419
#     4  12  27  44  69 108 139 186 231 292 362 412
#     4  11  24  46  74 108 136 188 236 281 357 422
#     4  11  25  45  68 104 136 189 234 287 354 416
#     4  11  24  44  73 106 139 184 236 294 350 416
#     4  12  24  46  72 100 139 184 236 294 354 418
#
# _framework density 23.069163
#
# number of rings (size 3 to 8) (size 9 to 14) (size 15 to 20)
#    0.000    0.500    3.750    6.000    3.500    1.000 
#    2.250    0.000    0.000    0.000    0.000    0.000 
#    0.000    0.000    0.000    0.000    0.000    0.000 
#
# Total GULP energy -198339.280900 kJ/mol
# GULP energy per Si atom -12396.205056 kJ/mol
# Density = 2.301666 g / cm^3
# Si number density = 23.069163 Si / 1000 Ang^3
#
#
#
# Elastic Constant Matrix: (Units=GPa)
#
#
# Indices 1 2 3 4 5 6 
#
# 1 107.3399 32.4616 9.5239 -15.0859 -9.4639 10.4773
# 2 32.4616 96.0057 23.2486 -5.0471 9.1143 11.4802
# 3 9.5239 23.2486 86.1567 -5.0323 -8.7900 10.9958
# 4 -15.0859 -5.0471 -5.0323 25.8568 -0.3838 -1.7537
# 5 -9.4639 9.1143 -8.7900 -0.3838 37.0799 -7.0745
# 6 10.4773 11.4802 10.9958 -1.7537 -7.0745 28.6306
#
#
#
# Elastic Compliance Matrix: (Units=1/GPa)
#
#
# Indices 1 2 3 4 5 6 
#
# 1 0.011855 -0.004042 0.000757 0.006222 0.003948 -0.001652
# 2 -0.004042 0.013628 -0.003345 -0.000725 -0.005988 -0.004225
# 3 0.000757 -0.003345 0.013310 0.002228 0.003618 -0.003017
# 4 0.006222 -0.000725 0.002228 0.042671 0.002826 0.000470
# 5 0.003948 -0.005988 0.003618 0.002826 0.031784 0.007593
# 6 -0.001652 -0.004225 -0.003017 0.000470 0.007593 0.040290
#
#
# Mechanical properties :
#
#
# Convention : Reuss Voigt Hill
#
# Bulk Modulus (GPa) = 39.16292 46.66339 42.91315
# Shear Modulus (GPa) = 28.52113 33.26467 30.89290
#
# Velocity S-wave (km/s) = 3.51996 3.80143 3.66340
# Velocity P-wave (km/s) = 5.79080 6.28803 6.04453
#
# Compressibility (1/GPa) = 0.02553436
#
# Stress axis : x y z
#
# Youngs Moduli (GPa) = 84.35146 73.37678 75.13174
#
# Poissons Ratio (x) = 0.29659 -0.05689
# Poissons Ratio (y) = 0.34096 0.25129
# Poissons Ratio (z) = -0.06388 0.24542
#
# Static dielectric constant tensor:
#      x y z
#    x 4.447260 0.278060 0.201810 
#    y 0.278060 4.099820 0.092920 
#    z 0.201810 0.092920 4.362020 
# 
# 
# High freq. dielectric constant tensor:
#      x y z
#    x 1.928230 -0.002320 0.001390 
#    y -0.002320 1.908020 -0.002930 
#    z 0.001390 -0.002930 1.911900 
# 
# From -- ./inp_files/189300.got.cif
#   From: 2010.06.25/outbox.cif.g09.slc.cpg/sg2_95_cif.got.tgz:189300.got - 2010.06.27 13:26:56.
