data_PCOD8034929
_publ_section_title
;
Structure prediction by ZEFSAII (Michael W. Deem and Ramdas Pophale) SiO2 
 PCOD8034929
Probable space group: P -1
;
_chemical_formula_sum "Si O2"
_cell_formula_units_Z 16
_cell_length_a 5.534555
_cell_length_b 12.839927
_cell_length_c 13.444405
_cell_angle_alpha 60.671708
_cell_angle_beta 119.487291
_cell_angle_gamma 85.207162
_cell_volume 655.355068
_symmetry_space_group_name_H-M "P -1"
_symmetry_group_IT_number 2
_symmetry_cell_setting 'triclinic'
loop_
_space_group_symop_operation_xyz
x,y,z
-x,-y,-z
loop_
_atom_site_type_symbol
_atom_site_label
_atom_site_fract_x
_atom_site_fract_y
_atom_site_fract_z
Si Si1 0.155438 0.819257 0.174083
Si Si2 0.806258 0.723682 0.843209
Si Si3 0.389229 0.423201 0.717828
Si Si4 0.418105 0.479253 0.102415
Si Si5 0.350438 0.051238 0.132043
Si Si6 0.151619 0.625788 0.423503
Si Si7 0.049447 0.151665 0.585663
Si Si8 0.606552 0.857801 0.544981
O O1 0.367759 0.731145 0.166984
O O2 0.241224 0.721277 0.329913
O O3 0.217419 0.941489 0.167341
O O4 0.801834 0.870899 0.037830
O O5 0.538672 0.672176 0.812056
O O6 0.740957 0.850033 0.839080
O O7 0.842401 0.756033 0.720148
O O8 0.085381 0.596340 0.003833
O O9 0.376870 0.498963 0.781584
O O10 0.437105 0.504107 0.592816
O O11 0.046552 0.435110 0.645734
O O12 0.500000 0.500000 0.000000
O O13 0.721995 0.976307 0.242201
O O14 0.942911 0.718153 0.426694
O O15 0.198445 0.145666 0.511051
O O16 0.702953 0.164896 0.516772
O O17 0.500000 0.000000 0.500000
#
# Coordination Sequence:
#
# PCOD8034929 Si02
#       8
#     2   2   2   2   2   2   2   2
#     4  11  24  49  71 111 148 197 247 321 386 453
#     4  11  26  47  71 108 143 207 247 320 378 457
#     4  11  24  48  70 109 143 196 258 312 378 456
#     4  11  27  47  74 106 149 198 259 312 382 458
#     4  11  24  46  76 107 153 190 257 309 389 464
#     4  11  26  43  76 107 145 196 251 316 382 450
#     4  12  26  49  71 115 152 203 251 315 386 453
#     4  12  27  46  75 109 156 200 257 313 381 459
#
# _framework density 24.414245999999999
#
# number of rings (size 3 to 8) (size 9 to 14) (size 15 to 20)
#    0.000    0.750    3.750    2.250    5.250    0.500 
#    4.500    0.000    0.000    0.000    0.000    0.000 
#    0.000    0.000    0.000    0.000    0.000    0.000 
#
# Total GULP energy -198210.430091 kJ/mol
# GULP energy per Si atom -12388.151881 kJ/mol
# Density = 2.435868 g / cm^3
# Si number density = 24.414246 Si / 1000 Ang^3
#
#
#
# Elastic Constant Matrix: (Units=GPa)
#
#
# Indices 1 2 3 4 5 6 
#
# 1 63.3670 34.0763 12.2718 3.8438 -6.6619 10.1760
# 2 34.0763 186.6141 47.9983 10.6141 -6.7674 7.9833
# 3 12.2718 47.9983 117.0877 0.2635 -1.5917 0.2459
# 4 3.8438 10.6141 0.2635 41.2495 0.9667 5.3489
# 5 -6.6619 -6.7674 -1.5917 0.9667 36.6827 -5.0713
# 6 10.1760 7.9833 0.2459 5.3489 -5.0713 18.3757
#
#
#
# Elastic Compliance Matrix: (Units=1/GPa)
#
#
# Indices 1 2 3 4 5 6 
#
# 1 0.019058 -0.002840 -0.000792 0.000071 0.001675 -0.008867
# 2 -0.002840 0.006623 -0.002406 -0.001342 0.000536 -0.000734
# 3 -0.000792 -0.002406 0.009606 0.000475 -0.000016 0.001213
# 4 0.000071 -0.001342 0.000475 0.025588 -0.001917 -0.007440
# 5 0.001675 0.000536 -0.000016 -0.001917 0.028726 0.007326
# 6 -0.008867 -0.000734 0.001213 -0.007440 0.007326 0.063820
#
#
# Mechanical properties :
#
#
# Convention : Reuss Voigt Hill
#
# Bulk Modulus (GPa) = 43.08234 61.75130 52.41682
# Shear Modulus (GPa) = 28.86276 37.44308 33.15292
#
# Velocity S-wave (km/s) = 3.44206 3.92044 3.68901
# Velocity P-wave (km/s) = 5.78634 6.77061 6.29773
#
# Compressibility (1/GPa) = 0.02321137
#
# Stress axis : x y z
#
# Youngs Moduli (GPa) = 52.47250 150.98599 104.10289
#
# Poissons Ratio (x) = 0.42883 0.08244
# Poissons Ratio (y) = 0.14903 0.25042
# Poissons Ratio (z) = 0.04155 0.36320
#
# Static dielectric constant tensor:
#      x y z
#    x 4.043870 -0.138780 0.102670 
#    y -0.138780 4.448250 -0.643920 
#    z 0.102670 -0.643920 4.743170 
# 
# 
# High freq. dielectric constant tensor:
#      x y z
#    x 1.936920 -0.002250 0.003910 
#    y -0.002250 1.998850 -0.003260 
#    z 0.003910 -0.003260 1.992220 
# 
# From -- ./inp_files/482761.got.cif
#   From: 2010.06.25/outbox.cif.g09.slc.cpg/sg2_242_cif.got.tgz:482761.got - 2010.06.27 13:26:56.
