data_PCOD8034120
_publ_section_title
;
Structure prediction by ZEFSAII (Michael W. Deem and Ramdas Pophale) SiO2 
 PCOD8034120
Probable space group: P -1
;
_chemical_formula_sum "Si O2"
_cell_formula_units_Z 16
_cell_length_a 8.700930
_cell_length_b 12.304113
_cell_length_c 8.688949
_cell_angle_alpha 48.820723
_cell_angle_beta 86.266777
_cell_angle_gamma 96.520342
_cell_volume 683.322357
_symmetry_space_group_name_H-M "P -1"
_symmetry_group_IT_number 2
_symmetry_cell_setting 'triclinic'
loop_
_space_group_symop_operation_xyz
x,y,z
-x,-y,-z
loop_
_atom_site_type_symbol
_atom_site_label
_atom_site_fract_x
_atom_site_fract_y
_atom_site_fract_z
Si Si1 0.417609 0.367522 0.235623
Si Si2 0.344663 0.517872 0.402102
Si Si3 0.094742 0.486893 0.702081
Si Si4 0.845046 0.722518 0.886875
Si Si5 0.765578 0.256534 0.973401
Si Si6 0.384039 0.849235 0.605954
Si Si7 0.068771 0.790649 0.541186
Si Si8 0.027357 0.961730 0.861169
O O1 0.329683 0.422885 0.334470
O O2 0.293574 0.258892 0.235139
O O3 0.529763 0.262399 0.389844
O O4 0.500000 0.500000 0.000000
O O5 0.500000 0.500000 0.500000
O O6 0.184448 0.461341 0.562644
O O7 0.352975 0.690573 0.192113
O O8 0.078198 0.655189 0.555189
O O9 0.925178 0.380132 0.829180
O O10 0.197015 0.441076 0.880063
O O11 0.880891 0.842698 0.910140
O O12 0.003798 0.736454 0.763585
O O13 0.681973 0.248225 0.150381
O O14 0.808945 0.096497 0.092854
O O15 0.245409 0.884117 0.473959
O O16 0.500000 0.000000 0.500000
O O17 0.958210 0.890752 0.378996
O O18 0.000000 0.000000 0.000000
#
# Coordination Sequence:
#
# PCOD8034120 Si02
#       8
#     2   2   2   2   2   2   2   2
#     4  12  25  45  75 106 147 198 246 304 365 437
#     4  12  25  45  73 110 154 188 240 308 382 439
#     4  11  24  44  76 110 144 187 245 321 370 429
#     4  11  24  43  73 108 143 192 256 302 359 445
#     4  11  25  48  70 108 144 191 248 308 364 437
#     4  12  26  45  72 106 149 194 250 303 358 443
#     4  12  23  45  75 106 143 196 254 300 367 441
#     4  11  25  44  72 106 148 186 242 310 370 435
#
# _framework density 23.415011
#
# number of rings (size 3 to 8) (size 9 to 14) (size 15 to 20)
#    0.000    0.500    3.750    5.625    1.750    3.000 
#    0.000    0.000    0.000    3.000    0.000    0.000 
#    0.000    0.000    0.000    0.000    0.000    0.000 
#
# Total GULP energy -198308.740098 kJ/mol
# GULP energy per Si atom -12394.296256 kJ/mol
# Density = 2.336172 g / cm^3
# Si number density = 23.415011 Si / 1000 Ang^3
#
#
#
# Elastic Constant Matrix: (Units=GPa)
#
#
# Indices 1 2 3 4 5 6 
#
# 1 98.2757 50.5067 55.1012 -0.5199 9.3999 -13.7333
# 2 50.5067 142.3700 58.4082 10.3484 -0.5703 -17.4631
# 3 55.1012 58.4082 138.8664 -0.2004 17.9600 -17.2122
# 4 -0.5199 10.3484 -0.2004 38.7899 -7.3266 8.9065
# 5 9.3999 -0.5703 17.9600 -7.3266 55.1922 -6.0170
# 6 -13.7333 -17.4631 -17.2122 8.9065 -6.0170 39.1346
#
#
#
# Elastic Compliance Matrix: (Units=1/GPa)
#
#
# Indices 1 2 3 4 5 6 
#
# 1 0.014449 -0.003330 -0.004017 0.000525 -0.000949 0.001553
# 2 -0.003330 0.009898 -0.002661 -0.003116 0.001450 0.003010
# 3 -0.004017 -0.002661 0.010452 -0.000154 -0.002586 0.001637
# 4 0.000525 -0.003116 -0.000154 0.028873 0.002956 -0.007391
# 5 -0.000949 0.001450 -0.002586 0.002956 0.019696 0.001532
# 6 0.001553 0.003010 0.001637 -0.007391 0.001532 0.030079
#
#
# Mechanical properties :
#
#
# Convention : Reuss Voigt Hill
#
# Bulk Modulus (GPa) = 67.64033 78.61603 73.12818
# Shear Modulus (GPa) = 36.12968 40.98974 38.55971
#
# Velocity S-wave (km/s) = 3.93238 4.18853 4.06247
# Velocity P-wave (km/s) = 7.04049 7.55246 7.30096
#
# Compressibility (1/GPa) = 0.01478408
#
# Stress axis : x y z
#
# Youngs Moduli (GPa) = 69.20695 101.02603 95.67942
#
# Poissons Ratio (x) = 0.33637 0.38435
# Poissons Ratio (y) = 0.23043 0.25461
# Poissons Ratio (z) = 0.27801 0.26884
#
# Static dielectric constant tensor:
#      x y z
#    x 4.683730 -0.306550 0.439910 
#    y -0.306550 4.150440 -0.047590 
#    z 0.439910 -0.047590 4.598320 
# 
# 
# High freq. dielectric constant tensor:
#      x y z
#    x 1.932710 -0.017160 0.017640 
#    y -0.017160 1.916660 0.003400 
#    z 0.017640 0.003400 1.934040 
# 
# From -- ./inp_files/184134.got.cif
#   From: 2010.06.25/outbox.cif.g09.slc.cpg/sg2_93_cif.got.tgz:184134.got - 2010.06.27 13:26:56.
