data_PCOD8034548
_publ_section_title
;
Structure prediction by ZEFSAII (Michael W. Deem and Ramdas Pophale) SiO2 
 PCOD8034548
Probable space group: P -1
;
_chemical_formula_sum "Si O2"
_cell_formula_units_Z 14
_cell_length_a 14.329615
_cell_length_b 9.218814
_cell_length_c 8.400809
_cell_angle_alpha 78.334699
_cell_angle_beta 119.133813
_cell_angle_gamma 137.277380
_cell_volume 634.628600
_symmetry_space_group_name_H-M "P -1"
_symmetry_group_IT_number 2
_symmetry_cell_setting 'triclinic'
loop_
_space_group_symop_operation_xyz
x,y,z
-x,-y,-z
loop_
_atom_site_type_symbol
_atom_site_label
_atom_site_fract_x
_atom_site_fract_y
_atom_site_fract_z
Si Si1 0.545227 0.493190 0.867749
Si Si2 0.636591 0.252468 0.009940
Si Si3 0.533978 0.161740 0.619313
Si Si4 0.124927 0.462270 0.568928
Si Si5 0.819522 0.167871 0.560704
Si Si6 0.840289 0.903717 0.823785
Si Si7 0.709940 0.600399 0.495608
O O1 0.700586 0.735422 0.872646
O O2 0.393691 0.370652 0.659867
O O3 0.500000 0.500000 0.000000
O O4 0.568119 0.344796 0.933696
O O5 0.788480 0.401909 0.221112
O O6 0.664942 0.248157 0.844227
O O7 0.500000 0.000000 0.000000
O O8 0.590480 0.364266 0.531392
O O9 0.500000 0.000000 0.500000
O O10 0.367021 0.032890 0.596731
O O11 0.142611 0.617201 0.423737
O O12 0.194317 0.384003 0.569143
O O13 0.937785 0.240778 0.498857
O O14 0.853581 0.094269 0.755868
O O15 0.825206 0.794532 0.673906
O O16 0.000000 0.000000 0.000000
#
# Coordination Sequence:
#
# PCOD8034548 Si02
#       7
#     2   2   2   2   2   2   2
#     4  12  25  44  71 104 135 178 234 282 342 411
#     4  12  23  42  69 101 138 174 229 286 334 412
#     4  12  23  44  73 103 132 182 229 280 347 408
#     4  11  25  46  67 102 137 182 228 283 345 406
#     4  11  24  45  70  96 141 178 226 284 345 405
#     4  12  27  47  67 101 142 182 225 287 348 405
#     4  12  24  46  72  98 138 180 231 287 337 416
#
# _framework density 22.060148000000002
#
# number of rings (size 3 to 8) (size 9 to 14) (size 15 to 20)
#    0.000    0.286    7.143    2.143    0.000    0.571 
#    2.571    4.286    0.000    0.000    0.000    0.000 
#    0.000    0.000    0.000    0.000    0.000    0.000 
#
# Total GULP energy -173474.243204 kJ/mol
# GULP energy per Si atom -12391.017372 kJ/mol
# Density = 2.200994 g / cm^3
# Si number density = 22.060148 Si / 1000 Ang^3
#
#
#
# Elastic Constant Matrix: (Units=GPa)
#
#
# Indices 1 2 3 4 5 6 
#
# 1 98.8690 45.3642 50.7485 -0.0934 5.5242 8.7489
# 2 45.3642 111.7282 35.9084 -21.2950 8.5864 -10.7910
# 3 50.7485 35.9084 145.9460 1.9884 -5.0158 -6.9107
# 4 -0.0934 -21.2950 1.9884 35.5953 -4.3673 10.7269
# 5 5.5242 8.5864 -5.0158 -4.3673 44.6754 -2.2587
# 6 8.7489 -10.7910 -6.9107 10.7269 -2.2587 42.7890
#
#
#
# Elastic Compliance Matrix: (Units=1/GPa)
#
#
# Indices 1 2 3 4 5 6 
#
# 1 0.015366 -0.005554 -0.004242 -0.001790 -0.001730 -0.004870
# 2 -0.005554 0.013340 -0.001375 0.007166 -0.001209 0.002417
# 3 -0.004242 -0.001375 0.008869 -0.001875 0.001729 0.002514
# 4 -0.001790 0.007166 -0.001875 0.034720 0.001687 -0.006745
# 5 -0.001730 -0.001209 0.001729 0.001687 0.023246 0.001132
# 6 -0.004870 0.002417 0.002514 -0.006745 0.001132 0.027133
#
#
# Mechanical properties :
#
#
# Convention : Reuss Voigt Hill
#
# Bulk Modulus (GPa) = 65.65397 68.95394 67.30396
# Shear Modulus (GPa) = 33.31208 39.58007 36.44607
#
# Velocity S-wave (km/s) = 3.89016 4.24038 4.06904
# Velocity P-wave (km/s) = 7.07133 7.43637 7.25615
#
# Compressibility (1/GPa) = 0.01523137
#
# Stress axis : x y z
#
# Youngs Moduli (GPa) = 65.07717 74.96435 112.74693
#
# Poissons Ratio (x) = 0.41637 0.47831
# Poissons Ratio (y) = 0.36146 0.15508
# Poissons Ratio (z) = 0.27608 0.10311
#
# Static dielectric constant tensor:
#      x y z
#    x 3.316530 0.546740 0.399840 
#    y 0.546740 3.951630 -0.571080 
#    z 0.399840 -0.571080 4.207300 
# 
# 
# High freq. dielectric constant tensor:
#      x y z
#    x 1.864400 -0.003960 0.011280 
#    y -0.003960 1.887780 -0.016560 
#    z 0.011280 -0.016560 1.865600 
# 
# From -- ./inp_files/260793.got.cif
#   From: 2010.06.25/outbox.cif.g09.slc.cpg/sg2_131_cif.got.tgz:260793.got - 2010.06.27 13:26:56.
