data_PCOD8034773
_publ_section_title
;
Structure prediction by ZEFSAII (Michael W. Deem and Ramdas Pophale) SiO2 
 PCOD8034773
Probable space group: P -1
;
_chemical_formula_sum "Si O2"
_cell_formula_units_Z 14
_cell_length_a 9.345481
_cell_length_b 9.375694
_cell_length_c 8.956105
_cell_angle_alpha 101.519949
_cell_angle_beta 124.153495
_cell_angle_gamma 84.084783
_cell_volume 636.276996
_symmetry_space_group_name_H-M "P -1"
_symmetry_group_IT_number 2
_symmetry_cell_setting 'triclinic'
loop_
_space_group_symop_operation_xyz
x,y,z
-x,-y,-z
loop_
_atom_site_type_symbol
_atom_site_label
_atom_site_fract_x
_atom_site_fract_y
_atom_site_fract_z
Si Si1 0.468138 0.105269 0.867559
Si Si2 0.146674 0.855037 0.912413
Si Si3 0.618260 0.088544 0.475344
Si Si4 0.017086 0.844331 0.154024
Si Si5 0.481657 0.611740 0.646760
Si Si6 0.263149 0.362962 0.938794
Si Si7 0.166306 0.580682 0.677953
O O1 0.384821 0.254566 0.898213
O O2 0.343742 0.022736 0.660659
O O3 0.655373 0.142554 0.914434
O O4 0.500000 0.000000 0.000000
O O5 0.116772 0.742720 0.735387
O O6 0.028557 0.814218 0.977106
O O7 0.094378 0.012154 0.850558
O O8 0.795660 0.141581 0.661461
O O9 0.511530 0.225501 0.380674
O O10 0.500000 0.000000 0.500000
O O11 0.922447 0.708377 0.147893
O O12 0.500000 0.500000 0.500000
O O13 0.305867 0.585046 0.629198
O O14 0.645805 0.588205 0.844640
O O15 0.239158 0.502572 0.850966
O O16 0.000000 0.500000 0.500000
#
# Coordination Sequence:
#
# PCOD8034773 Si02
#       7
#     2   2   2   2   2   2   2
#     4  12  22  46  72 101 140 182 239 292 354 418
#     4  11  24  46  70 101 146 182 236 291 356 418
#     4  12  26  44  74 107 139 184 239 296 349 420
#     4  11  26  43  74 106 138 185 238 298 349 412
#     4  12  29  48  71 107 145 187 241 290 356 428
#     4  12  27  47  76 102 142 195 233 297 357 420
#     4  12  29  49  71 105 146 191 237 291 358 426
#
# _framework density 22.002996
#
# number of rings (size 3 to 8) (size 9 to 14) (size 15 to 20)
#    0.000    0.286    5.714    1.286   10.000    1.143 
#    0.000    0.000    0.000    0.000    0.000    0.000 
#    0.000    0.000    0.000    0.000    0.000    0.000 
#
# Total GULP energy -173693.176776 kJ/mol
# GULP energy per Si atom -12406.655484 kJ/mol
# Density = 2.195292 g / cm^3
# Si number density = 22.002996 Si / 1000 Ang^3
#
#
#
# Elastic Constant Matrix: (Units=GPa)
#
#
# Indices 1 2 3 4 5 6 
#
# 1 126.1047 46.5905 44.6052 10.4557 -6.8031 12.7541
# 2 46.5905 96.7670 39.1922 4.5979 -15.5984 9.0587
# 3 44.6052 39.1922 148.1019 16.5946 -5.5005 -4.6958
# 4 10.4557 4.5979 16.5946 43.0081 -4.7501 -9.2948
# 5 -6.8031 -15.5984 -5.5005 -4.7501 43.6992 6.4533
# 6 12.7541 9.0587 -4.6958 -9.2948 6.4533 40.2069
#
#
#
# Elastic Compliance Matrix: (Units=1/GPa)
#
#
# Indices 1 2 3 4 5 6 
#
# 1 0.010576 -0.003819 -0.002038 -0.002048 0.000284 -0.003251
# 2 -0.003819 0.014224 -0.002566 0.000266 0.004628 -0.002974
# 3 -0.002038 -0.002566 0.008315 -0.002122 -0.000685 0.001815
# 4 -0.002048 0.000266 -0.002122 0.026022 0.001433 0.006127
# 5 0.000284 0.004628 -0.000685 0.001433 0.025381 -0.004955
# 6 -0.003251 -0.002974 0.001815 0.006127 -0.004955 0.028997
#
#
# Mechanical properties :
#
#
# Convention : Reuss Voigt Hill
#
# Bulk Modulus (GPa) = 61.46782 70.19439 65.83110
# Shear Modulus (GPa) = 36.82357 41.42188 39.12273
#
# Velocity S-wave (km/s) = 4.09537 4.34355 4.22128
# Velocity P-wave (km/s) = 7.09644 7.55822 7.33097
#
# Compressibility (1/GPa) = 0.01626868
#
# Stress axis : x y z
#
# Youngs Moduli (GPa) = 94.55736 70.30386 120.26878
#
# Poissons Ratio (x) = 0.26850 0.24506
# Poissons Ratio (y) = 0.36113 0.30862
# Poissons Ratio (z) = 0.19267 0.18041
#
# Static dielectric constant tensor:
#      x y z
#    x 4.526550 -0.121270 0.429630 
#    y -0.121270 4.180830 -0.235340 
#    z 0.429630 -0.235340 4.550640 
# 
# 
# High freq. dielectric constant tensor:
#      x y z
#    x 1.877210 0.007000 -0.005360 
#    y 0.007000 1.872280 0.004490 
#    z -0.005360 0.004490 1.874520 
# 
# From -- ./inp_files/156595.got.cif
#   From: 2010.06.25/outbox.cif.g09.slc.cpg/sg2_79_cif.got.tgz:156595.got - 2010.06.27 13:26:56.
