data_PCOD8034192
_publ_section_title
;
Structure prediction by ZEFSAII (Michael W. Deem and Ramdas Pophale) SiO2 
 PCOD8034192
Probable space group: P -1
;
_chemical_formula_sum "Si O2"
_cell_formula_units_Z 16
_cell_length_a 18.811606
_cell_length_b 9.277176
_cell_length_c 11.808144
_cell_angle_alpha 105.443090
_cell_angle_beta 141.696146
_cell_angle_gamma 47.350801
_cell_volume 763.901595
_symmetry_space_group_name_H-M "P -1"
_symmetry_group_IT_number 2
_symmetry_cell_setting 'triclinic'
loop_
_space_group_symop_operation_xyz
x,y,z
-x,-y,-z
loop_
_atom_site_type_symbol
_atom_site_label
_atom_site_fract_x
_atom_site_fract_y
_atom_site_fract_z
Si Si1 0.851876 0.477376 0.895390
Si Si2 0.551512 0.567662 0.482581
Si Si3 0.601687 0.178461 0.044630
Si Si4 0.778452 0.499680 0.062135
Si Si5 0.561978 0.957920 0.253370
Si Si6 0.435938 0.535098 0.115426
Si Si7 0.878121 0.753279 0.445632
Si Si8 0.275241 0.108419 0.316740
O O1 0.758989 0.419782 0.722471
O O2 0.794833 0.544855 0.967081
O O3 0.756593 0.716846 0.766638
O O4 0.073438 0.243168 0.114401
O O5 0.500000 0.500000 0.500000
O O6 0.569624 0.472944 0.362083
O O7 0.400004 0.856398 0.357592
O O8 0.531491 0.322677 0.104447
O O9 0.798310 0.909937 0.266041
O O10 0.460565 0.198119 0.822603
O O11 0.651461 0.245893 0.024323
O O12 0.711811 0.398363 0.976336
O O13 0.622459 0.773898 0.972066
O O14 0.980381 0.282348 0.322825
O O15 0.725953 0.847081 0.358463
O O16 0.616457 0.948203 0.447264
O O17 0.000000 0.500000 0.500000
#
# Coordination Sequence:
#
# PCOD8034192 Si02
#       8
#     2   2   2   2   2   2   2   2
#     4  11  24  44  67 104 132 171 225 279 336 394
#     4  12  24  43  71  97 139 181 218 270 340 402
#     4  11  25  44  70  96 140 178 223 279 327 400
#     4  12  23  42  70  96 135 176 223 276 333 399
#     4  12  22  44  72  99 134 173 227 281 333 394
#     4  11  25  46  65 100 138 185 221 263 341 405
#     4  12  24  40  70 101 129 174 230 281 334 383
#     4  11  25  42  71 104 132 171 226 282 338 394
#
# _framework density 20.945105999999999
#
# number of rings (size 3 to 8) (size 9 to 14) (size 15 to 20)
#    0.000    0.500    6.250    2.250    1.750    1.000 
#    2.250    0.000    0.000    0.000    0.000    0.000 
#    0.000    0.000    0.000    0.000    0.000    0.000 
#
# Total GULP energy -198271.552418 kJ/mol
# GULP energy per Si atom -12391.972026 kJ/mol
# Density = 2.089743 g / cm^3
# Si number density = 20.945106 Si / 1000 Ang^3
#
#
#
# Elastic Constant Matrix: (Units=GPa)
#
#
# Indices 1 2 3 4 5 6 
#
# 1 167.1054 59.0760 51.7846 -9.1350 -4.9370 16.5120
# 2 59.0760 100.5538 53.2415 14.6724 3.9426 11.5524
# 3 51.7846 53.2415 140.1768 7.0861 5.8869 8.7920
# 4 -9.1350 14.6724 7.0861 37.2389 0.3341 -6.2133
# 5 -4.9370 3.9426 5.8869 0.3341 38.9806 -0.3429
# 6 16.5120 11.5524 8.7920 -6.2133 -0.3429 31.8963
#
#
#
# Elastic Compliance Matrix: (Units=1/GPa)
#
#
# Indices 1 2 3 4 5 6 
#
# 1 0.008532 -0.004658 -0.001561 0.003958 0.001740 -0.001510
# 2 -0.004658 0.016285 -0.003772 -0.007481 -0.001638 -0.003922
# 3 -0.001561 -0.003772 0.009265 -0.000739 -0.001214 -0.000537
# 4 0.003958 -0.007481 -0.000739 0.032092 0.001157 0.007128
# 5 0.001740 -0.001638 -0.001214 0.001157 0.026218 0.000534
# 6 -0.001510 -0.003922 -0.000537 0.007128 0.000534 0.035096
#
#
# Mechanical properties :
#
#
# Convention : Reuss Voigt Hill
#
# Bulk Modulus (GPa) = 70.92081 81.78227 76.35154
# Shear Modulus (GPa) = 32.85824 37.87208 35.36516
#
# Velocity S-wave (km/s) = 3.96508 4.25686 4.11356
# Velocity P-wave (km/s) = 7.40920 7.95562 7.68727
#
# Compressibility (1/GPa) = 0.01410023
#
# Stress axis : x y z
#
# Youngs Moduli (GPa) = 117.20941 61.40599 107.93321
#
# Poissons Ratio (x) = 0.28604 0.16849
# Poissons Ratio (y) = 0.54599 0.40707
# Poissons Ratio (z) = 0.18297 0.23159
#
# Static dielectric constant tensor:
#      x y z
#    x 3.910110 0.184640 -0.050350 
#    y 0.184640 3.808470 0.188640 
#    z -0.050350 0.188640 3.863200 
# 
# 
# High freq. dielectric constant tensor:
#      x y z
#    x 1.835820 0.008310 -0.004600 
#    y 0.008310 1.817010 0.011800 
#    z -0.004600 0.011800 1.832410 
# 
# From -- ./inp_files/284702.got.cif
#   From: 2010.06.25/outbox.cif.g09.slc.cpg/sg2_143_cif.got.tgz:284702.got - 2010.06.27 13:26:56.
