data_PCOD8034371
_publ_section_title
;
Structure prediction by ZEFSAII (Michael W. Deem and Ramdas Pophale) SiO2 
 PCOD8034371
Probable space group: P -1
;
_chemical_formula_sum "Si O2"
_cell_formula_units_Z 14
_cell_length_a 15.727553
_cell_length_b 9.633662
_cell_length_c 5.083310
_cell_angle_alpha 44.636154
_cell_angle_beta 78.650201
_cell_angle_gamma 69.075869
_cell_volume 503.520581
_symmetry_space_group_name_H-M "P -1"
_symmetry_group_IT_number 2
_symmetry_cell_setting 'triclinic'
loop_
_space_group_symop_operation_xyz
x,y,z
-x,-y,-z
loop_
_atom_site_type_symbol
_atom_site_label
_atom_site_fract_x
_atom_site_fract_y
_atom_site_fract_z
Si Si1 0.157763 0.332479 0.119274
Si Si2 0.756166 0.091386 0.590780
Si Si3 0.835735 0.238474 0.842353
Si Si4 0.594094 0.354359 0.035856
Si Si5 0.002499 0.663020 0.499857
Si Si6 0.557481 0.028433 0.171939
Si Si7 0.719560 0.635155 0.555625
O O1 0.235989 0.392625 0.146125
O O2 0.101100 0.212601 0.505903
O O3 0.207469 0.162711 0.093511
O O4 0.072381 0.539294 0.850194
O O5 0.781253 0.149121 0.785326
O O6 0.647941 0.181363 0.456736
O O7 0.808190 0.188245 0.215211
O O8 0.945971 0.171176 0.850347
O O9 0.799986 0.503724 0.476992
O O10 0.575594 0.246782 0.920859
O O11 0.500000 0.500000 0.000000
O O12 0.649773 0.507574 0.728722
O O13 0.000000 0.500000 0.500000
O O14 0.660728 0.877428 0.247796
O O15 0.500000 0.000000 0.500000
O O16 0.500000 0.000000 0.000000
#
# Coordination Sequence:
#
# PCOD8034371 Si02
#       7
#     2   2   2   2   2   2   2
#     4  11  25  47  73 106 146 198 245 306 367 445
#     4  11  27  47  72 110 144 193 250 302 366 441
#     4  11  26  46  72 104 147 191 243 309 365 432
#     4  11  24  47  75 107 148 190 242 300 365 429
#     4  11  24  44  73 103 146 194 248 303 378 429
#     4  12  28  47  74 110 143 192 245 301 364 435
#     4  11  24  49  74 103 150 194 244 298 368 437
#
# _framework density 27.804227999999998
#
# number of rings (size 3 to 8) (size 9 to 14) (size 15 to 20)
#    0.000    0.857    4.286    1.714    6.000    5.143 
#    0.000    0.000    0.000    0.000    0.000    0.000 
#    0.000    0.000    0.000    0.000    0.000    0.000 
#
# Total GULP energy -173439.741393 kJ/mol
# GULP energy per Si atom -12388.552957 kJ/mol
# Density = 2.774094 g / cm^3
# Si number density = 27.804228 Si / 1000 Ang^3
#
#
#
# Elastic Constant Matrix: (Units=GPa)
#
#
# Indices 1 2 3 4 5 6 
#
# 1 155.2900 50.1503 -0.3558 2.7194 9.5822 11.2396
# 2 50.1503 183.0947 4.3428 -12.1375 20.5868 8.9198
# 3 -0.3558 4.3428 32.9885 -4.8294 26.3705 6.1484
# 4 2.7194 -12.1375 -4.8294 48.0329 1.3346 5.8636
# 5 9.5822 20.5868 26.3705 1.3346 36.3701 3.6655
# 6 11.2396 8.9198 6.1484 5.8636 3.6655 74.1292
#
#
#
# Elastic Compliance Matrix: (Units=1/GPa)
#
#
# Indices 1 2 3 4 5 6 
#
# 1 0.007243 -0.001723 0.002569 -0.000398 -0.002686 -0.000940
# 2 -0.001723 0.006874 0.005699 0.002726 -0.007581 -0.000879
# 3 0.002569 0.005699 0.084420 0.012301 -0.064976 -0.005837
# 4 -0.000398 0.002726 0.012301 0.023388 -0.010953 -0.002596
# 5 -0.002686 -0.007581 -0.064976 -0.010953 0.079641 0.003637
# 6 -0.000940 -0.000879 -0.005837 -0.002596 0.003637 0.014248
#
#
# Mechanical properties :
#
#
# Convention : Reuss Voigt Hill
#
# Bulk Modulus (GPa) = 8.95833 53.29422 31.12627
# Shear Modulus (GPa) = 20.83917 52.85549 36.84733
#
# Velocity S-wave (km/s) = 2.74066 4.36476 3.64434
# Velocity P-wave (km/s) = 3.63922 6.67913 5.37842
#
# Compressibility (1/GPa) = 0.11162800
#
# Stress axis : x y z
#
# Youngs Moduli (GPa) = 138.06968 145.46722 11.84551
#
# Poissons Ratio (x) = 0.25068 -0.03043
# Poissons Ratio (y) = 0.23794 -0.06751
# Poissons Ratio (z) = -0.35473 -0.82908
#
# Static dielectric constant tensor:
#      x y z
#    x 5.985150 -0.257820 -0.282510 
#    y -0.257820 4.646580 -0.589140 
#    z -0.282510 -0.589140 5.269260 
# 
# 
# High freq. dielectric constant tensor:
#      x y z
#    x 2.162110 -0.009290 -0.019930 
#    y -0.009290 2.144910 -0.005140 
#    z -0.019930 -0.005140 2.117410 
# 
# From -- ./inp_files/89666.got.cif
#   From: 2010.06.25/outbox.cif.g09.slc.cpg/sg2_45_cif.got.tgz:89666.got - 2010.06.27 13:26:56.
