data_PCOD8034088
_publ_section_title
;
Structure prediction by ZEFSAII (Michael W. Deem and Ramdas Pophale) SiO2 
 PCOD8034088
Probable space group: P -1
;
_chemical_formula_sum "Si O2"
_cell_formula_units_Z 16
_cell_length_a 23.678923
_cell_length_b 9.502862
_cell_length_c 9.444952
_cell_angle_alpha 132.575052
_cell_angle_beta 42.827058
_cell_angle_gamma 149.625450
_cell_volume 724.573987
_symmetry_space_group_name_H-M "P -1"
_symmetry_group_IT_number 2
_symmetry_cell_setting 'triclinic'
loop_
_space_group_symop_operation_xyz
x,y,z
-x,-y,-z
loop_
_atom_site_type_symbol
_atom_site_label
_atom_site_fract_x
_atom_site_fract_y
_atom_site_fract_z
Si Si1 0.813032 0.674829 0.513345
Si Si2 0.382519 0.368990 0.217063
Si Si3 0.289228 0.880237 0.721137
Si Si4 0.188070 0.137843 0.075029
Si Si5 0.628875 0.281761 0.021243
Si Si6 0.251917 0.783276 0.027308
Si Si7 0.524046 0.381243 0.488274
Si Si8 0.035646 0.176892 0.918446
O O1 0.673347 0.520036 0.648363
O O2 0.806981 0.433506 0.381524
O O3 0.871472 0.877940 0.681351
O O4 0.892823 0.840322 0.336334
O O5 0.421294 0.425523 0.345483
O O6 0.265441 0.032741 0.191382
O O7 0.500000 0.500000 0.000000
O O8 0.401493 0.062424 0.533071
O O9 0.328337 0.868989 0.799051
O O10 0.239641 0.012634 0.917600
O O11 0.294684 0.468083 0.062870
O O12 0.086415 0.948398 0.013207
O O13 0.616578 0.387247 0.256372
O O14 0.701618 0.226444 0.916323
O O15 0.500000 0.000000 0.000000
O O16 0.114156 0.489681 0.042805
O O17 0.500000 0.500000 0.500000
O O18 0.000000 0.000000 0.000000
#
# Coordination Sequence:
#
# PCOD8034088 Si02
#       8
#     2   2   2   2   2   2   2   2
#     4  11  26  45  74 106 140 193 246 299 371 427
#     4  12  25  44  72 107 150 186 242 302 365 448
#     4  11  24  43  72 106 142 193 240 296 366 437
#     4  12  24  49  73 103 148 188 249 304 360 434
#     4  12  26  41  71 106 147 185 239 307 369 437
#     4  11  24  45  70 103 139 193 237 295 365 426
#     4  12  23  39  66 104 146 187 232 294 373 433
#     4  11  25  50  73 103 148 193 245 307 357 431
#
# _framework density 22.081942000000002
#
# number of rings (size 3 to 8) (size 9 to 14) (size 15 to 20)
#    0.000    0.500    5.000    3.375    3.500    3.000 
#    2.250    0.625    0.000    0.000    0.000    0.000 
#    0.000    0.000    0.000    0.000    0.000    0.000 
#
# Total GULP energy -198278.772953 kJ/mol
# GULP energy per Si atom -12392.423310 kJ/mol
# Density = 2.203168 g / cm^3
# Si number density = 22.081942 Si / 1000 Ang^3
#
#
#
# Elastic Constant Matrix: (Units=GPa)
#
#
# Indices 1 2 3 4 5 6 
#
# 1 111.8147 45.6106 19.0811 7.7283 19.4618 0.6184
# 2 45.6106 133.6858 43.6576 6.2088 10.5861 -2.8907
# 3 19.0811 43.6576 107.6299 0.8788 13.7535 -8.1673
# 4 7.7283 6.2088 0.8788 42.2634 -0.0528 6.8800
# 5 19.4618 10.5861 13.7535 -0.0528 40.4313 4.7369
# 6 0.6184 -2.8907 -8.1673 6.8800 4.7369 40.8470
#
#
#
# Elastic Compliance Matrix: (Units=1/GPa)
#
#
# Indices 1 2 3 4 5 6 
#
# 1 0.011230 -0.003389 0.000011 -0.001626 -0.004570 0.000396
# 2 -0.003389 0.009759 -0.003363 -0.000772 0.000199 0.000177
# 3 0.000011 -0.003363 0.011251 -0.000138 -0.003234 0.002410
# 4 -0.001626 -0.000772 -0.000138 0.024796 0.001582 -0.004418
# 5 -0.004570 0.000199 -0.003234 0.001582 0.028468 -0.004131
# 6 0.000396 0.000177 0.002410 -0.004418 -0.004131 0.026193
#
#
# Mechanical properties :
#
#
# Convention : Reuss Voigt Hill
#
# Bulk Modulus (GPa) = 53.31359 63.31433 58.31396
# Shear Modulus (GPa) = 38.04309 41.02709 39.53509
#
# Velocity S-wave (km/s) = 4.15518 4.31507 4.23588
# Velocity P-wave (km/s) = 6.87144 7.31855 7.09851
#
# Compressibility (1/GPa) = 0.01875694
#
# Stress axis : x y z
#
# Youngs Moduli (GPa) = 89.05079 102.47198 88.88381
#
# Poissons Ratio (x) = 0.34727 -0.00099
# Poissons Ratio (y) = 0.30179 0.29894
# Poissons Ratio (z) = -0.00100 0.34464
#
# Static dielectric constant tensor:
#      x y z
#    x 4.238690 -0.189770 -0.051920 
#    y -0.189770 4.607590 0.381850 
#    z -0.051920 0.381850 4.494860 
# 
# 
# High freq. dielectric constant tensor:
#      x y z
#    x 1.868280 -0.010600 0.020380 
#    y -0.010600 1.873470 0.008980 
#    z 0.020380 0.008980 1.872740 
# 
# From -- ./inp_files/296430.got.cif
#   From: 2010.06.25/outbox.cif.g09.slc.cpg/sg2_149_cif.got.tgz:296430.got - 2010.06.27 13:26:56.
