data_PCOD8034950
_publ_section_title
;
Structure prediction by ZEFSAII (Michael W. Deem and Ramdas Pophale) SiO2 
 PCOD8034950
Probable space group: P -1
;
_chemical_formula_sum "Si O2"
_cell_formula_units_Z 16
_cell_length_a 14.398869
_cell_length_b 12.210177
_cell_length_c 9.219725
_cell_angle_alpha 144.995478
_cell_angle_beta 60.330435
_cell_angle_gamma 136.033244
_cell_volume 627.076704
_symmetry_space_group_name_H-M "P -1"
_symmetry_group_IT_number 2
_symmetry_cell_setting 'triclinic'
loop_
_space_group_symop_operation_xyz
x,y,z
-x,-y,-z
loop_
_atom_site_type_symbol
_atom_site_label
_atom_site_fract_x
_atom_site_fract_y
_atom_site_fract_z
Si Si1 0.667150 0.101150 0.577272
Si Si2 0.573640 0.384417 0.891849
Si Si3 0.795775 0.568402 0.416452
Si Si4 0.374862 0.936779 0.119235
Si Si5 0.022081 0.564433 0.221433
Si Si6 0.215597 0.255813 0.095363
Si Si7 0.021644 0.731262 0.805395
Si Si8 0.380665 0.376943 0.577186
O O1 0.663176 0.292863 0.697775
O O2 0.821539 0.211896 0.612448
O O3 0.582886 0.837162 0.277891
O O4 0.593402 0.088919 0.769431
O O5 0.650197 0.619448 0.977480
O O6 0.567714 0.466576 0.145850
O O7 0.728293 0.566591 0.614509
O O8 0.752874 0.659766 0.418055
O O9 0.957514 0.703446 0.461526
O O10 0.754711 0.307539 0.120302
O O11 0.335368 0.112006 0.350410
O O12 0.500000 0.000000 0.000000
O O13 0.966292 0.315123 0.084174
O O14 0.000000 0.500000 0.000000
O O15 0.099851 0.251703 0.100210
O O16 0.158643 0.987188 0.909870
O O17 0.000000 0.500000 0.500000
O O18 0.500000 0.500000 0.500000
#
# Coordination Sequence:
#
# PCOD8034950 Si02
#       8
#     2   2   2   2   2   2   2   2
#     4  11  24  46  81 119 161 218 271 343 413 481
#     4  11  24  50  79 121 166 211 277 346 410 495
#     4  12  26  48  76 117 155 213 270 332 409 483
#     4  12  24  48  78 111 157 206 269 336 414 487
#     4  12  24  48  80 117 165 218 276 334 413 487
#     4  11  26  48  79 119 161 214 276 339 406 496
#     4  11  25  50  75 116 163 218 271 332 412 485
#     4  12  27  50  76 119 159 210 272 337 418 494
#
# _framework density 25.515219999999999
#
# number of rings (size 3 to 8) (size 9 to 14) (size 15 to 20)
#    0.000    0.500    6.250    0.750    1.750    2.500 
#    2.250    1.250    0.000    0.000    0.000    0.000 
#    0.000    0.000    0.000    0.000    0.000    0.000 
#
# Total GULP energy -198236.052117 kJ/mol
# GULP energy per Si atom -12389.753257 kJ/mol
# Density = 2.545715 g / cm^3
# Si number density = 25.515220 Si / 1000 Ang^3
#
#
#
# Elastic Constant Matrix: (Units=GPa)
#
#
# Indices 1 2 3 4 5 6 
#
# 1 150.8833 42.8349 69.2040 15.5448 1.3717 -14.2540
# 2 42.8349 153.9157 73.2952 2.5621 5.5567 -19.4951
# 3 69.2040 73.2952 174.8102 -2.3681 -0.2890 -6.6050
# 4 15.5448 2.5621 -2.3681 46.7314 -9.2132 3.6974
# 5 1.3717 5.5567 -0.2890 -9.2132 43.6190 -1.8746
# 6 -14.2540 -19.4951 -6.6050 3.6974 -1.8746 35.3759
#
#
#
# Elastic Compliance Matrix: (Units=1/GPa)
#
#
# Indices 1 2 3 4 5 6 
#
# 1 0.008916 -0.000444 -0.003277 -0.003519 -0.000857 0.003058
# 2 -0.000444 0.008808 -0.003379 -0.001063 -0.001179 0.004093
# 3 -0.003277 -0.003379 0.008397 0.002027 0.000941 -0.001777
# 4 -0.003519 -0.001063 0.002027 0.024056 0.005175 -0.003865
# 5 -0.000857 -0.001179 0.000941 0.005175 0.024199 -0.000078
# 6 0.003058 0.004093 -0.001777 -0.003865 -0.000078 0.031824
#
#
# Mechanical properties :
#
#
# Convention : Reuss Voigt Hill
#
# Bulk Modulus (GPa) = 83.88822 94.47526 89.18174
# Shear Modulus (GPa) = 40.20143 44.76361 42.48252
#
# Velocity S-wave (km/s) = 3.97367 4.19309 4.08485
# Velocity P-wave (km/s) = 7.34864 7.78139 7.56811
#
# Compressibility (1/GPa) = 0.01192063
#
# Stress axis : x y z
#
# Youngs Moduli (GPa) = 112.15892 113.52690 119.09655
#
# Poissons Ratio (x) = 0.05039 0.39029
# Poissons Ratio (y) = 0.04978 0.40246
# Poissons Ratio (z) = 0.36755 0.38363
#
# Static dielectric constant tensor:
#      x y z
#    x 4.812440 -0.243170 -0.096110 
#    y -0.243170 5.384870 0.203630 
#    z -0.096110 0.203630 4.754910 
# 
# 
# High freq. dielectric constant tensor:
#      x y z
#    x 2.042230 -0.008960 -0.008400 
#    y -0.008960 2.016460 -0.008800 
#    z -0.008400 -0.008800 2.031870 
# 
# From -- ./inp_files/308756.got.cif
#   From: 2010.06.25/outbox.cif.g09.slc.cpg/sg2_155_cif.got.tgz:308756.got - 2010.06.27 13:26:56.
