data_PCOD8034571
_publ_section_title
;
Structure prediction by ZEFSAII (Michael W. Deem and Ramdas Pophale) SiO2 
 PCOD8034571
Probable space group: P -1
;
_chemical_formula_sum "Si O2"
_cell_formula_units_Z 16
_cell_length_a 7.646016
_cell_length_b 17.984725
_cell_length_c 5.329739
_cell_angle_alpha 89.414055
_cell_angle_beta 61.923559
_cell_angle_gamma 82.761881
_cell_volume 640.490925
_symmetry_space_group_name_H-M "P -1"
_symmetry_group_IT_number 2
_symmetry_cell_setting 'triclinic'
loop_
_space_group_symop_operation_xyz
x,y,z
-x,-y,-z
loop_
_atom_site_type_symbol
_atom_site_label
_atom_site_fract_x
_atom_site_fract_y
_atom_site_fract_z
Si Si1 0.363313 0.854142 0.908572
Si Si2 0.627314 0.601752 0.571307
Si Si3 0.524953 0.757586 0.406282
Si Si4 0.778314 0.828710 0.891833
Si Si5 0.873683 0.993339 0.838898
Si Si6 0.047030 0.591969 0.453133
Si Si7 0.247906 0.530069 0.839054
Si Si8 0.846830 0.250287 0.647636
O O1 0.391149 0.834580 0.597144
O O2 0.582076 0.820644 0.862678
O O3 0.312619 0.940505 0.018318
O O4 0.179394 0.809385 0.113990
O O5 0.578514 0.690950 0.568994
O O6 0.436838 0.567957 0.810455
O O7 0.687808 0.557533 0.269575
O O8 0.809835 0.589275 0.647976
O O9 0.377000 0.727757 0.308516
O O10 0.734839 0.782993 0.173478
O O11 0.986830 0.789151 0.650500
O O12 0.785825 0.916139 0.922064
O O13 0.000000 0.000000 0.500000
O O14 0.000000 0.000000 0.000000
O O15 0.159165 0.572902 0.641672
O O16 0.085688 0.671986 0.311942
O O17 0.101559 0.534914 0.179764
#
# Coordination Sequence:
#
# PCOD8034571 Si02
#       8
#     2   2   2   2   2   2   2   2
#     4  11  25  46  74 105 147 191 246 298 365 441
#     4  11  25  46  75 105 150 194 248 307 376 439
#     4  11  25  45  71 110 143 193 247 308 369 440
#     4  11  26  45  74 107 143 195 243 299 370 439
#     4  12  27  48  78 106 149 193 239 300 365 435
#     4  12  26  46  75 105 147 196 250 304 375 439
#     4  11  27  49  71 108 148 195 249 310 367 449
#     4  11  24  45  71 104 150 190 245 307 368 440
#
# _framework density 24.980839
#
# number of rings (size 3 to 8) (size 9 to 14) (size 15 to 20)
#    0.000    0.750    2.500    3.375    5.250    6.500 
#    4.500    0.000    0.000    0.000    0.000    0.000 
#    0.000    0.000    0.000    0.000    0.000    0.000 
#
# Total GULP energy -198261.780237 kJ/mol
# GULP energy per Si atom -12391.361265 kJ/mol
# Density = 2.492398 g / cm^3
# Si number density = 24.980839 Si / 1000 Ang^3
#
#
#
# Elastic Constant Matrix: (Units=GPa)
#
#
# Indices 1 2 3 4 5 6 
#
# 1 84.9349 18.4637 43.1183 -9.6360 -19.3427 8.2060
# 2 18.4637 142.1047 7.3104 7.2527 -12.8101 16.1475
# 3 43.1183 7.3104 79.3123 -1.4626 -11.4068 -4.3690
# 4 -9.6360 7.2527 -1.4626 34.9989 6.7483 -11.2482
# 5 -19.3427 -12.8101 -11.4068 6.7483 42.5531 -4.2783
# 6 8.2060 16.1475 -4.3690 -11.2482 -4.2783 39.9008
#
#
#
# Elastic Compliance Matrix: (Units=1/GPa)
#
#
# Indices 1 2 3 4 5 6 
#
# 1 0.018536 -0.001330 -0.009378 0.003142 0.004721 -0.002909
# 2 -0.001330 0.008004 -0.000002 -0.003623 0.002000 -0.003773
# 3 -0.009378 -0.000002 0.018057 -0.000818 0.001088 0.003793
# 4 0.003142 -0.003623 -0.000818 0.034166 -0.004304 0.009900
# 5 0.004721 0.002000 0.001088 -0.004304 0.027227 0.000045
# 6 -0.002909 -0.003773 0.003793 0.009900 0.000045 0.030398
#
#
# Mechanical properties :
#
#
# Convention : Reuss Voigt Hill
#
# Bulk Modulus (GPa) = 43.14504 49.34853 46.24679
# Shear Modulus (GPa) = 30.20526 39.32120 34.76323
#
# Velocity S-wave (km/s) = 3.48104 3.97174 3.73446
# Velocity P-wave (km/s) = 5.78494 6.38987 6.09491
#
# Compressibility (1/GPa) = 0.02317763
#
# Stress axis : x y z
#
# Youngs Moduli (GPa) = 53.94778 124.94006 55.37932
#
# Poissons Ratio (x) = 0.16621 0.51935
# Poissons Ratio (y) = 0.07177 0.00009
# Poissons Ratio (z) = 0.50593 0.00019
#
# Static dielectric constant tensor:
#      x y z
#    x 4.456740 -0.293540 -0.340720 
#    y -0.293540 2.154440 -0.917520 
#    z -0.340720 -0.917520 4.181720 
# 
# 
# High freq. dielectric constant tensor:
#      x y z
#    x 2.002650 0.012610 -0.017780 
#    y 0.012610 2.011290 0.003020 
#    z -0.017780 0.003020 1.993140 
# 
# From -- ./inp_files/48075.got.cif
#   From: 2010.06.25/outbox.cif.g09.slc.cpg/sg2_25_cif.got.tgz:48075.got - 2010.06.27 13:26:56.
