data_PCOD8034216
_publ_section_title
;
Structure prediction by ZEFSAII (Michael W. Deem and Ramdas Pophale) SiO2 
 PCOD8034216
Probable space group: P -1
;
_chemical_formula_sum "Si O2"
_cell_formula_units_Z 14
_cell_length_a 9.196152
_cell_length_b 10.572485
_cell_length_c 8.670773
_cell_angle_alpha 71.030751
_cell_angle_beta 135.179781
_cell_angle_gamma 104.831114
_cell_volume 561.556990
_symmetry_space_group_name_H-M "P -1"
_symmetry_group_IT_number 2
_symmetry_cell_setting 'triclinic'
loop_
_space_group_symop_operation_xyz
x,y,z
-x,-y,-z
loop_
_atom_site_type_symbol
_atom_site_label
_atom_site_fract_x
_atom_site_fract_y
_atom_site_fract_z
Si Si1 0.447771 0.992275 0.282083
Si Si2 0.463707 0.638826 0.998705
Si Si3 0.940551 0.685494 0.741156
Si Si4 0.075815 0.606958 0.204411
Si Si5 0.180793 0.847109 0.624633
Si Si6 0.851823 0.809354 0.155781
Si Si7 0.460276 0.697928 0.317238
O O1 0.642942 0.035019 0.300916
O O2 0.500000 0.000000 0.500000
O O3 0.378391 0.846738 0.226372
O O4 0.250768 0.085621 0.077032
O O5 0.676541 0.723543 0.145585
O O6 0.386124 0.637335 0.118701
O O7 0.500000 0.500000 0.000000
O O8 0.305071 0.712002 0.736758
O O9 0.003901 0.545775 0.760486
O O10 0.699303 0.702106 0.528977
O O11 0.070635 0.814965 0.720093
O O12 0.975345 0.670582 0.952891
O O13 0.326487 0.606417 0.374796
O O14 0.006598 0.704652 0.244814
O O15 0.997532 0.886621 0.357807
#
# Coordination Sequence:
#
# PCOD8034216 Si02
#       7
#     2   2   2   2   2   2   2
#     4  11  27  49  72 106 147 186 246 296 356 433
#     4  11  25  44  70 106 147 183 242 294 356 428
#     4  11  24  44  68 108 140 188 238 295 358 428
#     4  11  25  43  71 104 148 184 241 294 361 425
#     4  11  24  46  72 105 140 189 242 295 351 427
#     4  11  25  45  74 102 140 195 236 301 359 419
#     4  12  25  46  71 105 145 193 233 294 361 421
#
# _framework density 24.930685
#
# number of rings (size 3 to 8) (size 9 to 14) (size 15 to 20)
#    0.000    0.857    2.857    3.000    4.000    8.571 
#    0.000    0.000    0.000    0.000    0.000    0.000 
#    0.000    0.000    0.000    0.000    0.000    0.000 
#
# Total GULP energy -173470.834831 kJ/mol
# GULP energy per Si atom -12390.773917 kJ/mol
# Density = 2.487394 g / cm^3
# Si number density = 24.930685 Si / 1000 Ang^3
#
#
#
# Elastic Constant Matrix: (Units=GPa)
#
#
# Indices 1 2 3 4 5 6 
#
# 1 83.0343 8.5368 17.2577 -4.5249 3.1837 11.6858
# 2 8.5368 64.7003 -12.6652 3.6982 -6.8086 1.9756
# 3 17.2577 -12.6652 95.5354 6.1294 16.4622 5.9649
# 4 -4.5249 3.6982 6.1294 23.6959 5.7794 2.4266
# 5 3.1837 -6.8086 16.4622 5.7794 37.2467 -1.2803
# 6 11.6858 1.9756 5.9649 2.4266 -1.2803 47.2220
#
#
#
# Elastic Compliance Matrix: (Units=1/GPa)
#
#
# Indices 1 2 3 4 5 6 
#
# 1 0.013593 -0.002595 -0.002665 0.004317 -0.001237 -0.003174
# 2 -0.002595 0.016848 0.002496 -0.004468 0.002890 -0.000070
# 3 -0.002665 0.002496 0.012271 -0.002921 -0.004320 -0.000962
# 4 0.004317 -0.004468 -0.002921 0.046558 -0.007226 -0.003101
# 5 -0.001237 0.002890 -0.004320 -0.007226 0.030579 0.001931
# 6 -0.003174 -0.000070 -0.000962 -0.003101 0.001931 0.022298
#
#
# Mechanical properties :
#
#
# Convention : Reuss Voigt Hill
#
# Bulk Modulus (GPa) = 26.89383 29.94764 28.42073
# Shear Modulus (GPa) = 31.23578 36.97565 34.10572
#
# Velocity S-wave (km/s) = 3.54348 3.85533 3.70269
# Velocity P-wave (km/s) = 5.24905 5.64416 5.45019
#
# Compressibility (1/GPa) = 0.03718325
#
# Stress axis : x y z
#
# Youngs Moduli (GPa) = 73.56537 59.35268 81.49043
#
# Poissons Ratio (x) = 0.15404 0.21719
# Poissons Ratio (y) = 0.19093 -0.20336
# Poissons Ratio (z) = 0.19606 -0.14812
#
# Static dielectric constant tensor:
#      x y z
#    x 4.629410 0.301590 0.237670 
#    y 0.301590 4.626500 -0.067810 
#    z 0.237670 -0.067810 4.506410 
# 
# 
# High freq. dielectric constant tensor:
#      x y z
#    x 1.999880 0.016480 0.022970 
#    y 0.016480 1.990730 -0.004500 
#    z 0.022970 -0.004500 1.999970 
# 
# From -- ./inp_files/185522.got.cif
#   From: 2010.06.25/outbox.cif.g09.slc.cpg/sg2_93_cif.got.tgz:185522.got - 2010.06.27 13:26:56.
