data_PCOD8034232
_publ_section_title
;
Structure prediction by ZEFSAII (Michael W. Deem and Ramdas Pophale) SiO2 
 PCOD8034232
Probable space group: P -1
;
_chemical_formula_sum "Si O2"
_cell_formula_units_Z 14
_cell_length_a 5.415210
_cell_length_b 15.393812
_cell_length_c 9.541483
_cell_angle_alpha 116.785546
_cell_angle_beta 118.273398
_cell_angle_gamma 88.097925
_cell_volume 608.669085
_symmetry_space_group_name_H-M "P -1"
_symmetry_group_IT_number 2
_symmetry_cell_setting 'triclinic'
loop_
_space_group_symop_operation_xyz
x,y,z
-x,-y,-z
loop_
_atom_site_type_symbol
_atom_site_label
_atom_site_fract_x
_atom_site_fract_y
_atom_site_fract_z
Si Si1 0.833310 0.772138 0.108272
Si Si2 0.077612 0.559590 0.424063
Si Si3 0.951585 0.420327 0.050339
Si Si4 0.802484 0.824626 0.644496
Si Si5 0.838112 0.012727 0.611393
Si Si6 0.591063 0.238374 0.250713
Si Si7 0.348062 0.320738 0.731603
O O1 0.822134 0.761739 0.265824
O O2 0.045851 0.878062 0.211848
O O3 0.534474 0.770381 0.946304
O O4 0.942283 0.679574 0.011991
O O5 0.354938 0.649001 0.590800
O O6 0.000000 0.500000 0.500000
O O7 0.129527 0.475081 0.269992
O O8 0.820989 0.600581 0.315607
O O9 0.607575 0.383406 0.940083
O O10 0.000000 0.500000 0.000000
O O11 0.640406 0.828106 0.752111
O O12 0.580157 0.746216 0.427451
O O13 0.102808 0.789972 0.705738
O O14 0.891787 0.934727 0.684820
O O15 0.500000 0.000000 0.500000
O O16 0.000000 0.000000 0.500000
#
# Coordination Sequence:
#
# PCOD8034232 Si02
#       7
#     2   2   2   2   2   2   2
#     4  12  28  45  72 108 141 190 249 302 361 442
#     4  11  25  44  70 103 146 198 241 299 367 433
#     4  12  25  42  69 101 144 190 247 300 357 427
#     4  11  25  49  74 104 151 188 241 305 370 427
#     4  12  26  47  81 112 142 190 246 302 370 438
#     4  11  28  47  72 108 149 193 240 302 368 434
#     4  11  24  44  69 102 142 190 249 300 359 436
#
# _framework density 23.001006
#
# number of rings (size 3 to 8) (size 9 to 14) (size 15 to 20)
#    0.000    0.571    2.857    3.857   12.000    1.714 
#    0.000    0.000    0.000    0.000    0.000    0.000 
#    0.000    0.000    0.000    0.000    0.000    0.000 
#
# Total GULP energy -173510.608016 kJ/mol
# GULP energy per Si atom -12393.614858 kJ/mol
# Density = 2.294865 g / cm^3
# Si number density = 23.001006 Si / 1000 Ang^3
#
#
#
# Elastic Constant Matrix: (Units=GPa)
#
#
# Indices 1 2 3 4 5 6 
#
# 1 101.2750 31.5254 20.4186 -10.5925 5.8682 7.1948
# 2 31.5254 155.1280 53.5903 2.3213 3.0185 13.1380
# 3 20.4186 53.5903 96.2496 -9.7941 13.4389 -3.7230
# 4 -10.5925 2.3213 -9.7941 46.0012 10.1662 -8.3415
# 5 5.8682 3.0185 13.4389 10.1662 39.5806 -2.6519
# 6 7.1948 13.1380 -3.7230 -8.3415 -2.6519 31.6991
#
#
#
# Elastic Compliance Matrix: (Units=1/GPa)
#
#
# Indices 1 2 3 4 5 6 
#
# 1 0.011109 -0.001867 -0.000814 0.002686 -0.002005 -0.001304
# 2 -0.001867 0.009135 -0.005492 -0.003357 0.001991 -0.004724
# 3 -0.000814 -0.005492 0.015178 0.005524 -0.005683 0.005222
# 4 0.002686 -0.003357 0.005524 0.026983 -0.008424 0.007826
# 5 -0.002005 0.001991 -0.005683 -0.008424 0.029451 -0.000790
# 6 -0.001304 -0.004724 0.005222 0.007826 -0.000790 0.036407
#
#
# Mechanical properties :
#
#
# Convention : Reuss Voigt Hill
#
# Bulk Modulus (GPa) = 52.42578 62.63568 57.53073
# Shear Modulus (GPa) = 33.11955 39.93073 36.52514
#
# Velocity S-wave (km/s) = 3.79874 4.17110 3.98927
# Velocity P-wave (km/s) = 6.48713 7.10551 6.80335
#
# Compressibility (1/GPa) = 0.01907458
#
# Stress axis : x y z
#
# Youngs Moduli (GPa) = 90.01533 109.47386 65.88515
#
# Poissons Ratio (x) = 0.20439 0.05366
# Poissons Ratio (y) = 0.16806 0.36185
# Poissons Ratio (z) = 0.07331 0.60125
#
# Static dielectric constant tensor:
#      x y z
#    x 4.019810 0.095400 0.048540 
#    y 0.095400 4.654480 -0.071130 
#    z 0.048540 -0.071130 4.682620 
# 
# 
# High freq. dielectric constant tensor:
#      x y z
#    x 1.894850 0.004030 0.003280 
#    y 0.004030 1.933370 -0.001390 
#    z 0.003280 -0.001390 1.919100 
# 
# From -- ./inp_files/38386.got.cif
#   From: 2010.06.25/outbox.cif.g09.slc.cpg/sg2_20_cif.got.tgz:38386.got - 2010.06.27 13:26:56.
