data_PCOD8034638
_publ_section_title
;
Structure prediction by ZEFSAII (Michael W. Deem and Ramdas Pophale) SiO2 
 PCOD8034638
Probable space group: P -1
;
_chemical_formula_sum "Si O2"
_cell_formula_units_Z 12
_cell_length_a 6.917560
_cell_length_b 9.084961
_cell_length_c 8.855565
_cell_angle_alpha 83.892013
_cell_angle_beta 121.331409
_cell_angle_gamma 72.419665
_cell_volume 428.798676
_symmetry_space_group_name_H-M "P -1"
_symmetry_group_IT_number 2
_symmetry_cell_setting 'triclinic'
loop_
_space_group_symop_operation_xyz
x,y,z
-x,-y,-z
loop_
_atom_site_type_symbol
_atom_site_label
_atom_site_fract_x
_atom_site_fract_y
_atom_site_fract_z
Si Si1 0.966314 0.739355 0.670445
Si Si2 0.196489 0.385367 0.800265
Si Si3 0.016771 0.015235 0.830339
Si Si4 0.365087 0.086442 0.755520
Si Si5 0.292576 0.662019 0.467532
Si Si6 0.629061 0.738274 0.794076
O O1 0.848408 0.848373 0.465346
O O2 0.779094 0.691357 0.702298
O O3 0.182127 0.561750 0.728528
O O4 0.072728 0.840624 0.802132
O O5 0.428981 0.238368 0.821990
O O6 0.960154 0.363577 0.634196
O O7 0.215572 0.370713 0.991367
O O8 0.759889 0.169714 0.663254
O O9 0.258823 0.041907 0.872529
O O10 0.000000 0.000000 0.000000
O O11 0.582093 0.926309 0.789988
O O12 0.500000 0.500000 0.500000
O O13 0.383464 0.702979 0.665207
#
# Coordination Sequence:
#
# PCOD8034638 Si02
#       6
#     2   2   2   2   2   2
#     4  12  23  44  74 106 144 190 236 294 355 420
#     4  11  26  45  73 107 145 185 244 292 346 426
#     4  11  26  46  73 105 146 187 240 298 356 422
#     4  11  25  48  69 106 148 187 235 298 357 422
#     4  11  24  45  73 105 146 185 237 293 357 415
#     4  12  25  46  77 106 144 191 238 289 356 426
#
# _framework density 27.985161000000002
#
# number of rings (size 3 to 8) (size 9 to 14) (size 15 to 20)
#    0.000    0.667    3.333    4.500    4.667    0.000 
#    0.000    0.833    0.000    0.000    0.000    0.000 
#    0.000    0.000    0.000    0.000    0.000    0.000 
#
# Total GULP energy -148692.543366 kJ/mol
# GULP energy per Si atom -12391.045281 kJ/mol
# Density = 2.792147 g / cm^3
# Si number density = 27.985161 Si / 1000 Ang^3
#
#
#
# Elastic Constant Matrix: (Units=GPa)
#
#
# Indices 1 2 3 4 5 6 
#
# 1 41.3127 18.1808 32.0019 6.5749 -4.7848 1.1740
# 2 18.1808 233.9843 38.4662 5.1197 4.6974 -6.7964
# 3 32.0019 38.4662 118.9814 16.9889 -6.3655 4.1791
# 4 6.5749 5.1197 16.9889 50.2703 -3.0191 -3.3564
# 5 -4.7848 4.6974 -6.3655 -3.0191 41.6643 7.6502
# 6 1.1740 -6.7964 4.1791 -3.3564 7.6502 37.7509
#
#
#
# Elastic Compliance Matrix: (Units=1/GPa)
#
#
# Indices 1 2 3 4 5 6 
#
# 1 0.031198 -0.001223 -0.007636 -0.001283 0.002644 -0.000995
# 2 -0.001223 0.004636 -0.001292 0.000143 -0.001079 0.001247
# 3 -0.007636 -0.001292 0.011392 -0.002768 0.001126 -0.001731
# 4 -0.001283 0.000143 -0.002768 0.021157 0.000554 0.002141
# 5 0.002644 -0.001079 0.001126 0.000554 0.025658 -0.005552
# 6 -0.000995 0.001247 -0.001731 0.002141 -0.005552 0.028252
#
#
# Mechanical properties :
#
#
# Convention : Reuss Voigt Hill
#
# Bulk Modulus (GPa) = 37.14090 63.50845 50.32467
# Shear Modulus (GPa) = 32.98817 46.31238 39.65028
#
# Velocity S-wave (km/s) = 3.43705 4.07245 3.76817
# Velocity P-wave (km/s) = 5.38995 6.69746 6.07896
#
# Compressibility (1/GPa) = 0.02692450
#
# Stress axis : x y z
#
# Youngs Moduli (GPa) = 32.05380 215.70658 87.77740
#
# Poissons Ratio (x) = 0.26372 0.67029
# Poissons Ratio (y) = 0.03919 0.11340
# Poissons Ratio (z) = 0.24477 0.27866
#
# Static dielectric constant tensor:
#      x y z
#    x 5.238260 -0.479900 0.020300 
#    y -0.479900 6.033490 -0.125050 
#    z 0.020300 -0.125050 5.388990 
# 
# 
# High freq. dielectric constant tensor:
#      x y z
#    x 2.099760 -0.009930 -0.007840 
#    y -0.009930 2.168190 0.004110 
#    z -0.007840 0.004110 2.153610 
# 
# From -- ./inp_files/153339.got.cif
#   From: 2010.06.25/outbox.cif.g09.slc.cpg/sg2_77_cif.got.tgz:153339.got - 2010.06.27 13:26:56.
