data_PCOD8034220
_publ_section_title
;
Structure prediction by ZEFSAII (Michael W. Deem and Ramdas Pophale) SiO2 
 PCOD8034220
Probable space group: P -1
;
_chemical_formula_sum "Si O2"
_cell_formula_units_Z 16
_cell_length_a 8.610344
_cell_length_b 22.532356
_cell_length_c 9.112504
_cell_angle_alpha 30.819476
_cell_angle_beta 121.774521
_cell_angle_gamma 126.521020
_cell_volume 727.397085
_symmetry_space_group_name_H-M "P -1"
_symmetry_group_IT_number 2
_symmetry_cell_setting 'triclinic'
loop_
_space_group_symop_operation_xyz
x,y,z
-x,-y,-z
loop_
_atom_site_type_symbol
_atom_site_label
_atom_site_fract_x
_atom_site_fract_y
_atom_site_fract_z
Si Si1 0.349757 0.029671 0.755131
Si Si2 0.641301 0.672237 0.626283
Si Si3 0.137688 0.398424 0.639319
Si Si4 0.565621 0.690669 0.867152
Si Si5 0.310895 0.913978 0.666170
Si Si6 0.050191 0.066180 0.730277
Si Si7 0.800275 0.516713 0.825305
Si Si8 0.732675 0.338585 0.711493
O O1 0.431326 0.171424 0.446060
O O2 0.152096 0.996583 0.819375
O O3 0.307882 0.946082 0.767956
O O4 0.500000 0.000000 0.000000
O O5 0.576342 0.623277 0.861489
O O6 0.809065 0.800067 0.449737
O O7 0.730634 0.579778 0.790750
O O8 0.460335 0.691086 0.415283
O O9 0.165271 0.396526 0.483124
O O10 0.234118 0.536826 0.448787
O O11 0.912483 0.346843 0.677249
O O12 0.247870 0.309735 0.946069
O O13 0.365588 0.613979 0.010273
O O14 0.136920 0.930446 0.454207
O O15 0.500000 0.000000 0.500000
O O16 0.297267 0.771656 0.953285
O O17 0.000000 0.000000 0.000000
O O18 0.000000 0.500000 0.000000
#
# Coordination Sequence:
#
# PCOD8034220 Si02
#       8
#     2   2   2   2   2   2   2   2
#     4  11  25  46  73 103 140 183 234 291 351 416
#     4  11  24  44  68  97 138 182 222 283 346 417
#     4  11  26  43  70 103 136 183 229 292 344 415
#     4  11  24  46  69  99 140 178 230 284 349 414
#     4  12  26  44  73 104 139 189 234 292 351 412
#     4  11  25  45  69 101 139 184 237 286 346 414
#     4  12  27  40  66 102 138 179 231 281 350 406
#     4  11  24  44  71  98 143 178 236 278 358 411
#
# _framework density 21.996238999999999
#
# number of rings (size 3 to 8) (size 9 to 14) (size 15 to 20)
#    0.000    0.750    1.250    6.375    7.000    3.000 
#    0.000    0.000    0.000    0.000    0.000    0.000 
#    0.000    0.000    0.000    0.000    0.000    0.000 
#
# Total GULP energy -198475.726186 kJ/mol
# GULP energy per Si atom -12404.732887 kJ/mol
# Density = 2.194617 g / cm^3
# Si number density = 21.996239 Si / 1000 Ang^3
#
#
#
# Elastic Constant Matrix: (Units=GPa)
#
#
# Indices 1 2 3 4 5 6 
#
# 1 104.4797 44.7797 60.4912 7.8966 0.9810 31.6038
# 2 44.7797 101.1794 46.8903 19.5490 10.8881 19.2323
# 3 60.4912 46.8903 154.6765 23.8819 13.1357 10.0032
# 4 7.8966 19.5490 23.8819 48.1194 8.8302 6.3026
# 5 0.9810 10.8881 13.1357 8.8302 45.1878 9.4285
# 6 31.6038 19.2323 10.0032 6.3026 9.4285 41.0752
#
#
#
# Elastic Compliance Matrix: (Units=1/GPa)
#
#
# Indices 1 2 3 4 5 6 
#
# 1 0.018007 -0.003915 -0.005801 0.002293 0.004283 -0.011944
# 2 -0.003915 0.013688 -0.001817 -0.003457 -0.001579 -0.002061
# 3 -0.005801 -0.001817 0.009731 -0.003210 -0.002473 0.004004
# 4 0.002293 -0.003457 -0.003210 0.024187 -0.002488 -0.002504
# 5 0.004283 -0.001579 -0.002473 -0.002488 0.025155 -0.007346
# 6 -0.011944 -0.002061 0.004004 -0.002504 -0.007346 0.035596
#
#
# Mechanical properties :
#
#
# Convention : Reuss Voigt Hill
#
# Bulk Modulus (GPa) = 54.46470 73.85088 64.15779
# Shear Modulus (GPa) = 32.14391 40.75478 36.44934
#
# Velocity S-wave (km/s) = 3.82689 4.30909 4.07513
# Velocity P-wave (km/s) = 6.65894 7.64231 7.16751
#
# Compressibility (1/GPa) = 0.01836052
#
# Stress axis : x y z
#
# Youngs Moduli (GPa) = 55.53399 73.05728 102.76123
#
# Poissons Ratio (x) = 0.28600 0.59609
# Poissons Ratio (y) = 0.21740 0.18676
# Poissons Ratio (z) = 0.32214 0.13277
#
# Static dielectric constant tensor:
#      x y z
#    x 4.351170 -0.054040 -0.163330 
#    y -0.054040 4.126090 0.116160 
#    z -0.163330 0.116160 4.140180 
# 
# 
# High freq. dielectric constant tensor:
#      x y z
#    x 1.880050 0.009580 -0.003530 
#    y 0.009580 1.871550 0.005210 
#    z -0.003530 0.005210 1.881790 
# 
# From -- ./inp_files/225881.got.cif
#   From: 2010.06.25/outbox.cif.g09.slc.cpg/sg2_113_cif.got.tgz:225881.got - 2010.06.27 13:26:56.
