data_PCOD8034322
_publ_section_title
;
Structure prediction by ZEFSAII (Michael W. Deem and Ramdas Pophale) SiO2 
 PCOD8034322
Probable space group: P -1
;
_chemical_formula_sum "Si O2"
_cell_formula_units_Z 16
_cell_length_a 8.685128
_cell_length_b 6.607238
_cell_length_c 14.437134
_cell_angle_alpha 63.988981
_cell_angle_beta 102.588264
_cell_angle_gamma 104.444104
_cell_volume 715.389522
_symmetry_space_group_name_H-M "P -1"
_symmetry_group_IT_number 2
_symmetry_cell_setting 'triclinic'
loop_
_space_group_symop_operation_xyz
x,y,z
-x,-y,-z
loop_
_atom_site_type_symbol
_atom_site_label
_atom_site_fract_x
_atom_site_fract_y
_atom_site_fract_z
Si Si1 0.375705 0.141548 0.406350
Si Si2 0.350801 0.085562 0.924251
Si Si3 0.075156 0.387453 0.646267
Si Si4 0.377783 0.557455 0.751012
Si Si5 0.870782 0.795783 0.983978
Si Si6 0.903391 0.937462 0.756520
Si Si7 0.824596 0.304474 0.146857
Si Si8 0.121561 0.230105 0.493261
O O1 0.469874 0.320101 0.310287
O O2 0.228610 0.016791 0.347181
O O3 0.291819 0.250345 0.458845
O O4 0.500000 0.000000 0.500000
O O5 0.401283 0.295749 0.817734
O O6 0.225352 0.880183 0.904068
O O7 0.290509 0.191172 0.986845
O O8 0.500000 0.000000 0.000000
O O9 0.220013 0.566795 0.669170
O O10 0.143727 0.239024 0.604656
O O11 0.940321 0.533404 0.577057
O O12 0.998143 0.189643 0.747935
O O13 0.334156 0.681850 0.815005
O O14 0.832420 0.817001 0.865807
O O15 0.906058 0.542942 0.062264
O O16 0.000000 0.000000 0.000000
O O17 0.028205 0.782199 0.761439
O O18 0.000000 0.000000 0.500000
#
# Coordination Sequence:
#
# PCOD8034322 Si02
#       8
#     2   2   2   2   2   2   2   2
#     4  12  29  45  70 108 146 189 240 302 362 418
#     4  11  26  43  68 104 147 189 225 295 373 428
#     4  11  24  46  75  99 131 190 245 287 354 430
#     4  11  26  45  69 105 140 185 246 287 362 432
#     4  11  24  44  71 110 141 177 250 294 349 440
#     4  12  24  45  74 105 137 195 239 292 357 426
#     4  11  24  47  74  99 148 193 234 295 362 435
#     4  11  24  48  74  97 140 182 236 302 357 416
#
# _framework density 22.365438999999999
#
# number of rings (size 3 to 8) (size 9 to 14) (size 15 to 20)
#    0.000    0.750    3.750    2.625    7.000    2.500 
#    0.000    0.000    0.000    0.000    0.000    0.000 
#    0.000    0.000    0.000    0.000    0.000    0.000 
#
# Total GULP energy -198208.849192 kJ/mol
# GULP energy per Si atom -12388.053074 kJ/mol
# Density = 2.231453 g / cm^3
# Si number density = 22.365439 Si / 1000 Ang^3
#
#
#
# Elastic Constant Matrix: (Units=GPa)
#
#
# Indices 1 2 3 4 5 6 
#
# 1 116.6113 37.5246 47.0799 -6.0547 -7.5154 -14.9316
# 2 37.5246 105.0022 38.9372 -12.6863 -8.8297 -11.1870
# 3 47.0799 38.9372 105.4020 -7.6699 -3.3402 -12.3178
# 4 -6.0547 -12.6863 -7.6699 34.9861 6.8725 -3.3212
# 5 -7.5154 -8.8297 -3.3402 6.8725 49.7484 1.0640
# 6 -14.9316 -11.1870 -12.3178 -3.3212 1.0640 32.0505
#
#
#
# Elastic Compliance Matrix: (Units=1/GPa)
#
#
# Indices 1 2 3 4 5 6 
#
# 1 0.011289 -0.002158 -0.003827 0.000437 0.000940 0.003049
# 2 -0.002158 0.012154 -0.002961 0.003395 0.001112 0.002413
# 3 -0.003827 -0.002961 0.012629 0.001336 -0.000487 0.002192
# 4 0.000437 0.003395 0.001336 0.031409 -0.003694 0.005279
# 5 0.000940 0.001112 -0.000487 -0.003694 0.020927 -0.000439
# 6 0.003049 0.002413 0.002192 0.005279 -0.000439 0.034868
#
#
# Mechanical properties :
#
#
# Convention : Reuss Voigt Hill
#
# Bulk Modulus (GPa) = 55.01263 63.78875 59.40069
# Shear Modulus (GPa) = 33.96071 36.92192 35.44131
#
# Velocity S-wave (km/s) = 3.90095 4.06747 3.98508
# Velocity P-wave (km/s) = 6.70376 7.11633 6.91312
#
# Compressibility (1/GPa) = 0.01817764
#
# Stress axis : x y z
#
# Youngs Moduli (GPa) = 88.58268 82.27789 79.18373
#
# Poissons Ratio (x) = 0.17759 0.30305
# Poissons Ratio (y) = 0.19120 0.23450
# Poissons Ratio (z) = 0.33902 0.24366
#
# Static dielectric constant tensor:
#      x y z
#    x 3.085010 -1.610050 -0.826030 
#    y -1.610050 1.826450 -0.971970 
#    z -0.826030 -0.971970 3.857350 
# 
# 
# High freq. dielectric constant tensor:
#      x y z
#    x 1.877900 -0.011250 -0.007140 
#    y -0.011250 1.883100 -0.009230 
#    z -0.007140 -0.009230 1.896100 
# 
# From -- ./inp_files/488208.got.cif
#   From: 2010.06.25/outbox.cif.g09.slc.cpg/sg2_245_cif.got.tgz:488208.got - 2010.06.27 13:26:56.
