data_PCOD8034063
_publ_section_title
;
Structure prediction by ZEFSAII (Michael W. Deem and Ramdas Pophale) SiO2 
 PCOD8034063
Probable space group: P -1
;
_chemical_formula_sum "Si O2"
_cell_formula_units_Z 16
_cell_length_a 18.039465
_cell_length_b 9.373495
_cell_length_c 11.609320
_cell_angle_alpha 53.717013
_cell_angle_beta 133.831147
_cell_angle_gamma 149.396937
_cell_volume 720.876700
_symmetry_space_group_name_H-M "P -1"
_symmetry_group_IT_number 2
_symmetry_cell_setting 'triclinic'
loop_
_space_group_symop_operation_xyz
x,y,z
-x,-y,-z
loop_
_atom_site_type_symbol
_atom_site_label
_atom_site_fract_x
_atom_site_fract_y
_atom_site_fract_z
Si Si1 0.959506 0.105004 0.489593
Si Si2 0.159415 0.690826 0.800496
Si Si3 0.273063 0.330797 0.364790
Si Si4 0.761551 0.353308 0.336210
Si Si5 0.987814 0.826619 0.979633
Si Si6 0.375620 0.133697 0.433485
Si Si7 0.462416 0.193581 0.024873
Si Si8 0.660728 0.794181 0.889099
O O1 0.925230 0.231529 0.314678
O O2 0.108957 0.330951 0.630208
O O3 0.796501 0.846262 0.508941
O O4 0.000000 0.000000 0.500000
O O5 0.164180 0.649171 0.691252
O O6 0.047391 0.402580 0.883960
O O7 0.341119 0.936045 0.929214
O O8 0.154676 0.324739 0.192589
O O9 0.294396 0.208995 0.349381
O O10 0.444638 0.650149 0.424849
O O11 0.598941 0.235629 0.182952
O O12 0.731326 0.172664 0.491601
O O13 0.000000 0.000000 0.000000
O O14 0.155708 0.032726 0.992974
O O15 0.377490 0.136262 0.296203
O O16 0.364285 0.117332 0.069304
O O17 0.538140 0.465020 0.913938
#
# Coordination Sequence:
#
# PCOD8034063 Si02
#       8
#     2   2   2   2   2   2   2   2
#     4  12  28  47  73 106 148 190 234 294 361 424
#     4  12  26  48  75 106 142 185 245 292 351 434
#     4  11  24  43  71 106 138 186 238 289 357 418
#     4  12  26  47  74 104 141 188 241 292 353 427
#     4  12  24  44  73 104 141 187 234 292 357 423
#     4  11  24  44  72 103 142 184 235 296 347 422
#     4  11  27  45  72 103 141 189 238 296 359 419
#     4  11  25  45  69 100 147 185 234 296 361 417
#
# _framework density 22.195194999999998
#
# number of rings (size 3 to 8) (size 9 to 14) (size 15 to 20)
#    0.000    0.500    2.500    5.250    8.750    1.000 
#    4.500    0.000    0.000    0.000    0.000    0.000 
#    0.000    0.000    0.000    0.000    0.000    0.000 
#
# Total GULP energy -198566.634855 kJ/mol
# GULP energy per Si atom -12410.414678 kJ/mol
# Density = 2.214468 g / cm^3
# Si number density = 22.195195 Si / 1000 Ang^3
#
#
#
# Elastic Constant Matrix: (Units=GPa)
#
#
# Indices 1 2 3 4 5 6 
#
# 1 111.3941 47.3482 35.2765 2.7912 -2.0517 -0.4811
# 2 47.3482 88.4750 11.2474 -8.4657 -13.2324 -2.5516
# 3 35.2765 11.2474 99.2173 -6.7253 1.0022 -7.4614
# 4 2.7912 -8.4657 -6.7253 41.9858 7.1946 -1.1558
# 5 -2.0517 -13.2324 1.0022 7.1946 38.6605 -4.4645
# 6 -0.4811 -2.5516 -7.4614 -1.1558 -4.4645 30.7069
#
#
#
# Elastic Compliance Matrix: (Units=1/GPa)
#
#
# Indices 1 2 3 4 5 6 
#
# 1 0.013405 -0.007147 -0.004265 -0.002841 -0.001293 -0.001715
# 2 -0.007147 0.016073 0.001055 0.003129 0.004777 0.002292
# 3 -0.004265 0.001055 0.011873 0.002531 -0.000303 0.002957
# 4 -0.002841 0.003129 0.002531 0.025726 -0.003789 0.001248
# 5 -0.001293 0.004777 -0.000303 -0.003789 0.028645 0.004325
# 6 -0.001715 0.002292 0.002957 0.001248 0.004325 0.034124
#
#
# Mechanical properties :
#
#
# Convention : Reuss Voigt Hill
#
# Bulk Modulus (GPa) = 48.45211 54.09231 51.27221
# Shear Modulus (GPa) = 31.75857 35.95158 33.85508
#
# Velocity S-wave (km/s) = 3.78680 4.02903 3.90979
# Velocity P-wave (km/s) = 6.40290 6.78736 6.59793
#
# Compressibility (1/GPa) = 0.02063894
#
# Stress axis : x y z
#
# Youngs Moduli (GPa) = 74.59774 62.21587 84.22813
#
# Poissons Ratio (x) = 0.44463 0.35919
# Poissons Ratio (y) = 0.53312 -0.08887
# Poissons Ratio (z) = 0.31812 -0.06565
#
# Static dielectric constant tensor:
#      x y z
#    x 3.999050 0.104580 0.033330 
#    y 0.104580 4.122830 -0.002100 
#    z 0.033330 -0.002100 4.097950 
# 
# 
# High freq. dielectric constant tensor:
#      x y z
#    x 1.871040 0.010340 0.004170 
#    y 0.010340 1.885210 0.001680 
#    z 0.004170 0.001680 1.889940 
# 
# From -- ./inp_files/462011.got.cif
#   From: 2010.06.25/outbox.cif.g09.slc.cpg/sg2_232_cif.got.tgz:462011.got - 2010.06.27 13:26:56.
