data_PCOD8034042
_publ_section_title
;
Structure prediction by ZEFSAII (Michael W. Deem and Ramdas Pophale) SiO2 
 PCOD8034042
Probable space group: P -1
;
_chemical_formula_sum "Si O2"
_cell_formula_units_Z 12
_cell_length_a 16.124940
_cell_length_b 9.527783
_cell_length_c 6.076103
_cell_angle_alpha 82.072551
_cell_angle_beta 72.629741
_cell_angle_gamma 35.565270
_cell_volume 508.848730
_symmetry_space_group_name_H-M "P -1"
_symmetry_group_IT_number 2
_symmetry_cell_setting 'triclinic'
loop_
_space_group_symop_operation_xyz
x,y,z
-x,-y,-z
loop_
_atom_site_type_symbol
_atom_site_label
_atom_site_fract_x
_atom_site_fract_y
_atom_site_fract_z
Si Si1 0.773271 0.346611 0.083987
Si Si2 0.136656 0.006033 0.205103
Si Si3 0.260606 0.081852 0.789171
Si Si4 0.443390 0.209029 0.139414
Si Si5 0.823727 0.503794 0.366417
Si Si6 0.332564 0.749935 0.505623
O O1 0.825965 0.418883 0.147629
O O2 0.758903 0.249490 0.302480
O O3 0.619724 0.589888 0.022495
O O4 0.885198 0.118255 0.871595
O O5 0.982506 0.246286 0.410662
O O6 0.288077 0.793031 0.277267
O O7 0.161044 0.106835 0.003926
O O8 0.168479 0.344050 0.744815
O O9 0.418075 0.908434 0.817351
O O10 0.292726 0.962741 0.558481
O O11 0.315329 0.338670 0.393627
O O12 0.500000 0.000000 0.000000
O O13 0.500000 0.500000 0.500000
#
# Coordination Sequence:
#
# PCOD8034042 Si02
#       6
#     2   2   2   2   2   2
#     4  11  24  44  71 100 139 180 234 281 343 409
#     4  11  26  46  70 105 140 184 226 283 352 409
#     4  11  25  44  70 102 138 181 234 282 343 410
#     4  12  26  44  73 103 135 184 233 284 344 407
#     4  12  26  44  71 104 143 179 232 288 341 407
#     4  11  24  43  70  99 142 183 231 281 342 412
#
# _framework density 23.582647999999999
#
# number of rings (size 3 to 8) (size 9 to 14) (size 15 to 20)
#    0.000    0.667    1.667    5.500    4.667    8.667 
#    0.000    0.000    0.000    0.000    0.000    0.000 
#    0.000    0.000    0.000    0.000    0.000    0.000 
#
# Total GULP energy -148689.257681 kJ/mol
# GULP energy per Si atom -12390.771473 kJ/mol
# Density = 2.352897 g / cm^3
# Si number density = 23.582648 Si / 1000 Ang^3
#
#
#
# Elastic Constant Matrix: (Units=GPa)
#
#
# Indices 1 2 3 4 5 6 
#
# 1 94.0897 42.2883 38.9518 11.8647 15.4339 27.1181
# 2 42.2883 149.1982 47.3088 14.8149 7.6246 19.0904
# 3 38.9518 47.3088 87.0468 16.5932 22.4366 10.6702
# 4 11.8647 14.8149 16.5932 40.6654 -3.8587 0.8330
# 5 15.4339 7.6246 22.4366 -3.8587 26.2317 7.8433
# 6 27.1181 19.0904 10.6702 0.8330 7.8433 52.5365
#
#
#
# Elastic Compliance Matrix: (Units=1/GPa)
#
#
# Indices 1 2 3 4 5 6 
#
# 1 0.015819 -0.002090 -0.003619 -0.002653 -0.004201 -0.006002
# 2 -0.002090 0.008759 -0.004207 -0.000576 0.002688 -0.001642
# 3 -0.003619 -0.004207 0.020713 -0.007413 -0.015961 0.001690
# 4 -0.002653 -0.000576 -0.007413 0.029742 0.012207 0.000790
# 5 -0.004201 0.002688 -0.015961 0.012207 0.056514 -0.004198
# 6 -0.006002 -0.001642 0.001690 0.000790 -0.004198 0.023000
#
#
# Mechanical properties :
#
#
# Convention : Reuss Voigt Hill
#
# Bulk Modulus (GPa) = 39.27753 65.27029 52.27391
# Shear Modulus (GPa) = 27.34264 37.33911 32.34088
#
# Velocity S-wave (km/s) = 3.40875 3.98342 3.70724
# Velocity P-wave (km/s) = 5.67311 6.99244 6.36704
#
# Compressibility (1/GPa) = 0.02545985
#
# Stress axis : x y z
#
# Youngs Moduli (GPa) = 63.21498 114.17209 48.27789
#
# Poissons Ratio (x) = 0.23865 0.17470
# Poissons Ratio (y) = 0.13214 0.20310
# Poissons Ratio (z) = 0.22875 0.48030
#
# Static dielectric constant tensor:
#      x y z
#    x 4.531130 0.199510 0.193370 
#    y 0.199510 4.561000 0.167530 
#    z 0.193370 0.167530 4.287960 
# 
# 
# High freq. dielectric constant tensor:
#      x y z
#    x 1.940450 0.011570 0.010930 
#    y 0.011570 1.958280 0.000760 
#    z 0.010930 0.000760 1.925890 
# 
# From -- ./inp_files/21433.got.cif
#   From: 2010.06.25/outbox.cif.g09.slc.cpg/sg2_11_cif.got.tgz:21433.got - 2010.06.27 13:26:56.
