data_PCOD8034193
_publ_section_title
;
Structure prediction by ZEFSAII (Michael W. Deem and Ramdas Pophale) SiO2 
 PCOD8034193
Probable space group: P -1
;
_chemical_formula_sum "Si O2"
_cell_formula_units_Z 14
_cell_length_a 14.570453
_cell_length_b 19.723486
_cell_length_c 11.205735
_cell_angle_alpha 37.356277
_cell_angle_beta 133.695755
_cell_angle_gamma 160.720053
_cell_volume 616.095259
_symmetry_space_group_name_H-M "P -1"
_symmetry_group_IT_number 2
_symmetry_cell_setting 'triclinic'
loop_
_space_group_symop_operation_xyz
x,y,z
-x,-y,-z
loop_
_atom_site_type_symbol
_atom_site_label
_atom_site_fract_x
_atom_site_fract_y
_atom_site_fract_z
Si Si1 0.074838 0.071419 0.769682
Si Si2 0.172974 0.471993 0.925218
Si Si3 0.241528 0.747822 0.949798
Si Si4 0.669509 0.267843 0.502198
Si Si5 0.731584 0.973525 0.140094
Si Si6 0.586104 0.607368 0.155922
Si Si7 0.687313 0.838088 0.541640
O O1 0.276859 0.132930 0.813375
O O2 0.265721 0.299654 0.711742
O O3 0.945073 0.043616 0.584748
O O4 0.819320 0.810782 0.977919
O O5 0.347687 0.711819 0.682493
O O6 0.400568 0.573170 0.055196
O O7 0.918085 0.309457 0.011431
O O8 0.004794 0.273150 0.944583
O O9 0.449905 0.991791 0.716081
O O10 0.426644 0.796454 0.109233
O O11 0.000000 0.500000 0.000000
O O12 0.585551 0.308624 0.449317
O O13 0.000000 0.500000 0.500000
O O14 0.803209 0.985643 0.319790
O O15 0.392645 0.351845 0.296379
#
# Coordination Sequence:
#
# PCOD8034193 Si02
#       7
#     2   2   2   2   2   2   2
#     4  11  24  44  67 106 143 185 244 299 369 429
#     4  12  23  47  73 103 144 192 245 295 365 436
#     4  12  28  48  70 110 150 188 248 311 362 434
#     4  12  25  45  78 103 140 199 249 293 366 443
#     4  12  24  44  73 101 144 194 243 301 360 440
#     4  11  25  43  71 105 145 187 242 304 357 446
#     4  12  24  44  71 105 143 192 240 299 371 436
#
# _framework density 22.723758
#
# number of rings (size 3 to 8) (size 9 to 14) (size 15 to 20)
#    0.000    0.286    5.714    3.857    0.000    2.286 
#    0.000    0.000    0.000    0.000    0.000    0.000 
#    0.000    0.000    0.000    0.000    0.000    0.000 
#
# Total GULP energy -173612.463890 kJ/mol
# GULP energy per Si atom -12400.890278 kJ/mol
# Density = 2.267204 g / cm^3
# Si number density = 22.723758 Si / 1000 Ang^3
#
#
#
# Elastic Constant Matrix: (Units=GPa)
#
#
# Indices 1 2 3 4 5 6 
#
# 1 107.6909 51.6659 37.3528 8.6035 2.9478 23.2414
# 2 51.6659 129.9431 57.8328 17.2453 1.3353 -0.9966
# 3 37.3528 57.8328 119.0404 4.8863 -5.8943 3.2416
# 4 8.6035 17.2453 4.8863 38.5185 5.8283 1.6538
# 5 2.9478 1.3353 -5.8943 5.8283 30.1978 4.0022
# 6 23.2414 -0.9966 3.2416 1.6538 4.0022 47.5176
#
#
#
# Elastic Compliance Matrix: (Units=1/GPa)
#
#
# Indices 1 2 3 4 5 6 
#
# 1 0.013585 -0.004557 -0.001882 -0.000391 -0.000548 -0.006552
# 2 -0.004557 0.011977 -0.004341 -0.003832 -0.000585 0.002959
# 3 -0.001882 -0.004341 0.011203 0.000575 0.002473 -0.000163
# 4 -0.000391 -0.003832 0.000575 0.028486 -0.005113 -0.000489
# 5 -0.000548 -0.000585 0.002473 -0.005113 0.035020 -0.002685
# 6 -0.006552 0.002959 -0.000163 -0.000489 -0.002685 0.024566
#
#
# Mechanical properties :
#
#
# Convention : Reuss Voigt Hill
#
# Bulk Modulus (GPa) = 65.76258 72.26417 69.01338
# Shear Modulus (GPa) = 33.01118 37.23498 35.12308
#
# Velocity S-wave (km/s) = 3.81559 4.05234 3.93575
# Velocity P-wave (km/s) = 6.95805 7.33250 7.14773
#
# Compressibility (1/GPa) = 0.01520622
#
# Stress axis : x y z
#
# Youngs Moduli (GPa) = 73.61140 83.49528 89.26040
#
# Poissons Ratio (x) = 0.38046 0.16795
# Poissons Ratio (y) = 0.33542 0.38748
# Poissons Ratio (z) = 0.13851 0.36245
#
# Static dielectric constant tensor:
#      x y z
#    x 4.509000 0.153700 0.062640 
#    y 0.153700 4.121970 0.142780 
#    z 0.062640 0.142780 4.400140 
# 
# 
# High freq. dielectric constant tensor:
#      x y z
#    x 1.903610 0.017720 -0.004920 
#    y 0.017720 1.900180 0.005850 
#    z -0.004920 0.005850 1.903580 
# 
# From -- ./inp_files/457639.got.cif
#   From: 2010.06.25/outbox.cif.g09.slc.cpg/sg2_229_cif.got.tgz:457639.got - 2010.06.27 13:26:56.
