data_PCOD8034885
_publ_section_title
;
Structure prediction by ZEFSAII (Michael W. Deem and Ramdas Pophale) SiO2 
 PCOD8034885
Probable space group: P -1
;
_chemical_formula_sum "Si O2"
_cell_formula_units_Z 12
_cell_length_a 8.184246
_cell_length_b 17.022894
_cell_length_c 5.139513
_cell_angle_alpha 105.140167
_cell_angle_beta 113.686312
_cell_angle_gamma 49.414591
_cell_volume 497.974134
_symmetry_space_group_name_H-M "P -1"
_symmetry_group_IT_number 2
_symmetry_cell_setting 'triclinic'
loop_
_space_group_symop_operation_xyz
x,y,z
-x,-y,-z
loop_
_atom_site_type_symbol
_atom_site_label
_atom_site_fract_x
_atom_site_fract_y
_atom_site_fract_z
Si Si1 0.224061 0.409676 0.703357
Si Si2 0.784641 0.003628 0.831837
Si Si3 0.517192 0.550569 0.801999
Si Si4 0.881168 0.877849 0.273900
Si Si5 0.390697 0.726417 0.567235
Si Si6 0.635222 0.785622 0.114356
O O1 0.442635 0.361458 0.614555
O O2 0.213381 0.319477 0.711023
O O3 0.000000 0.500000 0.500000
O O4 0.249945 0.463630 0.015210
O O5 0.807056 0.935316 0.550825
O O6 0.751204 0.962024 0.037562
O O7 0.558307 0.120473 0.745165
O O8 0.000000 0.000000 0.000000
O O9 0.500000 0.500000 0.500000
O O10 0.343961 0.674874 0.732154
O O11 0.500000 0.500000 0.000000
O O12 0.811321 0.803159 0.139602
O O13 0.151256 0.813026 0.353921
O O14 0.506681 0.776487 0.787824
#
# Coordination Sequence:
#
# PCOD8034885 Si02
#       6
#     2   2   2   2   2   2
#     4  11  27  49  76 109 152 199 250 315 374 438
#     4  12  25  49  77 109 151 196 240 306 370 440
#     4  11  24  46  74 103 144 192 253 303 370 439
#     4  12  28  45  79 110 148 197 245 299 375 439
#     4  11  26  47  74 108 150 195 246 308 374 435
#     4  11  27  46  74 111 151 191 253 304 366 450
#
# _framework density 24.097636999999999
#
# number of rings (size 3 to 8) (size 9 to 14) (size 15 to 20)
#    0.000    0.667    3.333    2.500    9.333    4.000 
#    0.000    0.000    0.000    0.000    0.000    0.000 
#    0.000    0.000    0.000    0.000    0.000    0.000 
#
# Total GULP energy -148724.026880 kJ/mol
# GULP energy per Si atom -12393.668907 kJ/mol
# Density = 2.404279 g / cm^3
# Si number density = 24.097637 Si / 1000 Ang^3
#
#
#
# Elastic Constant Matrix: (Units=GPa)
#
#
# Indices 1 2 3 4 5 6 
#
# 1 119.3945 42.4257 53.5563 6.9865 10.3448 33.2264
# 2 42.4257 129.0250 66.3754 -10.1635 16.8348 9.7579
# 3 53.5563 66.3754 151.5487 14.0956 10.6682 15.6497
# 4 6.9865 -10.1635 14.0956 35.8585 8.5150 1.7607
# 5 10.3448 16.8348 10.6682 8.5150 43.3700 -2.7178
# 6 33.2264 9.7579 15.6497 1.7607 -2.7178 52.5549
#
#
#
# Elastic Compliance Matrix: (Units=1/GPa)
#
#
# Indices 1 2 3 4 5 6 
#
# 1 0.012345 -0.002162 -0.002484 -0.001319 -0.001655 -0.006705
# 2 -0.002162 0.012035 -0.004846 0.006748 -0.004280 0.000128
# 3 -0.002484 -0.004846 0.010030 -0.005051 0.000979 -0.000297
# 4 -0.001319 0.006748 -0.005051 0.033904 -0.007747 -0.000451
# 5 -0.001655 -0.004280 0.000979 -0.007747 0.026593 0.003184
# 6 -0.006705 0.000128 -0.000297 -0.000451 0.003184 0.023511
#
#
# Mechanical properties :
#
#
# Convention : Reuss Voigt Hill
#
# Bulk Modulus (GPa) = 64.83032 80.52035 72.67533
# Shear Modulus (GPa) = 35.07656 42.19737 38.63696
#
# Velocity S-wave (km/s) = 3.81937 4.18915 4.00853
# Velocity P-wave (km/s) = 6.81262 7.54224 7.18670
#
# Compressibility (1/GPa) = 0.01542488
#
# Stress axis : x y z
#
# Youngs Moduli (GPa) = 81.00684 83.09137 99.69634
#
# Poissons Ratio (x) = 0.17966 0.24764
# Poissons Ratio (y) = 0.17515 0.48318
# Poissons Ratio (z) = 0.20121 0.40270
#
# Static dielectric constant tensor:
#      x y z
#    x 4.434820 0.488060 0.044370 
#    y 0.488060 4.461840 -0.080850 
#    z 0.044370 -0.080850 4.811870 
# 
# 
# High freq. dielectric constant tensor:
#      x y z
#    x 1.954840 0.031870 0.007330 
#    y 0.031870 1.957320 -0.003860 
#    z 0.007330 -0.003860 1.975890 
# 
# From -- ./inp_files/49882.got.cif
#   From: 2010.06.25/outbox.cif.g09.slc.cpg/sg2_25_cif.got.tgz:49882.got - 2010.06.27 13:26:56.
