data_PCOD8034679
_publ_section_title
;
Structure prediction by ZEFSAII (Michael W. Deem and Ramdas Pophale) SiO2 
 PCOD8034679
Probable space group: P -1
;
_chemical_formula_sum "Si O2"
_cell_formula_units_Z 16
_cell_length_a 9.453525
_cell_length_b 8.649000
_cell_length_c 9.555698
_cell_angle_alpha 59.140115
_cell_angle_beta 95.918527
_cell_angle_gamma 109.044037
_cell_volume 631.994248
_symmetry_space_group_name_H-M "P -1"
_symmetry_group_IT_number 2
_symmetry_cell_setting 'triclinic'
loop_
_space_group_symop_operation_xyz
x,y,z
-x,-y,-z
loop_
_atom_site_type_symbol
_atom_site_label
_atom_site_fract_x
_atom_site_fract_y
_atom_site_fract_z
Si Si1 0.267645 0.835311 0.805184
Si Si2 0.290012 0.146455 0.224917
Si Si3 0.500490 0.199671 0.968750
Si Si4 0.912517 0.482745 0.271649
Si Si5 0.995111 0.862883 0.935173
Si Si6 0.208621 0.509970 0.440600
Si Si7 0.434406 0.421940 0.332606
Si Si8 0.568557 0.147068 0.602189
O O1 0.189388 0.714478 0.717527
O O2 0.153355 0.903497 0.856022
O O3 0.403327 0.026701 0.691519
O O4 0.345931 0.712766 0.965383
O O5 0.111667 0.092217 0.215398
O O6 0.348704 0.346969 0.215079
O O7 0.346509 0.992779 0.392079
O O8 0.355995 0.158282 0.071208
O O9 0.486047 0.351619 0.781892
O O10 0.500000 0.000000 0.000000
O O11 0.842126 0.532815 0.384070
O O12 0.072180 0.461457 0.339929
O O13 0.932747 0.645987 0.082844
O O14 0.000000 0.000000 0.000000
O O15 0.316265 0.385539 0.466720
O O16 0.310738 0.733385 0.324486
O O17 0.556878 0.314753 0.419749
#
# Coordination Sequence:
#
# PCOD8034679 Si02
#       8
#     2   2   2   2   2   2   2   2
#     4  11  25  48  76 107 148 195 248 308 368 448
#     4  11  25  43  71 107 145 190 248 308 362 436
#     4  11  24  45  74 108 147 192 250 307 369 436
#     4  11  26  47  74 106 150 198 245 308 380 439
#     4  12  25  44  75 104 146 191 255 303 377 438
#     4  11  26  46  72 107 152 193 247 303 377 447
#     4  12  24  43  74 106 147 191 251 301 373 439
#     4  11  27  47  72 110 150 199 242 304 372 440
#
# _framework density 25.316685
#
# number of rings (size 3 to 8) (size 9 to 14) (size 15 to 20)
#    0.000    0.750    0.000    6.750    8.750    0.000 
#    0.000    1.250    0.000    0.000    0.000    0.000 
#    0.000    0.000    0.000    0.000    0.000    0.000 
#
# Total GULP energy -198289.981814 kJ/mol
# GULP energy per Si atom -12393.123863 kJ/mol
# Density = 2.525906 g / cm^3
# Si number density = 25.316685 Si / 1000 Ang^3
#
#
#
# Elastic Constant Matrix: (Units=GPa)
#
#
# Indices 1 2 3 4 5 6 
#
# 1 105.1378 8.0503 38.5652 -12.1326 16.1310 21.8975
# 2 8.0503 102.5350 31.9040 1.9494 7.2012 22.5541
# 3 38.5652 31.9040 112.6286 -20.9888 18.1905 2.1209
# 4 -12.1326 1.9494 -20.9888 40.4256 -6.8748 -1.1415
# 5 16.1310 7.2012 18.1905 -6.8748 36.3671 1.0729
# 6 21.8975 22.5541 2.1209 -1.1415 1.0729 44.7797
#
#
#
# Elastic Compliance Matrix: (Units=1/GPa)
#
#
# Indices 1 2 3 4 5 6 
#
# 1 0.013028 0.002084 -0.004161 0.000811 -0.003747 -0.007113
# 2 0.002084 0.012730 -0.004451 -0.002764 -0.001527 -0.007254
# 3 -0.004161 -0.004451 0.012942 0.005309 -0.002857 0.003868
# 4 0.000811 -0.002764 0.005309 0.028395 0.002859 0.001399
# 5 -0.003747 -0.001527 -0.002857 0.002859 0.031371 0.002058
# 6 -0.007113 -0.007254 0.003868 0.001399 0.002058 0.029266
#
#
# Mechanical properties :
#
#
# Convention : Reuss Voigt Hill
#
# Bulk Modulus (GPa) = 38.99636 53.03781 46.01709
# Shear Modulus (GPa) = 33.48144 40.43328 36.95736
#
# Velocity S-wave (km/s) = 3.64057 4.00071 3.82488
# Velocity P-wave (km/s) = 5.75400 6.50662 6.14185
#
# Compressibility (1/GPa) = 0.02564342
#
# Stress axis : x y z
#
# Youngs Moduli (GPa) = 76.75812 78.55747 77.26561
#
# Poissons Ratio (x) = -0.16373 0.32151
# Poissons Ratio (y) = -0.15998 0.34394
# Poissons Ratio (z) = 0.31939 0.34969
#
# Static dielectric constant tensor:
#      x y z
#    x 4.902040 0.065480 0.221390 
#    y 0.065480 4.756650 0.049980 
#    z 0.221390 0.049980 4.586280 
# 
# 
# High freq. dielectric constant tensor:
#      x y z
#    x 2.024170 0.000330 0.007320 
#    y 0.000330 2.023950 0.008910 
#    z 0.007320 0.008910 1.998010 
# 
# From -- ./inp_files/375682.got.cif
#   From: 2010.06.25/outbox.cif.g09.slc.cpg/sg2_188_cif.got.tgz:375682.got - 2010.06.27 13:26:56.
