data_PCOD8034353
_publ_section_title
;
Structure prediction by ZEFSAII (Michael W. Deem and Ramdas Pophale) SiO2 
 PCOD8034353
Probable space group: P -1
;
_chemical_formula_sum "Si O2"
_cell_formula_units_Z 10
_cell_length_a 6.129497
_cell_length_b 14.540276
_cell_length_c 14.075043
_cell_angle_alpha 20.070728
_cell_angle_beta 110.617250
_cell_angle_gamma 108.926482
_cell_volume 402.844581
_symmetry_space_group_name_H-M "P -1"
_symmetry_group_IT_number 2
_symmetry_cell_setting 'triclinic'
loop_
_space_group_symop_operation_xyz
x,y,z
-x,-y,-z
loop_
_atom_site_type_symbol
_atom_site_label
_atom_site_fract_x
_atom_site_fract_y
_atom_site_fract_z
Si Si1 0.382322 0.205299 0.548745
Si Si2 0.649755 0.032316 0.584859
Si Si3 0.950052 0.535929 0.156983
Si Si4 0.808159 0.296845 0.631625
Si Si5 0.862286 0.106846 0.019484
O O1 0.485020 0.004977 0.678257
O O2 0.574722 0.398389 0.442215
O O3 0.184254 0.396932 0.283489
O O4 0.288655 0.008483 0.806459
O O5 0.740842 0.333497 0.313034
O O6 0.500000 0.000000 0.500000
O O7 0.864647 0.815992 0.823773
O O8 0.023729 0.609252 0.205732
O O9 0.000000 0.500000 0.500000
O O10 0.720719 0.150044 0.857789
O O11 0.917980 0.088603 0.775915
#
# Coordination Sequence:
#
# PCOD8034353 Si02
#       5
#     2   2   2   2   2
#     4  12  25  46  78 105 155 197 249 308 370 436
#     4  12  29  52  78 109 151 193 248 318 376 441
#     4  12  26  51  74 115 147 193 255 302 377 448
#     4  11  24  45  72 110 155 200 247 302 365 443
#     4  11  24  44  72 111 151 193 257 293 369 447
#
# _framework density 24.823468999999999
#
# number of rings (size 3 to 8) (size 9 to 14) (size 15 to 20)
#    0.000    0.400    4.000    3.600    2.800    8.000 
#    0.000    0.000    0.000    0.000    0.000    0.000 
#    0.000    0.000    0.000    0.000    0.000    0.000 
#
# Total GULP energy -123923.744417 kJ/mol
# GULP energy per Si atom -12392.374442 kJ/mol
# Density = 2.476697 g / cm^3
# Si number density = 24.823469 Si / 1000 Ang^3
#
#
#
# Elastic Constant Matrix: (Units=GPa)
#
#
# Indices 1 2 3 4 5 6 
#
# 1 112.7423 89.2116 39.5384 9.8129 6.0451 7.1313
# 2 89.2116 157.0209 40.5124 -5.6694 -3.9812 6.2712
# 3 39.5384 40.5124 92.5065 -10.5734 13.4350 2.3690
# 4 9.8129 -5.6694 -10.5734 43.2268 12.4773 -2.3081
# 5 6.0451 -3.9812 13.4350 12.4773 42.9195 5.9947
# 6 7.1313 6.2712 2.3690 -2.3081 5.9947 29.2779
#
#
#
# Elastic Compliance Matrix: (Units=1/GPa)
#
#
# Indices 1 2 3 4 5 6 
#
# 1 0.018913 -0.009692 -0.004599 -0.006915 0.000273 -0.002760
# 2 -0.009692 0.012369 -0.001242 0.002886 0.002117 -0.000394
# 3 -0.004599 -0.001242 0.014920 0.006451 -0.006289 0.001975
# 4 -0.006915 0.002886 0.006451 0.029856 -0.010152 0.004977
# 5 0.000273 0.002117 -0.006289 -0.010152 0.029330 -0.006817
# 6 -0.002760 -0.000394 0.001975 0.004977 -0.006817 0.036540
#
#
# Mechanical properties :
#
#
# Convention : Reuss Voigt Hill
#
# Bulk Modulus (GPa) = 66.06258 77.86605 71.96432
# Shear Modulus (GPa) = 28.08375 35.95201 32.01788
#
# Velocity S-wave (km/s) = 3.36719 3.80979 3.59531
# Velocity P-wave (km/s) = 6.46436 7.12662 6.80355
#
# Compressibility (1/GPa) = 0.01513716
#
# Stress axis : x y z
#
# Youngs Moduli (GPa) = 52.87281 80.84727 67.02546
#
# Poissons Ratio (x) = 0.78355 0.30823
# Poissons Ratio (y) = 0.51243 0.08325
# Poissons Ratio (z) = 0.24315 0.10041
#
# Static dielectric constant tensor:
#      x y z
#    x 4.604630 0.089610 0.166890 
#    y 0.089610 4.673180 -0.034250 
#    z 0.166890 -0.034250 4.376790 
# 
# 
# High freq. dielectric constant tensor:
#      x y z
#    x 1.989280 0.010190 0.007640 
#    y 0.010190 1.997240 -0.008740 
#    z 0.007640 -0.008740 1.978290 
# 
# From -- ./inp_files/2659.got.cif
#   From: 2010.06.25/outbox.cif.g09.slc.cpg/sg2_2_cif.got.tgz:2659.got - 2010.06.27 13:26:56.
