data_PCOD8034397
_publ_section_title
;
Structure prediction by ZEFSAII (Michael W. Deem and Ramdas Pophale) SiO2 
 PCOD8034397
Probable space group: P -1
;
_chemical_formula_sum "Si O2"
_cell_formula_units_Z 16
_cell_length_a 9.797957
_cell_length_b 13.717721
_cell_length_c 8.813282
_cell_angle_alpha 128.320323
_cell_angle_beta 116.688201
_cell_angle_gamma 98.320780
_cell_volume 661.932911
_symmetry_space_group_name_H-M "P -1"
_symmetry_group_IT_number 2
_symmetry_cell_setting 'triclinic'
loop_
_space_group_symop_operation_xyz
x,y,z
-x,-y,-z
loop_
_atom_site_type_symbol
_atom_site_label
_atom_site_fract_x
_atom_site_fract_y
_atom_site_fract_z
Si Si1 0.383687 0.649454 0.825950
Si Si2 0.686510 0.869906 0.954180
Si Si3 0.239783 0.328673 0.393211
Si Si4 0.449735 0.087398 0.374427
Si Si5 0.901917 0.328820 0.859240
Si Si6 0.622312 0.725300 0.298169
Si Si7 0.993033 0.866796 0.454306
Si Si8 0.859117 0.261472 0.107413
O O1 0.563019 0.801849 0.980748
O O2 0.329091 0.503864 0.555344
O O3 0.193636 0.643088 0.727403
O O4 0.430508 0.635171 0.011876
O O5 0.757858 0.769302 0.836588
O O6 0.568993 0.880673 0.777324
O O7 0.861822 0.047808 0.250384
O O8 0.379754 0.358247 0.630767
O O9 0.016234 0.246874 0.251500
O O10 0.673120 0.213642 0.634610
O O11 0.333413 0.115057 0.463459
O O12 0.352377 0.906219 0.178932
O O13 0.969926 0.236535 0.724922
O O14 0.958463 0.349617 0.083784
O O15 0.000000 0.500000 0.000000
O O16 0.781282 0.744765 0.290343
O O17 0.000000 0.000000 0.500000
#
# Coordination Sequence:
#
# PCOD8034397 Si02
#       8
#     2   2   2   2   2   2   2   2
#     4  12  25  43  72 104 148 189 240 298 372 431
#     4  11  25  45  72 107 140 193 242 305 358 437
#     4  11  26  45  70 105 147 185 244 302 367 432
#     4  11  25  49  74 104 147 192 247 298 369 443
#     4  12  29  46  75 112 154 187 244 315 376 429
#     4  11  24  44  74 101 141 194 247 294 364 437
#     4  12  24  44  74 106 144 193 248 297 363 446
#     4  12  26  47  75 102 147 197 241 297 370 441
#
# _framework density 24.171633
#
# number of rings (size 3 to 8) (size 9 to 14) (size 15 to 20)
#    0.000    0.500    2.500    5.250    3.500    7.000 
#    0.000    0.000    0.000    0.000    0.000    0.000 
#    0.000    0.000    0.000    0.000    0.000    0.000 
#
# Total GULP energy -198285.509818 kJ/mol
# GULP energy per Si atom -12392.844364 kJ/mol
# Density = 2.411662 g / cm^3
# Si number density = 24.171633 Si / 1000 Ang^3
#
#
#
# Elastic Constant Matrix: (Units=GPa)
#
#
# Indices 1 2 3 4 5 6 
#
# 1 140.1860 42.8897 14.5896 -6.1331 -20.7068 -9.5115
# 2 42.8897 90.5936 30.0860 11.7402 -8.9377 -2.4365
# 3 14.5896 30.0860 52.1620 -2.8371 0.1210 -2.8148
# 4 -6.1331 11.7402 -2.8371 39.2134 -6.4697 -0.4136
# 5 -20.7068 -8.9377 0.1210 -6.4697 48.5939 3.5761
# 6 -9.5115 -2.4365 -2.8148 -0.4136 3.5761 29.4507
#
#
#
# Elastic Compliance Matrix: (Units=1/GPa)
#
#
# Indices 1 2 3 4 5 6 
#
# 1 0.009304 -0.004561 0.000331 0.003432 0.003413 0.002293
# 2 -0.004561 0.017010 -0.008941 -0.006392 0.000434 -0.001063
# 3 0.000331 -0.008941 0.024578 0.004341 -0.001128 0.001914
# 4 0.003432 -0.006392 0.004341 0.028946 0.004063 0.000908
# 5 0.003413 0.000434 -0.001128 0.004063 0.022780 -0.001679
# 6 0.002293 -0.001063 0.001914 0.000908 -0.001679 0.035007
#
#
# Mechanical properties :
#
#
# Convention : Reuss Voigt Hill
#
# Bulk Modulus (GPa) = 40.73537 50.89692 45.81615
# Shear Modulus (GPa) = 29.04425 36.47669 32.76047
#
# Velocity S-wave (km/s) = 3.47015 3.88889 3.68547
# Velocity P-wave (km/s) = 5.73978 6.42392 6.09146
#
# Compressibility (1/GPa) = 0.02454869
#
# Stress axis : x y z
#
# Youngs Moduli (GPa) = 107.47688 58.78982 40.68748
#
# Poissons Ratio (x) = 0.26815 -0.01346
# Poissons Ratio (y) = 0.49022 0.36379
# Poissons Ratio (z) = -0.03556 0.52565
#
# Static dielectric constant tensor:
#      x y z
#    x 0.000000 0.000000 0.000000 
#    y 0.000000 0.000000 0.000000 
#    z 0.000000 0.000000 0.000000 
# 
# 
# High freq. dielectric constant tensor:
#      x y z
#    x 1.970870 -0.012960 -0.005020 
#    y -0.012960 1.953760 -0.005150 
#    z -0.005020 -0.005150 1.969020 
# 
# From -- ./inp_files/209144.got.cif
#   From: 2010.06.25/outbox.cif.g09.slc.cpg/sg2_105_cif.got.tgz:209144.got - 2010.06.27 13:26:56.
