data_PCOD8034952
_publ_section_title
;
Structure prediction by ZEFSAII (Michael W. Deem and Ramdas Pophale) SiO2 
 PCOD8034952
Probable space group: P -1
;
_chemical_formula_sum "Si O2"
_cell_formula_units_Z 16
_cell_length_a 19.875391
_cell_length_b 19.307295
_cell_length_c 4.994238
_cell_angle_alpha 74.698295
_cell_angle_beta 83.251664
_cell_angle_gamma 21.276571
_cell_volume 624.011987
_symmetry_space_group_name_H-M "P -1"
_symmetry_group_IT_number 2
_symmetry_cell_setting 'triclinic'
loop_
_space_group_symop_operation_xyz
x,y,z
-x,-y,-z
loop_
_atom_site_type_symbol
_atom_site_label
_atom_site_fract_x
_atom_site_fract_y
_atom_site_fract_z
Si Si1 0.599317 0.098299 0.918480
Si Si2 0.303845 0.842131 0.183209
Si Si3 0.795399 0.666169 0.374505
Si Si4 0.806873 0.456395 0.127460
Si Si5 0.506910 0.410835 0.164255
Si Si6 0.142144 0.688365 0.238870
Si Si7 0.377188 0.068570 0.274632
Si Si8 0.921453 0.722743 0.518930
O O1 0.622960 0.154360 0.725355
O O2 0.395957 0.296575 0.982266
O O3 0.604029 0.027200 0.785375
O O4 0.792658 0.904442 0.217877
O O5 0.330539 0.760355 0.499818
O O6 0.442834 0.686481 0.021517
O O7 0.077622 0.063078 0.966479
O O8 0.000000 0.500000 0.500000
O O9 0.868296 0.510831 0.477827
O O10 0.608762 0.856258 0.482792
O O11 0.702753 0.787799 0.018157
O O12 0.830877 0.365557 0.414558
O O13 0.004636 0.309954 0.215402
O O14 0.808490 0.429064 0.850750
O O15 0.293467 0.601606 0.191552
O O16 0.500000 0.500000 0.000000
O O17 0.215428 0.212941 0.433641
#
# Coordination Sequence:
#
# PCOD8034952 Si02
#       8
#     2   2   2   2   2   2   2   2
#     4  12  24  43  70 104 133 182 236 298 356 420
#     4  12  26  45  76 107 146 187 244 294 356 423
#     4  11  24  47  63  96 139 184 233 296 355 433
#     4  12  26  43  73 107 144 186 236 301 368 414
#     4  12  27  48  74 108 151 195 236 290 351 427
#     4  12  25  47  73 107 148 187 235 297 356 419
#     4  11  26  43  68  96 138 179 241 289 361 429
#     4  12  26  43  70 100 135 186 237 295 366 425
#
# _framework density 25.640533999999999
#
# number of rings (size 3 to 8) (size 9 to 14) (size 15 to 20)
#    0.000    0.250    6.250    2.250    3.500    2.500 
#    0.000    0.000    0.000    0.000    0.000    0.000 
#    0.000    0.000    0.000    0.000    0.000    0.000 
#
# Total GULP energy -198368.451129 kJ/mol
# GULP energy per Si atom -12398.028196 kJ/mol
# Density = 2.558218 g / cm^3
# Si number density = 25.640534 Si / 1000 Ang^3
#
#
#
# Elastic Constant Matrix: (Units=GPa)
#
#
# Indices 1 2 3 4 5 6 
#
# 1 95.0665 31.8280 7.6598 -19.8594 -7.7315 -17.7217
# 2 31.8280 129.0300 35.3203 -21.3254 -3.4586 -9.0807
# 3 7.6598 35.3203 97.7265 -20.0902 -9.5283 3.2537
# 4 -19.8594 -21.3254 -20.0902 42.8968 -2.2951 5.0679
# 5 -7.7315 -3.4586 -9.5283 -2.2951 40.7495 -1.8310
# 6 -17.7217 -9.0807 3.2537 5.0679 -1.8310 36.7411
#
#
#
# Elastic Compliance Matrix: (Units=1/GPa)
#
#
# Indices 1 2 3 4 5 6 
#
# 1 0.013522 -0.002293 0.000944 0.005100 0.003118 0.005324
# 2 -0.002293 0.009545 -0.002871 0.002191 -0.000119 0.001199
# 3 0.000944 -0.002871 0.012662 0.005337 0.003109 -0.001957
# 4 0.005100 0.002191 0.005337 0.029637 0.004010 -0.001359
# 5 0.003118 -0.000119 0.003109 0.004010 0.026162 0.001950
# 6 0.005324 0.001199 -0.001957 -0.001359 0.001950 0.030540
#
#
# Mechanical properties :
#
#
# Convention : Reuss Voigt Hill
#
# Bulk Modulus (GPa) = 36.64468 52.38213 44.51340
# Shear Modulus (GPa) = 35.81574 40.54513 38.18044
#
# Velocity S-wave (km/s) = 3.74149 3.98086 3.86303
# Velocity P-wave (km/s) = 5.74349 6.45007 6.10701
#
# Compressibility (1/GPa) = 0.02728909
#
# Stress axis : x y z
#
# Youngs Moduli (GPa) = 73.95377 104.76750 78.97784
#
# Poissons Ratio (x) = 0.24020 -0.07456
# Poissons Ratio (y) = 0.16955 0.22676
# Poissons Ratio (z) = -0.06982 0.30080
#
# Static dielectric constant tensor:
#      x y z
#    x 4.569590 -0.280340 0.155750 
#    y -0.280340 5.157280 -0.236280 
#    z 0.155750 -0.236280 4.509490 
# 
# 
# High freq. dielectric constant tensor:
#      x y z
#    x 2.025070 -0.008290 0.010720 
#    y -0.008290 2.051680 -0.016430 
#    z 0.010720 -0.016430 2.022180 
# 
# From -- ./inp_files/120374.got.cif
#   From: 2010.06.25/outbox.cif.g09.slc.cpg/sg2_61_cif.got.tgz:120374.got - 2010.06.27 13:26:56.
