data_PCOD8034916
_publ_section_title
;
Structure prediction by ZEFSAII (Michael W. Deem and Ramdas Pophale) SiO2 
 PCOD8034916
Probable space group: P -1
;
_chemical_formula_sum "Si O2"
_cell_formula_units_Z 14
_cell_length_a 18.252103
_cell_length_b 9.202883
_cell_length_c 5.534941
_cell_angle_alpha 103.510195
_cell_angle_beta 101.124332
_cell_angle_gamma 38.621270
_cell_volume 564.158932
_symmetry_space_group_name_H-M "P -1"
_symmetry_group_IT_number 2
_symmetry_cell_setting 'triclinic'
loop_
_space_group_symop_operation_xyz
x,y,z
-x,-y,-z
loop_
_atom_site_type_symbol
_atom_site_label
_atom_site_fract_x
_atom_site_fract_y
_atom_site_fract_z
Si Si1 0.426930 0.827703 0.982228
Si Si2 0.564941 0.637044 0.506032
Si Si3 0.928008 0.685221 0.236352
Si Si4 0.856252 0.549548 0.434045
Si Si5 0.736477 0.193202 0.166489
Si Si6 0.298319 0.300071 0.214400
Si Si7 0.136859 0.743960 0.965643
O O1 0.503697 0.727702 0.236558
O O2 0.360364 0.088294 0.987086
O O3 0.495847 0.684608 0.719303
O O4 0.346061 0.810497 0.989340
O O5 0.679362 0.356173 0.431993
O O6 0.602561 0.748396 0.626355
O O7 0.832761 0.706368 0.267159
O O8 0.012067 0.613876 0.470966
O O9 0.862374 0.934347 0.212121
O O10 0.000000 0.500000 0.000000
O O11 0.755179 0.731901 0.635818
O O12 0.852545 0.380523 0.305250
O O13 0.770891 0.262785 0.011633
O O14 0.187743 0.566162 0.148418
O O15 0.000000 0.000000 0.000000
#
# Coordination Sequence:
#
# PCOD8034916 Si02
#       7
#     2   2   2   2   2   2   2
#     4  12  29  52  82 112 158 207 277 326 387 470
#     4  12  28  52  80 117 155 206 272 336 390 455
#     4  11  25  48  74 114 149 204 253 317 383 484
#     4  11  24  46  75 108 152 197 259 304 393 479
#     4  12  26  49  78 112 159 203 257 328 403 449
#     4  12  27  49  79 110 154 209 256 324 400 465
#     4  12  27  46  76 116 158 198 255 319 397 478
#
# _framework density 24.815704
#
# number of rings (size 3 to 8) (size 9 to 14) (size 15 to 20)
#    0.000    0.286    1.429    6.857    6.000    3.429 
#    5.143    0.000    0.000    0.000    0.000    0.000 
#    0.000    0.000    0.000    0.000    0.000    0.000 
#
# Total GULP energy -173496.199259 kJ/mol
# GULP energy per Si atom -12392.585661 kJ/mol
# Density = 2.475922 g / cm^3
# Si number density = 24.815704 Si / 1000 Ang^3
#
#
#
# Elastic Constant Matrix: (Units=GPa)
#
#
# Indices 1 2 3 4 5 6 
#
# 1 169.5743 18.7875 39.3992 3.9891 -1.9751 9.0562
# 2 18.7875 57.3126 18.4731 19.2913 6.3052 18.8290
# 3 39.3992 18.4731 110.0060 2.8968 -3.0585 2.2972
# 4 3.9891 19.2913 2.8968 36.0912 1.7022 3.5918
# 5 -1.9751 6.3052 -3.0585 1.7022 44.5963 -0.2185
# 6 9.0562 18.8290 2.2972 3.5918 -0.2185 35.1267
#
#
#
# Elastic Compliance Matrix: (Units=1/GPa)
#
#
# Indices 1 2 3 4 5 6 
#
# 1 0.006578 -0.001285 -0.002118 0.000203 0.000316 -0.000887
# 2 -0.001285 0.028313 -0.003778 -0.013184 -0.003881 -0.013274
# 3 -0.002118 -0.003778 0.010446 0.001186 0.001120 0.001774
# 4 0.000203 -0.013184 0.001186 0.034264 0.000663 0.003438
# 5 0.000316 -0.003881 0.001120 0.000663 0.023047 0.002001
# 6 -0.000887 -0.013274 0.001774 0.003438 0.002001 0.035357
#
#
# Mechanical properties :
#
#
# Convention : Reuss Voigt Hill
#
# Bulk Modulus (GPa) = 32.28422 54.46804 43.37613
# Shear Modulus (GPa) = 30.73279 40.51173 35.62226
#
# Velocity S-wave (km/s) = 3.52297 4.04481 3.79287
# Velocity P-wave (km/s) = 5.43932 6.61896 6.05792
#
# Compressibility (1/GPa) = 0.03097489
#
# Stress axis : x y z
#
# Youngs Moduli (GPa) = 152.02357 35.31963 95.72763
#
# Poissons Ratio (x) = 0.04539 0.20276
# Poissons Ratio (y) = 0.19539 0.36163
# Poissons Ratio (z) = 0.32201 0.13343
#
# Static dielectric constant tensor:
#      x y z
#    x 4.955500 -0.075530 0.215820 
#    y -0.075530 4.710460 0.119670 
#    z 0.215820 0.119670 4.413260 
# 
# 
# High freq. dielectric constant tensor:
#      x y z
#    x 2.011750 0.002470 0.007670 
#    y 0.002470 1.995490 0.006750 
#    z 0.007670 0.006750 1.984650 
# 
# From -- ./inp_files/107206.got.cif
#   From: 2010.06.25/outbox.cif.g09.slc.cpg/sg2_54_cif.got.tgz:107206.got - 2010.06.27 13:26:56.
