data_PCOD8034572
_publ_section_title
;
Structure prediction by ZEFSAII (Michael W. Deem and Ramdas Pophale) SiO2 
 PCOD8034572
Probable space group: P -1
;
_chemical_formula_sum "Si O2"
_cell_formula_units_Z 16
_cell_length_a 19.506729
_cell_length_b 12.216292
_cell_length_c 9.487927
_cell_angle_alpha 107.151093
_cell_angle_beta 143.673189
_cell_angle_gamma 45.162222
_cell_volume 721.504586
_symmetry_space_group_name_H-M "P -1"
_symmetry_group_IT_number 2
_symmetry_cell_setting 'triclinic'
loop_
_space_group_symop_operation_xyz
x,y,z
-x,-y,-z
loop_
_atom_site_type_symbol
_atom_site_label
_atom_site_fract_x
_atom_site_fract_y
_atom_site_fract_z
Si Si1 0.342567 0.071560 0.659572
Si Si2 0.585990 0.413832 0.313656
Si Si3 0.004426 0.629362 0.591676
Si Si4 0.223301 0.276060 0.250241
Si Si5 0.160116 0.788979 0.602123
Si Si6 0.844731 0.867108 0.137991
Si Si7 0.469077 0.293507 0.585595
Si Si8 0.523673 0.694211 0.716902
O O1 0.112628 0.258053 0.411669
O O2 0.343588 0.137276 0.536862
O O3 0.415705 0.882809 0.694589
O O4 0.500000 0.000000 0.000000
O O5 0.757468 0.226936 0.416104
O O6 0.645404 0.496298 0.479651
O O7 0.577198 0.340817 0.407673
O O8 0.356374 0.597648 0.945650
O O9 0.878669 0.795363 0.324298
O O10 0.000000 0.500000 0.500000
O O11 0.230526 0.497571 0.930964
O O12 0.323460 0.304130 0.356790
O O13 0.227652 0.173539 0.101959
O O14 0.000000 0.500000 0.000000
O O15 0.050788 0.756723 0.377923
O O16 0.000000 0.000000 0.500000
O O17 0.667336 0.109410 0.943009
O O18 0.546612 0.242825 0.535913
#
# Coordination Sequence:
#
# PCOD8034572 Si02
#       8
#     2   2   2   2   2   2   2   2
#     4  12  26  43  71 107 143 184 238 292 363 423
#     4  11  26  45  73 101 142 191 243 285 358 427
#     4  12  25  43  69 103 143 185 233 297 355 424
#     4  12  26  45  72 105 141 188 237 294 359 428
#     4  11  24  45  71 105 136 186 239 296 349 425
#     4  12  24  45  73 101 143 184 238 295 358 420
#     4  12  25  47  72 101 147 188 240 296 356 428
#     4  12  26  46  69 105 145 188 237 294 360 423
#
# _framework density 22.175882000000001
#
# number of rings (size 3 to 8) (size 9 to 14) (size 15 to 20)
#    0.000    0.250    5.000    4.500    1.750    2.000 
#    0.000    0.625    0.000    0.000    0.000    0.000 
#    0.000    0.000    0.000    0.000    0.000    0.000 
#
# Total GULP energy -198431.386289 kJ/mol
# GULP energy per Si atom -12401.961643 kJ/mol
# Density = 2.212541 g / cm^3
# Si number density = 22.175882 Si / 1000 Ang^3
#
#
#
# Elastic Constant Matrix: (Units=GPa)
#
#
# Indices 1 2 3 4 5 6 
#
# 1 159.2833 58.4889 32.0018 -3.7442 3.8536 11.6151
# 2 58.4889 132.0349 30.3161 -5.3566 9.7769 -2.1464
# 3 32.0018 30.3161 65.0941 3.6725 -1.2706 7.3613
# 4 -3.7442 -5.3566 3.6725 34.6834 1.7657 7.1817
# 5 3.8536 9.7769 -1.2706 1.7657 41.6964 -3.5408
# 6 11.6151 -2.1464 7.3613 7.1817 -3.5408 42.6920
#
#
#
# Elastic Compliance Matrix: (Units=1/GPa)
#
#
# Indices 1 2 3 4 5 6 
#
# 1 0.008044 -0.002976 -0.002396 0.001124 -0.000348 -0.002143
# 2 -0.002976 0.009917 -0.003443 0.001371 -0.002086 0.001498
# 3 -0.002396 -0.003443 0.018556 -0.002377 0.001508 -0.002196
# 4 0.001124 0.001371 -0.002377 0.030599 -0.002232 -0.005159
# 5 -0.000348 -0.002086 0.001508 -0.002232 0.024828 0.002164
# 6 -0.002143 0.001498 -0.002196 -0.005159 0.002164 0.025508
#
#
# Mechanical properties :
#
#
# Convention : Reuss Voigt Hill
#
# Bulk Modulus (GPa) = 52.95057 66.44734 59.69895
# Shear Modulus (GPa) = 35.36621 39.52138 37.44379
#
# Velocity S-wave (km/s) = 3.99783 4.22617 4.11358
# Velocity P-wave (km/s) = 6.72604 7.33777 7.03855
#
# Compressibility (1/GPa) = 0.01888554
#
# Stress axis : x y z
#
# Youngs Moduli (GPa) = 124.32293 100.83462 53.89188
#
# Poissons Ratio (x) = 0.30013 0.12913
# Poissons Ratio (y) = 0.37004 0.18555
# Poissons Ratio (z) = 0.29789 0.34717
#
# Static dielectric constant tensor:
#      x y z
#    x 4.269850 0.059590 0.116200 
#    y 0.059590 4.165150 -0.033020 
#    z 0.116200 -0.033020 4.122820 
# 
# 
# High freq. dielectric constant tensor:
#      x y z
#    x 1.888470 0.002240 0.004410 
#    y 0.002240 1.879650 -0.001180 
#    z 0.004410 -0.001180 1.876790 
# 
# From -- ./inp_files/282760.got.cif
#   From: 2010.06.25/outbox.cif.g09.slc.cpg/sg2_142_cif.got.tgz:282760.got - 2010.06.27 13:26:56.
