data_PCOD8034426
_publ_section_title
;
Structure prediction by ZEFSAII (Michael W. Deem and Ramdas Pophale) SiO2 
 PCOD8034426
Probable space group: P -1
;
_chemical_formula_sum "Si O2"
_cell_formula_units_Z 16
_cell_length_a 14.601447
_cell_length_b 9.206457
_cell_length_c 11.440549
_cell_angle_alpha 78.912507
_cell_angle_beta 149.847880
_cell_angle_gamma 90.753433
_cell_volume 720.564980
_symmetry_space_group_name_H-M "P -1"
_symmetry_group_IT_number 2
_symmetry_cell_setting 'triclinic'
loop_
_space_group_symop_operation_xyz
x,y,z
-x,-y,-z
loop_
_atom_site_type_symbol
_atom_site_label
_atom_site_fract_x
_atom_site_fract_y
_atom_site_fract_z
Si Si1 0.411485 0.167417 0.436613
Si Si2 0.626387 0.368566 0.241934
Si Si3 0.279675 0.778660 0.077469
Si Si4 0.256809 0.044571 0.851357
Si Si5 0.316704 0.964993 0.676772
Si Si6 0.937270 0.903531 0.843877
Si Si7 0.967929 0.623200 0.343241
Si Si8 0.640349 0.573497 0.846583
O O1 0.538135 0.172495 0.687598
O O2 0.190575 0.193580 0.224539
O O3 0.421546 0.312391 0.348291
O O4 0.500000 0.000000 0.500000
O O5 0.649073 0.212097 0.219085
O O6 0.523510 0.358232 0.250453
O O7 0.829950 0.390902 0.490631
O O8 0.500000 0.500000 0.000000
O O9 0.349834 0.602323 0.140169
O O10 0.128311 0.790119 0.013381
O O11 0.191915 0.902123 0.856700
O O12 0.135060 0.203122 0.753214
O O13 0.214902 0.063739 0.662661
O O14 0.482270 0.006886 0.131707
O O15 0.187904 0.992036 0.413922
O O16 0.000000 0.000000 0.000000
O O17 0.000000 0.500000 0.500000
O O18 0.846211 0.576349 0.115994
#
# Coordination Sequence:
#
# PCOD8034426 Si02
#       8
#     2   2   2   2   2   2   2   2
#     4  12  25  49  74 100 143 189 244 293 352 429
#     4  12  24  44  70 101 145 190 233 290 365 422
#     4  12  27  47  74 108 144 188 236 303 359 426
#     4  11  24  46  76 108 144 189 241 296 365 426
#     4  11  24  44  75 108 141 189 243 298 355 431
#     4  12  27  44  75 107 140 190 247 290 357 430
#     4  12  26  44  71 106 147 189 236 294 356 433
#     4  12  28  46  71 107 146 189 238 298 359 423
#
# _framework density 22.204799999999999
#
# number of rings (size 3 to 8) (size 9 to 14) (size 15 to 20)
#    0.000    0.250    5.000    3.375    3.500    3.500 
#    0.000    0.000    0.000    0.000    0.000    0.000 
#    0.000    0.000    0.000    0.000    0.000    0.000 
#
# Total GULP energy -198430.046828 kJ/mol
# GULP energy per Si atom -12401.877927 kJ/mol
# Density = 2.215426 g / cm^3
# Si number density = 22.204800 Si / 1000 Ang^3
#
#
#
# Elastic Constant Matrix: (Units=GPa)
#
#
# Indices 1 2 3 4 5 6 
#
# 1 87.3125 15.0354 43.2751 19.8118 4.0460 21.3614
# 2 15.0354 127.3763 31.4358 -0.4894 -7.8585 2.9633
# 3 43.2751 31.4358 98.0095 17.4266 -4.7073 -3.6089
# 4 19.8118 -0.4894 17.4266 43.1416 14.1211 -5.8949
# 5 4.0460 -7.8585 -4.7073 14.1211 45.0600 4.4745
# 6 21.3614 2.9633 -3.6089 -5.8949 4.4745 40.5448
#
#
#
# Elastic Compliance Matrix: (Units=1/GPa)
#
#
# Indices 1 2 3 4 5 6 
#
# 1 0.020311 -0.000117 -0.007870 -0.008279 0.001192 -0.012729
# 2 -0.000117 0.008656 -0.002857 0.000856 0.001034 -0.000815
# 3 -0.007870 -0.002857 0.015350 -0.002616 0.002125 0.005107
# 4 -0.008279 0.000856 -0.002616 0.032919 -0.010693 0.010033
# 5 0.001192 0.001034 0.002125 -0.010693 0.026333 -0.004975
# 6 -0.012729 -0.000815 0.005107 0.010033 -0.004975 0.033892
#
#
# Mechanical properties :
#
#
# Convention : Reuss Voigt Hill
#
# Bulk Modulus (GPa) = 44.19295 54.68789 49.44042
# Shear Modulus (GPa) = 29.99532 40.61274 35.30403
#
# Velocity S-wave (km/s) = 3.67938 4.28133 3.99172
# Velocity P-wave (km/s) = 6.16409 7.00871 6.59993
#
# Compressibility (1/GPa) = 0.02262804
#
# Stress axis : x y z
#
# Youngs Moduli (GPa) = 49.23330 115.52995 65.14805
#
# Poissons Ratio (x) = 0.01357 0.51271
# Poissons Ratio (y) = 0.00578 0.18613
# Poissons Ratio (z) = 0.38746 0.33007
#
# Static dielectric constant tensor:
#      x y z
#    x 4.565830 0.085290 0.174190 
#    y 0.085290 3.983240 0.225830 
#    z 0.174190 0.225830 4.232850 
# 
# 
# High freq. dielectric constant tensor:
#      x y z
#    x 1.886490 0.010410 0.003910 
#    y 0.010410 1.878520 0.007530 
#    z 0.003910 0.007530 1.884160 
# 
# From -- ./inp_files/447263.got.cif
#   From: 2010.06.25/outbox.cif.g09.slc.cpg/sg2_224_cif.got.tgz:447263.got - 2010.06.27 13:26:56.
