data_PCOD8034909
_publ_section_title
;
Structure prediction by ZEFSAII (Michael W. Deem and Ramdas Pophale) SiO2 
 PCOD8034909
Probable space group: P -1
;
_chemical_formula_sum "Si O2"
_cell_formula_units_Z 14
_cell_length_a 5.014942
_cell_length_b 10.677903
_cell_length_c 15.682028
_cell_angle_alpha 123.049463
_cell_angle_beta 122.712965
_cell_angle_gamma 66.989146
_cell_volume 586.708217
_symmetry_space_group_name_H-M "P -1"
_symmetry_group_IT_number 2
_symmetry_cell_setting 'triclinic'
loop_
_space_group_symop_operation_xyz
x,y,z
-x,-y,-z
loop_
_atom_site_type_symbol
_atom_site_label
_atom_site_fract_x
_atom_site_fract_y
_atom_site_fract_z
Si Si1 0.668274 0.441362 0.593721
Si Si2 0.387719 0.649718 0.266432
Si Si3 0.233740 0.493124 0.881729
Si Si4 0.082130 0.271767 0.188104
Si Si5 0.152151 0.884375 0.552266
Si Si6 0.344828 0.923565 0.866854
Si Si7 0.219696 0.986664 0.309792
O O1 0.500000 0.500000 0.500000
O O2 0.481607 0.405309 0.636270
O O3 0.857215 0.577423 0.698175
O O4 0.877975 0.282529 0.549018
O O5 0.619829 0.569441 0.205808
O O6 0.373146 0.829945 0.320198
O O7 0.028127 0.611530 0.174049
O O8 0.067972 0.667240 0.906127
O O9 0.500000 0.500000 0.000000
O O10 0.381879 0.142139 0.177765
O O11 0.810074 0.216389 0.177175
O O12 0.509867 0.921873 0.649619
O O13 0.000000 0.000000 0.500000
O O14 0.945456 0.898444 0.606481
O O15 0.059088 0.037865 0.815922
O O16 0.500000 0.000000 0.000000
#
# Coordination Sequence:
#
# PCOD8034909 Si02
#       7
#     2   2   2   2   2   2   2
#     4  11  24  46  75 103 149 192 240 305 372 427
#     4  11  25  43  70 108 141 192 243 305 357 450
#     4  11  25  43  74  99 146 187 246 306 372 425
#     4  11  26  47  67 109 140 184 256 298 357 451
#     4  12  26  46  73 110 146 198 242 301 372 438
#     4  12  27  47  73 103 145 194 240 303 372 437
#     4  12  26  45  73 103 151 184 254 295 362 442
#
# _framework density 23.861948000000002
#
# number of rings (size 3 to 8) (size 9 to 14) (size 15 to 20)
#    0.000    0.571    1.429    6.429    6.000    1.143 
#    0.000    8.571    0.000    0.000    0.000    0.000 
#    0.000    0.000    0.000    0.000    0.000    0.000 
#
# Total GULP energy -173495.983550 kJ/mol
# GULP energy per Si atom -12392.570254 kJ/mol
# Density = 2.380764 g / cm^3
# Si number density = 23.861948 Si / 1000 Ang^3
#
#
#
# Elastic Constant Matrix: (Units=GPa)
#
#
# Indices 1 2 3 4 5 6 
#
# 1 90.4747 3.3988 11.8246 19.5624 -0.5049 -9.3633
# 2 3.3988 116.0716 43.4378 -1.9287 1.7912 -2.8570
# 3 11.8246 43.4378 91.3080 -6.5409 -2.0401 -12.4491
# 4 19.5624 -1.9287 -6.5409 42.6776 -9.6051 7.0046
# 5 -0.5049 1.7912 -2.0401 -9.6051 28.3815 0.7470
# 6 -9.3633 -2.8570 -12.4491 7.0046 0.7470 38.4332
#
#
#
# Elastic Compliance Matrix: (Units=1/GPa)
#
#
# Indices 1 2 3 4 5 6 
#
# 1 0.013363 0.000351 -0.001947 -0.007672 -0.002629 0.004100
# 2 0.000351 0.010555 -0.005235 -0.000653 -0.001239 -0.000682
# 3 -0.001947 -0.005235 0.014387 0.002825 0.002201 0.003239
# 4 -0.007672 -0.000653 0.002825 0.030892 0.010743 -0.006842
# 5 -0.002629 -0.001239 0.002201 0.010743 0.039131 -0.002738
# 6 0.004100 -0.000682 0.003239 -0.006842 -0.002738 0.029317
#
#
# Mechanical properties :
#
#
# Convention : Reuss Voigt Hill
#
# Bulk Modulus (GPa) = 40.57565 46.13073 43.35319
# Shear Modulus (GPa) = 31.34371 37.84467 34.59419
#
# Velocity S-wave (km/s) = 3.62822 3.98676 3.81171
# Velocity P-wave (km/s) = 5.88160 6.36920 6.13025
#
# Compressibility (1/GPa) = 0.02464533
#
# Stress axis : x y z
#
# Youngs Moduli (GPa) = 74.83557 94.73740 69.50504
#
# Poissons Ratio (x) = -0.03328 0.13532
# Poissons Ratio (y) = -0.02629 0.36383
# Poissons Ratio (z) = 0.14570 0.49591
#
# Static dielectric constant tensor:
#      x y z
#    x 4.357440 -0.427740 -0.137450 
#    y -0.427740 5.640760 -0.206570 
#    z -0.137450 -0.206570 4.087380 
# 
# 
# High freq. dielectric constant tensor:
#      x y z
#    x 1.955270 0.002950 0.001690 
#    y 0.002950 1.959540 -0.006570 
#    z 0.001690 -0.006570 1.949970 
# 
# From -- ./inp_files/482370.got.cif
#   From: 2010.06.25/outbox.cif.g09.slc.cpg/sg2_242_cif.got.tgz:482370.got - 2010.06.27 13:26:56.
