data_PCOD8034289
_publ_section_title
;
Structure prediction by ZEFSAII (Michael W. Deem and Ramdas Pophale) SiO2 
 PCOD8034289
Probable space group: P -1
;
_chemical_formula_sum "Si O2"
_cell_formula_units_Z 16
_cell_length_a 8.711271
_cell_length_b 9.272581
_cell_length_c 16.692664
_cell_angle_alpha 120.712223
_cell_angle_beta 137.259228
_cell_angle_gamma 83.186546
_cell_volume 706.695366
_symmetry_space_group_name_H-M "P -1"
_symmetry_group_IT_number 2
_symmetry_cell_setting 'triclinic'
loop_
_space_group_symop_operation_xyz
x,y,z
-x,-y,-z
loop_
_atom_site_type_symbol
_atom_site_label
_atom_site_fract_x
_atom_site_fract_y
_atom_site_fract_z
Si Si1 0.639514 0.613753 0.161728
Si Si2 0.404744 0.024778 0.747633
Si Si3 0.024897 0.811617 0.967051
Si Si4 0.647422 0.152667 0.486430
Si Si5 0.026577 0.449881 0.277441
Si Si6 0.741922 0.114753 0.182361
Si Si7 0.824308 0.596155 0.977239
Si Si8 0.884636 0.071150 0.709351
O O1 0.719953 0.833789 0.242628
O O2 0.882957 0.579543 0.250761
O O3 0.500000 0.500000 0.000000
O O4 0.463461 0.544682 0.153550
O O5 0.280276 0.902913 0.587407
O O6 0.363697 0.888184 0.769429
O O7 0.702095 0.149225 0.883945
O O8 0.979772 0.688411 0.834841
O O9 0.817363 0.704878 0.924923
O O10 0.000000 0.000000 0.000000
O O11 0.793834 0.090055 0.591189
O O12 0.697595 0.372960 0.563339
O O13 0.350560 0.040295 0.354750
O O14 0.906188 0.325842 0.274704
O O15 0.935859 0.028172 0.240869
O O16 0.500000 0.000000 0.000000
O O17 0.948242 0.721009 0.137371
O O18 0.000000 0.500000 0.000000
#
# Coordination Sequence:
#
# PCOD8034289 Si02
#       8
#     2   2   2   2   2   2   2   2
#     4  12  22  41  70 103 136 177 237 296 338 402
#     4  12  25  45  69 102 142 185 232 289 354 418
#     4  12  25  43  68 104 138 183 236 297 350 407
#     4  11  26  47  69 102 144 191 233 277 356 432
#     4  12  26  44  70 104 139 187 234 290 356 418
#     4  12  25  44  72 103 137 181 237 295 358 407
#     4  12  21  39  69 104 133 176 241 294 341 403
#     4  11  24  44  70  98 142 189 227 288 355 423
#
# _framework density 22.64059
#
# number of rings (size 3 to 8) (size 9 to 14) (size 15 to 20)
#    0.000    0.250    5.000    4.500    1.750    4.000 
#    0.000    0.000    0.000    0.000    0.000    0.000 
#    0.000    0.000    0.000    0.000    0.000    0.000 
#
# Total GULP energy -198311.653055 kJ/mol
# GULP energy per Si atom -12394.478316 kJ/mol
# Density = 2.258906 g / cm^3
# Si number density = 22.640590 Si / 1000 Ang^3
#
#
#
# Elastic Constant Matrix: (Units=GPa)
#
#
# Indices 1 2 3 4 5 6 
#
# 1 93.4286 39.9157 19.5147 -4.6796 -18.0009 18.3097
# 2 39.9157 125.8703 32.4866 11.6055 -10.6415 9.1235
# 3 19.5147 32.4866 64.9876 8.7909 -17.5784 3.0652
# 4 -4.6796 11.6055 8.7909 34.9406 -1.7237 -0.3240
# 5 -18.0009 -10.6415 -17.5784 -1.7237 48.4135 2.7864
# 6 18.3097 9.1235 3.0652 -0.3240 2.7864 57.5040
#
#
#
# Elastic Compliance Matrix: (Units=1/GPa)
#
#
# Indices 1 2 3 4 5 6 
#
# 1 0.014526 -0.003888 -0.001562 0.003806 0.004352 -0.004114
# 2 -0.003888 0.010395 -0.003776 -0.003056 -0.000629 -0.000197
# 3 -0.001562 -0.003776 0.019781 -0.003655 0.005656 -0.000252
# 4 0.003806 -0.003056 -0.003655 0.031088 0.000545 -0.000384
# 5 0.004352 -0.000629 0.005656 0.000545 0.024367 -0.002765
# 6 -0.004114 -0.000197 -0.000252 -0.000384 -0.002765 0.018877
#
#
# Mechanical properties :
#
#
# Convention : Reuss Voigt Hill
#
# Bulk Modulus (GPa) = 38.09750 52.01336 45.05543
# Shear Modulus (GPa) = 34.19122 40.99628 37.59375
#
# Velocity S-wave (km/s) = 3.89031 4.25990 4.07929
# Velocity P-wave (km/s) = 6.08629 6.87161 6.49084
#
# Compressibility (1/GPa) = 0.02624844
#
# Stress axis : x y z
#
# Youngs Moduli (GPa) = 68.84107 96.19808 50.55480
#
# Poissons Ratio (x) = 0.37404 0.07897
# Poissons Ratio (y) = 0.26767 0.19092
# Poissons Ratio (z) = 0.10754 0.36329
#
# Static dielectric constant tensor:
#      x y z
#    x 3.979870 -0.199160 0.308830 
#    y -0.199160 3.878990 0.273070 
#    z 0.308830 0.273070 3.994640 
# 
# 
# High freq. dielectric constant tensor:
#      x y z
#    x 1.917640 0.012760 0.011780 
#    y 0.012760 1.904080 0.007720 
#    z 0.011780 0.007720 1.875730 
# 
# From -- ./inp_files/263643.got.cif
#   From: 2010.06.25/outbox.cif.g09.slc.cpg/sg2_132_cif.got.tgz:263643.got - 2010.06.27 13:26:56.
