data_PCOD8034092
_publ_section_title
;
Structure prediction by ZEFSAII (Michael W. Deem and Ramdas Pophale) SiO2 
 PCOD8034092
Probable space group: P -1
;
_chemical_formula_sum "Si O2"
_cell_formula_units_Z 14
_cell_length_a 5.788077
_cell_length_b 17.762180
_cell_length_c 9.615082
_cell_angle_alpha 36.437936
_cell_angle_beta 77.542750
_cell_angle_gamma 77.132961
_cell_volume 571.245477
_symmetry_space_group_name_H-M "P -1"
_symmetry_group_IT_number 2
_symmetry_cell_setting 'triclinic'
loop_
_space_group_symop_operation_xyz
x,y,z
-x,-y,-z
loop_
_atom_site_type_symbol
_atom_site_label
_atom_site_fract_x
_atom_site_fract_y
_atom_site_fract_z
Si Si1 0.156096 0.464265 0.165892
Si Si2 0.446010 0.288957 0.835912
Si Si3 0.997664 0.127635 0.626670
Si Si4 0.398514 0.136826 0.343888
Si Si5 0.382891 0.701280 0.718213
Si Si6 0.272565 0.097614 0.917003
Si Si7 0.831576 0.450163 0.482977
O O1 0.354937 0.346702 0.299122
O O2 0.980229 0.423633 0.364919
O O3 0.285444 0.591167 0.989801
O O4 0.000000 0.500000 0.000000
O O5 0.336317 0.220625 0.816989
O O6 0.722351 0.314039 0.732305
O O7 0.360033 0.431219 0.682765
O O8 0.383373 0.208163 0.094858
O O9 0.783975 0.241942 0.472119
O O10 0.145053 0.139995 0.447493
O O11 0.155277 0.149080 0.711146
O O12 0.908245 0.986187 0.852353
O O13 0.595973 0.185615 0.346112
O O14 0.500000 0.000000 0.500000
O O15 0.500000 0.000000 0.000000
O O16 0.000000 0.500000 0.500000
#
# Coordination Sequence:
#
# PCOD8034092 Si02
#       7
#     2   2   2   2   2   2   2
#     4  11  25  45  72 105 141 185 241 300 359 430
#     4  11  26  47  72 105 146 187 241 299 361 431
#     4  11  25  45  72 105 145 192 240 294 362 429
#     4  12  26  47  73 104 142 190 241 295 358 432
#     4  11  24  43  72 107 142 185 241 298 359 432
#     4  11  26  47  71 108 146 187 242 299 359 432
#     4  11  26  46  71 104 143 189 235 298 366 425
#
# _framework density 24.507853999999998
#
# number of rings (size 3 to 8) (size 9 to 14) (size 15 to 20)
#    0.000    0.857    0.000    6.000    0.000   17.143 
#    0.000    0.000    0.000    0.000    0.000    0.000 
#    0.000    0.000    0.000    0.000    0.000    0.000 
#
# Total GULP energy -173486.973413 kJ/mol
# GULP energy per Si atom -12391.926672 kJ/mol
# Density = 2.445207 g / cm^3
# Si number density = 24.507854 Si / 1000 Ang^3
#
#
#
# Elastic Constant Matrix: (Units=GPa)
#
#
# Indices 1 2 3 4 5 6 
#
# 1 154.6509 76.8205 75.2097 17.1323 3.1471 3.4710
# 2 76.8205 144.2222 77.8455 0.7505 -9.3180 9.2250
# 3 75.2097 77.8455 165.2075 15.5179 -18.6428 -3.7026
# 4 17.1323 0.7505 15.5179 52.8037 -1.9531 -3.7909
# 5 3.1471 -9.3180 -18.6428 -1.9531 67.9463 -6.7579
# 6 3.4710 9.2250 -3.7026 -3.7909 -6.7579 44.9444
#
#
#
# Elastic Compliance Matrix: (Units=1/GPa)
#
#
# Indices 1 2 3 4 5 6 
#
# 1 0.010098 -0.003980 -0.002713 -0.002542 -0.001899 -0.000686
# 2 -0.003980 0.011166 -0.003624 0.002074 0.000580 -0.002021
# 3 -0.002713 -0.003624 0.009459 -0.001620 0.002372 0.001953
# 4 -0.002542 0.002074 -0.001620 0.020340 0.000687 0.001456
# 5 -0.001899 0.000580 0.002372 0.000687 0.015820 0.002660
# 6 -0.000686 -0.002021 0.001953 0.001456 0.002660 0.023401
#
#
# Mechanical properties :
#
#
# Convention : Reuss Voigt Hill
#
# Bulk Modulus (GPa) = 99.11338 102.64801 100.88069
# Shear Modulus (GPa) = 43.75201 48.75255 46.25228
#
# Velocity S-wave (km/s) = 4.22977 4.46495 4.34895
# Velocity P-wave (km/s) = 8.02396 8.27984 8.15290
#
# Compressibility (1/GPa) = 0.01008946
#
# Stress axis : x y z
#
# Youngs Moduli (GPa) = 99.02822 89.55845 105.71857
#
# Poissons Ratio (x) = 0.35647 0.28676
# Poissons Ratio (y) = 0.39416 0.38313
# Poissons Ratio (z) = 0.26862 0.32456
#
# Static dielectric constant tensor:
#      x y z
#    x 4.321200 0.397150 -0.597900 
#    y 0.397150 4.157920 -0.023510 
#    z -0.597900 -0.023510 4.762510 
# 
# 
# High freq. dielectric constant tensor:
#      x y z
#    x 1.990140 0.005200 -0.016670 
#    y 0.005200 1.976190 -0.011000 
#    z -0.016670 -0.011000 1.997370 
# 
# From -- ./inp_files/138382.got.cif
#   From: 2010.06.25/outbox.cif.g09.slc.cpg/sg2_70_cif.got.tgz:138382.got - 2010.06.27 13:26:56.
