data_PCOD8034842
_publ_section_title
;
Structure prediction by ZEFSAII (Michael W. Deem and Ramdas Pophale) SiO2 
 PCOD8034842
Probable space group: P -1
;
_chemical_formula_sum "Si O2"
_cell_formula_units_Z 16
_cell_length_a 9.049595
_cell_length_b 8.375706
_cell_length_c 14.642407
_cell_angle_alpha 95.028309
_cell_angle_beta 141.905394
_cell_angle_gamma 90.725611
_cell_volume 676.052724
_symmetry_space_group_name_H-M "P -1"
_symmetry_group_IT_number 2
_symmetry_cell_setting 'triclinic'
loop_
_space_group_symop_operation_xyz
x,y,z
-x,-y,-z
loop_
_atom_site_type_symbol
_atom_site_label
_atom_site_fract_x
_atom_site_fract_y
_atom_site_fract_z
Si Si1 0.316936 0.337104 0.408733
Si Si2 0.705727 0.863503 0.785382
Si Si3 0.051222 0.783449 0.096839
Si Si4 0.791833 0.383821 0.191246
Si Si5 0.521956 0.656159 0.321319
Si Si6 0.720488 0.327257 0.360044
Si Si7 0.723092 0.736634 0.113920
Si Si8 0.116947 0.158784 0.618741
O O1 0.500000 0.500000 0.500000
O O2 0.384395 0.221176 0.356720
O O3 0.362915 0.260888 0.525831
O O4 0.036136 0.355815 0.257694
O O5 0.473441 0.836131 0.738564
O O6 0.777553 0.047793 0.803211
O O7 0.917700 0.782538 0.934589
O O8 0.228983 0.645373 0.177890
O O9 0.863361 0.761727 0.087881
O O10 0.830945 0.358594 0.315945
O O11 0.742003 0.563786 0.157745
O O12 0.562562 0.255867 0.040492
O O13 0.585021 0.474284 0.336274
O O14 0.624424 0.770805 0.294103
O O15 0.945090 0.300321 0.532498
O O16 0.835113 0.869615 0.250961
O O17 0.000000 0.000000 0.500000
#
# Coordination Sequence:
#
# PCOD8034842 Si02
#       8
#     2   2   2   2   2   2   2   2
#     4  12  25  43  70 106 137 183 233 292 353 418
#     4  11  27  47  70 100 147 192 227 298 355 424
#     4  11  27  48  68 105 146 185 239 286 364 420
#     4  11  24  46  72 105 139 182 246 293 349 410
#     4  12  25  43  71 104 138 187 239 294 347 424
#     4  12  23  48  71 103 143 187 243 291 347 419
#     4  11  25  44  73 104 140 189 234 298 344 424
#     4  12  27  45  70 108 147 186 230 292 364 423
#
# _framework density 23.666792999999998
#
# number of rings (size 3 to 8) (size 9 to 14) (size 15 to 20)
#    0.000    0.500    5.000    2.625    5.250    1.000 
#    0.000    1.250    0.000    0.000    0.000    0.000 
#    0.000    0.000    0.000    0.000    0.000    0.000 
#
# Total GULP energy -198395.352476 kJ/mol
# GULP energy per Si atom -12399.709530 kJ/mol
# Density = 2.361293 g / cm^3
# Si number density = 23.666793 Si / 1000 Ang^3
#
#
#
# Elastic Constant Matrix: (Units=GPa)
#
#
# Indices 1 2 3 4 5 6 
#
# 1 97.0496 30.7927 29.3645 -0.0761 13.0046 14.5740
# 2 30.7927 54.6805 21.7868 7.4435 1.7685 10.1688
# 3 29.3645 21.7868 107.8711 -5.1669 7.1361 -2.5257
# 4 -0.0761 7.4435 -5.1669 37.7035 0.4316 6.1268
# 5 13.0046 1.7685 7.1361 0.4316 55.7119 7.6223
# 6 14.5740 10.1688 -2.5257 6.1268 7.6223 31.6339
#
#
#
# Elastic Compliance Matrix: (Units=1/GPa)
#
#
# Indices 1 2 3 4 5 6 
#
# 1 0.013972 -0.006236 -0.002425 0.001672 -0.002160 -0.004429
# 2 -0.006236 0.024795 -0.003772 -0.004642 0.001865 -0.004949
# 3 -0.002425 -0.003772 0.010926 0.001739 -0.001157 0.003144
# 4 0.001672 -0.004642 0.001739 0.028434 -0.000052 -0.004634
# 5 -0.002160 0.001865 -0.001157 -0.000052 0.019131 -0.004296
# 6 -0.004429 -0.004949 0.003144 -0.004634 -0.004296 0.037427
#
#
# Mechanical properties :
#
#
# Convention : Reuss Voigt Hill
#
# Bulk Modulus (GPa) = 40.27849 47.05437 43.66643
# Shear Modulus (GPa) = 29.79284 36.85365 33.32325
#
# Velocity S-wave (km/s) = 3.55187 3.95040 3.75643
# Velocity P-wave (km/s) = 5.82039 6.38222 6.10777
#
# Compressibility (1/GPa) = 0.02482714
#
# Stress axis : x y z
#
# Youngs Moduli (GPa) = 71.57049 40.33149 91.52781
#
# Poissons Ratio (x) = 0.25151 0.22193
# Poissons Ratio (y) = 0.44633 0.34522
# Poissons Ratio (z) = 0.17354 0.15212
#
# Static dielectric constant tensor:
#      x y z
#    x 4.457790 0.245640 0.006830 
#    y 0.245640 4.130480 -0.017710 
#    z 0.006830 -0.017710 4.555490 
# 
# 
# High freq. dielectric constant tensor:
#      x y z
#    x 1.945330 0.019590 0.006850 
#    y 0.019590 1.918730 -0.000960 
#    z 0.006850 -0.000960 1.954460 
# 
# From -- ./inp_files/217673.got.cif
#   From: 2010.06.25/outbox.cif.g09.slc.cpg/sg2_109_cif.got.tgz:217673.got - 2010.06.27 13:26:56.
