data_PCOD8034994
_publ_section_title
;
Structure prediction by ZEFSAII (Michael W. Deem and Ramdas Pophale) SiO2 
 PCOD8034994
Probable space group: P -1
;
_chemical_formula_sum "Si O2"
_cell_formula_units_Z 16
_cell_length_a 28.977248
_cell_length_b 16.123231
_cell_length_c 9.620121
_cell_angle_alpha 132.943170
_cell_angle_beta 37.102942
_cell_angle_gamma 162.297577
_cell_volume 745.107688
_symmetry_space_group_name_H-M "P -1"
_symmetry_group_IT_number 2
_symmetry_cell_setting 'triclinic'
loop_
_space_group_symop_operation_xyz
x,y,z
-x,-y,-z
loop_
_atom_site_type_symbol
_atom_site_label
_atom_site_fract_x
_atom_site_fract_y
_atom_site_fract_z
Si Si1 0.165875 0.690590 0.147794
Si Si2 0.124406 0.088913 0.199952
Si Si3 0.515170 0.224142 0.517953
Si Si4 0.595947 0.346307 0.767675
Si Si5 0.904085 0.535946 0.684688
Si Si6 0.925777 0.801712 0.052392
Si Si7 0.234107 0.636763 0.485889
Si Si8 0.892398 0.194613 0.010348
O O1 0.230284 0.699926 0.134646
O O2 0.087236 0.701413 0.406984
O O3 0.000540 0.398323 0.117251
O O4 0.362169 0.990110 0.929703
O O5 0.351126 0.457489 0.071186
O O6 0.137010 0.979463 0.101265
O O7 0.000000 0.000000 0.500000
O O8 0.035532 0.969161 0.124475
O O9 0.646381 0.419192 0.565899
O O10 0.678711 0.465092 0.276403
O O11 0.428800 0.978592 0.448099
O O12 0.331556 0.061014 0.759245
O O13 0.739622 0.452460 0.619314
O O14 0.773890 0.374142 0.673737
O O15 0.997878 0.783361 0.789683
O O16 0.000000 0.000000 0.000000
O O17 0.027438 0.404728 0.787122
#
# Coordination Sequence:
#
# PCOD8034994 Si02
#       8
#     2   2   2   2   2   2   2   2
#     4  11  24  47  71 104 138 185 230 296 344 405
#     4  12  25  48  68 100 137 186 233 282 340 416
#     4  12  25  43  72 108 133 182 241 288 343 407
#     4  12  25  42  75 102 137 182 239 286 343 407
#     4  11  25  45  69 101 146 178 226 288 354 409
#     4  12  27  47  68  98 147 186 228 285 351 419
#     4  12  23  41  74 107 138 177 233 291 348 411
#     4  12  24  46  76 101 143 179 237 293 338 410
#
# _framework density 21.473407000000002
#
# number of rings (size 3 to 8) (size 9 to 14) (size 15 to 20)
#    0.000    0.250    6.250    3.000    0.000    4.500 
#    0.000    1.250    0.000    0.000    0.000    0.000 
#    0.000    0.000    0.000    0.000    0.000    0.000 
#
# Total GULP energy -198427.378759 kJ/mol
# GULP energy per Si atom -12401.711172 kJ/mol
# Density = 2.142453 g / cm^3
# Si number density = 21.473407 Si / 1000 Ang^3
#
#
#
# Elastic Constant Matrix: (Units=GPa)
#
#
# Indices 1 2 3 4 5 6 
#
# 1 119.4047 61.6833 40.3120 9.0153 11.4539 0.1100
# 2 61.6833 141.5584 53.9422 22.2760 0.9308 -14.3411
# 3 40.3120 53.9422 80.6227 19.6171 6.9569 -13.8137
# 4 9.0153 22.2760 19.6171 41.4536 -2.8058 5.9921
# 5 11.4539 0.9308 6.9569 -2.8058 30.7192 7.1125
# 6 0.1100 -14.3411 -13.8137 5.9921 7.1125 42.0256
#
#
#
# Elastic Compliance Matrix: (Units=1/GPa)
#
#
# Indices 1 2 3 4 5 6 
#
# 1 0.011993 -0.004306 -0.003695 0.001624 -0.002783 -0.002476
# 2 -0.004306 0.011381 -0.004244 -0.003488 0.001259 0.002784
# 3 -0.003695 -0.004244 0.020904 -0.008293 -0.005742 0.007587
# 4 0.001624 -0.003488 -0.008293 0.031376 0.006440 -0.009484
# 5 -0.002783 0.001259 -0.005742 0.006440 0.037457 -0.008708
# 6 -0.002476 0.002784 0.007587 -0.009484 -0.008708 0.030071
#
#
# Mechanical properties :
#
#
# Convention : Reuss Voigt Hill
#
# Bulk Modulus (GPa) = 50.53716 72.60676 61.57196
# Shear Modulus (GPa) = 28.69136 35.21622 31.95379
#
# Velocity S-wave (km/s) = 3.65928 4.05407 3.86173
# Velocity P-wave (km/s) = 6.43736 7.46993 6.97279
#
# Compressibility (1/GPa) = 0.01978742
#
# Stress axis : x y z
#
# Youngs Moduli (GPa) = 83.37873 87.86933 47.83816
#
# Poissons Ratio (x) = 0.37838 0.17675
# Poissons Ratio (y) = 0.35904 0.20304
# Poissons Ratio (z) = 0.30807 0.37294
#
# Static dielectric constant tensor:
#      x y z
#    x 3.967000 -0.186360 0.143550 
#    y -0.186360 4.138330 0.152320 
#    z 0.143550 0.152320 3.983070 
# 
# 
# High freq. dielectric constant tensor:
#      x y z
#    x 1.853350 -0.007700 0.007100 
#    y -0.007700 1.851510 0.010320 
#    z 0.007100 0.010320 1.844760 
# 
# From -- ./inp_files/209354.got.cif
#   From: 2010.06.25/outbox.cif.g09.slc.cpg/sg2_105_cif.got.tgz:209354.got - 2010.06.27 13:26:56.
