data_PCOD8034521
_publ_section_title
;
Structure prediction by ZEFSAII (Michael W. Deem and Ramdas Pophale) SiO2 
 PCOD8034521
Probable space group: P -1
;
_chemical_formula_sum "Si O2"
_cell_formula_units_Z 12
_cell_length_a 21.503113
_cell_length_b 21.777914
_cell_length_c 5.989040
_cell_angle_alpha 124.141936
_cell_angle_beta 56.951814
_cell_angle_gamma 167.340693
_cell_volume 508.669631
_symmetry_space_group_name_H-M "P -1"
_symmetry_group_IT_number 2
_symmetry_cell_setting 'triclinic'
loop_
_space_group_symop_operation_xyz
x,y,z
-x,-y,-z
loop_
_atom_site_type_symbol
_atom_site_label
_atom_site_fract_x
_atom_site_fract_y
_atom_site_fract_z
Si Si1 0.889446 0.110551 0.942347
Si Si2 0.438372 0.561558 0.746341
Si Si3 0.106024 0.433132 0.803120
Si Si4 0.277962 0.722058 0.388193
Si Si5 0.566867 0.893961 0.505458
Si Si6 0.723590 0.723559 0.833352
O O1 0.179089 0.351496 0.957155
O O2 0.001277 0.269818 0.848189
O O3 0.648366 0.820855 0.732804
O O4 0.730343 0.998846 0.226284
O O5 0.652892 0.726634 0.828503
O O6 0.273274 0.347140 0.466354
O O7 0.355322 0.644604 0.578649
O O8 0.252015 0.643967 0.066108
O O9 0.818899 0.181029 0.724344
O O10 0.356068 0.747993 0.501646
O O11 0.000000 0.500000 0.500000
O O12 0.500000 0.000000 0.500000
O O13 0.500000 0.500000 0.000000
O O14 0.000000 0.000000 0.000000
#
# Coordination Sequence:
#
# PCOD8034521 Si02
#       6
#     2   2   2   2   2   2
#     4  12  25  47  72 103 145 183 230 289 347 413
#     4  11  25  44  71 103 140 183 228 287 346 405
#     4  12  26  46  72 103 141 184 231 287 349 414
#     4  12  26  46  71 102 139 181 234 289 343 412
#     4  12  26  46  72 103 141 184 231 287 349 414
#     4  11  24  45  70 102 139 179 233 285 338 410
#
# _framework density 23.590949999999999
#
# number of rings (size 3 to 8) (size 9 to 14) (size 15 to 20)
#    0.000    0.333    0.000   10.000    0.000   12.000 
#    0.000    3.333    0.000    0.000    0.000    0.000 
#    0.000    0.000    0.000    0.000    0.000    0.000 
#
# Total GULP energy -148688.246009 kJ/mol
# GULP energy per Si atom -12390.687167 kJ/mol
# Density = 2.353726 g / cm^3
# Si number density = 23.590950 Si / 1000 Ang^3
#
#
#
# Elastic Constant Matrix: (Units=GPa)
#
#
# Indices 1 2 3 4 5 6 
#
# 1 119.3263 92.6258 100.1054 4.3609 -14.5557 0.6085
# 2 92.6258 235.5982 93.0085 -4.7395 0.4700 4.7945
# 3 100.1054 93.0085 121.6954 -3.6116 15.4376 1.4715
# 4 4.3609 -4.7395 -3.6116 59.3067 4.4197 18.1293
# 5 -14.5557 0.4700 15.4376 4.4197 29.0355 1.9513
# 6 0.6085 4.7945 1.4715 18.1293 1.9513 39.0887
#
#
#
# Elastic Compliance Matrix: (Units=1/GPa)
#
#
# Indices 1 2 3 4 5 6 
#
# 1 0.151034 -0.004781 -0.141524 -0.035442 0.155609 0.012233
# 2 -0.004781 0.006433 -0.000638 0.001367 -0.002289 -0.001211
# 3 -0.141524 -0.000638 0.145654 0.034093 -0.152802 -0.011386
# 4 -0.035442 0.001367 0.034093 0.028272 -0.039410 -0.012045
# 5 0.155609 -0.002289 -0.152802 -0.039410 0.198922 0.011959
# 6 0.012233 -0.001211 -0.011386 -0.012045 0.011959 0.030959
#
#
# Mechanical properties :
#
#
# Convention : Reuss Voigt Hill
#
# Bulk Modulus (GPa) = 108.29330 116.45546 112.37438
# Shear Modulus (GPa) = 5.82589 38.21155 22.01872
#
# Velocity S-wave (km/s) = 1.57318 4.02898 3.05840
# Velocity P-wave (km/s) = 7.02169 8.43299 7.75949
#
# Compressibility (1/GPa) = 0.00923418
#
# Stress axis : x y z
#
# Youngs Moduli (GPa) = 6.62103 155.45359 6.86559
#
# Poissons Ratio (x) = 0.74326 0.97165
# Poissons Ratio (y) = 0.03166 0.00438
# Poissons Ratio (z) = 0.93704 0.09916
#
# Static dielectric constant tensor:
#      x y z
#    x 4.638790 -0.114380 0.067700 
#    y -0.114380 5.223770 -0.290590 
#    z 0.067700 -0.290590 4.774140 
# 
# 
# High freq. dielectric constant tensor:
#      x y z
#    x 1.932960 0.005730 0.000360 
#    y 0.005730 1.975600 0.003340 
#    z 0.000360 0.003340 1.932450 
# 
# From -- ./inp_files/125205.got.cif
#   From: 2010.06.25/outbox.cif.g09.slc.cpg/sg2_63_cif.got.tgz:125205.got - 2010.06.27 13:26:56.
