data_PCOD8034570
_publ_section_title
;
Structure prediction by ZEFSAII (Michael W. Deem and Ramdas Pophale) SiO2 
 PCOD8034570
Probable space group: P -1
;
_chemical_formula_sum "Si O2"
_cell_formula_units_Z 16
_cell_length_a 19.470742
_cell_length_b 12.123931
_cell_length_c 17.369712
_cell_angle_alpha 22.156351
_cell_angle_beta 29.662888
_cell_angle_gamma 42.530829
_cell_volume 712.899498
_symmetry_space_group_name_H-M "P -1"
_symmetry_group_IT_number 2
_symmetry_cell_setting 'triclinic'
loop_
_space_group_symop_operation_xyz
x,y,z
-x,-y,-z
loop_
_atom_site_type_symbol
_atom_site_label
_atom_site_fract_x
_atom_site_fract_y
_atom_site_fract_z
Si Si1 0.154420 0.134718 0.220391
Si Si2 0.668498 0.209475 0.128145
Si Si3 0.246207 0.149661 0.830449
Si Si4 0.528989 0.860494 0.258995
Si Si5 0.642581 0.207517 0.771569
Si Si6 0.295374 0.125665 0.376914
Si Si7 0.660885 0.202872 0.312363
Si Si8 0.031423 0.195418 0.141557
O O1 0.129659 0.133099 0.153759
O O2 0.222186 0.874312 0.341191
O O3 0.268455 0.467949 0.923825
O O4 0.000000 0.000000 0.500000
O O5 0.730173 0.240034 0.135503
O O6 0.800606 0.156759 0.982267
O O7 0.516699 0.905306 0.458260
O O8 0.624080 0.504367 0.955150
O O9 0.370946 0.075117 0.805438
O O10 0.319777 0.431959 0.516561
O O11 0.120164 0.208564 0.966575
O O12 0.500000 0.500000 0.500000
O O13 0.375520 0.916495 0.389939
O O14 0.616947 0.116305 0.944827
O O15 0.500000 0.000000 0.000000
O O16 0.293316 0.047813 0.520244
O O17 0.131163 0.065384 0.542467
O O18 0.000000 0.500000 0.000000
#
# Coordination Sequence:
#
# PCOD8034570 Si02
#       8
#     2   2   2   2   2   2   2   2
#     4  12  25  45  73 111 146 185 240 298 377 437
#     4  11  27  45  72 105 143 197 251 288 347 430
#     4  12  26  46  67 106 148 187 241 301 350 437
#     4  12  24  43  71 108 143 180 247 308 363 420
#     4  12  26  39  70 106 140 189 234 303 370 415
#     4  12  26  45  78 104 142 198 237 296 367 429
#     4  11  24  45  71 104 145 187 241 299 344 431
#     4  12  25  47  74 107 149 186 231 304 378 432
#
# _framework density 22.443556000000001
#
# number of rings (size 3 to 8) (size 9 to 14) (size 15 to 20)
#    0.000    0.250    5.000    4.125    7.000    0.500 
#    0.000    0.625    0.000    0.000    0.000    0.000 
#    0.000    0.000    0.000    0.000    0.000    0.000 
#
# Total GULP energy -198267.135488 kJ/mol
# GULP energy per Si atom -12391.695968 kJ/mol
# Density = 2.239247 g / cm^3
# Si number density = 22.443556 Si / 1000 Ang^3
#
#
#
# Elastic Constant Matrix: (Units=GPa)
#
#
# Indices 1 2 3 4 5 6 
#
# 1 138.1165 56.4744 44.8948 -3.5561 18.5606 7.4711
# 2 56.4744 161.9295 44.4240 -7.5026 15.0108 9.1656
# 3 44.8948 44.4240 97.2566 -4.6670 20.0208 2.6221
# 4 -3.5561 -7.5026 -4.6670 24.8688 -1.4109 0.9401
# 5 18.5606 15.0108 20.0208 -1.4109 44.2885 9.2782
# 6 7.4711 9.1656 2.6221 0.9401 9.2782 35.5954
#
#
#
# Elastic Compliance Matrix: (Units=1/GPa)
#
#
# Indices 1 2 3 4 5 6 
#
# 1 0.009388 -0.002271 -0.002927 0.000040 -0.001687 -0.000731
# 2 -0.002271 0.007785 -0.002332 0.001619 -0.000305 -0.001319
# 3 -0.002927 -0.002332 0.013619 0.001135 -0.004381 0.001323
# 4 0.000040 0.001619 0.001135 0.041018 0.000594 -0.001747
# 5 -0.001687 -0.000305 -0.004381 0.000594 0.026691 -0.006218
# 6 -0.000731 -0.001319 0.001323 -0.001747 -0.006218 0.030156
#
#
# Mechanical properties :
#
#
# Convention : Reuss Voigt Hill
#
# Bulk Modulus (GPa) = 63.56631 76.54321 70.05476
# Shear Modulus (GPa) = 33.56576 37.71784 35.64180
#
# Velocity S-wave (km/s) = 3.87145 4.10392 3.98938
# Velocity P-wave (km/s) = 6.95474 7.52562 7.24580
#
# Compressibility (1/GPa) = 0.01573160
#
# Stress axis : x y z
#
# Youngs Moduli (GPa) = 106.52196 128.44708 73.42766
#
# Poissons Ratio (x) = 0.29176 0.21493
# Poissons Ratio (y) = 0.24196 0.17120
# Poissons Ratio (z) = 0.31180 0.29949
#
# Static dielectric constant tensor:
#      x y z
#    x 4.192560 0.012390 -0.135280 
#    y 0.012390 4.118220 -0.049890 
#    z -0.135280 -0.049890 3.874550 
# 
# 
# High freq. dielectric constant tensor:
#      x y z
#    x 1.896820 0.004200 0.016200 
#    y 0.004200 1.891760 -0.001500 
#    z 0.016200 -0.001500 1.876640 
# 
# From -- ./inp_files/577880.got.cif
#   From: 2010.06.25/outbox.cif.g09.slc.cpg/sg2_289_cif.got.tgz:577880.got - 2010.06.27 13:26:56.
