data_PCOD8034218
_publ_section_title
;
Structure prediction by ZEFSAII (Michael W. Deem and Ramdas Pophale) SiO2 
 PCOD8034218
Probable space group: P -1
;
_chemical_formula_sum "Si O2"
_cell_formula_units_Z 14
_cell_length_a 22.153816
_cell_length_b 13.224456
_cell_length_c 11.047194
_cell_angle_alpha 159.329404
_cell_angle_beta 33.794465
_cell_angle_gamma 146.132509
_cell_volume 612.063765
_symmetry_space_group_name_H-M "P -1"
_symmetry_group_IT_number 2
_symmetry_cell_setting 'triclinic'
loop_
_space_group_symop_operation_xyz
x,y,z
-x,-y,-z
loop_
_atom_site_type_symbol
_atom_site_label
_atom_site_fract_x
_atom_site_fract_y
_atom_site_fract_z
Si Si1 0.059303 0.758698 0.072294
Si Si2 0.840136 0.283646 0.909043
Si Si3 0.355505 0.792471 0.219670
Si Si4 0.721304 0.620712 0.321566
Si Si5 0.258393 0.894535 0.741904
Si Si6 0.491856 0.609889 0.436771
Si Si7 0.615153 0.474041 0.723771
O O1 0.165186 0.745279 0.968859
O O2 0.122739 0.826012 0.912886
O O3 0.000000 0.000000 0.500000
O O4 0.974517 0.429445 0.826431
O O5 0.780695 0.970187 0.592379
O O6 0.783357 0.528775 0.229596
O O7 0.283228 0.905895 0.569375
O O8 0.418619 0.066943 0.333099
O O9 0.267351 0.550394 0.012992
O O10 0.440726 0.637899 0.974334
O O11 0.587364 0.519942 0.460981
O O12 0.321578 0.681349 0.462458
O O13 0.305024 0.206092 0.077482
O O14 0.415937 0.671058 0.519416
O O15 0.500000 0.500000 0.000000
#
# Coordination Sequence:
#
# PCOD8034218 Si02
#       7
#     2   2   2   2   2   2   2
#     4  11  25  46  72  97 125 159 218 280 332 376
#     4  11  24  44  68  97 121 160 222 271 320 374
#     4  12  24  42  61  94 136 175 212 250 313 394
#     4  12  24  42  66  94 130 174 214 259 309 379
#     4  12  25  41  65  97 133 171 205 269 330 373
#     4  12  23  40  63  94 132 176 214 257 309 381
#     4  12  22  40  64  97 136 164 213 261 318 386
#
# _framework density 22.873434
#
# number of rings (size 3 to 8) (size 9 to 14) (size 15 to 20)
#    0.000    0.286    4.286    5.571    4.000    0.000 
#    0.000    1.429    0.000    0.000    0.000    0.000 
#    0.000    0.000    0.000    0.000    0.000    0.000 
#
# Total GULP energy -173457.217736 kJ/mol
# GULP energy per Si atom -12389.801267 kJ/mol
# Density = 2.282137 g / cm^3
# Si number density = 22.873434 Si / 1000 Ang^3
#
#
#
# Elastic Constant Matrix: (Units=GPa)
#
#
# Indices 1 2 3 4 5 6 
#
# 1 55.1135 15.3904 11.0786 -3.4969 0.8280 10.9569
# 2 15.3904 157.8101 53.9659 15.5244 15.8895 7.9492
# 3 11.0786 53.9659 78.8200 5.3633 4.4361 1.7397
# 4 -3.4969 15.5244 5.3633 48.9921 0.7060 1.0927
# 5 0.8280 15.8895 4.4361 0.7060 38.1256 14.3911
# 6 10.9569 7.9492 1.7397 1.0927 14.3911 20.5801
#
#
#
# Elastic Compliance Matrix: (Units=1/GPa)
#
#
# Indices 1 2 3 4 5 6 
#
# 1 0.022170 -0.001475 -0.002287 0.002557 0.006210 -0.015518
# 2 -0.001475 0.008910 -0.005570 -0.002276 -0.003005 0.000037
# 3 -0.002287 -0.005570 0.016816 -0.000283 -0.000436 0.002268
# 4 0.002557 -0.002276 -0.000283 0.021384 0.001537 -0.002668
# 5 0.006210 -0.003005 -0.000436 0.001537 0.038307 -0.028977
# 6 -0.015518 0.000037 0.002268 -0.002668 -0.028977 0.077051
#
#
# Mechanical properties :
#
#
# Convention : Reuss Voigt Hill
#
# Bulk Modulus (GPa) = 34.20931 50.29038 42.24985
# Shear Modulus (GPa) = 23.46916 35.62679 29.54798
#
# Velocity S-wave (km/s) = 3.20667 3.95088 3.59807
# Velocity P-wave (km/s) = 5.35711 6.54574 5.98103
#
# Compressibility (1/GPa) = 0.02923180
#
# Stress axis : x y z
#
# Youngs Moduli (GPa) = 45.10585 112.23413 59.46739
#
# Poissons Ratio (x) = 0.16555 0.13601
# Poissons Ratio (y) = 0.06653 0.33123
# Poissons Ratio (z) = 0.10316 0.62513
#
# Static dielectric constant tensor:
#      x y z
#    x 6.131660 -1.272020 1.227500 
#    y -1.272020 5.179580 -0.667720 
#    z 1.227500 -0.667720 4.786850 
# 
# 
# High freq. dielectric constant tensor:
#      x y z
#    x 1.894820 -0.004650 -0.006990 
#    y -0.004650 1.915650 0.015890 
#    z -0.006990 0.015890 1.893130 
# 
# From -- ./inp_files/475229.got.cif
#   From: 2010.06.25/outbox.cif.g09.slc.cpg/sg2_238_cif.got.tgz:475229.got - 2010.06.27 13:26:56.
