data_PCOD8034208
_publ_section_title
;
Structure prediction by ZEFSAII (Michael W. Deem and Ramdas Pophale) SiO2 
 PCOD8034208
Probable space group: P -1
;
_chemical_formula_sum "Si O2"
_cell_formula_units_Z 16
_cell_length_a 14.712920
_cell_length_b 12.904796
_cell_length_c 8.628324
_cell_angle_alpha 50.202733
_cell_angle_beta 73.784388
_cell_angle_gamma 113.703546
_cell_volume 745.364109
_symmetry_space_group_name_H-M "P -1"
_symmetry_group_IT_number 2
_symmetry_cell_setting 'triclinic'
loop_
_space_group_symop_operation_xyz
x,y,z
-x,-y,-z
loop_
_atom_site_type_symbol
_atom_site_label
_atom_site_fract_x
_atom_site_fract_y
_atom_site_fract_z
Si Si1 0.590131 0.724118 0.173138
Si Si2 0.383262 0.261383 0.217300
Si Si3 0.380651 0.971778 0.650488
Si Si4 0.921914 0.088352 0.812112
Si Si5 0.475698 0.851426 0.267048
Si Si6 0.873212 0.525411 0.151019
Si Si7 0.064909 0.965458 0.791883
Si Si8 0.051380 0.479593 0.212335
O O1 0.500000 0.500000 0.500000
O O2 0.492985 0.741375 0.258392
O O3 0.587238 0.718244 0.996707
O O4 0.763278 0.922545 0.957680
O O5 0.211552 0.120185 0.463637
O O6 0.414091 0.152327 0.384165
O O7 0.500000 0.500000 0.000000
O O8 0.500000 0.000000 0.500000
O O9 0.398475 0.005651 0.793914
O O10 0.209586 0.733298 0.924097
O O11 0.015224 0.064840 0.727434
O O12 0.019208 0.333573 0.500555
O O13 0.890570 0.041202 0.054380
O O14 0.308356 0.670231 0.596639
O O15 0.500000 0.000000 0.000000
O O16 0.918663 0.444638 0.307692
O O17 0.949890 0.600130 0.874225
O O18 0.928146 0.723582 0.017643
#
# Coordination Sequence:
#
# PCOD8034208 Si02
#       8
#     2   2   2   2   2   2   2   2
#     4  12  26  47  70 102 140 182 238 291 349 415
#     4  12  27  47  74  98 139 187 235 293 347 419
#     4  12  25  46  70 108 141 186 236 285 351 422
#     4  11  26  44  70 104 138 182 229 295 349 418
#     4  12  26  43  71 103 143 184 233 285 351 410
#     4  11  24  44  68 102 139 183 228 289 339 419
#     4  11  25  46  69 102 139 179 239 282 355 415
#     4  11  25  44  72 102 144 179 236 281 350 417
#
# _framework density 21.466018999999999
#
# number of rings (size 3 to 8) (size 9 to 14) (size 15 to 20)
#    0.000    0.500    2.500    5.250    5.250    4.500 
#    0.000    0.000    0.000    0.000    0.000    0.000 
#    0.000    0.000    0.000    0.000    0.000    0.000 
#
# Total GULP energy -198525.780357 kJ/mol
# GULP energy per Si atom -12407.861272 kJ/mol
# Density = 2.141716 g / cm^3
# Si number density = 21.466019 Si / 1000 Ang^3
#
#
#
# Elastic Constant Matrix: (Units=GPa)
#
#
# Indices 1 2 3 4 5 6 
#
# 1 119.4293 40.9940 54.2085 -1.7311 13.0581 -5.6025
# 2 40.9940 130.0529 41.2974 -1.6400 11.7208 3.3164
# 3 54.2085 41.2974 99.7045 -4.8204 26.0542 -6.8554
# 4 -1.7311 -1.6400 -4.8204 42.2892 -3.1957 -2.5561
# 5 13.0581 11.7208 26.0542 -3.1957 45.9010 0.4543
# 6 -5.6025 3.3164 -6.8554 -2.5561 0.4543 40.9780
#
#
#
# Elastic Compliance Matrix: (Units=1/GPa)
#
#
# Indices 1 2 3 4 5 6 
#
# 1 0.011538 -0.001940 -0.005506 -0.000158 0.000319 0.000800
# 2 -0.001940 0.009256 -0.002838 -0.000149 -0.000196 -0.001496
# 3 -0.005506 -0.002838 0.016204 0.001135 -0.006851 0.002335
# 4 -0.000158 -0.000149 0.001135 0.023947 0.001090 0.001662
# 5 0.000319 -0.000196 -0.006851 0.001090 0.025723 -0.001304
# 6 0.000800 -0.001496 0.002335 0.001662 -0.001304 0.025142
#
#
# Mechanical properties :
#
#
# Convention : Reuss Voigt Hill
#
# Bulk Modulus (GPa) = 60.85958 69.13185 64.99572
# Shear Modulus (GPa) = 36.27014 40.01277 38.14145
#
# Velocity S-wave (km/s) = 4.11500 4.32210 4.21982
# Velocity P-wave (km/s) = 7.14078 7.56191 7.35436
#
# Compressibility (1/GPa) = 0.01643127
#
# Stress axis : x y z
#
# Youngs Moduli (GPa) = 86.66666 108.04123 61.71242
#
# Poissons Ratio (x) = 0.20958 0.33978
# Poissons Ratio (y) = 0.16812 0.17513
# Poissons Ratio (z) = 0.47718 0.30660
#
# Static dielectric constant tensor:
#      x y z
#    x 4.084100 -0.091910 0.024360 
#    y -0.091910 4.119360 -0.026080 
#    z 0.024360 -0.026080 3.951620 
# 
# 
# High freq. dielectric constant tensor:
#      x y z
#    x 1.859410 -0.005230 0.001050 
#    y -0.005230 1.862210 -0.001480 
#    z 0.001050 -0.001480 1.850610 
# 
# From -- ./inp_files/306503.got.cif
#   From: 2010.06.25/outbox.cif.g09.slc.cpg/sg2_154_cif.got.tgz:306503.got - 2010.06.27 13:26:56.
