data_PCOD8034869
_publ_section_title
;
Structure prediction by ZEFSAII (Michael W. Deem and Ramdas Pophale) SiO2 
 PCOD8034869
Probable space group: P -1
;
_chemical_formula_sum "Si O2"
_cell_formula_units_Z 14
_cell_length_a 6.195424
_cell_length_b 19.748165
_cell_length_c 6.236389
_cell_angle_alpha 66.532087
_cell_angle_beta 77.843244
_cell_angle_gamma 57.151193
_cell_volume 587.972702
_symmetry_space_group_name_H-M "P -1"
_symmetry_group_IT_number 2
_symmetry_cell_setting 'triclinic'
loop_
_space_group_symop_operation_xyz
x,y,z
-x,-y,-z
loop_
_atom_site_type_symbol
_atom_site_label
_atom_site_fract_x
_atom_site_fract_y
_atom_site_fract_z
Si Si1 0.282428 0.959025 0.398994
Si Si2 0.602815 0.170540 0.822933
Si Si3 0.768799 0.233478 0.071976
Si Si4 0.170688 0.630876 0.382194
Si Si5 0.379007 0.476971 0.252418
Si Si6 0.303067 0.122719 0.232483
Si Si7 0.659025 0.680289 0.615949
O O1 0.261331 0.911856 0.253846
O O2 0.513154 0.888393 0.591253
O O3 0.358111 0.030796 0.249720
O O4 0.000000 0.000000 0.500000
O O5 0.793994 0.161830 0.986294
O O6 0.523015 0.261058 0.613478
O O7 0.355052 0.171108 0.969102
O O8 0.796964 0.305394 0.857157
O O9 0.488736 0.275834 0.188064
O O10 0.996142 0.183955 0.264580
O O11 0.157860 0.562900 0.307003
O O12 0.409625 0.581701 0.547164
O O13 0.924665 0.679018 0.530231
O O14 0.264451 0.418936 0.271043
O O15 0.500000 0.500000 0.000000
#
# Coordination Sequence:
#
# PCOD8034869 Si02
#       7
#     2   2   2   2   2   2   2
#     4  11  26  49  72 107 145 193 244 296 366 436
#     4  12  25  45  72 108 143 192 239 298 370 428
#     4  12  26  46  73 109 148 190 244 302 362 432
#     4  11  25  47  70 104 146 191 245 296 365 428
#     4  11  24  46  73 104 144 194 244 301 356 431
#     4  11  25  46  74 103 144 194 241 301 361 433
#     4  12  25  44  73 106 144 194 240 300 361 432
#
# _framework density 23.810631000000001
#
# number of rings (size 3 to 8) (size 9 to 14) (size 15 to 20)
#    0.000    0.571    4.286    3.429    0.000    9.714 
#    2.571    0.000    0.000    0.000    0.000    0.000 
#    0.000    0.000    0.000    0.000    0.000    0.000 
#
# Total GULP energy -173530.990179 kJ/mol
# GULP energy per Si atom -12395.070727 kJ/mol
# Density = 2.375644 g / cm^3
# Si number density = 23.810631 Si / 1000 Ang^3
#
#
#
# Elastic Constant Matrix: (Units=GPa)
#
#
# Indices 1 2 3 4 5 6 
#
# 1 91.7164 48.0123 42.9161 13.9867 1.5094 -10.9086
# 2 48.0123 110.3756 51.5684 18.2904 -1.2774 1.6315
# 3 42.9161 51.5684 105.3795 -4.6078 -17.2901 2.7069
# 4 13.9867 18.2904 -4.6078 45.9211 5.5891 -8.7971
# 5 1.5094 -1.2774 -17.2901 5.5891 45.0181 0.1219
# 6 -10.9086 1.6315 2.7069 -8.7971 0.1219 46.2392
#
#
#
# Elastic Compliance Matrix: (Units=1/GPa)
#
#
# Indices 1 2 3 4 5 6 
#
# 1 0.016557 -0.004395 -0.005197 -0.002793 -0.002339 0.003840
# 2 -0.004395 0.014511 -0.005641 -0.005319 -0.000941 -0.002228
# 3 -0.005197 -0.005641 0.015478 0.004517 0.005401 -0.001088
# 4 -0.002793 -0.005319 0.004517 0.026207 -0.001588 0.004254
# 5 -0.002339 -0.000941 0.005401 -0.001588 0.024540 -0.001202
# 6 0.003840 -0.002228 -0.001088 0.004254 -0.001202 0.023488
#
#
# Mechanical properties :
#
#
# Convention : Reuss Voigt Hill
#
# Bulk Modulus (GPa) = 62.18769 65.82946 64.00857
# Shear Modulus (GPa) = 31.92746 38.43399 35.18073
#
# Velocity S-wave (km/s) = 3.66579 4.02201 3.84802
# Velocity P-wave (km/s) = 6.64016 7.01968 6.83255
#
# Compressibility (1/GPa) = 0.01608035
#
# Stress axis : x y z
#
# Youngs Moduli (GPa) = 60.39833 68.91466 64.60859
#
# Poissons Ratio (x) = 0.30288 0.33575
# Poissons Ratio (y) = 0.26545 0.36444
# Poissons Ratio (z) = 0.31387 0.38873
#
# Static dielectric constant tensor:
#      x y z
#    x 4.254520 0.168250 -0.077790 
#    y 0.168250 4.574470 -0.168330 
#    z -0.077790 -0.168330 4.403650 
# 
# 
# High freq. dielectric constant tensor:
#      x y z
#    x 1.940120 0.011080 -0.016550 
#    y 0.011080 1.951740 -0.014270 
#    z -0.016550 -0.014270 1.949410 
# 
# From -- ./inp_files/6835.got.cif
#   From: 2010.06.25/outbox.cif.g09.slc.cpg/sg2_4_cif.got.tgz:6835.got - 2010.06.27 13:26:56.
