data_PCOD8034877
_publ_section_title
;
Structure prediction by ZEFSAII (Michael W. Deem and Ramdas Pophale) SiO2 
 PCOD8034877
Probable space group: P -1
;
_chemical_formula_sum "Si O2"
_cell_formula_units_Z 16
_cell_length_a 12.125044
_cell_length_b 18.825333
_cell_length_c 9.055301
_cell_angle_alpha 35.334081
_cell_angle_beta 140.718923
_cell_angle_gamma 144.534701
_cell_volume 655.537157
_symmetry_space_group_name_H-M "P -1"
_symmetry_group_IT_number 2
_symmetry_cell_setting 'triclinic'
loop_
_space_group_symop_operation_xyz
x,y,z
-x,-y,-z
loop_
_atom_site_type_symbol
_atom_site_label
_atom_site_fract_x
_atom_site_fract_y
_atom_site_fract_z
Si Si1 0.175972 0.127067 0.878656
Si Si2 0.974044 0.690243 0.012372
Si Si3 0.169936 0.573573 0.890492
Si Si4 0.196017 0.120575 0.577298
Si Si5 0.792798 0.579023 0.572140
Si Si6 0.310105 0.493621 0.739627
Si Si7 0.478302 0.868118 0.608365
Si Si8 0.411245 0.802727 0.328969
O O1 0.195997 0.075864 0.823034
O O2 0.155256 0.263942 0.601872
O O3 0.364365 0.174010 0.098079
O O4 0.000000 0.000000 0.000000
O O5 0.944010 0.551495 0.133084
O O6 0.892890 0.641467 0.178810
O O7 0.213829 0.810795 0.054750
O O8 0.831224 0.742239 0.699899
O O9 0.272857 0.723185 0.660941
O O10 0.007355 0.590335 0.786811
O O11 0.315797 0.538134 0.207896
O O12 0.407287 0.144804 0.689226
O O13 0.000000 0.000000 0.500000
O O14 0.675263 0.520050 0.397730
O O15 0.318169 0.637978 0.549279
O O16 0.500000 0.500000 0.000000
O O17 0.503562 0.901237 0.403096
O O18 0.500000 0.000000 0.500000
#
# Coordination Sequence:
#
# PCOD8034877 Si02
#       8
#     2   2   2   2   2   2   2   2
#     4  12  28  50  73 104 154 203 254 320 391 464
#     4  12  25  48  79 112 155 199 256 325 385 457
#     4  11  24  46  73 112 148 192 255 316 378 461
#     4  12  30  50  76 111 152 206 264 316 390 467
#     4  11  25  43  74 107 147 191 250 317 382 446
#     4  12  23  41  75 112 149 192 247 312 382 451
#     4  12  28  48  75 109 155 203 251 310 394 468
#     4  12  26  50  76 112 152 200 259 317 385 463
#
# _framework density 24.407464999999998
#
# number of rings (size 3 to 8) (size 9 to 14) (size 15 to 20)
#    0.000    0.250    5.000    3.375    5.250    1.000 
#    2.250    0.000    0.000    0.000    0.000    0.000 
#    0.000    0.000    0.000    0.000    0.000    0.000 
#
# Total GULP energy -198297.888582 kJ/mol
# GULP energy per Si atom -12393.618036 kJ/mol
# Density = 2.435191 g / cm^3
# Si number density = 24.407465 Si / 1000 Ang^3
#
#
#
# Elastic Constant Matrix: (Units=GPa)
#
#
# Indices 1 2 3 4 5 6 
#
# 1 147.0580 56.1093 46.5026 10.6581 -18.0047 -0.4224
# 2 56.1093 110.4963 30.7524 7.0504 -8.1045 -10.0421
# 3 46.5026 30.7524 90.1097 15.7893 -15.2683 0.2299
# 4 10.6581 7.0504 15.7893 52.4801 -4.0009 -1.8182
# 5 -18.0047 -8.1045 -15.2683 -4.0009 35.1602 7.0767
# 6 -0.4224 -10.0421 0.2299 -1.8182 7.0767 45.6644
#
#
#
# Elastic Compliance Matrix: (Units=1/GPa)
#
#
# Indices 1 2 3 4 5 6 
#
# 1 0.009647 -0.003916 -0.003090 -0.000324 0.002904 -0.001219
# 2 -0.003916 0.011828 -0.002131 -0.000117 -0.000758 0.002688
# 3 -0.003090 -0.002131 0.014704 -0.003236 0.004216 -0.001353
# 4 -0.000324 -0.000117 -0.003236 0.020177 0.000556 0.000705
# 5 0.002904 -0.000758 0.004216 0.000556 0.032695 -0.005206
# 6 -0.001219 0.002688 -0.001353 0.000705 -0.005206 0.023320
#
#
# Mechanical properties :
#
#
# Convention : Reuss Voigt Hill
#
# Bulk Modulus (GPa) = 55.84743 68.26586 62.05664
# Shear Modulus (GPa) = 36.59999 40.94759 38.77379
#
# Velocity S-wave (km/s) = 3.87659 4.10038 3.99005
# Velocity P-wave (km/s) = 6.55502 7.10263 6.83431
#
# Compressibility (1/GPa) = 0.01790593
#
# Stress axis : x y z
#
# Youngs Moduli (GPa) = 103.66230 84.54826 68.00803
#
# Poissons Ratio (x) = 0.33106 0.21015
# Poissons Ratio (y) = 0.40591 0.14489
# Poissons Ratio (z) = 0.32032 0.18013
#
# Static dielectric constant tensor:
#      x y z
#    x 3.338160 0.356400 -0.084340 
#    y 0.356400 4.224900 0.213460 
#    z -0.084340 0.213460 4.870300 
# 
# 
# High freq. dielectric constant tensor:
#      x y z
#    x 1.976100 -0.003420 -0.001760 
#    y -0.003420 1.966310 0.000330 
#    z -0.001760 0.000330 1.989330 
# 
# From -- ./inp_files/278898.got.cif
#   From: 2010.06.25/outbox.cif.g09.slc.cpg/sg2_140_cif.got.tgz:278898.got - 2010.06.27 13:26:56.
