data_PCOD8034002
_publ_section_title
;
Structure prediction by ZEFSAII (Michael W. Deem and Ramdas Pophale) SiO2 
 PCOD8034002
Probable space group: P -1
;
_chemical_formula_sum "Si O2"
_cell_formula_units_Z 14
_cell_length_a 22.206056
_cell_length_b 5.080410
_cell_length_c 15.361451
_cell_angle_alpha 95.291555
_cell_angle_beta 159.434284
_cell_angle_gamma 82.500068
_cell_volume 601.327367
_symmetry_space_group_name_H-M "P -1"
_symmetry_group_IT_number 2
_symmetry_cell_setting 'triclinic'
loop_
_space_group_symop_operation_xyz
x,y,z
-x,-y,-z
loop_
_atom_site_type_symbol
_atom_site_label
_atom_site_fract_x
_atom_site_fract_y
_atom_site_fract_z
Si Si1 0.648704 0.175683 0.979966
Si Si2 0.961797 0.317534 0.173454
Si Si3 0.337225 0.884150 0.816575
Si Si4 0.005138 0.282407 0.424823
Si Si5 0.396149 0.774626 0.390430
Si Si6 0.166248 0.755047 0.417475
Si Si7 0.451316 0.691034 0.659553
O O1 0.561615 0.397232 0.800732
O O2 0.572621 0.899141 0.863413
O O3 0.610289 0.288031 0.030348
O O4 0.854046 0.101629 0.238265
O O5 0.948573 0.411862 0.258585
O O6 0.009988 0.573882 0.193090
O O7 0.790003 0.210526 0.904340
O O8 0.109382 0.070631 0.350555
O O9 0.264667 0.691858 0.641178
O O10 0.192008 0.115553 0.662723
O O11 0.500000 0.000000 0.000000
O O12 0.000000 0.500000 0.500000
O O13 0.500000 0.500000 0.500000
O O14 0.378027 0.789052 0.469964
O O15 0.500000 0.000000 0.500000
O O16 0.286844 0.679514 0.496974
#
# Coordination Sequence:
#
# PCOD8034002 Si02
#       7
#     2   2   2   2   2   2   2
#     4  12  25  44  71 103 146 184 237 293 349 420
#     4  11  25  45  70 100 145 182 229 300 348 421
#     4  11  24  44  69 104 146 190 236 291 355 423
#     4  11  24  43  69 105 141 189 240 287 359 424
#     4  12  26  47  73 103 135 182 237 292 358 417
#     4  11  25  44  68 104 139 185 233 282 366 419
#     4  12  26  44  73 102 138 184 238 290 351 424
#
# _framework density 23.281827
#
# number of rings (size 3 to 8) (size 9 to 14) (size 15 to 20)
#    0.000    0.571    1.429    6.429    2.000    7.429 
#    0.000    0.000    0.000    0.000    0.000    0.000 
#    0.000    0.000    0.000    0.000    0.000    0.000 
#
# Total GULP energy -173607.096701 kJ/mol
# GULP energy per Si atom -12400.506907 kJ/mol
# Density = 2.322884 g / cm^3
# Si number density = 23.281827 Si / 1000 Ang^3
#
#
#
# Elastic Constant Matrix: (Units=GPa)
#
#
# Indices 1 2 3 4 5 6 
#
# 1 160.0681 40.8895 69.0035 10.0649 6.7187 1.0639
# 2 40.8895 100.5563 30.2211 16.5883 15.1112 9.9208
# 3 69.0035 30.2211 130.0016 22.2848 12.1538 3.0163
# 4 10.0649 16.5883 22.2848 34.3609 6.0427 7.2528
# 5 6.7187 15.1112 12.1538 6.0427 52.3569 2.3265
# 6 1.0639 9.9208 3.0163 7.2528 2.3265 37.5651
#
#
#
# Elastic Compliance Matrix: (Units=1/GPa)
#
#
# Indices 1 2 3 4 5 6 
#
# 1 0.008636 -0.002559 -0.004263 0.001287 0.000449 0.000497
# 2 -0.002559 0.012412 -0.000557 -0.003958 -0.002569 -0.002238
# 3 -0.004263 -0.000557 0.011150 -0.005606 -0.001257 0.000533
# 4 0.001287 -0.003958 -0.005606 0.035679 -0.001603 -0.005331
# 5 0.000449 -0.002569 -0.001257 -0.001603 0.020268 -0.000179
# 6 0.000497 -0.002238 0.000533 -0.005331 -0.000179 0.028195
#
#
# Mechanical properties :
#
#
# Convention : Reuss Voigt Hill
#
# Bulk Modulus (GPa) = 57.33647 74.53936 65.93791
# Shear Modulus (GPa) = 36.51994 41.55738 39.03866
#
# Velocity S-wave (km/s) = 3.96486 4.22947 4.09930
# Velocity P-wave (km/s) = 6.75579 7.47910 7.12663
#
# Compressibility (1/GPa) = 0.01744091
#
# Stress axis : x y z
#
# Youngs Moduli (GPa) = 115.79789 80.56554 89.68279
#
# Poissons Ratio (x) = 0.20619 0.38231
# Poissons Ratio (y) = 0.29636 0.04991
# Poissons Ratio (z) = 0.49364 0.04484
#
# Static dielectric constant tensor:
#      x y z
#    x 4.413840 -0.060870 0.247550 
#    y -0.060870 3.935860 0.166370 
#    z 0.247550 0.166370 3.913230 
# 
# 
# High freq. dielectric constant tensor:
#      x y z
#    x 1.941140 0.005240 0.007490 
#    y 0.005240 1.913770 0.008060 
#    z 0.007490 0.008060 1.928380 
# 
# From -- ./inp_files/27859.got.cif
#   From: 2010.06.25/outbox.cif.g09.slc.cpg/sg2_14_cif.got.tgz:27859.got - 2010.06.27 13:26:56.
