data_PCOD8034556
_publ_section_title
;
Structure prediction by ZEFSAII (Michael W. Deem and Ramdas Pophale) SiO2 
 PCOD8034556
Probable space group: P -1
;
_chemical_formula_sum "Si O2"
_cell_formula_units_Z 16
_cell_length_a 11.884236
_cell_length_b 14.598105
_cell_length_c 9.017783
_cell_angle_alpha 108.223189
_cell_angle_beta 47.012855
_cell_angle_gamma 137.874969
_cell_volume 705.752503
_symmetry_space_group_name_H-M "P -1"
_symmetry_group_IT_number 2
_symmetry_cell_setting 'triclinic'
loop_
_space_group_symop_operation_xyz
x,y,z
-x,-y,-z
loop_
_atom_site_type_symbol
_atom_site_label
_atom_site_fract_x
_atom_site_fract_y
_atom_site_fract_z
Si Si1 0.265256 0.384471 0.744530
Si Si2 0.035306 0.887297 0.508066
Si Si3 0.500193 0.580174 0.915221
Si Si4 0.588516 0.920536 0.254731
Si Si5 0.108609 0.645400 0.049396
Si Si6 0.998872 0.923222 0.236254
Si Si7 0.782228 0.365611 0.726435
Si Si8 0.520253 0.924983 0.640531
O O1 0.500000 0.500000 0.500000
O O2 0.318442 0.456619 0.891714
O O3 0.196157 0.238566 0.747959
O O4 0.059354 0.343754 0.823872
O O5 0.768829 0.723271 0.689311
O O6 0.093204 0.914901 0.295698
O O7 0.098407 0.020868 0.593666
O O8 0.238609 0.920061 0.419512
O O9 0.500000 0.500000 0.000000
O O10 0.400381 0.633597 0.088723
O O11 0.341940 0.776311 0.328463
O O12 0.583290 0.893374 0.420272
O O13 0.636237 0.057461 0.258438
O O14 0.796354 0.960275 0.008454
O O15 0.130864 0.638837 0.200632
O O16 0.368500 0.786892 0.818675
O O17 0.000000 0.500000 0.000000
O O18 0.000000 0.500000 0.500000
#
# Coordination Sequence:
#
# PCOD8034556 Si02
#       8
#     2   2   2   2   2   2   2   2
#     4  12  27  46  73 108 143 191 238 294 362 434
#     4  11  26  46  70 104 141 189 233 295 353 424
#     4  12  29  48  70 106 151 188 240 300 361 426
#     4  11  25  46  69 105 143 184 240 293 356 425
#     4  12  26  47  74 105 145 188 240 300 358 426
#     4  11  24  45  71 100 141 182 237 287 354 421
#     4  12  28  47  73 104 145 192 245 295 362 431
#     4  11  27  43  73 105 143 185 237 297 354 424
#
# _framework density 22.670836999999999
#
# number of rings (size 3 to 8) (size 9 to 14) (size 15 to 20)
#    0.000    0.500    5.000    1.500   10.500    2.500 
#    0.000    0.000    0.000    0.000    0.000    0.000 
#    0.000    0.000    0.000    0.000    0.000    0.000 
#
# Total GULP energy -198428.479063 kJ/mol
# GULP energy per Si atom -12401.779941 kJ/mol
# Density = 2.261924 g / cm^3
# Si number density = 22.670837 Si / 1000 Ang^3
#
#
#
# Elastic Constant Matrix: (Units=GPa)
#
#
# Indices 1 2 3 4 5 6 
#
# 1 106.9483 15.3382 30.8019 -7.9325 20.7422 14.0299
# 2 15.3382 120.7766 23.8276 -11.2842 10.8132 10.2563
# 3 30.8019 23.8276 135.0563 -19.4430 22.4914 9.1956
# 4 -7.9325 -11.2842 -19.4430 41.1972 1.2163 -0.8895
# 5 20.7422 10.8132 22.4914 1.2163 43.2826 3.4137
# 6 14.0299 10.2563 9.1956 -0.8895 3.4137 37.1489
#
#
#
# Elastic Compliance Matrix: (Units=1/GPa)
#
#
# Indices 1 2 3 4 5 6 
#
# 1 0.011177 -0.000344 -0.001318 0.001492 -0.004362 -0.003363
# 2 -0.000344 0.008979 -0.000825 0.002007 -0.001552 -0.001954
# 3 -0.001318 -0.000825 0.009146 0.003930 -0.003940 -0.001082
# 4 0.001492 0.002007 0.003930 0.027058 -0.003934 -0.001081
# 5 -0.004362 -0.001552 -0.003940 -0.003934 0.027708 0.000411
# 6 -0.003363 -0.001954 -0.001082 -0.001081 0.000411 0.028933
#
#
# Mechanical properties :
#
#
# Convention : Reuss Voigt Hill
#
# Bulk Modulus (GPa) = 41.10602 55.85739 48.48170
# Shear Modulus (GPa) = 39.65619 43.84665 41.75142
#
# Velocity S-wave (km/s) = 4.18690 4.40256 4.29608
# Velocity P-wave (km/s) = 6.44551 7.10882 6.78527
#
# Compressibility (1/GPa) = 0.02432734
#
# Stress axis : x y z
#
# Youngs Moduli (GPa) = 89.46779 111.37551 109.33676
#
# Poissons Ratio (x) = 0.03829 0.14413
# Poissons Ratio (y) = 0.03076 0.09023
# Poissons Ratio (z) = 0.11794 0.09191
#
# Static dielectric constant tensor:
#      x y z
#    x 4.020780 0.278040 0.039230 
#    y 0.278040 4.476720 0.041170 
#    z 0.039230 0.041170 4.139780 
# 
# 
# High freq. dielectric constant tensor:
#      x y z
#    x 1.890440 0.005980 0.005510 
#    y 0.005980 1.911090 0.003660 
#    z 0.005510 0.003660 1.905400 
# 
# From -- ./inp_files/273579.got.cif
#   From: 2010.06.25/outbox.cif.g09.slc.cpg/sg2_137_cif.got.tgz:273579.got - 2010.06.27 13:26:56.
