data_PCOD8034249
_publ_section_title
;
Structure prediction by ZEFSAII (Michael W. Deem and Ramdas Pophale) SiO2 
 PCOD8034249
Probable space group: P -1
;
_chemical_formula_sum "Si O2"
_cell_formula_units_Z 16
_cell_length_a 24.902354
_cell_length_b 6.685392
_cell_length_c 20.243361
_cell_angle_alpha 55.323076
_cell_angle_beta 20.424162
_cell_angle_gamma 44.097299
_cell_volume 739.451787
_symmetry_space_group_name_H-M "P -1"
_symmetry_group_IT_number 2
_symmetry_cell_setting 'triclinic'
loop_
_space_group_symop_operation_xyz
x,y,z
-x,-y,-z
loop_
_atom_site_type_symbol
_atom_site_label
_atom_site_fract_x
_atom_site_fract_y
_atom_site_fract_z
Si Si1 0.774361 0.618876 0.394729
Si Si2 0.598143 0.388936 0.731952
Si Si3 0.100496 0.642469 0.835716
Si Si4 0.579739 0.684083 0.368482
Si Si5 0.655894 0.241106 0.921854
Si Si6 0.985665 0.248319 0.592828
Si Si7 0.265462 0.398437 0.057705
Si Si8 0.892262 0.355757 0.952410
O O1 0.667034 0.539960 0.579998
O O2 0.889915 0.348796 0.256077
O O3 0.930203 0.625959 0.254330
O O4 0.607088 0.947442 0.489843
O O5 0.448816 0.661573 0.904947
O O6 0.482828 0.297608 0.840653
O O7 0.788686 0.080703 0.606698
O O8 0.317805 0.392639 0.664446
O O9 0.980716 0.999296 0.932990
O O10 0.000000 0.500000 0.000000
O O11 0.500000 0.500000 0.500000
O O12 0.729039 0.579865 0.154483
O O13 0.849946 0.219435 0.706570
O O14 0.723044 0.902289 0.888910
O O15 0.500000 0.500000 0.000000
O O16 0.899785 0.334009 0.750360
O O17 0.000000 0.500000 0.500000
O O18 0.206654 0.533407 0.026340
#
# Coordination Sequence:
#
# PCOD8034249 Si02
#       8
#     2   2   2   2   2   2   2   2
#     4  12  26  44  66  95 131 172 215 268 327 386
#     4  11  26  43  66  99 131 171 218 261 323 386
#     4  12  25  44  68  93 130 171 217 273 326 381
#     4  12  25  44  68  95 128 171 221 269 326 387
#     4  11  24  44  69  99 134 170 214 266 316 381
#     4  11  24  44  69  99 133 171 216 262 317 385
#     4  11  26  43  66  98 133 170 215 267 321 381
#     4  12  26  45  64  96 134 167 216 273 321 386
#
# _framework density 21.637651999999999
#
# number of rings (size 3 to 8) (size 9 to 14) (size 15 to 20)
#    0.000    0.500    2.500    5.250    3.500   11.000 
#    0.000    0.000    0.000    0.000    0.000    0.000 
#    0.000    0.000    0.000    0.000    0.000    0.000 
#
# Total GULP energy -198454.588016 kJ/mol
# GULP energy per Si atom -12403.411751 kJ/mol
# Density = 2.158840 g / cm^3
# Si number density = 21.637652 Si / 1000 Ang^3
#
#
#
# Elastic Constant Matrix: (Units=GPa)
#
#
# Indices 1 2 3 4 5 6 
#
# 1 104.4922 9.5576 28.4489 -12.4729 -20.4140 2.8629
# 2 9.5576 83.0374 25.5792 -21.8432 -15.9230 5.1114
# 3 28.4489 25.5792 107.0400 -23.7865 -22.7585 9.5698
# 4 -12.4729 -21.8432 -23.7865 50.6610 0.9086 -1.9060
# 5 -20.4140 -15.9230 -22.7585 0.9086 49.8202 -0.9823
# 6 2.8629 5.1114 9.5698 -1.9060 -0.9823 39.2559
#
#
#
# Elastic Compliance Matrix: (Units=1/GPa)
#
#
# Indices 1 2 3 4 5 6 
#
# 1 0.011000 0.000568 -0.001766 0.002046 0.003840 -0.000250
# 2 0.000568 0.014801 -0.001411 0.005737 0.004189 -0.001241
# 3 -0.001766 -0.001411 0.012289 0.004561 0.004310 -0.002354
# 4 0.002046 0.005737 0.004561 0.024754 0.004290 -0.000699
# 5 0.003840 0.004189 0.004310 0.004290 0.024854 -0.001046
# 6 -0.000250 -0.001241 -0.002354 -0.000699 -0.001046 0.026167
#
#
# Mechanical properties :
#
#
# Convention : Reuss Voigt Hill
#
# Bulk Modulus (GPa) = 30.42159 46.86010 38.64084
# Shear Modulus (GPa) = 38.44888 43.34636 40.89762
#
# Velocity S-wave (km/s) = 4.21995 4.48066 4.35226
# Velocity P-wave (km/s) = 6.15094 6.96220 6.56911
#
# Compressibility (1/GPa) = 0.03287139
#
# Stress axis : x y z
#
# Youngs Moduli (GPa) = 90.90784 67.56284 81.37238
#
# Poissons Ratio (x) = -0.03835 0.14369
# Poissons Ratio (y) = -0.05161 0.11484
# Poissons Ratio (z) = 0.16053 0.09535
#
# Static dielectric constant tensor:
#      x y z
#    x 3.952080 -0.000660 -0.103300 
#    y -0.000660 3.901620 -0.021090 
#    z -0.103300 -0.021090 4.159140 
# 
# 
# High freq. dielectric constant tensor:
#      x y z
#    x 1.864400 0.000990 -0.005640 
#    y 0.000990 1.862830 -0.005530 
#    z -0.005640 -0.005530 1.865200 
# 
# From -- ./inp_files/47667.got.cif
#   From: 2010.06.25/outbox.cif.g09.slc.cpg/sg2_24_cif.got.tgz:47667.got - 2010.06.27 13:26:56.
