data_PCOD8034979
_publ_section_title
;
Structure prediction by ZEFSAII (Michael W. Deem and Ramdas Pophale) SiO2 
 PCOD8034979
Probable space group: P -1
;
_chemical_formula_sum "Si O2"
_cell_formula_units_Z 16
_cell_length_a 6.725894
_cell_length_b 28.026294
_cell_length_c 25.245523
_cell_angle_alpha 9.740612
_cell_angle_beta 118.692922
_cell_angle_gamma 119.601477
_cell_volume 699.319527
_symmetry_space_group_name_H-M "P -1"
_symmetry_group_IT_number 2
_symmetry_cell_setting 'triclinic'
loop_
_space_group_symop_operation_xyz
x,y,z
-x,-y,-z
loop_
_atom_site_type_symbol
_atom_site_label
_atom_site_fract_x
_atom_site_fract_y
_atom_site_fract_z
Si Si1 0.359613 0.687341 0.813892
Si Si2 0.857334 0.641641 0.755126
Si Si3 0.262220 0.731207 0.954274
Si Si4 0.502125 0.909036 0.939893
Si Si5 0.111765 0.462399 0.411416
Si Si6 0.140469 0.256814 0.534068
Si Si7 0.144544 0.290813 0.716367
Si Si8 0.264026 0.188441 0.029900
O O1 0.119505 0.716551 0.723936
O O2 0.500000 0.000000 0.500000
O O3 0.500000 0.500000 0.000000
O O4 0.308546 0.519680 0.045559
O O5 0.774955 0.942027 0.403291
O O6 0.841294 0.429514 0.935348
O O7 0.536831 0.722972 0.998726
O O8 0.134960 0.566631 0.168616
O O9 0.404700 0.203108 0.618213
O O10 0.624281 0.943154 0.862350
O O11 0.269258 0.692108 0.145113
O O12 0.651271 0.793537 0.130977
O O13 0.088609 0.204533 0.648285
O O14 0.231485 0.422726 0.526430
O O15 0.856286 0.541520 0.300432
O O16 0.933017 0.041463 0.717229
O O17 0.000000 0.500000 0.500000
O O18 0.000000 0.000000 0.000000
#
# Coordination Sequence:
#
# PCOD8034979 Si02
#       8
#     2   2   2   2   2   2   2   2
#     4  11  24  49  80 110 153 196 235 296 350 404
#     4  11  27  47  73 115 149 191 246 289 347 418
#     4  12  26  47  71 106 154 191 241 299 346 428
#     4  11  24  47  69  97 140 183 241 311 382 436
#     4  11  25  45  69  99 133 187 242 299 375 446
#     4  11  27  43  71 102 140 195 243 300 367 446
#     4  12  27  44  72 101 132 180 242 310 379 454
#     4  11  25  45  69  97 144 191 238 300 371 434
#
# _framework density 22.879384999999999
#
# number of rings (size 3 to 8) (size 9 to 14) (size 15 to 20)
#    0.000    0.750    2.500    3.375   10.500    5.500 
#    0.000    0.000    0.000    0.000    0.000    0.000 
#    0.000    0.000    0.000    0.000    0.000    0.000 
#
# Total GULP energy -198271.936314 kJ/mol
# GULP energy per Si atom -12391.996020 kJ/mol
# Density = 2.282731 g / cm^3
# Si number density = 22.879385 Si / 1000 Ang^3
#
#
#
# Elastic Constant Matrix: (Units=GPa)
#
#
# Indices 1 2 3 4 5 6 
#
# 1 123.4750 40.9912 44.0253 -0.5608 3.6132 -2.4559
# 2 40.9912 112.6293 29.3759 1.2320 -5.5224 -2.5782
# 3 44.0253 29.3759 109.7664 4.0333 3.4421 -3.4936
# 4 -0.5608 1.2320 4.0333 39.4490 -3.4394 1.8784
# 5 3.6132 -5.5224 3.4421 -3.4394 36.8506 -5.6653
# 6 -2.4559 -2.5782 -3.4936 1.8784 -5.6653 47.9446
#
#
#
# Elastic Compliance Matrix: (Units=1/GPa)
#
#
# Indices 1 2 3 4 5 6 
#
# 1 0.010294 -0.002939 -0.003326 0.000484 -0.001097 -0.000022
# 2 -0.002939 0.010502 -0.001679 -0.000041 0.002098 0.000541
# 3 -0.003326 -0.001679 0.010985 -0.001227 -0.000994 0.000470
# 4 0.000484 -0.000041 -0.001227 0.025725 0.002339 -0.000798
# 5 -0.001097 0.002098 -0.000994 0.002339 0.028369 0.003245
# 6 -0.000022 0.000541 0.000470 -0.000798 0.003245 0.021334
#
#
# Mechanical properties :
#
#
# Convention : Reuss Voigt Hill
#
# Bulk Modulus (GPa) = 62.92058 63.85064 63.38561
# Shear Modulus (GPa) = 38.94250 40.28074 39.61162
#
# Velocity S-wave (km/s) = 4.13010 4.20047 4.16543
# Velocity P-wave (km/s) = 7.09255 7.17588 7.13434
#
# Compressibility (1/GPa) = 0.01589305
#
# Stress axis : x y z
#
# Youngs Moduli (GPa) = 97.14128 95.22186 91.03329
#
# Poissons Ratio (x) = 0.27982 0.30282
# Poissons Ratio (y) = 0.28546 0.15284
# Poissons Ratio (z) = 0.32314 0.15987
#
# Static dielectric constant tensor:
#      x y z
#    x 4.255190 0.047060 0.047620 
#    y 0.047060 4.109590 -0.135510 
#    z 0.047620 -0.135510 4.343400 
# 
# 
# High freq. dielectric constant tensor:
#      x y z
#    x 1.914870 0.005930 -0.003450 
#    y 0.005930 1.912550 -0.008290 
#    z -0.003450 -0.008290 1.911540 
# 
# From -- ./inp_files/125735.got.cif
#   From: 2010.06.25/outbox.cif.g09.slc.cpg/sg2_63_cif.got.tgz:125735.got - 2010.06.27 13:26:56.
