data_PCOD8034003
_publ_section_title
;
Structure prediction by ZEFSAII (Michael W. Deem and Ramdas Pophale) SiO2 
 PCOD8034003
Probable space group: P -1
;
_chemical_formula_sum "Si O2"
_cell_formula_units_Z 14
_cell_length_a 17.268414
_cell_length_b 8.995952
_cell_length_c 11.867386
_cell_angle_alpha 135.365389
_cell_angle_beta 26.479429
_cell_angle_gamma 119.843574
_cell_volume 517.265355
_symmetry_space_group_name_H-M "P -1"
_symmetry_group_IT_number 2
_symmetry_cell_setting 'triclinic'
loop_
_space_group_symop_operation_xyz
x,y,z
-x,-y,-z
loop_
_atom_site_type_symbol
_atom_site_label
_atom_site_fract_x
_atom_site_fract_y
_atom_site_fract_z
Si Si1 0.721202 0.045905 0.195038
Si Si2 0.173360 0.181893 0.285700
Si Si3 0.413186 0.481890 0.482019
Si Si4 0.791564 0.124435 0.716700
Si Si5 0.038326 0.715394 0.768121
Si Si6 0.762504 0.851961 0.405461
Si Si7 0.583592 0.241983 0.698674
O O1 0.742239 0.269164 0.232186
O O2 0.540932 0.170054 0.588357
O O3 0.682260 0.929915 0.069936
O O4 0.911571 0.835171 0.887410
O O5 0.958238 0.204063 0.563129
O O6 0.173042 0.436075 0.423381
O O7 0.252584 0.024433 0.208664
O O8 0.500000 0.500000 0.500000
O O9 0.292515 0.333109 0.562744
O O10 0.590824 0.363543 0.098095
O O11 0.846995 0.972659 0.449498
O O12 0.181696 0.838102 0.668621
O O13 0.918924 0.716480 0.034141
O O14 0.570165 0.064018 0.713254
O O15 0.500000 0.500000 0.000000
#
# Coordination Sequence:
#
# PCOD8034003 Si02
#       7
#     2   2   2   2   2   2   2
#     4  11  24  45  69  98 140 184 226 290 346 411
#     4  11  24  43  71 102 141 187 230 286 350 409
#     4  12  25  45  70 105 143 178 240 288 348 409
#     4  11  24  43  69 106 142 180 235 287 345 418
#     4  11  25  46  70 102 141 183 239 278 351 422
#     4  11  25  45  70 103 141 187 230 286 352 408
#     4  11  25  46  71 104 141 182 235 289 348 417
#
# _framework density 27.065411999999998
#
# number of rings (size 3 to 8) (size 9 to 14) (size 15 to 20)
#    0.000    0.857    1.429    6.000    6.000    0.571 
#    0.000   10.000    0.000    0.000    0.000    0.000 
#    0.000    0.000    0.000    0.000    0.000    0.000 
#
# Total GULP energy -173493.313774 kJ/mol
# GULP energy per Si atom -12392.379555 kJ/mol
# Density = 2.700381 g / cm^3
# Si number density = 27.065412 Si / 1000 Ang^3
#
#
#
# Elastic Constant Matrix: (Units=GPa)
#
#
# Indices 1 2 3 4 5 6 
#
# 1 94.7707 -4.3414 16.2357 3.0416 35.5469 -21.3832
# 2 -4.3414 92.3888 10.5863 2.2482 6.1388 -18.6913
# 3 16.2357 10.5863 86.0632 15.8126 26.9275 -14.2349
# 4 3.0416 2.2482 15.8126 50.9262 6.6050 -1.9370
# 5 35.5469 6.1388 26.9275 6.6050 52.8709 0.6446
# 6 -21.3832 -18.6913 -14.2349 -1.9370 0.6446 41.0974
#
#
#
# Elastic Compliance Matrix: (Units=1/GPa)
#
#
# Indices 1 2 3 4 5 6 
#
# 1 0.018564 0.004091 0.002556 0.000272 -0.014446 0.012644
# 2 0.004091 0.012936 0.000437 -0.000045 -0.004570 0.008233
# 3 0.002556 0.000437 0.015873 -0.003603 -0.009489 0.007006
# 4 0.000272 -0.000045 -0.003603 0.020859 -0.000946 -0.000129
# 5 -0.014446 -0.004570 -0.009489 -0.000946 0.034272 -0.013463
# 6 0.012644 0.008233 0.007006 -0.000129 -0.013463 0.037287
#
#
# Mechanical properties :
#
#
# Convention : Reuss Voigt Hill
#
# Bulk Modulus (GPa) = 16.24943 35.35376 25.80159
# Shear Modulus (GPa) = 34.21432 45.69505 39.95468
#
# Velocity S-wave (km/s) = 3.55932 4.11337 3.84634
# Velocity P-wave (km/s) = 4.78628 5.97080 5.41105
#
# Compressibility (1/GPa) = 0.06154064
#
# Stress axis : x y z
#
# Youngs Moduli (GPa) = 53.86779 77.30173 62.99985
#
# Poissons Ratio (x) = -0.31622 -0.16103
# Poissons Ratio (y) = -0.22036 -0.02752
# Poissons Ratio (z) = -0.13769 -0.03376
#
# Static dielectric constant tensor:
#      x y z
#    x 4.953060 -0.131520 0.263600 
#    y -0.131520 5.024840 0.125930 
#    z 0.263600 0.125930 5.120990 
# 
# 
# High freq. dielectric constant tensor:
#      x y z
#    x 2.091020 -0.002920 0.017850 
#    y -0.002920 2.107490 0.003780 
#    z 0.017850 0.003780 2.105580 
# 
# From -- ./inp_files/156813.got.cif
#   From: 2010.06.25/outbox.cif.g09.slc.cpg/sg2_79_cif.got.tgz:156813.got - 2010.06.27 13:26:56.
