data_PCOD8034623
_publ_section_title
;
Structure prediction by ZEFSAII (Michael W. Deem and Ramdas Pophale) SiO2 
 PCOD8034623
Probable space group: P -1
;
_chemical_formula_sum "Si O2"
_cell_formula_units_Z 14
_cell_length_a 12.168210
_cell_length_b 22.016901
_cell_length_c 9.258431
_cell_angle_alpha 140.695721
_cell_angle_beta 124.721875
_cell_angle_gamma 26.525433
_cell_volume 632.184661
_symmetry_space_group_name_H-M "P -1"
_symmetry_group_IT_number 2
_symmetry_cell_setting 'triclinic'
loop_
_space_group_symop_operation_xyz
x,y,z
-x,-y,-z
loop_
_atom_site_type_symbol
_atom_site_label
_atom_site_fract_x
_atom_site_fract_y
_atom_site_fract_z
Si Si1 0.385744 0.986368 0.788086
Si Si2 0.021213 0.968464 0.789666
Si Si3 0.856855 0.544982 0.341748
Si Si4 0.243973 0.065930 0.507081
Si Si5 0.479196 0.629641 0.334822
Si Si6 0.163760 0.767086 0.083283
Si Si7 0.173442 0.315568 0.877178
O O1 0.304253 0.070625 0.721386
O O2 0.132001 0.097650 0.886317
O O3 0.612300 0.765494 0.514116
O O4 0.500000 0.000000 0.000000
O O5 0.827630 0.162344 0.912512
O O6 0.957643 0.897489 0.573459
O O7 0.339149 0.781633 0.635153
O O8 0.000000 0.000000 0.000000
O O9 0.738480 0.515631 0.242817
O O10 0.000000 0.500000 0.500000
O O11 0.095568 0.382937 0.107624
O O12 0.111309 0.242497 0.653415
O O13 0.507755 0.865135 0.246085
O O14 0.231860 0.774311 0.300037
O O15 0.589290 0.462443 0.179371
O O16 0.000000 0.500000 0.000000
#
# Coordination Sequence:
#
# PCOD8034623 Si02
#       7
#     2   2   2   2   2   2   2
#     4  12  23  44  75 105 143 183 237 299 352 422
#     4  12  27  45  70 102 145 187 233 294 356 423
#     4  12  25  43  69 106 141 180 240 293 347 423
#     4  11  25  46  68 102 142 186 238 290 356 419
#     4  11  24  45  74 101 135 186 238 290 351 422
#     4  11  24  45  73 102 137 185 239 290 353 419
#     4  11  25  44  68  98 138 187 226 287 353 415
#
# _framework density 22.145426
#
# number of rings (size 3 to 8) (size 9 to 14) (size 15 to 20)
#    0.000    0.571    4.286    3.857    4.000    2.857 
#    2.571    0.000    0.000    0.000    0.000    0.000 
#    0.000    0.000    0.000    0.000    0.000    0.000 
#
# Total GULP energy -173560.638128 kJ/mol
# GULP energy per Si atom -12397.188438 kJ/mol
# Density = 2.209502 g / cm^3
# Si number density = 22.145426 Si / 1000 Ang^3
#
#
#
# Elastic Constant Matrix: (Units=GPa)
#
#
# Indices 1 2 3 4 5 6 
#
# 1 116.5597 51.7068 50.6350 -3.6134 5.8018 13.3399
# 2 51.7068 95.6239 52.8870 -0.7200 3.9512 10.3954
# 3 50.6350 52.8870 126.8508 -0.6268 -13.6292 21.9606
# 4 -3.6134 -0.7200 -0.6268 42.5607 7.1604 14.8714
# 5 5.8018 3.9512 -13.6292 7.1604 50.0927 3.9954
# 6 13.3399 10.3954 21.9606 14.8714 3.9954 42.2859
#
#
#
# Elastic Compliance Matrix: (Units=1/GPa)
#
#
# Indices 1 2 3 4 5 6 
#
# 1 0.012278 -0.004813 -0.002798 0.001839 -0.001931 -0.001701
# 2 -0.004813 0.015859 -0.004985 -0.000006 -0.002081 0.000407
# 3 -0.002798 -0.004985 0.012432 0.000899 0.004376 -0.005078
# 4 0.001839 -0.000006 0.000899 0.027877 -0.003111 -0.010556
# 5 -0.001931 -0.002081 0.004376 -0.003111 0.022158 -0.002152
# 6 -0.001701 0.000407 -0.005078 -0.010556 -0.002152 0.030638
#
#
# Mechanical properties :
#
#
# Convention : Reuss Voigt Hill
#
# Bulk Modulus (GPa) = 65.03200 72.16578 68.59889
# Shear Modulus (GPa) = 32.99049 39.24155 36.11602
#
# Velocity S-wave (km/s) = 3.86388 4.21407 4.04277
# Velocity P-wave (km/s) = 7.02394 7.50572 7.26882
#
# Compressibility (1/GPa) = 0.01537704
#
# Stress axis : x y z
#
# Youngs Moduli (GPa) = 81.44882 63.05667 80.43528
#
# Poissons Ratio (x) = 0.30347 0.22507
# Poissons Ratio (y) = 0.39199 0.40096
# Poissons Ratio (z) = 0.22791 0.31433
#
# Static dielectric constant tensor:
#      x y z
#    x 4.070170 0.334780 0.402220 
#    y 0.334780 3.776730 -0.090640 
#    z 0.402220 -0.090640 3.342480 
# 
# 
# High freq. dielectric constant tensor:
#      x y z
#    x 1.886020 0.007810 0.001800 
#    y 0.007810 1.854460 0.022680 
#    z 0.001800 0.022680 1.886540 
# 
# From -- ./inp_files/270423.got.cif
#   From: 2010.06.25/outbox.cif.g09.slc.cpg/sg2_136_cif.got.tgz:270423.got - 2010.06.27 13:26:56.
