data_PCOD8034846
_publ_section_title
;
Structure prediction by ZEFSAII (Michael W. Deem and Ramdas Pophale) SiO2 
 PCOD8034846
Probable space group: P -1
;
_chemical_formula_sum "Si O2"
_cell_formula_units_Z 12
_cell_length_a 10.552966
_cell_length_b 12.864893
_cell_length_c 15.914633
_cell_angle_alpha 154.742831
_cell_angle_beta 143.078684
_cell_angle_gamma 44.116769
_cell_volume 553.688645
_symmetry_space_group_name_H-M "P -1"
_symmetry_group_IT_number 2
_symmetry_cell_setting 'triclinic'
loop_
_space_group_symop_operation_xyz
x,y,z
-x,-y,-z
loop_
_atom_site_type_symbol
_atom_site_label
_atom_site_fract_x
_atom_site_fract_y
_atom_site_fract_z
Si Si1 0.042842 0.573787 0.482376
Si Si2 0.230346 0.822336 0.395104
Si Si3 0.043121 0.561209 0.956192
Si Si4 0.406969 0.315482 0.386290
Si Si5 0.267631 0.392064 0.795855
Si Si6 0.288395 0.059199 0.980401
O O1 0.208829 0.411993 0.402753
O O2 0.000000 0.500000 0.500000
O O3 0.817998 0.561538 0.308478
O O4 0.118029 0.850509 0.722379
O O5 0.427398 0.751168 0.503885
O O6 0.013243 0.715463 0.244464
O O7 0.240586 0.111157 0.602166
O O8 0.225483 0.690256 0.204543
O O9 0.130561 0.553942 0.903855
O O10 0.819758 0.700561 0.939101
O O11 0.500000 0.500000 0.500000
O O12 0.336281 0.081191 0.121893
O O13 0.500000 0.500000 0.000000
O O14 0.500000 0.000000 0.000000
#
# Coordination Sequence:
#
# PCOD8034846 Si02
#       6
#     2   2   2   2   2   2
#     4  12  28  47  69 107 149 187 236 295 355 428
#     4  11  25  44  75 102 137 185 240 296 351 419
#     4  11  24  46  72 106 139 183 238 301 354 412
#     4  12  24  46  74 107 139 184 239 293 356 424
#     4  12  28  47  69 102 147 193 234 283 358 430
#     4  12  24  45  76 103 139 185 238 295 357 421
#
# _framework density 21.672830999999999
#
# number of rings (size 3 to 8) (size 9 to 14) (size 15 to 20)
#    0.000    0.333    6.667    0.500    4.667    5.333 
#    0.000    0.000    0.000    0.000    0.000    0.000 
#    0.000    0.000    0.000    0.000    0.000    0.000 
#
# Total GULP energy -148753.719055 kJ/mol
# GULP energy per Si atom -12396.143255 kJ/mol
# Density = 2.162350 g / cm^3
# Si number density = 21.672831 Si / 1000 Ang^3
#
#
#
# Elastic Constant Matrix: (Units=GPa)
#
#
# Indices 1 2 3 4 5 6 
#
# 1 153.8483 69.9311 70.6678 0.4124 -4.2222 0.5652
# 2 69.9311 148.2578 63.8772 -30.3514 -12.3028 9.9901
# 3 70.6678 63.8772 142.0948 -31.3774 -20.9519 2.7229
# 4 0.4124 -30.3514 -31.3774 40.6214 6.3525 -6.8308
# 5 -4.2222 -12.3028 -20.9519 6.3525 32.4744 -4.5936
# 6 0.5652 9.9901 2.7229 -6.8308 -4.5936 31.6331
#
#
#
# Elastic Compliance Matrix: (Units=1/GPa)
#
#
# Indices 1 2 3 4 5 6 
#
# 1 0.011000 -0.004551 -0.005392 -0.007344 -0.002368 -0.000225
# 2 -0.004551 0.010927 -0.000852 0.007071 0.001393 -0.001567
# 3 -0.005392 -0.000852 0.012863 0.008777 0.005842 0.002002
# 4 -0.007344 0.007071 0.008777 0.037532 0.000804 0.005364
# 5 -0.002368 0.001393 0.005842 0.000804 0.035246 0.004391
# 6 -0.000225 -0.001567 0.002002 0.005364 0.004391 0.033735
#
#
# Mechanical properties :
#
#
# Convention : Reuss Voigt Hill
#
# Bulk Modulus (GPa) = 75.74490 94.79480 85.26985
# Shear Modulus (GPa) = 29.88751 36.92741 33.40746
#
# Velocity S-wave (km/s) = 3.71756 4.13226 3.93038
# Velocity P-wave (km/s) = 7.31109 8.16097 7.74769
#
# Compressibility (1/GPa) = 0.01320221
#
# Stress axis : x y z
#
# Youngs Moduli (GPa) = 90.90512 91.51253 77.74058
#
# Poissons Ratio (x) = 0.41643 0.41916
# Poissons Ratio (y) = 0.41367 0.06626
# Poissons Ratio (z) = 0.49014 0.07799
#
# Static dielectric constant tensor:
#      x y z
#    x 3.616470 0.076780 -0.537080 
#    y 0.076780 4.058260 -0.202130 
#    z -0.537080 -0.202130 4.356480 
# 
# 
# High freq. dielectric constant tensor:
#      x y z
#    x 1.844610 0.007900 -0.017000 
#    y 0.007900 1.854640 -0.014380 
#    z -0.017000 -0.014380 1.876800 
# 
# From -- ./inp_files/222801.got.cif
#   From: 2010.06.25/outbox.cif.g09.slc.cpg/sg2_112_cif.got.tgz:222801.got - 2010.06.27 13:26:56.
