data_PCOD8034374
_publ_section_title
;
Structure prediction by ZEFSAII (Michael W. Deem and Ramdas Pophale) SiO2 
 PCOD8034374
Probable space group: P -1
;
_chemical_formula_sum "Si O2"
_cell_formula_units_Z 16
_cell_length_a 9.188381
_cell_length_b 12.772045
_cell_length_c 8.281504
_cell_angle_alpha 47.624812
_cell_angle_beta 88.801173
_cell_angle_gamma 79.657339
_cell_volume 699.571896
_symmetry_space_group_name_H-M "P -1"
_symmetry_group_IT_number 2
_symmetry_cell_setting 'triclinic'
loop_
_space_group_symop_operation_xyz
x,y,z
-x,-y,-z
loop_
_atom_site_type_symbol
_atom_site_label
_atom_site_fract_x
_atom_site_fract_y
_atom_site_fract_z
Si Si1 0.474590 0.078765 0.747116
Si Si2 0.689229 0.564346 0.040393
Si Si3 0.840936 0.881107 0.445666
Si Si4 0.264375 0.143167 0.170494
Si Si5 0.553395 0.596415 0.664834
Si Si6 0.031475 0.574307 0.664890
Si Si7 0.819929 0.407933 0.690173
Si Si8 0.982469 0.096509 0.058063
O O1 0.312352 0.069879 0.699168
O O2 0.491587 0.245501 0.582213
O O3 0.599116 0.995350 0.706427
O O4 0.500000 0.000000 0.000000
O O5 0.592327 0.459207 0.226293
O O6 0.862562 0.476247 0.129856
O O7 0.672903 0.710362 0.996951
O O8 0.647885 0.610260 0.809744
O O9 0.814795 0.857309 0.656576
O O10 0.938046 0.737178 0.511480
O O11 0.934757 0.005718 0.300989
O O12 0.139171 0.142305 0.038350
O O13 0.647919 0.482049 0.655313
O O14 0.144027 0.554938 0.530708
O O15 0.920453 0.468133 0.755719
O O16 0.847938 0.235823 0.891690
O O17 0.000000 0.000000 0.000000
#
# Coordination Sequence:
#
# PCOD8034374 Si02
#       8
#     2   2   2   2   2   2   2   2
#     4  12  28  47  74 105 155 195 240 303 369 438
#     4  11  26  47  76 107 147 191 246 302 359 431
#     4  12  26  47  72 109 149 191 248 300 364 444
#     4  12  27  48  72 105 145 199 240 304 369 432
#     4  11  27  48  74 111 147 191 249 296 361 441
#     4  11  24  44  76 105 144 189 238 306 361 429
#     4  11  24  44  73 104 147 187 242 301 362 430
#     4  12  26  46  72 109 145 192 244 303 369 437
#
# _framework density 22.871131999999999
#
# number of rings (size 3 to 8) (size 9 to 14) (size 15 to 20)
#    0.000    0.500    5.000    1.500    7.000    3.500 
#    0.000    0.000    0.000    0.000    0.000    0.000 
#    0.000    0.000    0.000    0.000    0.000    0.000 
#
# Total GULP energy -198495.126046 kJ/mol
# GULP energy per Si atom -12405.945378 kJ/mol
# Density = 2.281908 g / cm^3
# Si number density = 22.871132 Si / 1000 Ang^3
#
#
#
# Elastic Constant Matrix: (Units=GPa)
#
#
# Indices 1 2 3 4 5 6 
#
# 1 78.8746 36.9454 28.2455 -8.6379 13.6490 -4.9434
# 2 36.9454 111.0750 40.8862 -26.1947 0.3272 -7.3897
# 3 28.2455 40.8862 119.7993 -23.2311 0.2378 5.9301
# 4 -8.6379 -26.1947 -23.2311 44.9924 -1.1541 5.0921
# 5 13.6490 0.3272 0.2378 -1.1541 41.6957 -3.3152
# 6 -4.9434 -7.3897 5.9301 5.0921 -3.3152 45.2255
#
#
#
# Elastic Compliance Matrix: (Units=1/GPa)
#
#
# Indices 1 2 3 4 5 6 
#
# 1 0.016719 -0.004800 -0.002577 -0.001180 -0.005364 0.001121
# 2 -0.004800 0.012758 -0.002284 0.005213 0.001740 0.001400
# 3 -0.002577 -0.002284 0.010621 0.003954 0.000716 -0.002440
# 4 -0.001180 0.005213 0.003954 0.027417 0.000858 -0.002820
# 5 -0.005364 0.001740 0.000716 0.000858 0.025857 0.001403
# 6 0.001121 0.001400 -0.002440 -0.002820 0.001403 0.023203
#
#
# Mechanical properties :
#
#
# Convention : Reuss Voigt Hill
#
# Bulk Modulus (GPa) = 48.13766 57.98924 53.06345
# Shear Modulus (GPa) = 35.00862 39.96085 37.48473
#
# Velocity S-wave (km/s) = 3.91665 4.18451 4.05279
# Velocity P-wave (km/s) = 6.44566 6.98259 6.71949
#
# Compressibility (1/GPa) = 0.02077376
#
# Stress axis : x y z
#
# Youngs Moduli (GPa) = 59.81209 78.38388 94.15686
#
# Poissons Ratio (x) = 0.37626 0.24267
# Poissons Ratio (y) = 0.28711 0.21507
# Poissons Ratio (z) = 0.15415 0.17904
#
# Static dielectric constant tensor:
#      x y z
#    x 4.313360 0.058060 -0.062580 
#    y 0.058060 4.289810 -0.109730 
#    z -0.062580 -0.109730 4.138110 
# 
# 
# High freq. dielectric constant tensor:
#      x y z
#    x 1.910690 -0.001390 -0.000260 
#    y -0.001390 1.909120 -0.005910 
#    z -0.000260 -0.005910 1.912500 
# 
# From -- ./inp_files/184208.got.cif
#   From: 2010.06.25/outbox.cif.g09.slc.cpg/sg2_93_cif.got.tgz:184208.got - 2010.06.27 13:26:56.
