data_PCOD8034827
_publ_section_title
;
Structure prediction by ZEFSAII (Michael W. Deem and Ramdas Pophale) SiO2 
 PCOD8034827
Probable space group: P -1
;
_chemical_formula_sum "Si O2"
_cell_formula_units_Z 16
_cell_length_a 20.912171
_cell_length_b 11.302359
_cell_length_c 9.265099
_cell_angle_alpha 50.239005
_cell_angle_beta 38.657582
_cell_angle_gamma 33.784664
_cell_volume 760.390649
_symmetry_space_group_name_H-M "P -1"
_symmetry_group_IT_number 2
_symmetry_cell_setting 'triclinic'
loop_
_space_group_symop_operation_xyz
x,y,z
-x,-y,-z
loop_
_atom_site_type_symbol
_atom_site_label
_atom_site_fract_x
_atom_site_fract_y
_atom_site_fract_z
Si Si1 0.596031 0.304538 0.877468
Si Si2 0.107651 0.820958 0.563539
Si Si3 0.916431 0.125534 0.907536
Si Si4 0.373978 0.206195 0.976918
Si Si5 0.873340 0.550043 0.261100
Si Si6 0.893377 0.507954 0.596544
Si Si7 0.377389 0.063643 0.766260
Si Si8 0.406662 0.507574 0.770529
O O1 0.748034 0.227360 0.638621
O O2 0.502727 0.377149 0.842405
O O3 0.500000 0.500000 0.000000
O O4 0.616031 0.121869 0.062565
O O5 0.151149 0.602639 0.617504
O O6 0.000000 0.000000 0.500000
O O7 0.009404 0.922756 0.797247
O O8 0.930057 0.290188 0.714661
O O9 0.747737 0.255414 0.105168
O O10 0.000000 0.000000 0.000000
O O11 0.361423 0.171171 0.860287
O O12 0.377223 0.385075 0.829710
O O13 0.246176 0.289605 0.237411
O O14 0.500000 0.000000 0.000000
O O15 0.886392 0.557722 0.402719
O O16 0.749499 0.782013 0.238629
O O17 0.000000 0.500000 0.000000
O O18 0.000000 0.500000 0.500000
O O19 0.500000 0.000000 0.500000
O O20 0.500000 0.500000 0.500000
#
# Coordination Sequence:
#
# PCOD8034827 Si02
#       8
#     2   2   2   2   2   2   2   2
#     4  12  27  47  75 105 148 195 243 307 371 440
#     4  12  25  47  74 103 150 192 246 304 369 437
#     4  11  26  45  74 107 142 192 243 304 366 435
#     4  11  24  46  72 100 146 191 239 299 365 431
#     4  12  27  47  73 109 148 192 247 302 369 441
#     4  11  26  47  73 102 146 190 241 302 365 439
#     4  12  27  46  74 110 146 194 247 299 371 439
#     4  11  26  47  71 107 145 190 248 301 368 437
#
# _framework density 21.041816000000001
#
# number of rings (size 3 to 8) (size 9 to 14) (size 15 to 20)
#    0.000    0.500    2.500    4.500   14.000    1.000 
#    0.000    0.000    0.000    0.000    0.000    0.000 
#    0.000    0.000    0.000    0.000    0.000    0.000 
#
# Total GULP energy -198242.708050 kJ/mol
# GULP energy per Si atom -12390.169253 kJ/mol
# Density = 2.099392 g / cm^3
# Si number density = 21.041816 Si / 1000 Ang^3
#
#
#
# Elastic Constant Matrix: (Units=GPa)
#
#
# Indices 1 2 3 4 5 6 
#
# 1 149.6315 64.4120 80.7632 1.9652 17.7238 -10.6449
# 2 64.4120 132.8536 71.6924 7.3454 4.8621 -22.3269
# 3 80.7632 71.6924 188.9254 16.4133 5.5821 -9.3192
# 4 1.9652 7.3454 16.4133 44.2452 -6.4382 6.7558
# 5 17.7238 4.8621 5.5821 -6.4382 54.4658 1.9193
# 6 -10.6449 -22.3269 -9.3192 6.7558 1.9193 49.5521
#
#
#
# Elastic Compliance Matrix: (Units=1/GPa)
#
#
# Indices 1 2 3 4 5 6 
#
# 1 0.009985 -0.003106 -0.003078 0.000817 -0.002566 0.000155
# 2 -0.003106 0.011199 -0.002600 -0.001384 -0.000030 0.004080
# 3 -0.003078 -0.002600 0.007786 -0.002286 0.000168 -0.000063
# 4 0.000817 -0.001384 -0.002286 0.024773 0.003175 -0.004379
# 5 -0.002566 -0.000030 0.000168 0.003175 0.019617 -0.001726
# 6 0.000155 0.004080 -0.000063 -0.004379 -0.001726 0.022704
#
#
# Mechanical properties :
#
#
# Convention : Reuss Voigt Hill
#
# Bulk Modulus (GPa) = 87.68747 100.57173 94.12960
# Shear Modulus (GPa) = 42.57802 46.62217 44.60010
#
# Velocity S-wave (km/s) = 4.50321 4.71222 4.60890
# Velocity P-wave (km/s) = 8.29469 8.80378 8.55303
#
# Compressibility (1/GPa) = 0.01140414
#
# Stress axis : x y z
#
# Youngs Moduli (GPa) = 100.14738 89.29399 128.43944
#
# Poissons Ratio (x) = 0.27732 0.39528
# Poissons Ratio (y) = 0.31102 0.33390
# Poissons Ratio (z) = 0.30821 0.23214
#
# Static dielectric constant tensor:
#      x y z
#    x 3.691070 0.309480 -0.103650 
#    y 0.309480 3.722040 0.179050 
#    z -0.103650 0.179050 3.973630 
# 
# 
# High freq. dielectric constant tensor:
#      x y z
#    x 1.841780 -0.008150 0.005830 
#    y -0.008150 1.844080 0.006540 
#    z 0.005830 0.006540 1.846750 
# 
# From -- ./inp_files/262471.got.cif
#   From: 2010.06.25/outbox.cif.g09.slc.cpg/sg2_132_cif.got.tgz:262471.got - 2010.06.27 13:26:56.
