data_PCOD8034480
_publ_section_title
;
Structure prediction by ZEFSAII (Michael W. Deem and Ramdas Pophale) SiO2 
 PCOD8034480
Probable space group: P -1
;
_chemical_formula_sum "Si O2"
_cell_formula_units_Z 14
_cell_length_a 7.848902
_cell_length_b 7.226658
_cell_length_c 17.372242
_cell_angle_alpha 64.043108
_cell_angle_beta 55.618100
_cell_angle_gamma 36.544469
_cell_volume 483.974719
_symmetry_space_group_name_H-M "P -1"
_symmetry_group_IT_number 2
_symmetry_cell_setting 'triclinic'
loop_
_space_group_symop_operation_xyz
x,y,z
-x,-y,-z
loop_
_atom_site_type_symbol
_atom_site_label
_atom_site_fract_x
_atom_site_fract_y
_atom_site_fract_z
Si Si1 0.641167 0.028836 0.169538
Si Si2 0.567696 0.134534 0.549551
Si Si3 0.148359 0.874826 0.265452
Si Si4 0.844446 0.625590 0.895667
Si Si5 0.758144 0.396263 0.103378
Si Si6 0.913942 0.752714 0.661418
Si Si7 0.489933 0.287262 0.377228
O O1 0.490119 0.103581 0.109329
O O2 0.803630 0.128145 0.115026
O O3 0.374131 0.200772 0.272808
O O4 0.911751 0.655093 0.177058
O O5 0.593386 0.265865 0.444555
O O6 0.231194 0.400441 0.626806
O O7 0.829946 0.985114 0.574618
O O8 0.646833 0.839004 0.559456
O O9 0.405392 0.696377 0.166902
O O10 0.232415 0.640364 0.351106
O O11 0.104096 0.131549 0.270461
O O12 0.805196 0.070378 0.283914
O O13 0.987611 0.736021 0.870645
O O14 0.807530 0.500492 0.998650
#
# Coordination Sequence:
#
# PCOD8034480 Si02
#       7
#     2   2   2   2   2   2   2
#     4  12  25  47  72 105 144 189 236 295 356 424
#     4  11  24  45  68  99 135 181 233 290 343 429
#     4  12  26  43  67 103 138 182 233 290 349 426
#     4  11  27  46  72 108 140 187 242 294 351 435
#     4  11  26  47  74 103 147 187 236 298 359 416
#     4  12  25  43  68 101 143 177 236 289 347 422
#     4  11  25  44  70  98 134 182 236 281 358 417
#
# _framework density 28.927130999999999
#
# number of rings (size 3 to 8) (size 9 to 14) (size 15 to 20)
#    0.000    0.571    1.429    6.000    2.000   11.429 
#    0.000    0.000    0.000    0.000    0.000    0.000 
#    0.000    0.000    0.000    0.000    0.000    0.000 
#
# Total GULP energy -173698.161827 kJ/mol
# GULP energy per Si atom -12407.011559 kJ/mol
# Density = 2.886129 g / cm^3
# Si number density = 28.927131 Si / 1000 Ang^3
#
#
#
# Elastic Constant Matrix: (Units=GPa)
#
#
# Indices 1 2 3 4 5 6 
#
# 1 86.0944 15.9242 -8.6086 -9.6418 -18.5286 8.3384
# 2 15.9242 105.0118 -26.5946 9.1574 -5.1134 9.3801
# 3 -8.6086 -26.5946 50.0292 0.2528 5.9927 15.4350
# 4 -9.6418 9.1574 0.2528 31.3816 9.3899 2.4347
# 5 -18.5286 -5.1134 5.9927 9.3899 40.2602 -9.3480
# 6 8.3384 9.3801 15.4350 2.4347 -9.3480 44.5493
#
#
#
# Elastic Compliance Matrix: (Units=1/GPa)
#
#
# Indices 1 2 3 4 5 6 
#
# 1 0.013621 -0.001569 0.001556 0.003413 0.004581 -0.001983
# 2 -0.001569 0.012539 0.008061 -0.003612 -0.000667 -0.005082
# 3 0.001556 0.008061 0.029399 0.000706 -0.005925 -0.013456
# 4 0.003413 -0.003612 0.000706 0.036806 -0.008486 -0.003915
# 5 0.004581 -0.000667 -0.005925 -0.008486 0.031685 0.008448
# 6 -0.001983 -0.005082 -0.013456 -0.003915 0.008448 0.030537
#
#
# Mechanical properties :
#
#
# Convention : Reuss Voigt Hill
#
# Bulk Modulus (GPa) = 13.95571 22.50861 18.23216
# Shear Modulus (GPa) = 30.79273 40.59919 35.69596
#
# Velocity S-wave (km/s) = 3.26620 3.75039 3.51664
# Velocity P-wave (km/s) = 4.36566 5.15286 4.77551
#
# Compressibility (1/GPa) = 0.07165525
#
# Stress axis : x y z
#
# Youngs Moduli (GPa) = 73.41479 79.75303 34.01468
#
# Poissons Ratio (x) = 0.12513 -0.05292
# Poissons Ratio (y) = 0.11519 -0.27421
# Poissons Ratio (z) = -0.11421 -0.64292
#
# Static dielectric constant tensor:
#      x y z
#    x 5.440090 -0.211400 0.158210 
#    y -0.211400 5.230030 -0.243820 
#    z 0.158210 -0.243820 5.522570 
# 
# 
# High freq. dielectric constant tensor:
#      x y z
#    x 2.176220 -0.008110 0.005020 
#    y -0.008110 2.184880 -0.018750 
#    z 0.005020 -0.018750 2.198720 
# 
# From -- ./inp_files/587890.got.cif
#   From: 2010.06.25/outbox.cif.g09.slc.cpg/sg2_294_cif.got.tgz:587890.got - 2010.06.27 13:26:56.
