data_PCOD8034279
_publ_section_title
;
Structure prediction by ZEFSAII (Michael W. Deem and Ramdas Pophale) SiO2 
 PCOD8034279
Probable space group: P -1
;
_chemical_formula_sum "Si O2"
_cell_formula_units_Z 14
_cell_length_a 12.826306
_cell_length_b 12.253711
_cell_length_c 6.340585
_cell_angle_alpha 113.048601
_cell_angle_beta 115.002309
_cell_angle_gamma 43.062642
_cell_volume 611.143282
_symmetry_space_group_name_H-M "P -1"
_symmetry_group_IT_number 2
_symmetry_cell_setting 'triclinic'
loop_
_space_group_symop_operation_xyz
x,y,z
-x,-y,-z
loop_
_atom_site_type_symbol
_atom_site_label
_atom_site_fract_x
_atom_site_fract_y
_atom_site_fract_z
Si Si1 0.584633 0.506194 0.269798
Si Si2 0.820730 0.944126 0.338685
Si Si3 0.437647 0.955538 0.086351
Si Si4 0.071498 0.689165 0.054644
Si Si5 0.718847 0.264006 0.572233
Si Si6 0.802185 0.805762 0.615073
Si Si7 0.265804 0.386202 0.757022
O O1 0.690574 0.343959 0.379753
O O2 0.448601 0.657758 0.415411
O O3 0.702185 0.526795 0.307868
O O4 0.500000 0.500000 0.000000
O O5 0.756868 0.908170 0.444490
O O6 0.979958 0.770454 0.258876
O O7 0.838054 0.069360 0.512676
O O8 0.691430 0.040960 0.119209
O O9 0.570572 0.779466 0.155745
O O10 0.353705 0.088941 0.298205
O O11 0.500000 0.000000 0.000000
O O12 0.196687 0.708120 0.165437
O O13 0.170882 0.498018 0.968775
O O14 0.948846 0.771246 0.818285
O O15 0.837443 0.643362 0.468009
#
# Coordination Sequence:
#
# PCOD8034279 Si02
#       7
#     2   2   2   2   2   2   2
#     4  11  24  44  70 107 135 177 236 291 345 398
#     4  11  25  46  70 101 144 183 231 284 347 416
#     4  11  24  44  70 106 135 176 233 285 347 408
#     4  11  27  46  66 107 140 190 230 280 347 413
#     4  11  25  45  71 101 139 185 235 283 344 408
#     4  11  26  47  69 106 139 186 230 279 358 410
#     4  12  24  46  75 101 144 178 233 294 343 413
#
# _framework density 22.907883999999999
#
# number of rings (size 3 to 8) (size 9 to 14) (size 15 to 20)
#    0.000    0.857    2.857    3.000    6.000    2.286 
#    0.000    0.000    0.000    0.000    0.000    0.000 
#    0.000    0.000    0.000    0.000    0.000    0.000 
#
# Total GULP energy -173559.947898 kJ/mol
# GULP energy per Si atom -12397.139136 kJ/mol
# Density = 2.285574 g / cm^3
# Si number density = 22.907884 Si / 1000 Ang^3
#
#
#
# Elastic Constant Matrix: (Units=GPa)
#
#
# Indices 1 2 3 4 5 6 
#
# 1 98.2286 63.4963 47.5989 8.8922 -11.0285 7.4496
# 2 63.4963 117.0520 63.2198 34.2225 -2.5458 3.4330
# 3 47.5989 63.2198 118.4611 22.4913 8.6745 6.4932
# 4 8.8922 34.2225 22.4913 44.7797 -5.0599 -0.3367
# 5 -11.0285 -2.5458 8.6745 -5.0599 40.3797 -2.5637
# 6 7.4496 3.4330 6.4932 -0.3367 -2.5637 41.4619
#
#
#
# Elastic Compliance Matrix: (Units=1/GPa)
#
#
# Indices 1 2 3 4 5 6 
#
# 1 0.018458 -0.009597 -0.003836 0.006257 0.005949 -0.001502
# 2 -0.009597 0.019113 -0.004193 -0.010798 -0.001830 0.000597
# 3 -0.003836 -0.004193 0.013247 -0.003223 -0.004648 -0.001352
# 4 0.006257 -0.010798 -0.003223 0.031615 0.005738 0.000886
# 5 0.005949 -0.001830 -0.004648 0.005738 0.028093 0.001594
# 6 -0.001502 0.000597 -0.001352 0.000886 0.001594 0.024656
#
#
# Mechanical properties :
#
#
# Convention : Reuss Voigt Hill
#
# Bulk Modulus (GPa) = 64.23970 75.81907 70.02939
# Shear Modulus (GPa) = 28.47003 35.95273 32.21138
#
# Velocity S-wave (km/s) = 3.52917 3.96592 3.75390
# Velocity P-wave (km/s) = 6.68657 7.35803 7.03032
#
# Compressibility (1/GPa) = 0.01556670
#
# Stress axis : x y z
#
# Youngs Moduli (GPa) = 54.17642 52.31983 75.48899
#
# Poissons Ratio (x) = 0.50209 0.28960
# Poissons Ratio (y) = 0.51991 0.31651
# Poissons Ratio (z) = 0.20784 0.21937
#
# Static dielectric constant tensor:
#      x y z
#    x 4.304250 -0.001010 0.046410 
#    y -0.001010 4.400520 0.160250 
#    z 0.046410 0.160250 4.360840 
# 
# 
# High freq. dielectric constant tensor:
#      x y z
#    x 1.905180 -0.018220 0.007050 
#    y -0.018220 1.902010 0.011990 
#    z 0.007050 0.011990 1.916970 
# 
# From -- ./inp_files/68933.got.cif
#   From: 2010.06.25/outbox.cif.g09.slc.cpg/sg2_35_cif.got.tgz:68933.got - 2010.06.27 13:26:56.
