data_PCOD8034375
_publ_section_title
;
Structure prediction by ZEFSAII (Michael W. Deem and Ramdas Pophale) SiO2 
 PCOD8034375
Probable space group: P -1
;
_chemical_formula_sum "Si O2"
_cell_formula_units_Z 16
_cell_length_a 11.493842
_cell_length_b 21.390850
_cell_length_c 18.630378
_cell_angle_alpha 161.321666
_cell_angle_beta 149.150730
_cell_angle_gamma 41.052611
_cell_volume 701.647509
_symmetry_space_group_name_H-M "P -1"
_symmetry_group_IT_number 2
_symmetry_cell_setting 'triclinic'
loop_
_space_group_symop_operation_xyz
x,y,z
-x,-y,-z
loop_
_atom_site_type_symbol
_atom_site_label
_atom_site_fract_x
_atom_site_fract_y
_atom_site_fract_z
Si Si1 0.275615 0.965374 0.398817
Si Si2 0.885161 0.775558 0.878528
Si Si3 0.343130 0.083302 0.779464
Si Si4 0.834902 0.053287 0.029119
Si Si5 0.586473 0.574465 0.706673
Si Si6 0.892289 0.503414 0.370132
Si Si7 0.116219 0.689484 0.149143
Si Si8 0.639042 0.629930 0.029207
O O1 0.282980 0.187057 0.672341
O O2 0.500000 0.000000 0.500000
O O3 0.278405 0.809717 0.296909
O O4 0.999434 0.878299 0.126051
O O5 0.631847 0.580860 0.530829
O O6 0.108434 0.706985 0.896497
O O7 0.835828 0.941588 0.982384
O O8 0.354683 0.276449 0.944840
O O9 0.115272 0.869850 0.404228
O O10 0.566900 0.001725 0.798268
O O11 0.361181 0.180115 0.975494
O O12 0.942146 0.298133 0.371880
O O13 0.000000 0.000000 0.000000
O O14 0.500000 0.500000 0.500000
O O15 0.843017 0.548791 0.828197
O O16 0.000000 0.500000 0.500000
O O17 0.631491 0.520250 0.257806
O O18 0.206460 0.518828 0.047371
#
# Coordination Sequence:
#
# PCOD8034375 Si02
#       8
#     2   2   2   2   2   2   2   2
#     4  11  25  45  68 108 146 183 235 301 364 432
#     4  12  25  45  70 102 146 187 235 298 359 422
#     4  11  25  46  72 108 139 182 246 301 353 421
#     4  12  24  39  72 109 141 181 234 295 367 427
#     4  12  26  52  74  97 149 198 245 298 352 429
#     4  12  21  40  67 102 145 179 229 295 357 428
#     4  11  27  48  74 101 143 194 243 294 362 426
#     4  11  24  44  73 105 142 186 236 295 368 430
#
# _framework density 22.803473
#
# number of rings (size 3 to 8) (size 9 to 14) (size 15 to 20)
#    0.000    0.500    6.250    1.125    5.250    3.000 
#    4.500    1.250    0.000    0.000    0.000    0.000 
#    0.000    0.000    0.000    0.000    0.000    0.000 
#
# Total GULP energy -198281.736462 kJ/mol
# GULP energy per Si atom -12392.608529 kJ/mol
# Density = 2.275157 g / cm^3
# Si number density = 22.803473 Si / 1000 Ang^3
#
#
#
# Elastic Constant Matrix: (Units=GPa)
#
#
# Indices 1 2 3 4 5 6 
#
# 1 70.5323 34.3451 27.8851 -1.0303 -18.6008 -3.6620
# 2 34.3451 157.4312 49.1752 4.8290 -7.8320 4.2600
# 3 27.8851 49.1752 141.2806 -14.7382 -16.8172 0.8885
# 4 -1.0303 4.8290 -14.7382 41.6043 -3.2468 2.5166
# 5 -18.6008 -7.8320 -16.8172 -3.2468 40.6937 -5.0546
# 6 -3.6620 4.2600 0.8885 2.5166 -5.0546 22.5839
#
#
#
# Elastic Compliance Matrix: (Units=1/GPa)
#
#
# Indices 1 2 3 4 5 6 
#
# 1 0.018866 -0.003397 -0.001553 0.000608 0.008059 0.005497
# 2 -0.003397 0.007892 -0.002428 -0.001848 -0.001441 -0.002061
# 3 -0.001553 -0.002428 0.008943 0.003626 0.002818 0.000081
# 4 0.000608 -0.001848 0.003626 0.025917 0.003258 -0.001854
# 5 0.008059 -0.001441 0.002818 0.003258 0.030387 0.007906
# 6 0.005497 -0.002061 0.000081 -0.001854 0.007906 0.047532
#
#
# Mechanical properties :
#
#
# Convention : Reuss Voigt Hill
#
# Bulk Modulus (GPa) = 47.74431 65.78388 56.76409
# Shear Modulus (GPa) = 31.00317 38.16563 34.58440
#
# Velocity S-wave (km/s) = 3.69125 4.09550 3.89862
# Velocity P-wave (km/s) = 6.25698 7.16065 6.72402
#
# Compressibility (1/GPa) = 0.02094491
#
# Stress axis : x y z
#
# Youngs Moduli (GPa) = 53.00629 126.70708 111.82028
#
# Poissons Ratio (x) = 0.43043 0.17366
# Poissons Ratio (y) = 0.18007 0.27148
# Poissons Ratio (z) = 0.08232 0.30762
#
# Static dielectric constant tensor:
#      x y z
#    x 4.145110 -0.125750 -0.104070 
#    y -0.125750 4.014220 -0.188820 
#    z -0.104070 -0.188820 4.121900 
# 
# 
# High freq. dielectric constant tensor:
#      x y z
#    x 1.893940 -0.010490 0.001290 
#    y -0.010490 1.894450 -0.010310 
#    z 0.001290 -0.010310 1.925420 
# 
# From -- ./inp_files/570837.got.cif
#   From: 2010.06.25/outbox.cif.g09.slc.cpg/sg2_286_cif.got.tgz:570837.got - 2010.06.27 13:26:56.
