data_PCOD8034978
_publ_section_title
;
Structure prediction by ZEFSAII (Michael W. Deem and Ramdas Pophale) SiO2 
 PCOD8034978
Probable space group: P -1
;
_chemical_formula_sum "Si O2"
_cell_formula_units_Z 14
_cell_length_a 9.055721
_cell_length_b 11.691426
_cell_length_c 20.022567
_cell_angle_alpha 146.547409
_cell_angle_beta 137.860421
_cell_angle_gamma 65.954324
_cell_volume 643.623465
_symmetry_space_group_name_H-M "P -1"
_symmetry_group_IT_number 2
_symmetry_cell_setting 'triclinic'
loop_
_space_group_symop_operation_xyz
x,y,z
-x,-y,-z
loop_
_atom_site_type_symbol
_atom_site_label
_atom_site_fract_x
_atom_site_fract_y
_atom_site_fract_z
Si Si1 0.883186 0.316609 0.809797
Si Si2 0.512186 0.755638 0.459839
Si Si3 0.714378 0.422714 0.341545
Si Si4 0.189701 0.529770 0.754075
Si Si5 0.259428 0.995732 0.075400
Si Si6 0.404876 0.891020 0.625959
Si Si7 0.450233 0.565050 0.085563
O O1 0.753487 0.401547 0.752367
O O2 0.667744 0.041650 0.629421
O O3 0.000000 0.500000 0.000000
O O4 0.137687 0.340499 0.875917
O O5 0.701991 0.661865 0.465962
O O6 0.431689 0.733475 0.499774
O O7 0.695901 0.353038 0.223463
O O8 0.464349 0.190869 0.183877
O O9 0.000000 0.500000 0.500000
O O10 0.386116 0.461522 0.815195
O O11 0.894890 0.271239 0.524376
O O12 0.174887 0.721781 0.890160
O O13 0.395074 0.060876 0.224660
O O14 0.000000 0.000000 0.000000
O O15 0.478163 0.154191 0.748577
O O16 0.500000 0.500000 0.000000
#
# Coordination Sequence:
#
# PCOD8034978 Si02
#       7
#     2   2   2   2   2   2   2
#     4  11  24  47  69 108 143 189 234 293 360 435
#     4  11  27  44  75 103 146 190 240 291 361 431
#     4  12  28  49  73 106 145 191 244 302 353 422
#     4  12  27  48  75 105 146 188 240 304 365 420
#     4  12  29  50  76 103 144 200 245 290 359 436
#     4  12  26  48  72 109 145 189 238 299 362 438
#     4  12  25  43  75 107 146 181 236 299 369 423
#
# _framework density 21.751849
#
# number of rings (size 3 to 8) (size 9 to 14) (size 15 to 20)
#    0.000    0.286    4.286    3.429   10.000    2.286 
#    0.000    0.000    0.000    0.000    0.000    0.000 
#    0.000    0.000    0.000    0.000    0.000    0.000 
#
# Total GULP energy -173627.747609 kJ/mol
# GULP energy per Si atom -12401.981972 kJ/mol
# Density = 2.170234 g / cm^3
# Si number density = 21.751849 Si / 1000 Ang^3
#
#
#
# Elastic Constant Matrix: (Units=GPa)
#
#
# Indices 1 2 3 4 5 6 
#
# 1 149.9191 59.8678 48.4267 -29.4345 0.2753 3.6116
# 2 59.8678 156.6239 58.5475 -41.0238 -0.8905 -3.5723
# 3 48.4267 58.5475 103.7209 -30.1975 2.0668 3.1583
# 4 -29.4345 -41.0238 -30.1975 41.7579 0.7382 1.8085
# 5 0.2753 -0.8905 2.0668 0.7382 53.1819 -4.5478
# 6 3.6116 -3.5723 3.1583 1.8085 -4.5478 42.9946
#
#
#
# Elastic Compliance Matrix: (Units=1/GPa)
#
#
# Indices 1 2 3 4 5 6 
#
# 1 0.008660 -0.001772 -0.002196 0.002813 -0.000100 -0.000842
# 2 -0.001772 0.009812 -0.002934 0.006223 0.000282 0.000948
# 3 -0.002196 -0.002934 0.014078 0.005825 -0.000787 -0.001422
# 4 0.002813 0.006223 0.005825 0.036347 -0.000792 -0.001760
# 5 -0.000100 0.000282 -0.000787 -0.000792 0.019033 0.002136
# 6 -0.000842 0.000948 -0.001422 -0.001760 0.002136 0.023813
#
#
# Mechanical properties :
#
#
# Convention : Reuss Voigt Hill
#
# Bulk Modulus (GPa) = 53.34729 82.66086 68.00407
# Shear Modulus (GPa) = 37.93750 43.81500 40.87625
#
# Velocity S-wave (km/s) = 4.18078 4.49298 4.33969
# Velocity P-wave (km/s) = 6.91982 8.06226 7.51279
#
# Compressibility (1/GPa) = 0.01874510
#
# Stress axis : x y z
#
# Youngs Moduli (GPa) = 115.46999 101.91691 71.03345
#
# Poissons Ratio (x) = 0.18061 0.15601
# Poissons Ratio (y) = 0.20463 0.20841
# Poissons Ratio (z) = 0.25361 0.29902
#
# Static dielectric constant tensor:
#      x y z
#    x 4.291310 0.113170 -0.197760 
#    y 0.113170 4.221810 -0.599860 
#    z -0.197760 -0.599860 5.126450 
# 
# 
# High freq. dielectric constant tensor:
#      x y z
#    x 1.880420 0.004480 0.002870 
#    y 0.004480 1.862910 -0.010080 
#    z 0.002870 -0.010080 1.864050 
# 
# From -- ./inp_files/47535.got.cif
#   From: 2010.06.25/outbox.cif.g09.slc.cpg/sg2_24_cif.got.tgz:47535.got - 2010.06.27 13:26:56.
