data_PCOD8034838
_publ_section_title
;
Structure prediction by ZEFSAII (Michael W. Deem and Ramdas Pophale) SiO2 
 PCOD8034838
Probable space group: P -1
;
_chemical_formula_sum "Si O2"
_cell_formula_units_Z 16
_cell_length_a 9.485742
_cell_length_b 9.424403
_cell_length_c 14.065008
_cell_angle_alpha 113.840652
_cell_angle_beta 141.874451
_cell_angle_gamma 66.068127
_cell_volume 701.436699
_symmetry_space_group_name_H-M "P -1"
_symmetry_group_IT_number 2
_symmetry_cell_setting 'triclinic'
loop_
_space_group_symop_operation_xyz
x,y,z
-x,-y,-z
loop_
_atom_site_type_symbol
_atom_site_label
_atom_site_fract_x
_atom_site_fract_y
_atom_site_fract_z
Si Si1 0.189848 0.833044 0.314741
Si Si2 0.972144 0.940138 0.863251
Si Si3 0.665892 0.693331 0.595755
Si Si4 0.642496 0.539932 0.903279
Si Si5 0.629980 0.146703 0.101074
Si Si6 0.003405 0.913471 0.578096
Si Si7 0.228171 0.375117 0.581412
Si Si8 0.857629 0.512845 0.813716
O O1 0.422141 0.804452 0.492385
O O2 0.095164 0.674476 0.197703
O O3 0.203751 0.923192 0.246703
O O4 0.018453 0.948200 0.319394
O O5 0.208718 0.885077 0.915420
O O6 0.850935 0.788376 0.764935
O O7 0.000000 0.000000 0.000000
O O8 0.717854 0.629927 0.501816
O O9 0.689367 0.548144 0.642776
O O10 0.550671 0.691547 0.960990
O O11 0.446585 0.425918 0.765910
O O12 0.716941 0.592403 0.851505
O O13 0.881963 0.444458 0.049047
O O14 0.755493 0.179803 0.278076
O O15 0.500000 0.000000 0.000000
O O16 0.813431 0.795463 0.447313
O O17 0.000000 0.000000 0.500000
O O18 0.000000 0.500000 0.500000
#
# Coordination Sequence:
#
# PCOD8034838 Si02
#       8
#     2   2   2   2   2   2   2   2
#     4  11  24  47  69 104 141 187 244 301 350 439
#     4  11  26  45  72 103 145 189 246 301 370 433
#     4  12  25  44  69 106 139 186 247 298 362 426
#     4  11  24  46  72 103 148 188 245 292 373 437
#     4  11  24  48  69 102 145 188 236 308 359 441
#     4  11  26  44  71 105 137 184 242 294 370 432
#     4  12  24  47  73 100 148 186 236 306 362 437
#     4  11  27  42  73 105 143 196 239 299 364 440
#
# _framework density 22.810324999999999
#
# number of rings (size 3 to 8) (size 9 to 14) (size 15 to 20)
#    0.000    0.750    5.000    2.250    8.750    0.000 
#    2.250    1.250    0.000    0.000    0.000    0.000 
#    0.000    0.000    0.000    0.000    0.000    0.000 
#
# Total GULP energy -198274.741286 kJ/mol
# GULP energy per Si atom -12392.171330 kJ/mol
# Density = 2.275841 g / cm^3
# Si number density = 22.810325 Si / 1000 Ang^3
#
#
#
# Elastic Constant Matrix: (Units=GPa)
#
#
# Indices 1 2 3 4 5 6 
#
# 1 79.3069 27.4124 34.1059 -6.3057 -7.0605 -1.6721
# 2 27.4124 76.6433 21.2937 -5.3077 -11.7931 -10.7967
# 3 34.1059 21.2937 120.1599 -0.2575 6.8785 -4.0253
# 4 -6.3057 -5.3077 -0.2575 46.8847 3.0349 -11.5561
# 5 -7.0605 -11.7931 6.8785 3.0349 44.9870 -8.1768
# 6 -1.6721 -10.7967 -4.0253 -11.5561 -8.1768 28.7721
#
#
#
# Elastic Compliance Matrix: (Units=1/GPa)
#
#
# Indices 1 2 3 4 5 6 
#
# 1 0.016052 -0.004272 -0.003906 0.001514 0.001881 -0.000074
# 2 -0.004272 0.017442 -0.001893 0.003225 0.005594 0.008917
# 3 -0.003906 -0.001893 0.009899 -0.000654 -0.002684 -0.000578
# 4 0.001514 0.003225 -0.000654 0.024639 0.001623 0.011564
# 5 0.001881 0.005594 -0.002684 0.001623 0.026091 0.009900
# 6 -0.000074 0.008917 -0.000578 0.011564 0.009900 0.045475
#
#
# Mechanical properties :
#
#
# Convention : Reuss Voigt Hill
#
# Bulk Modulus (GPa) = 43.00934 49.08157 46.04545
# Shear Modulus (GPa) = 29.85254 37.01531 33.43392
#
# Velocity S-wave (km/s) = 3.62156 4.03270 3.83265
# Velocity P-wave (km/s) = 6.03189 6.57628 6.30996
#
# Compressibility (1/GPa) = 0.02325076
#
# Stress axis : x y z
#
# Youngs Moduli (GPa) = 62.29781 57.33394 101.01810
#
# Poissons Ratio (x) = 0.24494 0.39457
# Poissons Ratio (y) = 0.26615 0.19121
# Poissons Ratio (z) = 0.24333 0.10853
#
# Static dielectric constant tensor:
#      x y z
#    x 3.925410 0.140290 0.031950 
#    y 0.140290 4.143570 -0.218860 
#    z 0.031950 -0.218860 4.744420 
# 
# 
# High freq. dielectric constant tensor:
#      x y z
#    x 1.889500 -0.008170 0.006960 
#    y -0.008170 1.910080 0.004900 
#    z 0.006960 0.004900 1.916120 
# 
# From -- ./inp_files/495527.got.cif
#   From: 2010.06.25/outbox.cif.g09.slc.cpg/sg2_248_cif.got.tgz:495527.got - 2010.06.27 13:26:56.
