data_PCOD8034201
_publ_section_title
;
Structure prediction by ZEFSAII (Michael W. Deem and Ramdas Pophale) SiO2 
 PCOD8034201
Probable space group: P -1
;
_chemical_formula_sum "Si O2"
_cell_formula_units_Z 14
_cell_length_a 14.983040
_cell_length_b 5.147136
_cell_length_c 14.211716
_cell_angle_alpha 98.508310
_cell_angle_beta 30.241407
_cell_angle_gamma 97.585328
_cell_volume 545.901943
_symmetry_space_group_name_H-M "P -1"
_symmetry_group_IT_number 2
_symmetry_cell_setting 'triclinic'
loop_
_space_group_symop_operation_xyz
x,y,z
-x,-y,-z
loop_
_atom_site_type_symbol
_atom_site_label
_atom_site_fract_x
_atom_site_fract_y
_atom_site_fract_z
Si Si1 0.910430 0.555776 0.737731
Si Si2 0.505796 0.279939 0.588414
Si Si3 0.240484 0.519867 0.315736
Si Si4 0.421226 0.821177 0.771887
Si Si5 0.431553 0.029831 0.167296
Si Si6 0.941353 0.104111 0.835538
Si Si7 0.184169 0.032848 0.775467
O O1 0.747262 0.487955 0.811563
O O2 0.961313 0.313335 0.744948
O O3 0.057797 0.623660 0.529549
O O4 0.879189 0.815946 0.841174
O O5 0.525626 0.569742 0.626411
O O6 0.316142 0.263435 0.705218
O O7 0.511603 0.071884 0.655866
O O8 0.679613 0.220205 0.361043
O O9 0.271401 0.236316 0.318643
O O10 0.377541 0.742208 0.237924
O O11 0.429223 0.846720 0.879362
O O12 0.209393 0.805070 0.946813
O O13 0.500000 0.000000 0.000000
O O14 0.125917 0.090388 0.723831
O O15 0.000000 0.000000 0.000000
#
# Coordination Sequence:
#
# PCOD8034201 Si02
#       7
#     2   2   2   2   2   2   2
#     4  11  25  44  69 109 142 195 245 308 369 442
#     4  11  28  51  78 108 152 193 247 312 373 457
#     4  11  24  44  68 100 150 190 251 303 365 435
#     4  12  26  48  73 113 147 195 251 301 368 447
#     4  12  25  42  71 102 149 199 247 297 366 436
#     4  12  26  45  77 105 150 190 249 304 374 451
#     4  11  27  54  78 114 148 196 247 315 390 448
#
# _framework density 25.645629
#
# number of rings (size 3 to 8) (size 9 to 14) (size 15 to 20)
#    0.000    0.571    1.429    5.571    6.000    6.286 
#    0.000    0.000    0.000    0.000    0.000    0.000 
#    0.000    0.000    0.000    0.000    0.000    0.000 
#
# Total GULP energy -173496.013438 kJ/mol
# GULP energy per Si atom -12392.572388 kJ/mol
# Density = 2.558726 g / cm^3
# Si number density = 25.645629 Si / 1000 Ang^3
#
#
#
# Elastic Constant Matrix: (Units=GPa)
#
#
# Indices 1 2 3 4 5 6 
#
# 1 125.6378 53.8537 30.3796 10.6826 -10.8479 10.8579
# 2 53.8537 139.8135 28.3762 23.2216 0.8312 -9.0611
# 3 30.3796 28.3762 136.3982 6.9742 -3.8219 5.6117
# 4 10.6826 23.2216 6.9742 31.5663 2.8845 6.5900
# 5 -10.8479 0.8312 -3.8219 2.8845 32.4516 0.2844
# 6 10.8579 -9.0611 5.6117 6.5900 0.2844 39.8107
#
#
#
# Elastic Compliance Matrix: (Units=1/GPa)
#
#
# Indices 1 2 3 4 5 6 
#
# 1 0.010651 -0.004136 -0.001269 0.000172 0.003534 -0.003721
# 2 -0.004136 0.010445 -0.001130 -0.006931 -0.001209 0.004821
# 3 -0.001269 -0.001130 0.007923 -0.000339 0.000577 -0.000976
# 4 0.000172 -0.006931 -0.000339 0.038748 -0.003179 -0.007968
# 5 0.003534 -0.001209 0.000577 -0.003179 0.032387 -0.001026
# 6 -0.003721 0.004821 -0.000976 -0.007968 -0.001026 0.028695
#
#
# Mechanical properties :
#
#
# Convention : Reuss Voigt Hill
#
# Bulk Modulus (GPa) = 62.69248 69.67428 66.18338
# Shear Modulus (GPa) = 33.95934 40.04840 37.00387
#
# Velocity S-wave (km/s) = 3.64287 3.95600 3.80266
# Velocity P-wave (km/s) = 6.49560 6.93496 6.71887
#
# Compressibility (1/GPa) = 0.01595088
#
# Stress axis : x y z
#
# Youngs Moduli (GPa) = 93.88722 95.73509 126.21988
#
# Poissons Ratio (x) = 0.39595 0.16011
# Poissons Ratio (y) = 0.38831 0.14259
# Poissons Ratio (z) = 0.11910 0.10815
#
# Static dielectric constant tensor:
#      x y z
#    x 5.011370 0.162830 -0.095660 
#    y 0.162830 4.864420 0.167650 
#    z -0.095660 0.167650 4.936010 
# 
# 
# High freq. dielectric constant tensor:
#      x y z
#    x 2.041090 -0.001540 0.004440 
#    y -0.001540 2.017270 0.010250 
#    z 0.004440 0.010250 2.032870 
# 
# From -- ./inp_files/525907.got.cif
#   From: 2010.06.25/outbox.cif.g09.slc.cpg/sg2_263_cif.got.tgz:525907.got - 2010.06.27 13:26:56.
