data_PCOD8034956
_publ_section_title
;
Structure prediction by ZEFSAII (Michael W. Deem and Ramdas Pophale) SiO2 
 PCOD8034956
Probable space group: P -1
;
_chemical_formula_sum "Si O2"
_cell_formula_units_Z 16
_cell_length_a 15.657356
_cell_length_b 8.644343
_cell_length_c 10.529796
_cell_angle_alpha 138.098741
_cell_angle_beta 124.934403
_cell_angle_gamma 79.518404
_cell_volume 698.318702
_symmetry_space_group_name_H-M "P -1"
_symmetry_group_IT_number 2
_symmetry_cell_setting 'triclinic'
loop_
_space_group_symop_operation_xyz
x,y,z
-x,-y,-z
loop_
_atom_site_type_symbol
_atom_site_label
_atom_site_fract_x
_atom_site_fract_y
_atom_site_fract_z
Si Si1 0.672693 0.634409 0.916743
Si Si2 0.063423 0.776614 0.159893
Si Si3 0.446439 0.954892 0.565555
Si Si4 0.191304 0.546213 0.652737
Si Si5 0.934949 0.014683 0.329291
Si Si6 0.584836 0.995492 0.958985
Si Si7 0.967986 0.386677 0.244578
Si Si8 0.704508 0.788896 0.320941
O O1 0.651672 0.658081 0.062339
O O2 0.802978 0.813944 0.100496
O O3 0.647410 0.343517 0.682791
O O4 0.591982 0.726014 0.821495
O O5 0.184357 0.933563 0.433408
O O6 0.087302 0.753019 0.018150
O O7 0.986711 0.931856 0.201324
O O8 0.000000 0.500000 0.000000
O O9 0.541481 0.011567 0.790831
O O10 0.500000 0.000000 0.500000
O O11 0.392439 0.156956 0.656282
O O12 0.142319 0.684063 0.799680
O O13 0.257881 0.397554 0.681670
O O14 0.075236 0.329624 0.349504
O O15 0.285272 0.763905 0.773092
O O16 0.955634 0.304390 0.509608
O O17 0.000000 0.000000 0.500000
O O18 0.500000 0.000000 0.000000
#
# Coordination Sequence:
#
# PCOD8034956 Si02
#       8
#     2   2   2   2   2   2   2   2
#     4  12  25  49  76 103 148 190 243 306 369 431
#     4  12  24  38  72 108 143 185 237 289 358 442
#     4  12  30  49  75 107 142 196 250 305 369 434
#     4  11  26  48  76 101 153 195 233 307 368 437
#     4  12  21  41  70 106 141 184 232 294 364 430
#     4  12  27  50  78 107 144 193 252 311 367 426
#     4  11  24  47  67 109 150 189 235 290 374 443
#     4  12  26  46  72 108 142 192 244 302 359 435
#
# _framework density 22.912175000000001
#
# number of rings (size 3 to 8) (size 9 to 14) (size 15 to 20)
#    0.000    0.250    6.250    1.875    5.250    2.500 
#    2.250    0.000    0.000    0.000    0.000    0.000 
#    0.000    0.000    0.000    0.000    0.000    0.000 
#
# Total GULP energy -198364.008215 kJ/mol
# GULP energy per Si atom -12397.750513 kJ/mol
# Density = 2.286003 g / cm^3
# Si number density = 22.912175 Si / 1000 Ang^3
#
#
#
# Elastic Constant Matrix: (Units=GPa)
#
#
# Indices 1 2 3 4 5 6 
#
# 1 135.2496 31.2100 24.9982 -12.3361 2.5488 -5.9506
# 2 31.2100 118.4357 16.0541 -15.3617 -0.1458 -12.8721
# 3 24.9982 16.0541 77.6464 -0.9623 -1.5009 -3.3702
# 4 -12.3361 -15.3617 -0.9623 38.2585 8.1078 1.8388
# 5 2.5488 -0.1458 -1.5009 8.1078 37.9025 -0.1898
# 6 -5.9506 -12.8721 -3.3702 1.8388 -0.1898 41.1513
#
#
#
# Elastic Compliance Matrix: (Units=1/GPa)
#
#
# Indices 1 2 3 4 5 6 
#
# 1 0.008439 -0.001565 -0.002369 0.002256 -0.001148 0.000431
# 2 -0.001565 0.009759 -0.001373 0.003388 -0.000624 0.002560
# 3 -0.002369 -0.001373 0.013948 -0.001189 0.000963 0.000428
# 4 0.002256 0.003388 -0.001189 0.029579 -0.006513 -0.000063
# 5 -0.001148 -0.000624 0.000963 -0.006513 0.027890 0.000137
# 6 0.000431 0.002560 0.000428 -0.000063 0.000137 0.025202
#
#
# Mechanical properties :
#
#
# Convention : Reuss Voigt Hill
#
# Bulk Modulus (GPa) = 46.44153 52.87293 49.65723
# Shear Modulus (GPa) = 37.70514 40.73375 39.21944
#
# Velocity S-wave (km/s) = 4.06105 4.22100 4.14179
# Velocity P-wave (km/s) = 6.50406 6.84706 6.67776
#
# Compressibility (1/GPa) = 0.02153245
#
# Stress axis : x y z
#
# Youngs Moduli (GPa) = 118.49765 102.47221 71.69549
#
# Poissons Ratio (x) = 0.16034 0.16984
# Poissons Ratio (y) = 0.18542 0.09843
# Poissons Ratio (z) = 0.28071 0.14069
#
# Static dielectric constant tensor:
#      x y z
#    x 4.270760 -0.184940 -0.077090 
#    y -0.184940 5.444830 -0.167090 
#    z -0.077090 -0.167090 4.275220 
# 
# 
# High freq. dielectric constant tensor:
#      x y z
#    x 1.911190 -0.004120 0.005990 
#    y -0.004120 1.922530 0.000220 
#    z 0.005990 0.000220 1.900840 
# 
# From -- ./inp_files/448421.got.cif
#   From: 2010.06.25/outbox.cif.g09.slc.cpg/sg2_225_cif.got.tgz:448421.got - 2010.06.27 13:26:56.
