data_PCOD8034159
_publ_section_title
;
Structure prediction by ZEFSAII (Michael W. Deem and Ramdas Pophale) SiO2 
 PCOD8034159
Probable space group: P -1
;
_chemical_formula_sum "Si O2"
_cell_formula_units_Z 14
_cell_length_a 7.825106
_cell_length_b 13.465522
_cell_length_c 15.033054
_cell_angle_alpha 29.852756
_cell_angle_beta 103.060388
_cell_angle_gamma 122.256190
_cell_volume 551.171215
_symmetry_space_group_name_H-M "P -1"
_symmetry_group_IT_number 2
_symmetry_cell_setting 'triclinic'
loop_
_space_group_symop_operation_xyz
x,y,z
-x,-y,-z
loop_
_atom_site_type_symbol
_atom_site_label
_atom_site_fract_x
_atom_site_fract_y
_atom_site_fract_z
Si Si1 0.866628 0.371258 0.275940
Si Si2 0.231475 0.898716 0.345326
Si Si3 0.514469 0.513084 0.641904
Si Si4 0.450018 0.847133 0.973577
Si Si5 0.255491 0.532179 0.452607
Si Si6 0.764611 0.668647 0.938296
Si Si7 0.136071 0.952229 0.615328
O O1 0.736016 0.190654 0.489523
O O2 0.777272 0.162750 0.345904
O O3 0.758400 0.505754 0.144338
O O4 0.159605 0.605316 0.140737
O O5 0.030760 0.632971 0.463682
O O6 0.488510 0.104620 0.162496
O O7 0.131086 0.041151 0.239623
O O8 0.294378 0.462050 0.608721
O O9 0.696295 0.589863 0.525132
O O10 0.638543 0.764652 0.529314
O O11 0.424535 0.246855 0.892673
O O12 0.562392 0.138260 0.801659
O O13 0.944174 0.719038 0.846346
O O14 0.500000 0.500000 0.000000
O O15 0.000000 0.000000 0.500000
#
# Coordination Sequence:
#
# PCOD8034159 Si02
#       7
#     2   2   2   2   2   2   2
#     4  12  27  49  76 107 150 193 240 304 372 435
#     4  12  27  48  71 114 148 187 247 308 355 442
#     4  11  24  43  77 105 143 200 236 305 364 426
#     4  12  25  45  78 106 142 198 244 292 375 433
#     4  11  24  46  71 109 149 185 251 299 359 436
#     4  12  27  46  72 108 147 191 243 298 369 438
#     4  12  21  49  75 105 151 189 244 301 365 437
#
# _framework density 25.400454
#
# number of rings (size 3 to 8) (size 9 to 14) (size 15 to 20)
#    0.000    0.286    5.714    3.000    2.000    3.429 
#    2.571    0.000    0.000    0.000    0.000    0.000 
#    0.000    0.000    0.000    0.000    0.000    0.000 
#
# Total GULP energy -173656.987144 kJ/mol
# GULP energy per Si atom -12404.070510 kJ/mol
# Density = 2.534264 g / cm^3
# Si number density = 25.400454 Si / 1000 Ang^3
#
#
#
# Elastic Constant Matrix: (Units=GPa)
#
#
# Indices 1 2 3 4 5 6 
#
# 1 43.1801 32.2373 41.4861 13.0150 15.6648 17.1254
# 2 32.2373 123.6955 41.8110 -6.6299 18.9467 -10.0234
# 3 41.4861 41.8110 132.6783 20.3710 28.0375 4.3307
# 4 13.0150 -6.6299 20.3710 47.0869 0.8219 3.1926
# 5 15.6648 18.9467 28.0375 0.8219 51.0718 9.1901
# 6 17.1254 -10.0234 4.3307 3.1926 9.1901 31.0598
#
#
#
# Elastic Compliance Matrix: (Units=1/GPa)
#
#
# Indices 1 2 3 4 5 6 
#
# 1 0.067982 -0.017447 -0.012396 -0.013170 -0.000167 -0.039982
# 2 -0.017447 0.014520 0.000091 0.005892 -0.002792 0.014513
# 3 -0.012396 0.000091 0.012409 -0.002304 -0.004197 0.006613
# 4 -0.013170 0.005892 -0.002304 0.026248 0.001558 0.006326
# 5 -0.000167 -0.002792 -0.004197 0.001558 0.024310 -0.007577
# 6 -0.039982 0.014513 0.006613 0.006326 -0.007577 0.059594
#
#
# Mechanical properties :
#
#
# Convention : Reuss Voigt Hill
#
# Bulk Modulus (GPa) = 28.24307 58.95807 43.60057
# Shear Modulus (GPa) = 18.09174 38.11167 28.10170
#
# Velocity S-wave (km/s) = 2.67172 3.87774 3.32979
# Velocity P-wave (km/s) = 4.54540 6.58111 5.65560
#
# Compressibility (1/GPa) = 0.03540692
#
# Stress axis : x y z
#
# Youngs Moduli (GPa) = 14.70984 68.86989 80.58607
#
# Poissons Ratio (x) = 1.20160 0.99894
# Poissons Ratio (y) = 0.25665 -0.00736
# Poissons Ratio (z) = 0.18234 -0.00629
#
# Static dielectric constant tensor:
#      x y z
#    x 4.499460 -0.184900 0.321050 
#    y -0.184900 4.908330 0.023810 
#    z 0.321050 0.023810 4.752580 
# 
# 
# High freq. dielectric constant tensor:
#      x y z
#    x 2.010870 -0.007940 0.011530 
#    y -0.007940 2.028250 0.002190 
#    z 0.011530 0.002190 2.020360 
# 
# From -- ./inp_files/505112.got.cif
#   From: 2010.06.25/outbox.cif.g09.slc.cpg/sg2_253_cif.got.tgz:505112.got - 2010.06.27 13:26:56.
