data_PCOD8034452
_publ_section_title
;
Structure prediction by ZEFSAII (Michael W. Deem and Ramdas Pophale) SiO2 
 PCOD8034452
Probable space group: P -1
;
_chemical_formula_sum "Si O2"
_cell_formula_units_Z 12
_cell_length_a 13.894867
_cell_length_b 20.196790
_cell_length_c 6.506007
_cell_angle_alpha 57.588280
_cell_angle_beta 110.078798
_cell_angle_gamma 156.890393
_cell_volume 539.732962
_symmetry_space_group_name_H-M "P -1"
_symmetry_group_IT_number 2
_symmetry_cell_setting 'triclinic'
loop_
_space_group_symop_operation_xyz
x,y,z
-x,-y,-z
loop_
_atom_site_type_symbol
_atom_site_label
_atom_site_fract_x
_atom_site_fract_y
_atom_site_fract_z
Si Si1 0.102801 0.488333 0.520694
Si Si2 0.299569 0.036480 0.899538
Si Si3 0.879356 0.214071 0.493263
Si Si4 0.737268 0.131392 0.094248
Si Si5 0.149362 0.183200 0.233933
Si Si6 0.354517 0.440858 0.302790
O O1 0.943146 0.339250 0.455360
O O2 0.000000 0.500000 0.500000
O O3 0.421331 0.715582 0.316650
O O4 0.033817 0.379150 0.837084
O O5 0.266688 0.964311 0.784891
O O6 0.041778 0.911095 0.921873
O O7 0.295816 0.972894 0.192011
O O8 0.156600 0.368580 0.361745
O O9 0.693004 0.111645 0.336761
O O10 0.500000 0.000000 0.000000
O O11 0.192510 0.263405 0.339771
O O12 0.428421 0.362833 0.017376
O O13 0.000000 0.000000 0.500000
O O14 0.500000 0.500000 0.500000
#
# Coordination Sequence:
#
# PCOD8034452 Si02
#       6
#     2   2   2   2   2   2
#     4  11  26  45  68 102 136 174 237 288 341 407
#     4  11  24  45  65 102 140 181 230 282 345 410
#     4  11  26  44  73  98 141 188 225 284 349 411
#     4  11  24  48  68  96 140 183 227 286 346 404
#     4  11  26  41  72 100 143 181 228 285 338 408
#     4  11  24  46  66 102 141 180 229 278 345 409
#
# _framework density 22.233215999999999
#
# number of rings (size 3 to 8) (size 9 to 14) (size 15 to 20)
#    0.000    1.000    5.000    0.000    4.667    6.667 
#    0.000    0.000    0.000    0.000    0.000    0.000 
#    0.000    0.000    0.000    0.000    0.000    0.000 
#
# Total GULP energy -148740.239113 kJ/mol
# GULP energy per Si atom -12395.019926 kJ/mol
# Density = 2.218261 g / cm^3
# Si number density = 22.233216 Si / 1000 Ang^3
#
#
#
# Elastic Constant Matrix: (Units=GPa)
#
#
# Indices 1 2 3 4 5 6 
#
# 1 86.6799 31.6264 35.6084 3.8302 -8.4306 -12.0130
# 2 31.6264 121.1734 84.0244 6.7135 9.3458 -9.5404
# 3 35.6084 84.0244 141.1469 -4.2140 1.2644 -23.1170
# 4 3.8302 6.7135 -4.2140 54.1489 -3.4772 1.0161
# 5 -8.4306 9.3458 1.2644 -3.4772 39.1613 -2.7321
# 6 -12.0130 -9.5404 -23.1170 1.0161 -2.7321 34.0962
#
#
#
# Elastic Compliance Matrix: (Units=1/GPa)
#
#
# Indices 1 2 3 4 5 6 
#
# 1 0.013984 -0.002653 -0.001419 -0.000588 0.003885 0.003551
# 2 -0.002653 0.015504 -0.009098 -0.002670 -0.004427 -0.003040
# 3 -0.001419 -0.009098 0.013979 0.002327 0.002077 0.006529
# 4 -0.000588 -0.002670 0.002327 0.019155 0.002152 0.000225
# 5 0.003885 -0.004427 0.002077 0.002152 0.027811 0.003702
# 6 0.003551 -0.003040 0.006529 0.000225 0.003702 0.034446
#
#
# Mechanical properties :
#
#
# Convention : Reuss Voigt Hill
#
# Bulk Modulus (GPa) = 58.39089 72.39095 65.39092
# Shear Modulus (GPa) = 31.86176 38.66399 35.26288
#
# Velocity S-wave (km/s) = 3.78970 4.17468 3.98684
# Velocity P-wave (km/s) = 6.74307 7.47447 7.11817
#
# Compressibility (1/GPa) = 0.01712596
#
# Stress axis : x y z
#
# Youngs Moduli (GPa) = 71.51168 64.49989 71.53534
#
# Poissons Ratio (x) = 0.17113 0.10152
# Poissons Ratio (y) = 0.18974 0.65083
# Poissons Ratio (z) = 0.10148 0.58683
#
# Static dielectric constant tensor:
#      x y z
#    x 1.758900 -0.897760 -1.740330 
#    y -0.897760 3.860030 -0.576860 
#    z -1.740330 -0.576860 3.438080 
# 
# 
# High freq. dielectric constant tensor:
#      x y z
#    x 1.879730 0.000500 -0.011210 
#    y 0.000500 1.877080 -0.004830 
#    z -0.011210 -0.004830 1.887300 
# 
# From -- ./inp_files/7327.got.cif
#   From: 2010.06.25/outbox.cif.g09.slc.cpg/sg2_4_cif.got.tgz:7327.got - 2010.06.27 13:26:56.
