data_PCOD8034389
_publ_section_title
;
Structure prediction by ZEFSAII (Michael W. Deem and Ramdas Pophale) SiO2 
 PCOD8034389
Probable space group: P -1
;
_chemical_formula_sum "Si O2"
_cell_formula_units_Z 12
_cell_length_a 9.440693
_cell_length_b 7.728049
_cell_length_c 7.743915
_cell_angle_alpha 72.788253
_cell_angle_beta 113.342636
_cell_angle_gamma 108.904255
_cell_volume 481.544633
_symmetry_space_group_name_H-M "P -1"
_symmetry_group_IT_number 2
_symmetry_cell_setting 'triclinic'
loop_
_space_group_symop_operation_xyz
x,y,z
-x,-y,-z
loop_
_atom_site_type_symbol
_atom_site_label
_atom_site_fract_x
_atom_site_fract_y
_atom_site_fract_z
Si Si1 0.622755 0.766734 0.540901
Si Si2 0.161939 0.817100 0.473606
Si Si3 0.562574 0.709078 0.915028
Si Si4 0.266560 0.778271 0.892321
Si Si5 0.293099 0.605122 0.299245
Si Si6 0.886734 0.910484 0.127262
O O1 0.535873 0.738794 0.691732
O O2 0.478840 0.716823 0.348956
O O3 0.730171 0.615683 0.610123
O O4 0.723675 0.976694 0.510605
O O5 0.169500 0.706150 0.689109
O O6 0.203223 0.700452 0.368060
O O7 0.983781 0.838104 0.346662
O O8 0.455728 0.829159 0.926534
O O9 0.500000 0.500000 0.000000
O O10 0.749363 0.748214 0.031491
O O11 0.212962 0.957686 0.876151
O O12 0.223443 0.623812 0.068591
O O13 0.000000 0.000000 0.000000
#
# Coordination Sequence:
#
# PCOD8034389 Si02
#       6
#     2   2   2   2   2   2
#     4  11  24  44  75 112 153 190 253 311 372 440
#     4  12  26  48  72 112 150 197 245 313 377 441
#     4  12  25  47  77 111 144 196 258 305 365 458
#     4  12  26  46  78 105 147 204 250 299 373 453
#     4  11  24  44  73 113 148 195 251 310 368 445
#     4  12  26  47  74 111 152 194 247 315 378 441
#
# _framework density 24.919809000000001
#
# number of rings (size 3 to 8) (size 9 to 14) (size 15 to 20)
#    0.000    0.333    6.667    1.500    4.667    0.000 
#    3.000    3.333    0.000    0.000    0.000    0.000 
#    0.000    0.000    0.000    0.000    0.000    0.000 
#
# Total GULP energy -148775.045763 kJ/mol
# GULP energy per Si atom -12397.920480 kJ/mol
# Density = 2.486309 g / cm^3
# Si number density = 24.919809 Si / 1000 Ang^3
#
#
#
# Elastic Constant Matrix: (Units=GPa)
#
#
# Indices 1 2 3 4 5 6 
#
# 1 134.0681 64.8270 49.3065 1.5466 12.5275 -12.6264
# 2 64.8270 87.0026 26.4551 -0.9277 -5.1372 -22.8501
# 3 49.3065 26.4551 184.2145 13.5297 1.4295 -1.8754
# 4 1.5466 -0.9277 13.5297 26.5220 -6.4807 8.9317
# 5 12.5275 -5.1372 1.4295 -6.4807 37.4809 2.6160
# 6 -12.6264 -22.8501 -1.8754 8.9317 2.6160 39.4932
#
#
#
# Elastic Compliance Matrix: (Units=1/GPa)
#
#
# Indices 1 2 3 4 5 6 
#
# 1 0.013595 -0.010114 -0.002057 -0.001254 -0.006004 -0.000922
# 2 -0.010114 0.021856 -0.000377 -0.000092 0.005744 0.009034
# 3 -0.002057 -0.000377 0.006270 -0.003183 -0.000164 0.000153
# 4 -0.001254 -0.000092 -0.003183 0.045523 0.009203 -0.011510
# 5 -0.006004 0.005744 -0.000164 0.009203 0.031264 -0.002756
# 6 -0.000922 0.009034 0.000153 -0.011510 -0.002756 0.033046
#
#
# Mechanical properties :
#
#
# Convention : Reuss Voigt Hill
#
# Bulk Modulus (GPa) = 60.15670 76.27359 68.21514
# Shear Modulus (GPa) = 27.44367 38.34568 32.89468
#
# Velocity S-wave (km/s) = 3.32215 3.92696 3.63715
# Velocity P-wave (km/s) = 6.23764 7.15789 6.71355
#
# Compressibility (1/GPa) = 0.01662325
#
# Stress axis : x y z
#
# Youngs Moduli (GPa) = 73.55872 45.75462 159.49393
#
# Poissons Ratio (x) = 0.46277 0.32807
# Poissons Ratio (y) = 0.74398 0.06020
# Poissons Ratio (z) = 0.15130 0.01727
#
# Static dielectric constant tensor:
#      x y z
#    x 5.037470 -0.313780 0.201170 
#    y -0.313780 4.246860 0.184800 
#    z 0.201170 0.184800 4.842550 
# 
# 
# High freq. dielectric constant tensor:
#      x y z
#    x 1.998460 -0.027990 0.007440 
#    y -0.027990 1.973750 0.007800 
#    z 0.007440 0.007800 2.013680 
# 
# From -- ./inp_files/153175.got.cif
#   From: 2010.06.25/outbox.cif.g09.slc.cpg/sg2_77_cif.got.tgz:153175.got - 2010.06.27 13:26:56.
