data_PCOD8034060
_publ_section_title
;
Structure prediction by ZEFSAII (Michael W. Deem and Ramdas Pophale) SiO2 
 PCOD8034060
Probable space group: P -1
;
_chemical_formula_sum "Si O2"
_cell_formula_units_Z 12
_cell_length_a 9.586748
_cell_length_b 13.605502
_cell_length_c 6.925764
_cell_angle_alpha 58.752923
_cell_angle_beta 45.988536
_cell_angle_gamma 79.732851
_cell_volume 530.502453
_symmetry_space_group_name_H-M "P -1"
_symmetry_group_IT_number 2
_symmetry_cell_setting 'triclinic'
loop_
_space_group_symop_operation_xyz
x,y,z
-x,-y,-z
loop_
_atom_site_type_symbol
_atom_site_label
_atom_site_fract_x
_atom_site_fract_y
_atom_site_fract_z
Si Si1 0.341000 0.682124 0.976904
Si Si2 0.104391 0.208708 0.186827
Si Si3 0.514497 0.382455 0.717928
Si Si4 0.251697 0.134040 0.746470
Si Si5 0.132078 0.617548 0.865230
Si Si6 0.882611 0.134127 0.850942
O O1 0.533475 0.768010 0.592274
O O2 0.195199 0.594917 0.047668
O O3 0.399856 0.594940 0.167360
O O4 0.233989 0.767758 0.104686
O O5 0.996657 0.289941 0.085719
O O6 0.944025 0.129447 0.572402
O O7 0.293245 0.289985 0.044357
O O8 0.185653 0.129493 0.038860
O O9 0.500000 0.500000 0.500000
O O10 0.662981 0.325941 0.511116
O O11 0.085636 0.170973 0.743312
O O12 0.259008 0.999916 0.820789
O O13 0.000000 0.500000 0.000000
#
# Coordination Sequence:
#
# PCOD8034060 Si02
#       6
#     2   2   2   2   2   2
#     4  12  25  46  72 102 142 182 227 294 338 406
#     4  12  23  46  68 100 144 180 225 288 342 404
#     4  12  26  45  69 101 139 182 236 284 346 410
#     4  11  24  43  71 105 139 182 229 279 346 411
#     4  12  26  45  69 101 139 182 236 284 346 410
#     4  11  24  43  71 105 139 182 229 279 346 411
#
# _framework density 22.620062999999998
#
# number of rings (size 3 to 8) (size 9 to 14) (size 15 to 20)
#    0.000    0.333    8.333    1.000    0.000    1.333 
#    3.000    1.667    0.000    0.000    0.000    0.000 
#    0.000    0.000    0.000    0.000    0.000    0.000 
#
# Total GULP energy -148778.394963 kJ/mol
# GULP energy per Si atom -12398.199580 kJ/mol
# Density = 2.256858 g / cm^3
# Si number density = 22.620063 Si / 1000 Ang^3
#
#
#
# Elastic Constant Matrix: (Units=GPa)
#
#
# Indices 1 2 3 4 5 6 
#
# 1 159.2170 42.7842 41.1445 -3.8588 25.8409 9.6885
# 2 42.7842 78.8176 32.6469 1.4201 3.9904 3.9690
# 3 41.1445 32.6469 103.1776 15.5778 11.2196 2.7808
# 4 -3.8588 1.4201 15.5778 36.0454 1.4779 2.0680
# 5 25.8409 3.9904 11.2196 1.4779 41.2728 9.6120
# 6 9.6885 3.9690 2.7808 2.0680 9.6120 26.6140
#
#
#
# Elastic Compliance Matrix: (Units=1/GPa)
#
#
# Indices 1 2 3 4 5 6 
#
# 1 0.008604 -0.003553 -0.002147 0.002223 -0.004308 -0.000995
# 2 -0.003553 0.016237 -0.004014 0.000716 0.002072 -0.001513
# 3 -0.002147 -0.004014 0.012832 -0.005608 -0.001819 0.001132
# 4 0.002223 0.000716 -0.005608 0.030540 -0.000437 -0.002545
# 5 -0.004308 0.002072 -0.001819 -0.000437 0.029360 -0.009121
# 6 -0.000995 -0.001513 0.001132 -0.002545 -0.009121 0.041536
#
#
# Mechanical properties :
#
#
# Convention : Reuss Voigt Hill
#
# Bulk Modulus (GPa) = 54.80728 63.81815 59.31272
# Shear Modulus (GPa) = 30.37350 35.76221 33.06786
#
# Velocity S-wave (km/s) = 3.66836 3.98049 3.82760
# Velocity P-wave (km/s) = 6.49804 7.02852 6.76848
#
# Compressibility (1/GPa) = 0.01824575
#
# Stress axis : x y z
#
# Youngs Moduli (GPa) = 116.22724 61.58811 77.92945
#
# Poissons Ratio (x) = 0.21881 0.16733
# Poissons Ratio (y) = 0.41294 0.31277
# Poissons Ratio (z) = 0.24956 0.24719
#
# Static dielectric constant tensor:
#      x y z
#    x 4.366850 -0.086130 -0.072150 
#    y -0.086130 3.799080 0.215910 
#    z -0.072150 0.215910 4.052650 
# 
# 
# High freq. dielectric constant tensor:
#      x y z
#    x 1.909190 -0.001780 0.001810 
#    y -0.001780 1.875950 0.015680 
#    z 0.001810 0.015680 1.895570 
# 
# From -- ./inp_files/26583.got.cif
#   From: 2010.06.25/outbox.cif.g09.slc.cpg/sg2_14_cif.got.tgz:26583.got - 2010.06.27 13:26:56.
