data_PCOD8034391
_publ_section_title
;
Structure prediction by ZEFSAII (Michael W. Deem and Ramdas Pophale) SiO2 
 PCOD8034391
Probable space group: P -1
;
_chemical_formula_sum "Si O2"
_cell_formula_units_Z 16
_cell_length_a 15.247988
_cell_length_b 15.094642
_cell_length_c 8.949021
_cell_angle_alpha 140.737254
_cell_angle_beta 39.370090
_cell_angle_gamma 141.371559
_cell_volume 736.328207
_symmetry_space_group_name_H-M "P -1"
_symmetry_group_IT_number 2
_symmetry_cell_setting 'triclinic'
loop_
_space_group_symop_operation_xyz
x,y,z
-x,-y,-z
loop_
_atom_site_type_symbol
_atom_site_label
_atom_site_fract_x
_atom_site_fract_y
_atom_site_fract_z
Si Si1 0.657956 0.332981 0.852857
Si Si2 0.102345 0.361638 0.581405
Si Si3 0.962564 0.577774 0.930942
Si Si4 0.111600 0.935785 0.705353
Si Si5 0.407253 0.153754 0.424547
Si Si6 0.433199 0.044372 0.941433
Si Si7 0.210896 0.823216 0.720339
Si Si8 0.454763 0.488364 0.215492
O O1 0.816866 0.465078 0.879358
O O2 0.592742 0.190761 0.871974
O O3 0.691996 0.273884 0.571070
O O4 0.533292 0.397551 0.081978
O O5 0.270663 0.387419 0.342269
O O6 0.070366 0.498216 0.731416
O O7 0.973090 0.192952 0.478086
O O8 0.095259 0.364154 0.772980
O O9 0.061574 0.726186 0.890957
O O10 0.161495 0.858024 0.671026
O O11 0.258051 0.082640 0.633853
O O12 0.000000 0.000000 0.000000
O O13 0.487045 0.341106 0.566187
O O14 0.534890 0.099563 0.237139
O O15 0.357234 0.096054 0.244890
O O16 0.316227 0.985608 0.878840
O O17 0.500000 0.500000 0.000000
#
# Coordination Sequence:
#
# PCOD8034391 Si02
#       8
#     2   2   2   2   2   2   2   2
#     4  12  25  44  71 104 134 174 230 284 332 399
#     4  11  24  47  68  99 137 177 223 271 344 404
#     4  11  24  44  73  97 133 180 221 279 333 402
#     4  12  27  43  66  96 136 179 225 276 330 402
#     4  11  24  47  68  99 137 177 223 271 344 404
#     4  11  24  44  73  97 133 180 221 279 333 402
#     4  12  25  43  70 100 132 176 234 274 330 401
#     4  12  27  42  72 104 139 174 223 286 345 393
#
# _framework density 21.729438999999999
#
# number of rings (size 3 to 8) (size 9 to 14) (size 15 to 20)
#    0.000    0.500    2.500    5.250    7.000    6.000 
#    0.000    1.250    0.000    0.000    0.000    0.000 
#    0.000    0.000    0.000    0.000    0.000    0.000 
#
# Total GULP energy -198528.960782 kJ/mol
# GULP energy per Si atom -12408.060049 kJ/mol
# Density = 2.167998 g / cm^3
# Si number density = 21.729439 Si / 1000 Ang^3
#
#
#
# Elastic Constant Matrix: (Units=GPa)
#
#
# Indices 1 2 3 4 5 6 
#
# 1 78.6698 17.3486 38.5955 -2.9330 3.6770 6.3080
# 2 17.3486 80.0818 11.1014 -9.4218 1.5221 8.5260
# 3 38.5955 11.1014 105.4398 -2.8470 9.5594 2.0379
# 4 -2.9330 -9.4218 -2.8470 46.6712 1.0847 2.6682
# 5 3.6770 1.5221 9.5594 1.0847 39.9573 -0.7846
# 6 6.3080 8.5260 2.0379 2.6682 -0.7846 29.4988
#
#
#
# Elastic Compliance Matrix: (Units=1/GPa)
#
#
# Indices 1 2 3 4 5 6 
#
# 1 0.016213 -0.002438 -0.005612 0.000325 -0.000112 -0.002407
# 2 -0.002438 0.013803 -0.000380 0.002830 -0.000360 -0.003707
# 3 -0.005612 -0.000380 0.011787 0.000320 -0.002290 0.000406
# 4 0.000325 0.002830 0.000320 0.022226 -0.000875 -0.002943
# 5 -0.000112 -0.000360 -0.002290 -0.000875 0.025643 0.001047
# 6 -0.002407 -0.003707 0.000406 -0.002943 0.001047 0.035752
#
#
# Mechanical properties :
#
#
# Convention : Reuss Voigt Hill
#
# Bulk Modulus (GPa) = 40.09365 44.25361 42.17363
# Shear Modulus (GPa) = 33.20100 36.36853 34.78477
#
# Velocity S-wave (km/s) = 3.91311 4.09552 4.00536
# Velocity P-wave (km/s) = 6.23762 6.54021 6.39071
#
# Compressibility (1/GPa) = 0.02494160
#
# Stress axis : x y z
#
# Youngs Moduli (GPa) = 61.67980 72.45029 84.84009
#
# Poissons Ratio (x) = 0.17661 0.47616
# Poissons Ratio (y) = 0.15035 0.03226
# Poissons Ratio (z) = 0.34617 0.02755
#
# Static dielectric constant tensor:
#      x y z
#    x 3.973790 -0.068320 0.172820 
#    y -0.068320 3.985410 0.063690 
#    z 0.172820 0.063690 3.995120 
# 
# 
# High freq. dielectric constant tensor:
#      x y z
#    x 1.854380 0.005320 0.011840 
#    y 0.005320 1.863640 -0.003190 
#    z 0.011840 -0.003190 1.869020 
# 
# From -- ./inp_files/316047.got.cif
#   From: 2010.06.25/outbox.cif.g09.slc.cpg/sg2_159_cif.got.tgz:316047.got - 2010.06.27 13:26:56.
