data_PCOD8034311
_publ_section_title
;
Structure prediction by ZEFSAII (Michael W. Deem and Ramdas Pophale) SiO2 
 PCOD8034311
Probable space group: P -1
;
_chemical_formula_sum "Si O2"
_cell_formula_units_Z 16
_cell_length_a 17.894830
_cell_length_b 9.401576
_cell_length_c 13.771356
_cell_angle_alpha 33.070784
_cell_angle_beta 37.270354
_cell_angle_gamma 37.061344
_cell_volume 702.756026
_symmetry_space_group_name_H-M "P -1"
_symmetry_group_IT_number 2
_symmetry_cell_setting 'triclinic'
loop_
_space_group_symop_operation_xyz
x,y,z
-x,-y,-z
loop_
_atom_site_type_symbol
_atom_site_label
_atom_site_fract_x
_atom_site_fract_y
_atom_site_fract_z
Si Si1 0.549870 0.863760 0.630475
Si Si2 0.263773 0.172261 0.820342
Si Si3 0.763052 0.248680 0.404816
Si Si4 0.595439 0.169735 0.783725
Si Si5 0.961107 0.251826 0.647619
Si Si6 0.263462 0.766127 0.216365
Si Si7 0.861322 0.097055 0.031106
Si Si8 0.346254 0.699443 0.711987
O O1 0.606505 0.522899 0.774806
O O2 0.500000 0.000000 0.500000
O O3 0.423145 0.989696 0.760009
O O4 0.663277 0.979747 0.478811
O O5 0.223398 0.507637 0.681500
O O6 0.220911 0.034586 0.034778
O O7 0.190036 0.147923 0.809381
O O8 0.676138 0.099765 0.637546
O O9 0.689370 0.405426 0.293155
O O10 0.907488 0.026939 0.349560
O O11 0.712000 0.113119 0.775495
O O12 0.498369 0.500967 0.696535
O O13 0.500000 0.000000 0.000000
O O14 0.867400 0.315592 0.610863
O O15 0.870536 0.238952 0.839602
O O16 0.000000 0.500000 0.500000
O O17 0.750975 0.315034 0.092564
O O18 0.000000 0.000000 0.000000
#
# Coordination Sequence:
#
# PCOD8034311 Si02
#       8
#     2   2   2   2   2   2   2   2
#     4  12  21  42  72 103 139 182 237 287 355 425
#     4  11  24  44  71 105 142 184 238 299 355 417
#     4  12  26  48  73 102 145 190 237 295 362 423
#     4  12  27  44  67 106 143 184 236 296 364 415
#     4  11  27  49  72 104 143 190 241 292 355 431
#     4  11  25  44  69 105 145 187 235 294 352 426
#     4  11  24  45  71 102 135 187 238 285 343 428
#     4  12  24  44  73 102 138 185 235 292 354 426
#
# _framework density 22.767502
#
# number of rings (size 3 to 8) (size 9 to 14) (size 15 to 20)
#    0.000    0.500    5.000    2.250    3.500    3.500 
#    2.250    0.000    0.000    0.000    0.000    0.000 
#    0.000    0.000    0.000    0.000    0.000    0.000 
#
# Total GULP energy -198262.855518 kJ/mol
# GULP energy per Si atom -12391.428470 kJ/mol
# Density = 2.271568 g / cm^3
# Si number density = 22.767502 Si / 1000 Ang^3
#
#
#
# Elastic Constant Matrix: (Units=GPa)
#
#
# Indices 1 2 3 4 5 6 
#
# 1 163.8659 28.6016 39.0133 5.6597 -3.9152 3.6787
# 2 28.6016 77.6052 30.7763 6.8878 -2.6394 3.6213
# 3 39.0133 30.7763 99.6548 15.2522 -4.4841 12.8878
# 4 5.6597 6.8878 15.2522 43.5804 5.2974 -2.9770
# 5 -3.9152 -2.6394 -4.4841 5.2974 34.4420 -0.2818
# 6 3.6787 3.6213 12.8878 -2.9770 -0.2818 33.9618
#
#
#
# Elastic Compliance Matrix: (Units=1/GPa)
#
#
# Indices 1 2 3 4 5 6 
#
# 1 0.006925 -0.001679 -0.002233 0.000125 0.000351 0.000290
# 2 -0.001679 0.015132 -0.003844 -0.000905 0.000607 -0.000047
# 3 -0.002233 -0.003844 0.013472 -0.004371 0.001838 -0.004829
# 4 0.000125 -0.000905 -0.004371 0.025418 -0.004502 0.003932
# 5 0.000351 0.000607 0.001838 -0.004502 0.030045 -0.000946
# 6 0.000290 -0.000047 -0.004829 0.003932 -0.000946 0.031588
#
#
# Mechanical properties :
#
#
# Convention : Reuss Voigt Hill
#
# Bulk Modulus (GPa) = 49.95879 59.76759 54.86319
# Shear Modulus (GPa) = 34.53877 38.57916 36.55897
#
# Velocity S-wave (km/s) = 3.89912 4.12088 4.01153
# Velocity P-wave (km/s) = 6.50089 6.99646 6.75322
#
# Compressibility (1/GPa) = 0.02001650
#
# Stress axis : x y z
#
# Youngs Moduli (GPa) = 144.40646 66.08424 74.22736
#
# Poissons Ratio (x) = 0.11097 0.16577
# Poissons Ratio (y) = 0.24249 0.28532
# Poissons Ratio (z) = 0.32250 0.25402
#
# Static dielectric constant tensor:
#      x y z
#    x 5.631280 0.002970 -0.907550 
#    y 0.002970 3.977810 0.255700 
#    z -0.907550 0.255700 4.848850 
# 
# 
# High freq. dielectric constant tensor:
#      x y z
#    x 1.917940 0.008590 -0.010050 
#    y 0.008590 1.883210 0.006160 
#    z -0.010050 0.006160 1.897620 
# 
# From -- ./inp_files/190280.got.cif
#   From: 2010.06.25/outbox.cif.g09.slc.cpg/sg2_96_cif.got.tgz:190280.got - 2010.06.27 13:26:56.
