data_PCOD8034179
_publ_section_title
;
Structure prediction by ZEFSAII (Michael W. Deem and Ramdas Pophale) SiO2 
 PCOD8034179
Probable space group: P -1
;
_chemical_formula_sum "Si O2"
_cell_formula_units_Z 16
_cell_length_a 9.374405
_cell_length_b 15.028839
_cell_length_c 14.817182
_cell_angle_alpha 27.389444
_cell_angle_beta 129.160411
_cell_angle_gamma 130.337609
_cell_volume 722.361102
_symmetry_space_group_name_H-M "P -1"
_symmetry_group_IT_number 2
_symmetry_cell_setting 'triclinic'
loop_
_space_group_symop_operation_xyz
x,y,z
-x,-y,-z
loop_
_atom_site_type_symbol
_atom_site_label
_atom_site_fract_x
_atom_site_fract_y
_atom_site_fract_z
Si Si1 0.798209 0.008447 0.452849
Si Si2 0.393416 0.355202 0.953913
Si Si3 0.106790 0.588334 0.553970
Si Si4 0.958243 0.436590 0.142735
Si Si5 0.412827 0.933367 0.280157
Si Si6 0.521925 0.189099 0.775804
Si Si7 0.708133 0.696324 0.841618
Si Si8 0.205391 0.404516 0.428975
O O1 0.788871 0.236800 0.255647
O O2 0.620334 0.904116 0.414599
O O3 0.775178 0.911346 0.629865
O O4 0.000000 0.000000 0.500000
O O5 0.212683 0.427639 0.780808
O O6 0.574274 0.544926 0.853440
O O7 0.383289 0.277904 0.122733
O O8 0.409775 0.166645 0.070043
O O9 0.253859 0.799817 0.401811
O O10 0.000000 0.500000 0.500000
O O11 0.961542 0.631114 0.531976
O O12 0.132443 0.389724 0.309707
O O13 0.891606 0.610640 0.011584
O O14 0.000000 0.500000 0.000000
O O15 0.375545 0.852264 0.237336
O O16 0.315521 0.231066 0.641015
O O17 0.656575 0.378583 0.705315
O O18 0.500000 0.000000 0.000000
#
# Coordination Sequence:
#
# PCOD8034179 Si02
#       8
#     2   2   2   2   2   2   2   2
#     4  12  25  42  71 107 144 189 241 297 364 438
#     4  11  26  44  74 100 147 190 240 302 364 441
#     4  12  26  49  74 103 147 193 249 304 364 432
#     4  12  25  43  72 105 146 192 238 299 371 439
#     4  12  27  46  73 109 143 194 246 302 364 442
#     4  11  28  49  77 104 149 193 245 306 372 431
#     4  11  24  44  66 106 143 188 236 296 370 430
#     4  11  27  50  73 111 146 194 247 307 363 442
#
# _framework density 22.149585999999999
#
# number of rings (size 3 to 8) (size 9 to 14) (size 15 to 20)
#    0.000    0.500    6.250    0.750    5.250    3.000 
#    0.000    0.000    0.000    0.000    0.000    0.000 
#    0.000    0.000    0.000    0.000    0.000    0.000 
#
# Total GULP energy -198417.229219 kJ/mol
# GULP energy per Si atom -12401.076826 kJ/mol
# Density = 2.209917 g / cm^3
# Si number density = 22.149586 Si / 1000 Ang^3
#
#
#
# Elastic Constant Matrix: (Units=GPa)
#
#
# Indices 1 2 3 4 5 6 
#
# 1 116.3616 24.6209 56.3038 4.6036 -7.3741 4.9326
# 2 24.6209 94.3745 41.6948 10.5502 -8.6406 3.7527
# 3 56.3038 41.6948 151.9214 -0.7977 -16.0510 3.9595
# 4 4.6036 10.5502 -0.7977 38.6080 1.3360 1.4199
# 5 -7.3741 -8.6406 -16.0510 1.3360 41.7878 -1.7620
# 6 4.9326 3.7527 3.9595 1.4199 -1.7620 37.2597
#
#
#
# Elastic Compliance Matrix: (Units=1/GPa)
#
#
# Indices 1 2 3 4 5 6 
#
# 1 0.010657 -0.001000 -0.003629 -0.001050 0.000277 -0.000871
# 2 -0.001000 0.012707 -0.002971 -0.003439 0.001393 -0.000635
# 3 -0.003629 -0.002971 0.008980 0.001361 0.002146 -0.000125
# 4 -0.001050 -0.003439 0.001361 0.027066 -0.001271 -0.000751
# 5 0.000277 0.001393 0.002146 -0.001271 0.025167 0.000834
# 6 -0.000871 -0.000635 -0.000125 -0.000751 0.000834 0.027099
#
#
# Mechanical properties :
#
#
# Convention : Reuss Voigt Hill
#
# Bulk Modulus (GPa) = 58.32828 67.54405 62.93617
# Shear Modulus (GPa) = 37.70988 39.53363 38.62176
#
# Velocity S-wave (km/s) = 4.13062 4.22933 4.18027
# Velocity P-wave (km/s) = 7.01002 7.37634 7.19551
#
# Compressibility (1/GPa) = 0.01714434
#
# Stress axis : x y z
#
# Youngs Moduli (GPa) = 93.83169 78.69771 111.36069
#
# Poissons Ratio (x) = 0.07867 0.40412
# Poissons Ratio (y) = 0.09380 0.33088
# Poissons Ratio (z) = 0.34051 0.23383
#
# Static dielectric constant tensor:
#      x y z
#    x 4.151230 0.099530 0.117930 
#    y 0.099530 4.120060 -0.048440 
#    z 0.117930 -0.048440 4.191510 
# 
# 
# High freq. dielectric constant tensor:
#      x y z
#    x 1.874840 0.004490 0.001150 
#    y 0.004490 1.874460 0.000360 
#    z 0.001150 0.000360 1.887650 
# 
# From -- ./inp_files/505172.got.cif
#   From: 2010.06.25/outbox.cif.g09.slc.cpg/sg2_253_cif.got.tgz:505172.got - 2010.06.27 13:26:56.
