data_PCOD8034654
_publ_section_title
;
Structure prediction by ZEFSAII (Michael W. Deem and Ramdas Pophale) SiO2 
 PCOD8034654
Probable space group: P -1
;
_chemical_formula_sum "Si O2"
_cell_formula_units_Z 16
_cell_length_a 8.138435
_cell_length_b 23.558273
_cell_length_c 19.432752
_cell_angle_alpha 22.462561
_cell_angle_beta 32.498339
_cell_angle_gamma 46.243240
_cell_volume 691.317704
_symmetry_space_group_name_H-M "P -1"
_symmetry_group_IT_number 2
_symmetry_cell_setting 'triclinic'
loop_
_space_group_symop_operation_xyz
x,y,z
-x,-y,-z
loop_
_atom_site_type_symbol
_atom_site_label
_atom_site_fract_x
_atom_site_fract_y
_atom_site_fract_z
Si Si1 0.509870 0.063551 0.207835
Si Si2 0.237959 0.676382 0.289595
Si Si3 0.622190 0.776312 0.534808
Si Si4 0.654140 0.185417 0.760857
Si Si5 0.597884 0.356822 0.099930
Si Si6 0.350882 0.537989 0.632002
Si Si7 0.451510 0.531616 0.754746
Si Si8 0.777506 0.808283 0.719136
O O1 0.455326 0.121689 0.237286
O O2 0.722094 0.956559 0.265405
O O3 0.722649 0.218649 0.910938
O O4 0.156901 0.949926 0.422662
O O5 0.421658 0.801142 0.147134
O O6 0.401168 0.549050 0.366448
O O7 0.845283 0.570243 0.563422
O O8 0.426618 0.757131 0.697551
O O9 0.392386 0.641125 0.712142
O O10 0.946125 0.741989 0.474449
O O11 0.499725 0.289222 0.654872
O O12 0.500000 0.000000 0.000000
O O13 0.352331 0.247771 0.249097
O O14 0.500000 0.500000 0.000000
O O15 0.978876 0.425935 0.858730
O O16 0.311749 0.571309 0.688797
O O17 0.230673 0.342464 0.063608
#
# Coordination Sequence:
#
# PCOD8034654 Si02
#       8
#     2   2   2   2   2   2   2   2
#     4  11  27  45  69 105 140 183 230 290 349 400
#     4  11  26  47  71 102 138 182 236 279 343 419
#     4  11  26  43  68 103 140 181 229 285 347 411
#     4  11  27  43  66 105 140 178 225 283 355 407
#     4  12  24  44  72 103 138 182 234 282 347 414
#     4  12  25  45  73 100 136 186 230 283 344 407
#     4  11  24  45  74 101 134 188 238 278 336 422
#     4  11  25  47  69 102 144 180 237 284 344 414
#
# _framework density 23.144207000000002
#
# number of rings (size 3 to 8) (size 9 to 14) (size 15 to 20)
#    0.000    0.750    3.750    2.250    8.750    3.500 
#    0.000    0.000    0.000    0.000    0.000    0.000 
#    0.000    0.000    0.000    0.000    0.000    0.000 
#
# Total GULP energy -198456.376185 kJ/mol
# GULP energy per Si atom -12403.523512 kJ/mol
# Density = 2.309153 g / cm^3
# Si number density = 23.144207 Si / 1000 Ang^3
#
#
#
# Elastic Constant Matrix: (Units=GPa)
#
#
# Indices 1 2 3 4 5 6 
#
# 1 117.2945 39.5171 19.4103 -15.2767 8.4639 23.9524
# 2 39.5171 78.9273 20.9714 -18.5658 13.3966 11.2903
# 3 19.4103 20.9714 76.8805 -15.1147 16.1105 5.1352
# 4 -15.2767 -18.5658 -15.1147 40.0040 -0.4143 2.4209
# 5 8.4639 13.3966 16.1105 -0.4143 40.1232 -15.8845
# 6 23.9524 11.2903 5.1352 2.4209 -15.8845 46.6201
#
#
#
# Elastic Compliance Matrix: (Units=1/GPa)
#
#
# Indices 1 2 3 4 5 6 
#
# 1 0.011786 -0.003503 -0.000136 0.003188 -0.003873 -0.006677
# 2 -0.003503 0.018266 -0.000887 0.007052 -0.007024 -0.005286
# 3 -0.000136 -0.000887 0.016438 0.005940 -0.008022 -0.004568
# 4 0.003188 0.007052 0.005940 0.032162 -0.008467 -0.008555
# 5 -0.003873 -0.007024 -0.008022 -0.008467 0.038381 0.018091
# 6 -0.006677 -0.005286 -0.004568 -0.008555 0.018091 0.033272
#
#
# Mechanical properties :
#
#
# Convention : Reuss Voigt Hill
#
# Bulk Modulus (GPa) = 26.71022 48.10000 37.40511
# Shear Modulus (GPa) = 29.09738 38.22969 33.66354
#
# Velocity S-wave (km/s) = 3.54958 4.06865 3.81794
# Velocity P-wave (km/s) = 5.32590 6.54979 5.96929
#
# Compressibility (1/GPa) = 0.03743885
#
# Stress axis : x y z
#
# Youngs Moduli (GPa) = 84.84383 54.74582 60.83638
#
# Poissons Ratio (x) = 0.19175 0.00827
# Poissons Ratio (y) = 0.29717 0.05397
# Poissons Ratio (z) = 0.01153 0.04857
#
# Static dielectric constant tensor:
#      x y z
#    x 4.467440 0.147250 0.001060 
#    y 0.147250 4.244850 -0.009500 
#    z 0.001060 -0.009500 4.164300 
# 
# 
# High freq. dielectric constant tensor:
#      x y z
#    x 1.924750 0.005850 0.001830 
#    y 0.005850 1.918060 -0.003880 
#    z 0.001830 -0.003880 1.914370 
# 
# From -- ./inp_files/591936.got.cif
#   From: 2010.06.25/outbox.cif.g09.slc.cpg/sg2_296_cif.got.tgz:591936.got - 2010.06.27 13:26:56.
