data_PCOD8034991
_publ_section_title
;
Structure prediction by ZEFSAII (Michael W. Deem and Ramdas Pophale) SiO2 
 PCOD8034991
Probable space group: P -1
;
_chemical_formula_sum "Si O2"
_cell_formula_units_Z 16
_cell_length_a 8.873457
_cell_length_b 19.300323
_cell_length_c 18.047035
_cell_angle_alpha 152.823227
_cell_angle_beta 29.667753
_cell_angle_gamma 141.891657
_cell_volume 697.413817
_symmetry_space_group_name_H-M "P -1"
_symmetry_group_IT_number 2
_symmetry_cell_setting 'triclinic'
loop_
_space_group_symop_operation_xyz
x,y,z
-x,-y,-z
loop_
_atom_site_type_symbol
_atom_site_label
_atom_site_fract_x
_atom_site_fract_y
_atom_site_fract_z
Si Si1 0.474762 0.596276 0.407687
Si Si2 0.529354 0.878018 0.809064
Si Si3 0.069617 0.363119 0.611998
Si Si4 0.388123 0.951607 0.216996
Si Si5 0.821183 0.699392 0.809175
Si Si6 0.472028 0.179247 0.678806
Si Si7 0.738350 0.806251 0.378658
Si Si8 0.942820 0.678979 0.895595
O O1 0.704111 0.603572 0.385099
O O2 0.350968 0.423056 0.287216
O O3 0.675502 0.652087 0.304672
O O4 0.186142 0.701511 0.641083
O O5 0.782461 0.765957 0.623791
O O6 0.219124 0.779157 0.837247
O O7 0.636070 0.947676 0.750595
O O8 0.500000 0.000000 0.000000
O O9 0.743118 0.284884 0.701430
O O10 0.039050 0.515275 0.723956
O O11 0.095281 0.832144 0.231715
O O12 0.385834 0.053551 0.388784
O O13 0.698338 0.863174 0.997627
O O14 0.727104 0.657304 0.894829
O O15 0.449159 0.220783 0.642358
O O16 0.500000 0.000000 0.500000
O O17 0.179369 0.225717 0.893556
#
# Coordination Sequence:
#
# PCOD8034991 Si02
#       8
#     2   2   2   2   2   2   2   2
#     4  11  26  46  72 104 142 192 238 294 361 427
#     4  12  26  45  74 108 142 189 238 298 369 417
#     4  12  26  49  71 107 149 187 244 295 358 438
#     4  11  25  45  75 104 143 185 244 296 353 435
#     4  11  26  45  73 106 143 187 244 293 362 424
#     4  12  27  46  74 108 147 190 242 296 364 431
#     4  11  24  47  71 103 143 190 236 293 362 419
#     4  12  26  47  72 108 143 193 238 300 362 426
#
# _framework density 22.941904000000001
#
# number of rings (size 3 to 8) (size 9 to 14) (size 15 to 20)
#    0.000    0.500    2.500    4.500    7.000    5.500 
#    0.000    0.000    0.000    0.000    0.000    0.000 
#    0.000    0.000    0.000    0.000    0.000    0.000 
#
# Total GULP energy -198399.586333 kJ/mol
# GULP energy per Si atom -12399.974146 kJ/mol
# Density = 2.288969 g / cm^3
# Si number density = 22.941904 Si / 1000 Ang^3
#
#
#
# Elastic Constant Matrix: (Units=GPa)
#
#
# Indices 1 2 3 4 5 6 
#
# 1 87.7313 43.1206 22.3949 1.2386 -7.9048 -6.3050
# 2 43.1206 124.5423 31.2974 -5.9305 1.1846 0.6576
# 3 22.3949 31.2974 123.4259 7.7986 -5.5832 -23.4030
# 4 1.2386 -5.9305 7.7986 34.9815 -6.8037 -4.9661
# 5 -7.9048 1.1846 -5.5832 -6.8037 28.2980 -6.8836
# 6 -6.3050 0.6576 -23.4030 -4.9661 -6.8836 30.7545
#
#
#
# Elastic Compliance Matrix: (Units=1/GPa)
#
#
# Indices 1 2 3 4 5 6 
#
# 1 0.014759 -0.005066 -0.000400 0.000321 0.005324 0.004073
# 2 -0.005066 0.010579 -0.002699 0.001470 -0.002947 -0.003741
# 3 -0.000400 -0.002699 0.010800 -0.000770 0.004135 0.008996
# 4 0.000321 0.001470 -0.000770 0.031705 0.009106 0.006606
# 5 0.005324 -0.002947 0.004135 0.009106 0.043739 0.015561
# 6 0.004073 -0.003741 0.008996 0.006606 0.015561 0.044826
#
#
# Mechanical properties :
#
#
# Convention : Reuss Voigt Hill
#
# Bulk Modulus (GPa) = 50.48623 58.81393 54.65008
# Shear Modulus (GPa) = 27.87972 34.73259 31.30615
#
# Velocity S-wave (km/s) = 3.48980 3.89516 3.69804
# Velocity P-wave (km/s) = 6.18807 6.77653 6.48897
#
# Compressibility (1/GPa) = 0.01980738
#
# Stress axis : x y z
#
# Youngs Moduli (GPa) = 67.75756 94.52254 92.58871
#
# Poissons Ratio (x) = 0.47886 0.03708
# Poissons Ratio (y) = 0.34326 0.24989
# Poissons Ratio (z) = 0.02714 0.25511
#
# Static dielectric constant tensor:
#      x y z
#    x 4.036160 0.000350 -0.075580 
#    y 0.000350 4.163260 -0.066040 
#    z -0.075580 -0.066040 4.300020 
# 
# 
# High freq. dielectric constant tensor:
#      x y z
#    x 1.913420 0.006770 0.007780 
#    y 0.006770 1.915900 0.000950 
#    z 0.007780 0.000950 1.912030 
# 
# From -- ./inp_files/562046.got.cif
#   From: 2010.06.25/outbox.cif.g09.slc.cpg/sg2_282_cif.got.tgz:562046.got - 2010.06.27 13:26:56.
