data_PCOD8034016
_publ_section_title
;
Structure prediction by ZEFSAII (Michael W. Deem and Ramdas Pophale) SiO2 
 PCOD8034016
Probable space group: P -1
;
_chemical_formula_sum "Si O2"
_cell_formula_units_Z 16
_cell_length_a 11.250203
_cell_length_b 7.315820
_cell_length_c 11.259455
_cell_angle_alpha 118.922504
_cell_angle_beta 84.698514
_cell_angle_gamma 118.959661
_cell_volume 697.431402
_symmetry_space_group_name_H-M "P -1"
_symmetry_group_IT_number 2
_symmetry_cell_setting 'triclinic'
loop_
_space_group_symop_operation_xyz
x,y,z
-x,-y,-z
loop_
_atom_site_type_symbol
_atom_site_label
_atom_site_fract_x
_atom_site_fract_y
_atom_site_fract_z
Si Si1 0.715162 0.261156 0.738529
Si Si2 0.145606 0.540736 0.965396
Si Si3 0.464870 0.539925 0.645231
Si Si4 0.951776 0.995488 0.254049
Si Si5 0.760883 0.738398 0.785090
Si Si6 0.208682 0.935471 0.901575
Si Si7 0.245120 0.003628 0.548182
Si Si8 0.401287 0.934252 0.707891
O O1 0.768386 0.499748 0.731100
O O2 0.773059 0.102317 0.617476
O O3 0.550986 0.118690 0.703419
O O4 0.754760 0.310675 0.888148
O O5 0.137218 0.288075 0.860843
O O6 0.195031 0.700133 0.892422
O O7 0.000000 0.500000 0.000000
O O8 0.500000 0.500000 0.500000
O O9 0.611312 0.689152 0.745171
O O10 0.391261 0.698313 0.694277
O O11 0.360499 0.286998 0.636715
O O12 0.918398 0.139135 0.201133
O O13 0.900503 0.034244 0.399899
O O14 0.117530 0.100877 0.271599
O O15 0.794864 0.878412 0.949072
O O16 0.351565 0.056130 0.850985
O O17 0.298121 0.859908 0.581354
#
# Coordination Sequence:
#
# PCOD8034016 Si02
#       8
#     2   2   2   2   2   2   2   2
#     4  12  24  43  71 101 138 179 227 280 343 403
#     4  12  24  43  71  97 137 182 224 279 341 400
#     4  12  24  43  71  97 137 182 224 279 341 400
#     4  11  25  47  71 101 139 180 226 282 340 405
#     4  12  24  43  71 101 138 179 227 280 343 403
#     4  11  24  43  70 101 134 177 229 282 338 402
#     4  11  25  47  71 101 139 180 226 282 340 405
#     4  11  24  43  70 101 134 177 229 282 338 402
#
# _framework density 22.941322
#
# number of rings (size 3 to 8) (size 9 to 14) (size 15 to 20)
#    0.000    0.500    5.000    3.750    0.000    4.000 
#    0.000    3.750    0.000    0.000    0.000    0.000 
#    0.000    0.000    0.000    0.000    0.000    0.000 
#
# Total GULP energy -198392.229651 kJ/mol
# GULP energy per Si atom -12399.514353 kJ/mol
# Density = 2.288911 g / cm^3
# Si number density = 22.941322 Si / 1000 Ang^3
#
#
#
# Elastic Constant Matrix: (Units=GPa)
#
#
# Indices 1 2 3 4 5 6 
#
# 1 68.6272 26.0760 20.7544 -2.9200 -22.8496 -10.5823
# 2 26.0760 104.2618 41.1436 -0.2044 -14.3725 -6.9233
# 3 20.7544 41.1436 38.5201 -3.6092 -23.7237 6.8672
# 4 -2.9200 -0.2044 -3.6092 32.4365 2.5889 -8.0855
# 5 -22.8496 -14.3725 -23.7237 2.5889 37.7963 -19.1213
# 6 -10.5823 -6.9233 6.8672 -8.0855 -19.1213 32.9418
#
#
#
# Elastic Compliance Matrix: (Units=1/GPa)
#
#
# Indices 1 2 3 4 5 6 
#
# 1 0.031622 -0.001320 0.000807 0.008094 0.034666 0.031822
# 2 -0.001320 0.019017 -0.024581 -0.001058 -0.006589 0.004613
# 3 0.000807 -0.024581 0.077054 0.006339 0.041410 0.004623
# 4 0.008094 -0.001058 0.006339 0.035715 0.015562 0.018855
# 5 0.034666 -0.006589 0.041410 0.015562 0.102406 0.064381
# 6 0.031822 0.004613 0.004623 0.018855 0.064381 0.082583
#
#
# Mechanical properties :
#
#
# Convention : Reuss Voigt Hill
#
# Bulk Modulus (GPa) = 12.90213 43.03971 27.97092
# Shear Modulus (GPa) = 11.78077 28.86392 20.32235
#
# Velocity S-wave (km/s) = 2.26855 3.55091 2.97954
# Velocity P-wave (km/s) = 3.53524 5.96770 4.90466
#
# Compressibility (1/GPa) = 0.07750660
#
# Stress axis : x y z
#
# Youngs Moduli (GPa) = 31.62328 52.58353 12.97790
#
# Poissons Ratio (x) = 0.06939 -0.01048
# Poissons Ratio (y) = 0.04173 0.31901
# Poissons Ratio (z) = -0.02552 1.29256
#
# Static dielectric constant tensor:
#      x y z
#    x 3.795920 0.192410 -0.141390 
#    y 0.192410 4.502460 0.532150 
#    z -0.141390 0.532150 4.346840 
# 
# 
# High freq. dielectric constant tensor:
#      x y z
#    x 1.912990 -0.005350 -0.011560 
#    y -0.005350 1.912210 -0.011470 
#    z -0.011560 -0.011470 1.899930 
# 
# From -- ./inp_files/419728.got.cif
#   From: 2010.06.25/outbox.cif.g09.slc.cpg/sg2_210_cif.got.tgz:419728.got - 2010.06.27 13:26:56.
