data_PCOD8034681
_publ_section_title
;
Structure prediction by ZEFSAII (Michael W. Deem and Ramdas Pophale) SiO2 
 PCOD8034681
Probable space group: P -1
;
_chemical_formula_sum "Si O2"
_cell_formula_units_Z 16
_cell_length_a 9.141761
_cell_length_b 11.378054
_cell_length_c 8.878370
_cell_angle_alpha 122.426429
_cell_angle_beta 99.395532
_cell_angle_gamma 62.110108
_cell_volume 684.194269
_symmetry_space_group_name_H-M "P -1"
_symmetry_group_IT_number 2
_symmetry_cell_setting 'triclinic'
loop_
_space_group_symop_operation_xyz
x,y,z
-x,-y,-z
loop_
_atom_site_type_symbol
_atom_site_label
_atom_site_fract_x
_atom_site_fract_y
_atom_site_fract_z
Si Si1 0.688068 0.870361 0.909775
Si Si2 0.549987 0.646897 0.751492
Si Si3 0.974431 0.733999 0.077354
Si Si4 0.748249 0.290692 0.464020
Si Si5 0.483966 0.343934 0.911242
Si Si6 0.892798 0.810713 0.610347
Si Si7 0.802171 0.124693 0.662592
Si Si8 0.865258 0.595920 0.228879
O O1 0.680696 0.708487 0.766430
O O2 0.781255 0.894577 0.795761
O O3 0.796479 0.861118 0.070216
O O4 0.500000 0.000000 0.000000
O O5 0.652772 0.460023 0.642397
O O6 0.386508 0.724970 0.674725
O O7 0.479844 0.709968 0.947847
O O8 0.969447 0.657754 0.184387
O O9 0.094252 0.814938 0.171281
O O10 0.043557 0.592638 0.868382
O O11 0.815284 0.155459 0.509394
O O12 0.907627 0.271987 0.379038
O O13 0.610279 0.211066 0.733877
O O14 0.307103 0.359577 0.849449
O O15 0.500000 0.500000 0.000000
O O16 0.844912 0.679371 0.444502
O O17 0.860479 0.941594 0.567534
#
# Coordination Sequence:
#
# PCOD8034681 Si02
#       8
#     2   2   2   2   2   2   2   2
#     4  12  29  49  69 104 150 194 235 304 364 432
#     4  11  25  46  72 105 145 190 237 302 359 426
#     4  11  24  46  77  99 146 192 241 298 357 429
#     4  11  25  46  72 106 147 182 244 302 362 420
#     4  12  23  44  74 106 143 186 243 286 361 428
#     4  12  29  45  73 107 146 192 244 297 365 431
#     4  12  26  47  72 108 145 195 239 299 357 431
#     4  11  24  45  74 110 138 188 247 296 352 434
#
# _framework density 23.385172000000001
#
# number of rings (size 3 to 8) (size 9 to 14) (size 15 to 20)
#    0.000    0.500    5.000    1.875    5.250    3.000 
#    0.000    0.000    0.000    0.000    0.000    0.000 
#    0.000    0.000    0.000    0.000    0.000    0.000 
#
# Total GULP energy -198436.055054 kJ/mol
# GULP energy per Si atom -12402.253441 kJ/mol
# Density = 2.333195 g / cm^3
# Si number density = 23.385172 Si / 1000 Ang^3
#
#
#
# Elastic Constant Matrix: (Units=GPa)
#
#
# Indices 1 2 3 4 5 6 
#
# 1 104.6296 25.0535 37.5253 -8.7323 -2.9018 -5.5661
# 2 25.0535 69.2600 10.2883 -10.0985 2.1262 -8.3481
# 3 37.5253 10.2883 69.9739 -4.7255 -10.6519 -8.2445
# 4 -8.7323 -10.0985 -4.7255 35.5850 -3.3244 0.5558
# 5 -2.9018 2.1262 -10.6519 -3.3244 47.9385 4.5053
# 6 -5.5661 -8.3481 -8.2445 0.5558 4.5053 36.8987
#
#
#
# Elastic Compliance Matrix: (Units=1/GPa)
#
#
# Indices 1 2 3 4 5 6 
#
# 1 0.012746 -0.003507 -0.006320 0.001263 -0.000365 -0.000257
# 2 -0.003507 0.016691 -0.000090 0.003717 -0.001025 0.003296
# 3 -0.006320 -0.000090 0.018643 0.001192 0.003589 0.002736
# 4 0.001263 0.003717 0.001192 0.029820 0.002190 0.000581
# 5 -0.000365 -0.001025 0.003589 0.002190 0.022040 -0.002209
# 6 -0.000257 0.003296 0.002736 0.000581 -0.002209 0.028680
#
#
# Mechanical properties :
#
#
# Convention : Reuss Voigt Hill
#
# Bulk Modulus (GPa) = 35.40454 43.28863 39.34659
# Shear Modulus (GPa) = 31.67162 35.48419 33.57790
#
# Velocity S-wave (km/s) = 3.68414 3.89958 3.79339
# Velocity P-wave (km/s) = 5.76799 6.23113 6.00403
#
# Compressibility (1/GPa) = 0.02824496
#
# Stress axis : x y z
#
# Youngs Moduli (GPa) = 78.45819 59.91218 53.64003
#
# Poissons Ratio (x) = 0.21013 0.33901
# Poissons Ratio (y) = 0.27518 0.00482
# Poissons Ratio (z) = 0.49587 0.00538
#
# Static dielectric constant tensor:
#      x y z
#    x 4.726230 -0.009790 -0.075010 
#    y -0.009790 4.227930 0.145210 
#    z -0.075010 0.145210 4.070810 
# 
# 
# High freq. dielectric constant tensor:
#      x y z
#    x 1.940870 -0.008500 0.002440 
#    y -0.008500 1.925600 0.007510 
#    z 0.002440 0.007510 1.919410 
# 
# From -- ./inp_files/190165.got.cif
#   From: 2010.06.25/outbox.cif.g09.slc.cpg/sg2_96_cif.got.tgz:190165.got - 2010.06.27 13:26:56.
