data_PCOD8034602
_publ_section_title
;
Structure prediction by ZEFSAII (Michael W. Deem and Ramdas Pophale) SiO2 
 PCOD8034602
Probable space group: P -1
;
_chemical_formula_sum "Si O2"
_cell_formula_units_Z 16
_cell_length_a 11.954450
_cell_length_b 22.094934
_cell_length_c 9.450691
_cell_angle_alpha 151.423587
_cell_angle_beta 134.925018
_cell_angle_gamma 39.819411
_cell_volume 760.517967
_symmetry_space_group_name_H-M "P -1"
_symmetry_group_IT_number 2
_symmetry_cell_setting 'triclinic'
loop_
_space_group_symop_operation_xyz
x,y,z
-x,-y,-z
loop_
_atom_site_type_symbol
_atom_site_label
_atom_site_fract_x
_atom_site_fract_y
_atom_site_fract_z
Si Si1 0.380849 0.419888 0.691378
Si Si2 0.289352 0.586689 0.459016
Si Si3 0.151998 0.899496 0.027146
Si Si4 0.938903 0.065320 0.428317
Si Si5 0.558949 0.098123 0.160753
Si Si6 0.222833 0.398931 0.209347
Si Si7 0.873251 0.372645 0.907813
Si Si8 0.508177 0.118642 0.841784
O O1 0.484211 0.254517 0.483073
O O2 0.315608 0.433423 0.498587
O O3 0.500000 0.500000 0.000000
O O4 0.210983 0.493921 0.789832
O O5 0.500000 0.500000 0.500000
O O6 0.189826 0.739509 0.754614
O O7 0.175558 0.520196 0.300487
O O8 0.251545 0.599054 0.282713
O O9 0.310786 0.884376 0.041163
O O10 0.000000 0.000000 0.000000
O O11 0.107089 0.975499 0.294855
O O12 0.766602 0.039595 0.196114
O O13 0.892211 0.230177 0.709646
O O14 0.000000 0.000000 0.500000
O O15 0.474764 0.099605 0.937004
O O16 0.500000 0.000000 0.000000
O O17 0.358497 0.268254 0.972073
O O18 0.062196 0.363844 0.027446
O O19 0.500000 0.000000 0.500000
#
# Coordination Sequence:
#
# PCOD8034602 Si02
#       8
#     2   2   2   2   2   2   2   2
#     4  11  24  46  73  97 147 197 241 301 373 437
#     4  12  25  45  74 105 145 190 245 298 371 444
#     4  12  24  47  73 101 145 192 244 305 362 441
#     4  12  28  44  73 106 144 194 246 302 377 439
#     4  11  26  46  69 108 147 187 251 307 361 449
#     4  11  26  44  70 109 144 191 249 302 369 444
#     4  12  25  47  71 104 150 191 249 308 365 447
#     4  11  24  45  72 102 147 192 237 302 375 431
#
# _framework density 21.038292999999999
#
# number of rings (size 3 to 8) (size 9 to 14) (size 15 to 20)
#    0.000    0.500    5.000    2.250    7.000    3.000 
#    0.000    0.000    0.000    0.000    0.000    0.000 
#    0.000    0.000    0.000    0.000    0.000    0.000 
#
# Total GULP energy -198231.223790 kJ/mol
# GULP energy per Si atom -12389.451487 kJ/mol
# Density = 2.099041 g / cm^3
# Si number density = 21.038293 Si / 1000 Ang^3
#
#
#
# Elastic Constant Matrix: (Units=GPa)
#
#
# Indices 1 2 3 4 5 6 
#
# 1 135.7678 47.7391 50.6568 19.1930 6.1354 1.9905
# 2 47.7391 122.4284 55.7903 16.2914 3.1964 8.2796
# 3 50.6568 55.7903 147.5828 20.5115 -9.7523 6.3237
# 4 19.1930 16.2914 20.5115 37.2743 -3.1698 -0.2609
# 5 6.1354 3.1964 -9.7523 -3.1698 52.4954 4.5242
# 6 1.9905 8.2796 6.3237 -0.2609 4.5242 49.5735
#
#
#
# Elastic Compliance Matrix: (Units=1/GPa)
#
#
# Indices 1 2 3 4 5 6 
#
# 1 0.009426 -0.002340 -0.002079 -0.002816 -0.001550 0.000404
# 2 -0.002340 0.010830 -0.003029 -0.001952 -0.000959 -0.001251
# 3 -0.002079 -0.003029 0.009146 -0.002470 0.002044 -0.000777
# 4 -0.002816 -0.001952 -0.002470 0.030646 0.001775 0.000753
# 5 -0.001550 -0.000959 0.002044 0.001775 0.019935 -0.001848
# 6 0.000404 -0.001251 -0.000777 0.000753 -0.001848 0.020637
#
#
# Mechanical properties :
#
#
# Convention : Reuss Voigt Hill
#
# Bulk Modulus (GPa) = 68.94020 79.35015 74.14517
# Shear Modulus (GPa) = 41.54392 44.64151 43.09272
#
# Velocity S-wave (km/s) = 4.44856 4.61142 4.53072
# Velocity P-wave (km/s) = 7.69586 8.13342 7.91766
#
# Compressibility (1/GPa) = 0.01450533
#
# Stress axis : x y z
#
# Youngs Moduli (GPa) = 106.08481 92.33208 109.33247
#
# Poissons Ratio (x) = 0.21609 0.22733
# Poissons Ratio (y) = 0.24828 0.33121
# Poissons Ratio (z) = 0.22058 0.27971
#
# Static dielectric constant tensor:
#      x y z
#    x 3.512150 0.061330 0.054880 
#    y 0.061330 3.921880 0.093830 
#    z 0.054880 0.093830 3.856610 
# 
# 
# High freq. dielectric constant tensor:
#      x y z
#    x 1.842490 -0.003020 -0.004390 
#    y -0.003020 1.832080 0.011710 
#    z -0.004390 0.011710 1.831400 
# 
# From -- ./inp_files/283525.got.cif
#   From: 2010.06.25/outbox.cif.g09.slc.cpg/sg2_142_cif.got.tgz:283525.got - 2010.06.27 13:26:56.
