data_PCOD8034224
_publ_section_title
;
Structure prediction by ZEFSAII (Michael W. Deem and Ramdas Pophale) SiO2 
 PCOD8034224
Probable space group: P -1
;
_chemical_formula_sum "Si O2"
_cell_formula_units_Z 14
_cell_length_a 9.456186
_cell_length_b 9.261822
_cell_length_c 13.190041
_cell_angle_alpha 50.019454
_cell_angle_beta 45.907248
_cell_angle_gamma 74.990605
_cell_volume 597.465580
_symmetry_space_group_name_H-M "P -1"
_symmetry_group_IT_number 2
_symmetry_cell_setting 'triclinic'
loop_
_space_group_symop_operation_xyz
x,y,z
-x,-y,-z
loop_
_atom_site_type_symbol
_atom_site_label
_atom_site_fract_x
_atom_site_fract_y
_atom_site_fract_z
Si Si1 0.686901 0.302931 0.766803
Si Si2 0.604637 0.991119 0.605727
Si Si3 0.248213 0.071789 0.001273
Si Si4 0.700281 0.692918 0.329458
Si Si5 0.142150 0.633044 0.571245
Si Si6 0.297518 0.384310 0.217007
Si Si7 0.214017 0.978234 0.714309
O O1 0.825806 0.347109 0.575806
O O2 0.712940 0.507467 0.720601
O O3 0.761833 0.155978 0.869396
O O4 0.439733 0.213572 0.907130
O O5 0.697743 0.836732 0.677065
O O6 0.720026 0.061106 0.411261
O O7 0.660251 0.190561 0.557830
O O8 0.351905 0.889871 0.761523
O O9 0.274622 0.128923 0.843669
O O10 0.036736 0.115494 0.115550
O O11 0.500000 0.500000 0.500000
O O12 0.879714 0.591259 0.280316
O O13 0.711335 0.786989 0.394095
O O14 0.925590 0.653668 0.708384
O O15 0.500000 0.500000 0.000000
#
# Coordination Sequence:
#
# PCOD8034224 Si02
#       7
#     2   2   2   2   2   2   2
#     4  11  25  47  72 103 134 186 232 279 336 410
#     4  11  26  45  68 100 143 181 222 281 353 406
#     4  11  25  41  77  97 140 174 240 277 337 402
#     4  12  23  43  72 103 133 176 232 283 335 409
#     4  12  25  48  74  97 139 186 230 278 343 409
#     4  12  29  42  70 103 142 176 232 282 343 404
#     4  11  24  44  69 100 139 181 224 283 346 401
#
# _framework density 23.432313000000001
#
# number of rings (size 3 to 8) (size 9 to 14) (size 15 to 20)
#    0.000    0.571    2.857    3.857   10.000    0.000 
#    0.000    1.429    0.000    0.000    0.000    0.000 
#    0.000    0.000    0.000    0.000    0.000    0.000 
#
# Total GULP energy -173459.242928 kJ/mol
# GULP energy per Si atom -12389.945923 kJ/mol
# Density = 2.337898 g / cm^3
# Si number density = 23.432313 Si / 1000 Ang^3
#
#
#
# Elastic Constant Matrix: (Units=GPa)
#
#
# Indices 1 2 3 4 5 6 
#
# 1 120.8694 23.4885 45.9439 10.7311 -7.4480 -22.4294
# 2 23.4885 111.3812 16.1657 9.6985 23.1007 -4.3676
# 3 45.9439 16.1657 94.3200 18.7208 -0.2840 -7.9584
# 4 10.7311 9.6985 18.7208 29.6660 -13.0664 -1.9967
# 5 -7.4480 23.1007 -0.2840 -13.0664 54.9660 2.4453
# 6 -22.4294 -4.3676 -7.9584 -1.9967 2.4453 45.8750
#
#
#
# Elastic Compliance Matrix: (Units=1/GPa)
#
#
# Indices 1 2 3 4 5 6 
#
# 1 0.011497 -0.002131 -0.005079 0.001144 0.002501 0.004454
# 2 -0.002131 0.011238 0.000276 -0.005894 -0.006419 0.000161
# 3 -0.005079 0.000276 0.014759 -0.008817 -0.002818 -0.000130
# 4 0.001144 -0.005894 -0.008817 0.046816 0.013725 -0.000225
# 5 0.002501 -0.006419 -0.002818 0.013725 0.024504 -0.000586
# 6 0.004454 0.000161 -0.000130 -0.000225 -0.000586 0.023990
#
#
# Mechanical properties :
#
#
# Convention : Reuss Voigt Hill
#
# Bulk Modulus (GPa) = 42.32477 55.30741 48.81609
# Shear Modulus (GPa) = 32.35240 42.16623 37.25932
#
# Velocity S-wave (km/s) = 3.71977 4.24664 3.99191
# Velocity P-wave (km/s) = 6.04572 6.90649 6.49039
#
# Compressibility (1/GPa) = 0.02362683
#
# Stress axis : x y z
#
# Youngs Moduli (GPa) = 86.97884 88.98129 67.75349
#
# Poissons Ratio (x) = 0.18963 0.34411
# Poissons Ratio (y) = 0.18537 -0.01870
# Poissons Ratio (z) = 0.44175 -0.02456
#
# Static dielectric constant tensor:
#      x y z
#    x 4.747300 -0.400620 -0.180880 
#    y -0.400620 4.445730 0.014090 
#    z -0.180880 0.014090 4.007740 
# 
# 
# High freq. dielectric constant tensor:
#      x y z
#    x 1.954700 -0.012060 -0.018190 
#    y -0.012060 1.933150 0.009520 
#    z -0.018190 0.009520 1.909500 
# 
# From -- ./inp_files/159346.got.cif
#   From: 2010.06.25/outbox.cif.g09.slc.cpg/sg2_80_cif.got.tgz:159346.got - 2010.06.27 13:26:56.
