data_PCOD8034812
_publ_section_title
;
Structure prediction by ZEFSAII (Michael W. Deem and Ramdas Pophale) SiO2 
 PCOD8034812
Probable space group: P -1
;
_chemical_formula_sum "Si O2"
_cell_formula_units_Z 16
_cell_length_a 11.691099
_cell_length_b 20.049386
_cell_length_c 17.630402
_cell_angle_alpha 21.344768
_cell_angle_beta 150.515699
_cell_angle_gamma 152.209163
_cell_volume 674.449258
_symmetry_space_group_name_H-M "P -1"
_symmetry_group_IT_number 2
_symmetry_cell_setting 'triclinic'
loop_
_space_group_symop_operation_xyz
x,y,z
-x,-y,-z
loop_
_atom_site_type_symbol
_atom_site_label
_atom_site_fract_x
_atom_site_fract_y
_atom_site_fract_z
Si Si1 0.380199 0.164101 0.659967
Si Si2 0.384989 0.263741 0.396324
Si Si3 0.559119 0.069163 0.314946
Si Si4 0.020137 0.682803 0.172431
Si Si5 0.068856 0.757741 0.413679
Si Si6 0.970791 0.273557 0.035399
Si Si7 0.758975 0.701667 0.148374
Si Si8 0.092983 0.322355 0.431372
O O1 0.254548 0.198096 0.473330
O O2 0.676759 0.235987 0.740354
O O3 0.330861 0.300024 0.552296
O O4 0.265505 0.932367 0.862907
O O5 0.203721 0.318467 0.178481
O O6 0.650690 0.460412 0.349810
O O7 0.441839 0.079513 0.594947
O O8 0.833802 0.167853 0.406967
O O9 0.346942 0.939246 0.391597
O O10 0.480995 0.238923 0.054509
O O11 0.887580 0.443604 0.360448
O O12 0.925334 0.778858 0.085295
O O13 0.931945 0.737704 0.982239
O O14 0.904863 0.738138 0.415581
O O15 0.932567 0.804325 0.212655
O O16 0.873715 0.449737 0.799008
#
# Coordination Sequence:
#
# PCOD8034812 Si02
#       8
#     2   2   2   2   2   2   2   2
#     4  12  26  49  72 100 152 190 236 290 350 432
#     4  12  25  48  74 106 143 187 240 298 353 415
#     4  12  25  45  75 107 139 188 239 295 356 421
#     4  11  25  47  74 105 144 188 234 298 354 421
#     4  11  24  46  71 106 147 183 236 297 354 420
#     4  11  26  46  71 107 142 191 237 286 356 423
#     4  12  25  49  75 105 144 185 240 300 357 414
#     4  11  27  46  72 108 143 191 236 291 354 423
#
# _framework density 23.723058999999999
#
# number of rings (size 3 to 8) (size 9 to 14) (size 15 to 20)
#    0.000    0.500    5.000    2.625    1.750    5.000 
#    4.500    0.000    0.000    0.000    0.000    0.000 
#    0.000    0.000    0.000    0.000    0.000    0.000 
#
# Total GULP energy -198488.006017 kJ/mol
# GULP energy per Si atom -12405.500376 kJ/mol
# Density = 2.366906 g / cm^3
# Si number density = 23.723059 Si / 1000 Ang^3
#
#
#
# Elastic Constant Matrix: (Units=GPa)
#
#
# Indices 1 2 3 4 5 6 
#
# 1 149.2054 19.8298 57.2547 -12.4634 -1.8015 -20.7027
# 2 19.8298 59.7979 27.8847 -12.2742 0.6966 -7.6307
# 3 57.2547 27.8847 81.5935 -9.2474 -13.6472 -1.0938
# 4 -12.4634 -12.2742 -9.2474 35.3876 -1.5797 -9.4249
# 5 -1.8015 0.6966 -13.6472 -1.5797 44.2009 4.1457
# 6 -20.7027 -7.6307 -1.0938 -9.4249 4.1457 28.7246
#
#
#
# Elastic Compliance Matrix: (Units=1/GPa)
#
#
# Indices 1 2 3 4 5 6 
#
# 1 0.011754 0.002923 -0.008990 0.005650 -0.003193 0.011220
# 2 0.002923 0.023777 -0.009578 0.009747 -0.003974 0.011830
# 3 -0.008990 -0.009578 0.022641 -0.002957 0.007629 -0.010233
# 4 0.005650 0.009747 -0.002957 0.037905 -0.001280 0.019170
# 5 -0.003193 -0.003974 0.007629 -0.001280 0.025539 -0.007172
# 6 0.011220 0.011830 -0.010233 0.019170 -0.007172 0.052978
#
#
# Mechanical properties :
#
#
# Convention : Reuss Voigt Hill
#
# Bulk Modulus (GPa) = 37.20043 55.61502 46.40773
# Shear Modulus (GPa) = 23.27262 34.03779 28.65521
#
# Velocity S-wave (km/s) = 3.13551 3.79198 3.47926
# Velocity P-wave (km/s) = 5.36877 6.53196 5.97872
#
# Compressibility (1/GPa) = 0.02688141
#
# Stress axis : x y z
#
# Youngs Moduli (GPa) = 85.08043 42.05791 44.16691
#
# Poissons Ratio (x) = -0.12294 0.39706
# Poissons Ratio (y) = -0.24870 0.42305
# Poissons Ratio (z) = 0.76486 0.40285
#
# Static dielectric constant tensor:
#      x y z
#    x 4.448280 -0.222600 -0.211160 
#    y -0.222600 4.334910 -0.126680 
#    z -0.211160 -0.126680 4.253730 
# 
# 
# High freq. dielectric constant tensor:
#      x y z
#    x 1.943520 -0.008540 -0.010870 
#    y -0.008540 1.949370 -0.011140 
#    z -0.010870 -0.011140 1.945270 
# 
# From -- ./inp_files/282853.got.cif
#   From: 2010.06.25/outbox.cif.g09.slc.cpg/sg2_142_cif.got.tgz:282853.got - 2010.06.27 13:26:56.
