data_PCOD8034971
_publ_section_title
;
Structure prediction by ZEFSAII (Michael W. Deem and Ramdas Pophale) SiO2 
 PCOD8034971
Probable space group: P -1
;
_chemical_formula_sum "Si O2"
_cell_formula_units_Z 16
_cell_length_a 9.794675
_cell_length_b 15.698097
_cell_length_c 8.853566
_cell_angle_alpha 109.861347
_cell_angle_beta 67.941317
_cell_angle_gamma 144.259642
_cell_volume 735.415618
_symmetry_space_group_name_H-M "P -1"
_symmetry_group_IT_number 2
_symmetry_cell_setting 'triclinic'
loop_
_space_group_symop_operation_xyz
x,y,z
-x,-y,-z
loop_
_atom_site_type_symbol
_atom_site_label
_atom_site_fract_x
_atom_site_fract_y
_atom_site_fract_z
Si Si1 0.019636 0.794942 0.778166
Si Si2 0.674439 0.235511 0.364427
Si Si3 0.143728 0.997058 0.340089
Si Si4 0.911278 0.977612 0.183954
Si Si5 0.593782 0.335122 0.693681
Si Si6 0.010188 0.436225 0.093883
Si Si7 0.558617 0.498691 0.645652
Si Si8 0.906638 0.718896 0.117563
O O1 0.217087 0.812102 0.703312
O O2 0.799638 0.664485 0.686849
O O3 0.138221 0.938870 0.734104
O O4 0.928007 0.772738 0.973187
O O5 0.710325 0.301416 0.551572
O O6 0.799554 0.353606 0.250648
O O7 0.396086 0.097030 0.365094
O O8 0.145829 0.054388 0.219411
O O9 0.021150 0.839755 0.269251
O O10 0.000000 0.000000 0.500000
O O11 0.678058 0.810082 0.230538
O O12 0.000000 0.000000 0.000000
O O13 0.595414 0.408733 0.600444
O O14 0.742279 0.439519 0.840671
O O15 0.000000 0.500000 0.000000
O O16 0.964989 0.316310 0.966196
O O17 0.500000 0.500000 0.500000
O O18 0.360351 0.432116 0.809856
#
# Coordination Sequence:
#
# PCOD8034971 Si02
#       8
#     2   2   2   2   2   2   2   2
#     4  11  26  45  71 107 143 197 234 302 369 423
#     4  11  26  47  71  99 154 188 238 302 364 429
#     4  12  25  47  73 102 143 190 244 298 369 427
#     4  12  26  44  75 106 141 189 247 299 363 431
#     4  12  25  49  70 104 151 185 238 305 355 434
#     4  11  28  44  73 106 140 197 238 296 369 432
#     4  12  26  42  75 104 141 192 244 294 362 430
#     4  11  24  47  69 102 147 185 244 302 353 434
#
# _framework density 21.756405999999998
#
# number of rings (size 3 to 8) (size 9 to 14) (size 15 to 20)
#    0.000    0.500    6.250    0.750    8.750    3.500 
#    0.000    0.000    0.000    0.000    0.000    0.000 
#    0.000    0.000    0.000    0.000    0.000    0.000 
#
# Total GULP energy -198280.004199 kJ/mol
# GULP energy per Si atom -12392.500262 kJ/mol
# Density = 2.170689 g / cm^3
# Si number density = 21.756406 Si / 1000 Ang^3
#
#
#
# Elastic Constant Matrix: (Units=GPa)
#
#
# Indices 1 2 3 4 5 6 
#
# 1 116.7563 55.1719 46.0252 9.9545 14.8769 -3.9471
# 2 55.1719 118.8840 42.2625 15.4043 5.4754 -1.6930
# 3 46.0252 42.2625 114.1520 20.2765 -5.9092 3.5167
# 4 9.9545 15.4043 20.2765 29.0909 -0.6824 -1.3270
# 5 14.8769 5.4754 -5.9092 -0.6824 40.4345 -5.1020
# 6 -3.9471 -1.6930 3.5167 -1.3270 -5.1020 44.8286
#
#
#
# Elastic Compliance Matrix: (Units=1/GPa)
#
#
# Indices 1 2 3 4 5 6 
#
# 1 0.012714 -0.004382 -0.003868 0.000594 -0.004544 0.000758
# 2 -0.004382 0.011579 -0.001956 -0.003272 -0.000287 0.000075
# 3 -0.003868 -0.001956 0.012355 -0.006231 0.003237 -0.001200
# 4 0.000594 -0.003272 -0.006231 0.040327 0.000201 0.001634
# 5 -0.004544 -0.000287 0.003237 0.000201 0.027226 0.002440
# 6 0.000758 0.000075 -0.001200 0.001634 0.002440 0.022797
#
#
# Mechanical properties :
#
#
# Convention : Reuss Voigt Hill
#
# Bulk Modulus (GPa) = 61.59117 70.74571 66.16844
# Shear Modulus (GPa) = 32.71757 36.62633 34.67195
#
# Velocity S-wave (km/s) = 3.88211 4.10747 3.99638
# Velocity P-wave (km/s) = 6.96170 7.42178 7.19542
#
# Compressibility (1/GPa) = 0.01623609
#
# Stress axis : x y z
#
# Youngs Moduli (GPa) = 78.65083 86.36413 80.93699
#
# Poissons Ratio (x) = 0.37848 0.31306
# Poissons Ratio (y) = 0.34468 0.15831
# Poissons Ratio (z) = 0.30422 0.16893
#
# Static dielectric constant tensor:
#      x y z
#    x 3.734740 0.098850 -0.112760 
#    y 0.098850 3.875000 0.089750 
#    z -0.112760 0.089750 4.170070 
# 
# 
# High freq. dielectric constant tensor:
#      x y z
#    x 1.858130 -0.008570 -0.005700 
#    y -0.008570 1.856890 0.004320 
#    z -0.005700 0.004320 1.870960 
# 
# From -- ./inp_files/208249.got.cif
#   From: 2010.06.25/outbox.cif.g09.slc.cpg/sg2_105_cif.got.tgz:208249.got - 2010.06.27 13:26:56.
