data_PCOD8034401
_publ_section_title
;
Structure prediction by ZEFSAII (Michael W. Deem and Ramdas Pophale) SiO2 
 PCOD8034401
Probable space group: P -1
;
_chemical_formula_sum "Si O2"
_cell_formula_units_Z 16
_cell_length_a 8.218053
_cell_length_b 18.369318
_cell_length_c 6.019515
_cell_angle_alpha 118.528053
_cell_angle_beta 61.177761
_cell_angle_gamma 107.195838
_cell_volume 696.942323
_symmetry_space_group_name_H-M "P -1"
_symmetry_group_IT_number 2
_symmetry_cell_setting 'triclinic'
loop_
_space_group_symop_operation_xyz
x,y,z
-x,-y,-z
loop_
_atom_site_type_symbol
_atom_site_label
_atom_site_fract_x
_atom_site_fract_y
_atom_site_fract_z
Si Si1 0.884890 0.734399 0.254768
Si Si2 0.323574 0.672897 0.424676
Si Si3 0.913860 0.407035 0.891852
Si Si4 0.354865 0.151528 0.165690
Si Si5 0.777523 0.175126 0.019069
Si Si6 0.345456 0.278014 0.014236
Si Si7 0.536155 0.405978 0.381529
Si Si8 0.095300 0.991908 0.172810
O O1 0.706497 0.780383 0.519626
O O2 0.826748 0.702856 0.000199
O O3 0.926906 0.655163 0.257745
O O4 0.064592 0.802855 0.240891
O O5 0.166062 0.608158 0.325324
O O6 0.217373 0.740959 0.721332
O O7 0.453379 0.722552 0.232542
O O8 0.461994 0.618645 0.396790
O O9 0.742947 0.387445 0.143579
O O10 0.000000 0.500000 0.000000
O O11 0.577113 0.151704 0.010082
O O12 0.268733 0.060677 0.152841
O O13 0.293257 0.185594 0.016231
O O14 0.831277 0.098607 0.021317
O O15 0.370100 0.349132 0.290435
O O16 0.500000 0.500000 0.500000
O O17 0.000000 0.000000 0.500000
O O18 0.000000 0.000000 0.000000
#
# Coordination Sequence:
#
# PCOD8034401 Si02
#       8
#     2   2   2   2   2   2   2   2
#     4  12  25  45  73 104 149 188 248 306 377 448
#     4  11  24  48  70 103 147 195 250 309 379 452
#     4  11  28  41  67 108 144 195 248 309 376 451
#     4  12  26  49  75 111 147 195 249 309 384 450
#     4  12  24  50  75 110 147 199 248 310 382 458
#     4  11  24  44  74 103 141 192 249 307 380 451
#     4  11  25  44  69 101 144 193 247 312 375 448
#     4  12  29  51  80 118 158 203 255 324 386 467
#
# _framework density 22.957424
#
# number of rings (size 3 to 8) (size 9 to 14) (size 15 to 20)
#    0.000    0.500    5.000    1.875    8.750    2.500 
#    0.000    1.875    0.000    0.000    0.000    0.000 
#    0.000    0.000    0.000    0.000    0.000    0.000 
#
# Total GULP energy -198261.098696 kJ/mol
# GULP energy per Si atom -12391.318669 kJ/mol
# Density = 2.290517 g / cm^3
# Si number density = 22.957424 Si / 1000 Ang^3
#
#
#
# Elastic Constant Matrix: (Units=GPa)
#
#
# Indices 1 2 3 4 5 6 
#
# 1 140.4267 48.7353 35.3357 2.1295 20.4232 -10.6495
# 2 48.7353 158.4450 25.9005 6.6259 7.4011 -14.8224
# 3 35.3357 25.9005 57.4149 -5.1661 14.4732 -12.7394
# 4 2.1295 6.6259 -5.1661 35.7675 -2.1138 -8.0221
# 5 20.4232 7.4011 14.4732 -2.1138 39.5599 -1.6210
# 6 -10.6495 -14.8224 -12.7394 -8.0221 -1.6210 48.9885
#
#
#
# Elastic Compliance Matrix: (Units=1/GPa)
#
#
# Indices 1 2 3 4 5 6 
#
# 1 0.009310 -0.002000 -0.004146 -0.000938 -0.002962 0.000089
# 2 -0.002000 0.007403 -0.002086 -0.001292 0.000385 0.001064
# 3 -0.004146 -0.002086 0.023990 0.004952 -0.005763 0.005326
# 4 -0.000938 -0.001292 0.004952 0.030288 0.000765 0.005678
# 5 -0.002962 0.000385 -0.005763 0.000765 0.028846 -0.000946
# 6 0.000089 0.001064 0.005326 0.005678 -0.000946 0.023038
#
#
# Mechanical properties :
#
#
# Convention : Reuss Voigt Hill
#
# Bulk Modulus (GPa) = 41.25461 64.02552 52.64006
# Shear Modulus (GPa) = 33.91722 41.28417 37.60069
#
# Velocity S-wave (km/s) = 3.84786 4.24523 4.05142
# Velocity P-wave (km/s) = 6.14414 7.20962 6.69810
#
# Compressibility (1/GPa) = 0.02423972
#
# Stress axis : x y z
#
# Youngs Moduli (GPa) = 107.40883 135.07856 41.68445
#
# Poissons Ratio (x) = 0.27017 0.17280
# Poissons Ratio (y) = 0.21483 0.08695
# Poissons Ratio (z) = 0.44527 0.28178
#
# Static dielectric constant tensor:
#      x y z
#    x 4.202440 -0.014480 0.094780 
#    y -0.014480 4.366420 -0.257590 
#    z 0.094780 -0.257590 4.436910 
# 
# 
# High freq. dielectric constant tensor:
#      x y z
#    x 1.916910 0.004330 -0.001650 
#    y 0.004330 1.922070 -0.012080 
#    z -0.001650 -0.012080 1.897520 
# 
# From -- ./inp_files/48819.got.cif
#   From: 2010.06.25/outbox.cif.g09.slc.cpg/sg2_25_cif.got.tgz:48819.got - 2010.06.27 13:26:56.
