data_PCOD8034296
_publ_section_title
;
Structure prediction by ZEFSAII (Michael W. Deem and Ramdas Pophale) SiO2 
 PCOD8034296
Probable space group: P -1
;
_chemical_formula_sum "Si O2"
_cell_formula_units_Z 16
_cell_length_a 9.472519
_cell_length_b 8.907046
_cell_length_c 12.018837
_cell_angle_alpha 103.709966
_cell_angle_beta 88.842114
_cell_angle_gamma 48.434952
_cell_volume 714.798771
_symmetry_space_group_name_H-M "P -1"
_symmetry_group_IT_number 2
_symmetry_cell_setting 'triclinic'
loop_
_space_group_symop_operation_xyz
x,y,z
-x,-y,-z
loop_
_atom_site_type_symbol
_atom_site_label
_atom_site_fract_x
_atom_site_fract_y
_atom_site_fract_z
Si Si1 0.358377 0.154262 0.126597
Si Si2 0.923468 0.377595 0.143101
Si Si3 0.714012 0.104052 0.367621
Si Si4 0.711688 0.293803 0.004954
Si Si5 0.970791 0.945220 0.757075
Si Si6 0.671647 0.176860 0.630699
Si Si7 0.601714 0.854376 0.275655
Si Si8 0.518811 0.614503 0.774965
O O1 0.343778 0.350516 0.177597
O O2 0.147972 0.253597 0.112264
O O3 0.442997 0.011185 0.211289
O O4 0.500000 0.000000 0.000000
O O5 0.855207 0.330916 0.028214
O O6 0.792998 0.628108 0.185678
O O7 0.891816 0.296967 0.241741
O O8 0.723105 0.172198 0.501421
O O9 0.537265 0.312378 0.338967
O O10 0.681378 0.945941 0.352074
O O11 0.909503 0.996330 0.277271
O O12 0.672285 0.242960 0.116663
O O13 0.500000 0.500000 0.000000
O O14 0.820497 0.096181 0.886065
O O15 0.854865 0.966434 0.655885
O O16 0.493734 0.190263 0.641430
O O17 0.628253 0.368178 0.732744
#
# Coordination Sequence:
#
# PCOD8034296 Si02
#       8
#     2   2   2   2   2   2   2   2
#     4  11  27  44  67 107 148 182 229 293 349 422
#     4  12  25  44  71 102 145 185 226 284 362 417
#     4  11  26  44  69 102 138 185 233 290 348 409
#     4  12  24  43  74 103 140 182 230 289 351 423
#     4  12  24  43  69 105 136 178 240 282 350 420
#     4  12  23  47  72  97 141 185 234 290 343 417
#     4  11  25  46  69 102 139 183 237 285 352 414
#     4  11  24  44  71 101 138 183 233 282 351 419
#
# _framework density 22.383924
#
# number of rings (size 3 to 8) (size 9 to 14) (size 15 to 20)
#    0.000    0.500    5.000    2.250    7.000    0.500 
#    0.000    0.625    0.000    0.000    0.000    0.000 
#    0.000    0.000    0.000    0.000    0.000    0.000 
#
# Total GULP energy -198380.413195 kJ/mol
# GULP energy per Si atom -12398.775825 kJ/mol
# Density = 2.233298 g / cm^3
# Si number density = 22.383924 Si / 1000 Ang^3
#
#
#
# Elastic Constant Matrix: (Units=GPa)
#
#
# Indices 1 2 3 4 5 6 
#
# 1 159.6276 46.3189 38.3943 3.2067 5.5003 -3.0673
# 2 46.3189 75.4589 10.9028 0.8542 3.1076 2.6839
# 3 38.3943 10.9028 98.4272 -11.4036 2.1295 1.7761
# 4 3.2067 0.8542 -11.4036 21.0449 -2.0802 2.9239
# 5 5.5003 3.1076 2.1295 -2.0802 32.4670 -4.6433
# 6 -3.0673 2.6839 1.7761 2.9239 -4.6433 41.6399
#
#
#
# Elastic Compliance Matrix: (Units=1/GPa)
#
#
# Indices 1 2 3 4 5 6 
#
# 1 0.008512 -0.004744 -0.003153 -0.003058 -0.000807 0.001192
# 2 -0.004744 0.016236 0.000129 0.000251 -0.000961 -0.001526
# 3 -0.003153 0.000129 0.012243 0.007286 0.000003 -0.001274
# 4 -0.003058 0.000251 0.007286 0.052749 0.002832 -0.003940
# 5 -0.000807 -0.000961 0.000003 0.002832 0.031688 0.003337
# 6 0.001192 -0.001526 -0.001274 -0.003940 0.003337 0.024905
#
#
# Mechanical properties :
#
#
# Convention : Reuss Voigt Hill
#
# Bulk Modulus (GPa) = 46.60793 58.30504 52.45649
# Shear Modulus (GPa) = 29.58252 34.89021 32.23637
#
# Velocity S-wave (km/s) = 3.63932 3.95234 3.79906
# Velocity P-wave (km/s) = 6.20700 6.85071 6.53678
#
# Compressibility (1/GPa) = 0.02145558
#
# Stress axis : x y z
#
# Youngs Moduli (GPa) = 117.48712 61.59011 81.68232
#
# Poissons Ratio (x) = 0.29216 0.25755
# Poissons Ratio (y) = 0.55732 -0.01056
# Poissons Ratio (z) = 0.37045 -0.00796
#
# Static dielectric constant tensor:
#      x y z
#    x 4.227460 0.073170 0.032160 
#    y 0.073170 4.083550 -0.235820 
#    z 0.032160 -0.235820 3.926510 
# 
# 
# High freq. dielectric constant tensor:
#      x y z
#    x 1.898380 0.000010 0.005880 
#    y 0.000010 1.879220 -0.019180 
#    z 0.005880 -0.019180 1.870330 
# 
# From -- ./inp_files/187043.got.cif
#   From: 2010.06.25/outbox.cif.g09.slc.cpg/sg2_94_cif.got.tgz:187043.got - 2010.06.27 13:26:56.
