data_PCOD8034650
_publ_section_title
;
Structure prediction by ZEFSAII (Michael W. Deem and Ramdas Pophale) SiO2 
 PCOD8034650
Probable space group: P -1
;
_chemical_formula_sum "Si O2"
_cell_formula_units_Z 16
_cell_length_a 9.197193
_cell_length_b 11.458641
_cell_length_c 9.036219
_cell_angle_alpha 121.940110
_cell_angle_beta 117.585113
_cell_angle_gamma 71.520641
_cell_volume 712.973146
_symmetry_space_group_name_H-M "P -1"
_symmetry_group_IT_number 2
_symmetry_cell_setting 'triclinic'
loop_
_space_group_symop_operation_xyz
x,y,z
-x,-y,-z
loop_
_atom_site_type_symbol
_atom_site_label
_atom_site_fract_x
_atom_site_fract_y
_atom_site_fract_z
Si Si1 0.420623 0.803826 0.525781
Si Si2 0.150448 0.597733 0.242152
Si Si3 0.707327 0.748075 0.426451
Si Si4 0.781718 0.648972 0.087934
Si Si5 0.017832 0.127085 0.988523
Si Si6 0.081291 0.401512 0.345622
Si Si7 0.862439 0.006565 0.564950
Si Si8 0.380317 0.136466 0.066834
O O1 0.291345 0.692174 0.409377
O O2 0.519407 0.802076 0.414319
O O3 0.310936 0.950690 0.569938
O O4 0.538257 0.784823 0.709493
O O5 0.132130 0.491297 0.294389
O O6 0.973101 0.687120 0.190685
O O7 0.214075 0.508054 0.070190
O O8 0.717340 0.644870 0.222835
O O9 0.757088 0.670830 0.550133
O O10 0.837542 0.859828 0.529330
O O11 0.653051 0.757901 0.015199
O O12 0.978013 0.277715 0.149429
O O13 0.205176 0.095280 0.005612
O O14 0.897905 0.116988 0.783378
O O15 0.000000 0.000000 0.000000
O O16 0.000000 0.500000 0.500000
O O17 0.000000 0.000000 0.500000
O O18 0.500000 0.000000 0.000000
#
# Coordination Sequence:
#
# PCOD8034650 Si02
#       8
#     2   2   2   2   2   2   2   2
#     4  12  26  44  70 104 146 186 232 301 369 424
#     4  11  25  46  75 100 138 198 238 296 365 436
#     4  12  24  45  69 108 144 184 237 309 357 425
#     4  11  24  45  73  98 141 183 249 287 357 434
#     4  12  24  47  72 104 140 188 245 297 352 431
#     4  12  25  45  75 105 144 188 245 300 358 432
#     4  12  26  44  76 105 142 191 249 289 361 434
#     4  12  25  44  68 103 141 187 230 298 363 426
#
# _framework density 22.441236
#
# number of rings (size 3 to 8) (size 9 to 14) (size 15 to 20)
#    0.000    0.250    5.000    4.125    1.750    4.500 
#    0.000    0.000    0.000    0.000    0.000    0.000 
#    0.000    0.000    0.000    0.000    0.000    0.000 
#
# Total GULP energy -198297.927935 kJ/mol
# GULP energy per Si atom -12393.620496 kJ/mol
# Density = 2.239016 g / cm^3
# Si number density = 22.441236 Si / 1000 Ang^3
#
#
#
# Elastic Constant Matrix: (Units=GPa)
#
#
# Indices 1 2 3 4 5 6 
#
# 1 70.5533 21.9326 17.0097 3.8698 -6.0538 -16.6612
# 2 21.9326 91.9377 31.1319 -7.0858 -4.2094 -14.9459
# 3 17.0097 31.1319 113.1232 -6.7861 -18.2750 -5.5503
# 4 3.8698 -7.0858 -6.7861 42.8585 -10.4529 1.6389
# 5 -6.0538 -4.2094 -18.2750 -10.4529 36.7121 5.0190
# 6 -16.6612 -14.9459 -5.5503 1.6389 5.0190 35.6075
#
#
#
# Elastic Compliance Matrix: (Units=1/GPa)
#
#
# Indices 1 2 3 4 5 6 
#
# 1 0.017125 -0.002611 -0.001663 -0.002484 0.000065 0.006763
# 2 -0.002611 0.013267 -0.003044 0.001684 -0.000473 0.003861
# 3 -0.001663 -0.003044 0.010978 0.002857 0.005832 -0.001298
# 4 -0.002484 0.001684 0.002857 0.026610 0.009127 -0.002521
# 5 0.000065 -0.000473 0.005832 0.009127 0.033295 -0.004372
# 6 0.006763 0.003861 -0.001298 -0.002521 -0.004372 0.033399
#
#
# Mechanical properties :
#
#
# Convention : Reuss Voigt Hill
#
# Bulk Modulus (GPa) = 37.40828 46.19584 41.80206
# Shear Modulus (GPa) = 31.60109 36.73827 34.16968
#
# Velocity S-wave (km/s) = 3.75663 4.05048 3.90632
# Velocity P-wave (km/s) = 5.96003 6.51960 6.24608
#
# Compressibility (1/GPa) = 0.02673205
#
# Stress axis : x y z
#
# Youngs Moduli (GPa) = 58.39308 75.37727 91.09358
#
# Poissons Ratio (x) = 0.19683 0.15150
# Poissons Ratio (y) = 0.15248 0.27732
# Poissons Ratio (z) = 0.09712 0.22948
#
# Static dielectric constant tensor:
#      x y z
#    x 3.902420 -0.232100 0.079860 
#    y -0.232100 4.310470 -0.132280 
#    z 0.079860 -0.132280 4.280920 
# 
# 
# High freq. dielectric constant tensor:
#      x y z
#    x 1.877450 -0.006360 -0.014050 
#    y -0.006360 1.896530 -0.005730 
#    z -0.014050 -0.005730 1.899920 
# 
# From -- ./inp_files/190362.got.cif
#   From: 2010.06.25/outbox.cif.g09.slc.cpg/sg2_96_cif.got.tgz:190362.got - 2010.06.27 13:26:56.
