data_PCOD8034948
_publ_section_title
;
Structure prediction by ZEFSAII (Michael W. Deem and Ramdas Pophale) SiO2 
 PCOD8034948
Probable space group: P -1
;
_chemical_formula_sum "Si O2"
_cell_formula_units_Z 12
_cell_length_a 12.480813
_cell_length_b 13.309722
_cell_length_c 5.675924
_cell_angle_alpha 46.051195
_cell_angle_beta 116.245915
_cell_angle_gamma 135.528279
_cell_volume 472.919693
_symmetry_space_group_name_H-M "P -1"
_symmetry_group_IT_number 2
_symmetry_cell_setting 'triclinic'
loop_
_space_group_symop_operation_xyz
x,y,z
-x,-y,-z
loop_
_atom_site_type_symbol
_atom_site_label
_atom_site_fract_x
_atom_site_fract_y
_atom_site_fract_z
Si Si1 0.416246 0.956452 0.738607
Si Si2 0.227396 0.037982 0.249237
Si Si3 0.675101 0.601990 0.435203
Si Si4 0.957318 0.817277 0.662420
Si Si5 0.197264 0.582185 0.305742
Si Si6 0.106691 0.732696 0.321681
O O1 0.500000 0.000000 0.500000
O O2 0.349392 0.065232 0.510474
O O3 0.271252 0.742077 0.925499
O O4 0.500000 0.000000 0.000000
O O5 0.052332 0.883370 0.405661
O O6 0.233790 0.940772 0.184188
O O7 0.264725 0.225191 0.941691
O O8 0.500000 0.500000 0.500000
O O9 0.696347 0.479038 0.496577
O O10 0.777220 0.667561 0.665891
O O11 0.000973 0.724520 0.029133
O O12 0.000000 0.000000 0.500000
O O13 0.202115 0.669688 0.418514
O O14 0.017209 0.410496 0.366454
#
# Coordination Sequence:
#
# PCOD8034948 Si02
#       6
#     2   2   2   2   2   2
#     4  12  28  50  78 116 167 218 265 338 429 503
#     4  12  25  50  78 108 157 214 273 325 412 503
#     4  12  27  47  76 119 163 208 268 347 417 494
#     4  12  24  45  81 111 154 213 275 328 407 497
#     4  11  25  47  76 118 155 202 272 346 399 483
#     4  11  24  46  81 116 151 208 283 341 401 482
#
# _framework density 25.374285
#
# number of rings (size 3 to 8) (size 9 to 14) (size 15 to 20)
#    0.000    0.333    5.000    3.500    0.000    8.000 
#    0.000    2.500    0.000    0.000    0.000    0.000 
#    0.000    0.000    0.000    0.000    0.000    0.000 
#
# Total GULP energy -148660.980051 kJ/mol
# GULP energy per Si atom -12388.415004 kJ/mol
# Density = 2.531653 g / cm^3
# Si number density = 25.374285 Si / 1000 Ang^3
#
#
#
# Elastic Constant Matrix: (Units=GPa)
#
#
# Indices 1 2 3 4 5 6 
#
# 1 171.0291 49.3206 40.5428 -6.4431 3.1910 -4.4117
# 2 49.3206 101.0182 36.8988 8.8401 9.7865 1.8870
# 3 40.5428 36.8988 127.8384 -10.1889 2.0864 1.2715
# 4 -6.4431 8.8401 -10.1889 45.4004 3.9960 11.9424
# 5 3.1910 9.7865 2.0864 3.9960 59.0253 -13.8298
# 6 -4.4117 1.8870 1.2715 11.9424 -13.8298 44.9951
#
#
#
# Elastic Compliance Matrix: (Units=1/GPa)
#
#
# Indices 1 2 3 4 5 6 
#
# 1 0.007109 -0.003145 -0.001266 0.001147 0.000254 0.000638
# 2 -0.003145 0.013001 -0.002993 -0.003389 -0.001746 -0.000406
# 3 -0.001266 -0.002993 0.009324 0.002794 -0.000204 -0.001066
# 4 0.001147 -0.003389 0.002794 0.025756 -0.003128 -0.007622
# 5 0.000254 -0.001746 -0.000204 -0.003128 0.019026 0.006782
# 6 0.000638 -0.000406 -0.001066 -0.007622 0.006782 0.026442
#
#
# Mechanical properties :
#
#
# Convention : Reuss Voigt Hill
#
# Bulk Modulus (GPa) = 68.36754 72.60113 70.48434
# Shear Modulus (GPa) = 41.54835 48.09241 44.82038
#
# Velocity S-wave (km/s) = 4.05089 4.35825 4.20738
# Velocity P-wave (km/s) = 6.99155 7.34847 7.17223
#
# Compressibility (1/GPa) = 0.01462682
#
# Stress axis : x y z
#
# Youngs Moduli (GPa) = 140.66655 76.91531 107.24752
#
# Poissons Ratio (x) = 0.24193 0.13575
# Poissons Ratio (y) = 0.44246 0.32096
# Poissons Ratio (z) = 0.17805 0.23018
#
# Static dielectric constant tensor:
#      x y z
#    x 6.322680 -1.577160 0.597750 
#    y -1.577160 6.634230 -1.033350 
#    z 0.597750 -1.033350 5.012620 
# 
# 
# High freq. dielectric constant tensor:
#      x y z
#    x 2.030990 -0.005830 0.005310 
#    y -0.005830 2.004380 -0.020020 
#    z 0.005310 -0.020020 2.017220 
# 
# From -- ./inp_files/68246.got.cif
#   From: 2010.06.25/outbox.cif.g09.slc.cpg/sg2_35_cif.got.tgz:68246.got - 2010.06.27 13:26:56.
