data_PCOD8034539
_publ_section_title
;
Structure prediction by ZEFSAII (Michael W. Deem and Ramdas Pophale) SiO2 
 PCOD8034539
Probable space group: P -1
;
_chemical_formula_sum "Si O2"
_cell_formula_units_Z 14
_cell_length_a 12.566290
_cell_length_b 5.103781
_cell_length_c 9.147480
_cell_angle_alpha 99.337029
_cell_angle_beta 98.662477
_cell_angle_gamma 83.686371
_cell_volume 570.098143
_symmetry_space_group_name_H-M "P -1"
_symmetry_group_IT_number 2
_symmetry_cell_setting 'triclinic'
loop_
_space_group_symop_operation_xyz
x,y,z
-x,-y,-z
loop_
_atom_site_type_symbol
_atom_site_label
_atom_site_fract_x
_atom_site_fract_y
_atom_site_fract_z
Si Si1 0.104328 0.576280 0.445045
Si Si2 0.576765 0.035626 0.780293
Si Si3 0.686474 0.799865 0.516862
Si Si4 0.101520 0.597343 0.114416
Si Si5 0.784695 0.945671 0.976415
Si Si6 0.439337 0.536898 0.709757
Si Si7 0.758094 0.102614 0.297399
O O1 0.195470 0.330352 0.428883
O O2 0.072801 0.672251 0.283398
O O3 0.147422 0.813360 0.569956
O O4 0.000000 0.500000 0.500000
O O5 0.650794 0.029600 0.647895
O O6 0.515662 0.771958 0.737237
O O7 0.657646 0.033197 0.934036
O O8 0.498179 0.304503 0.801640
O O9 0.594080 0.588039 0.466452
O O10 0.685549 0.923934 0.365169
O O11 0.138340 0.860297 0.069831
O O12 0.194927 0.354855 0.106194
O O13 0.000000 0.500000 0.000000
O O14 0.810479 0.945538 0.154982
O O15 0.321412 0.649228 0.759525
#
# Coordination Sequence:
#
# PCOD8034539 Si02
#       7
#     2   2   2   2   2   2   2
#     4  11  26  47  76 110 143 189 241 304 363 427
#     4  12  24  44  72 103 147 189 245 294 355 426
#     4  11  24  45  70 106 146 187 245 295 360 431
#     4  12  27  51  77 106 143 193 244 294 366 432
#     4  12  28  48  73 107 150 193 237 302 359 428
#     4  11  25  42  72 106 141 195 241 294 357 418
#     4  11  27  46  72 107 153 187 245 296 359 433
#
# _framework density 24.557178
#
# number of rings (size 3 to 8) (size 9 to 14) (size 15 to 20)
#    0.000    0.571    2.857    3.857   10.000    1.714 
#    0.000    0.000    0.000    0.000    0.000    0.000 
#    0.000    0.000    0.000    0.000    0.000    0.000 
#
# Total GULP energy -173591.246460 kJ/mol
# GULP energy per Si atom -12399.374747 kJ/mol
# Density = 2.450129 g / cm^3
# Si number density = 24.557178 Si / 1000 Ang^3
#
#
#
# Elastic Constant Matrix: (Units=GPa)
#
#
# Indices 1 2 3 4 5 6 
#
# 1 101.0647 16.5745 33.8950 -2.0920 27.8414 15.7981
# 2 16.5745 97.8452 23.3919 -3.5457 -3.5354 12.0985
# 3 33.8950 23.3919 172.6681 -0.0996 -0.1824 21.6068
# 4 -2.0920 -3.5457 -0.0996 21.9760 -6.1551 -1.2130
# 5 27.8414 -3.5354 -0.1824 -6.1551 32.5354 -10.2951
# 6 15.7981 12.0985 21.6068 -1.2130 -10.2951 33.7090
#
#
#
# Elastic Compliance Matrix: (Units=1/GPa)
#
#
# Indices 1 2 3 4 5 6 
#
# 1 0.018858 -0.002055 -0.001717 -0.005407 -0.021774 -0.013844
# 2 -0.002055 0.011161 -0.000920 0.002345 0.002945 -0.001469
# 3 -0.001717 -0.000920 0.006630 -0.000338 0.000391 -0.003007
# 4 -0.005407 0.002345 -0.000338 0.050719 0.017331 0.009027
# 5 -0.021774 0.002945 0.000391 0.017331 0.061970 0.028447
# 6 -0.013844 -0.001469 -0.003007 0.009027 0.028447 0.047622
#
#
# Mechanical properties :
#
#
# Convention : Reuss Voigt Hill
#
# Bulk Modulus (GPa) = 36.67780 57.70008 47.18894
# Shear Modulus (GPa) = 23.20911 37.49185 30.35048
#
# Velocity S-wave (km/s) = 3.07759 3.91156 3.51937
# Velocity P-wave (km/s) = 5.25327 6.62930 5.98099
#
# Compressibility (1/GPa) = 0.02726445
#
# Stress axis : x y z
#
# Youngs Moduli (GPa) = 53.02804 89.59473 150.83524
#
# Poissons Ratio (x) = 0.18409 0.25901
# Poissons Ratio (y) = 0.10896 0.13883
# Poissons Ratio (z) = 0.09106 0.08246
#
# Static dielectric constant tensor:
#      x y z
#    x 4.487350 -0.024580 0.201050 
#    y -0.024580 4.616010 0.132170 
#    z 0.201050 0.132170 4.397020 
# 
# 
# High freq. dielectric constant tensor:
#      x y z
#    x 1.985140 0.000490 0.016810 
#    y 0.000490 1.977840 0.010110 
#    z 0.016810 0.010110 1.973960 
# 
# From -- ./inp_files/28212.got.cif
#   From: 2010.06.25/outbox.cif.g09.slc.cpg/sg2_15_cif.got.tgz:28212.got - 2010.06.27 13:26:56.
