data_PCOD8034692
_publ_section_title
;
Structure prediction by ZEFSAII (Michael W. Deem and Ramdas Pophale) SiO2 
 PCOD8034692
Probable space group: P -1
;
_chemical_formula_sum "Si O2"
_cell_formula_units_Z 14
_cell_length_a 8.241700
_cell_length_b 24.433608
_cell_length_c 8.872132
_cell_angle_alpha 41.277302
_cell_angle_beta 50.579002
_cell_angle_gamma 30.733934
_cell_volume 602.028541
_symmetry_space_group_name_H-M "P -1"
_symmetry_group_IT_number 2
_symmetry_cell_setting 'triclinic'
loop_
_space_group_symop_operation_xyz
x,y,z
-x,-y,-z
loop_
_atom_site_type_symbol
_atom_site_label
_atom_site_fract_x
_atom_site_fract_y
_atom_site_fract_z
Si Si1 0.787541 0.483723 0.199448
Si Si2 0.895902 0.343184 0.696433
Si Si3 0.046878 0.839510 0.426815
Si Si4 0.143101 0.954450 0.674463
Si Si5 0.841479 0.729067 0.802578
Si Si6 0.177728 0.103811 0.881776
Si Si7 0.764040 0.646585 0.306510
O O1 0.815871 0.450513 0.427314
O O2 0.409407 0.607593 0.141180
O O3 0.896291 0.376068 0.254340
O O4 0.000000 0.500000 0.000000
O O5 0.049180 0.233406 0.718678
O O6 0.147010 0.297995 0.765791
O O7 0.406053 0.727439 0.387131
O O8 0.972077 0.777455 0.693680
O O9 0.802088 0.916759 0.268458
O O10 0.999499 0.930852 0.374887
O O11 0.519906 0.847676 0.658746
O O12 0.000000 0.000000 0.500000
O O13 0.071171 0.888402 0.927566
O O14 0.788660 0.669863 0.072238
O O15 0.500000 0.000000 0.000000
O O16 0.000000 0.500000 0.500000
#
# Coordination Sequence:
#
# PCOD8034692 Si02
#       7
#     2   2   2   2   2   2   2
#     4  11  24  45  75 102 143 191 245 302 354 429
#     4  11  26  45  73 106 143 191 242 294 369 427
#     4  12  27  50  75 106 151 190 242 305 366 437
#     4  12  28  47  75 111 143 189 248 303 369 437
#     4  12  26  47  74 106 147 189 245 300 360 437
#     4  12  25  47  76 105 148 193 239 301 367 433
#     4  12  28  47  73 109 149 195 243 297 365 432
#
# _framework density 23.254711
#
# number of rings (size 3 to 8) (size 9 to 14) (size 15 to 20)
#    0.000    0.286    2.857    5.143    8.000    3.429 
#    0.000    0.000    0.000    0.000    0.000    0.000 
#    0.000    0.000    0.000    0.000    0.000    0.000 
#
# Total GULP energy -173602.172828 kJ/mol
# GULP energy per Si atom -12400.155202 kJ/mol
# Density = 2.320178 g / cm^3
# Si number density = 23.254711 Si / 1000 Ang^3
#
#
#
# Elastic Constant Matrix: (Units=GPa)
#
#
# Indices 1 2 3 4 5 6 
#
# 1 132.6098 48.9100 45.4028 -1.0344 0.9551 -1.1447
# 2 48.9100 105.8796 35.6890 -0.5207 14.1914 -2.6181
# 3 45.4028 35.6890 124.1198 3.2533 -7.3596 -8.6028
# 4 -1.0344 -0.5207 3.2533 32.9976 -5.6675 -4.7663
# 5 0.9551 14.1914 -7.3596 -5.6675 43.3807 5.9972
# 6 -1.1447 -2.6181 -8.6028 -4.7663 5.9972 45.0021
#
#
#
# Elastic Compliance Matrix: (Units=1/GPa)
#
#
# Indices 1 2 3 4 5 6 
#
# 1 0.009787 -0.003789 -0.002495 0.000550 0.000740 -0.000489
# 2 -0.003789 0.012664 -0.002469 -0.000363 -0.004629 0.000747
# 3 -0.002495 -0.002469 0.009921 -0.000509 0.002295 0.001330
# 4 0.000550 -0.000363 -0.000509 0.031404 0.003747 0.002722
# 5 0.000740 -0.004629 0.002295 0.003747 0.025823 -0.002856
# 6 -0.000489 0.000747 0.001330 0.002722 -0.002856 0.023175
#
#
# Mechanical properties :
#
#
# Convention : Reuss Voigt Hill
#
# Bulk Modulus (GPa) = 67.26229 69.17921 68.22075
# Shear Modulus (GPa) = 36.97253 39.78325 38.37789
#
# Velocity S-wave (km/s) = 3.99167 4.14062 4.06683
# Velocity P-wave (km/s) = 7.08742 7.25760 7.17301
#
# Compressibility (1/GPa) = 0.01486717
#
# Stress axis : x y z
#
# Youngs Moduli (GPa) = 102.17295 78.96362 100.79716
#
# Poissons Ratio (x) = 0.29917 0.25151
# Poissons Ratio (y) = 0.38710 0.24884
# Poissons Ratio (z) = 0.25494 0.19494
#
# Static dielectric constant tensor:
#      x y z
#    x 4.572470 -0.033230 0.033510 
#    y -0.033230 4.185390 0.043720 
#    z 0.033510 0.043720 4.507440 
# 
# 
# High freq. dielectric constant tensor:
#      x y z
#    x 1.932670 -0.003430 -0.013150 
#    y -0.003430 1.923760 0.004100 
#    z -0.013150 0.004100 1.930340 
# 
# From -- ./inp_files/225934.got.cif
#   From: 2010.06.25/outbox.cif.g09.slc.cpg/sg2_113_cif.got.tgz:225934.got - 2010.06.27 13:26:56.
