data_PCOD8034259
_publ_section_title
;
Structure prediction by ZEFSAII (Michael W. Deem and Ramdas Pophale) SiO2 
 PCOD8034259
Probable space group: P -1
;
_chemical_formula_sum "Si O2"
_cell_formula_units_Z 16
_cell_length_a 8.571955
_cell_length_b 12.474500
_cell_length_c 15.888184
_cell_angle_alpha 65.631091
_cell_angle_beta 131.784522
_cell_angle_gamma 76.108313
_cell_volume 752.337858
_symmetry_space_group_name_H-M "P -1"
_symmetry_group_IT_number 2
_symmetry_cell_setting 'triclinic'
loop_
_space_group_symop_operation_xyz
x,y,z
-x,-y,-z
loop_
_atom_site_type_symbol
_atom_site_label
_atom_site_fract_x
_atom_site_fract_y
_atom_site_fract_z
Si Si1 0.611348 0.062783 0.439318
Si Si2 0.350864 0.350309 0.133194
Si Si3 0.712726 0.757874 0.571221
Si Si4 0.363819 0.360574 0.701414
Si Si5 0.603679 0.492075 0.177454
Si Si6 0.316240 0.960579 0.961752
Si Si7 0.590905 0.327296 0.614114
Si Si8 0.303040 0.792089 0.859041
O O1 0.560421 0.151795 0.305455
O O2 0.356828 0.231952 0.358043
O O3 0.525280 0.962400 0.420975
O O4 0.972558 0.929150 0.645037
O O5 0.536710 0.388465 0.213358
O O6 0.383535 0.327322 0.050724
O O7 0.000000 0.500000 0.000000
O O8 0.602350 0.691239 0.500098
O O9 0.078511 0.627414 0.724502
O O10 0.374635 0.455737 0.743154
O O11 0.549898 0.326968 0.698335
O O12 0.000000 0.500000 0.500000
O O13 0.524702 0.174676 0.858048
O O14 0.322523 0.662732 0.961442
O O15 0.327161 0.886495 0.902746
O O16 0.958406 0.148889 0.789849
O O17 0.500000 0.000000 0.000000
O O18 0.500000 0.500000 0.500000
#
# Coordination Sequence:
#
# PCOD8034259 Si02
#       8
#     2   2   2   2   2   2   2   2
#     4  11  25  43  72 101 134 180 227 281 344 404
#     4  12  27  42  68 105 138 176 230 280 337 412
#     4  11  24  44  72  96 138 176 227 276 352 401
#     4  11  24  44  70 101 136 181 234 282 351 411
#     4  11  25  43  69  97 140 178 219 283 345 406
#     4  11  26  45  69 100 141 183 230 292 344 417
#     4  12  26  45  72 101 137 183 235 292 348 411
#     4  11  24  45  67  99 137 182 224 275 351 404
#
# _framework density 21.267040000000001
#
# number of rings (size 3 to 8) (size 9 to 14) (size 15 to 20)
#    0.000    0.750    3.750    2.625    7.000    3.000 
#    0.000    0.000    0.000    0.000    0.000    0.000 
#    0.000    0.000    0.000    0.000    0.000    0.000 
#
# Total GULP energy -198300.224445 kJ/mol
# GULP energy per Si atom -12393.764028 kJ/mol
# Density = 2.121863 g / cm^3
# Si number density = 21.267040 Si / 1000 Ang^3
#
#
#
# Elastic Constant Matrix: (Units=GPa)
#
#
# Indices 1 2 3 4 5 6 
#
# 1 129.1635 67.4884 35.3388 1.3808 -0.4866 0.6371
# 2 67.4884 137.9499 44.1823 -6.7200 -14.6800 -2.7707
# 3 35.3388 44.1823 89.3070 -0.5349 -6.4160 11.9985
# 4 1.3808 -6.7200 -0.5349 25.0336 -3.8247 -1.5959
# 5 -0.4866 -14.6800 -6.4160 -3.8247 48.0595 -6.3426
# 6 0.6371 -2.7707 11.9985 -1.5959 -6.3426 47.9782
#
#
#
# Elastic Compliance Matrix: (Units=1/GPa)
#
#
# Indices 1 2 3 4 5 6 
#
# 1 0.010929 -0.005046 -0.001941 -0.002309 -0.001911 -0.000280
# 2 -0.005046 0.011536 -0.003734 0.003989 0.003592 0.002274
# 3 -0.001941 -0.003734 0.014329 -0.000801 0.000191 -0.003775
# 4 -0.002309 0.003989 -0.000801 0.042013 0.004760 0.002488
# 5 -0.001911 0.003592 0.000191 0.004760 0.022732 0.003348
# 6 -0.000280 0.002274 -0.003775 0.002488 0.003348 0.022447
#
#
# Mechanical properties :
#
#
# Convention : Reuss Voigt Hill
#
# Bulk Modulus (GPa) = 65.14526 72.27102 68.70814
# Shear Modulus (GPa) = 33.21253 38.17500 35.69376
#
# Velocity S-wave (km/s) = 3.95611 4.24138 4.10122
# Velocity P-wave (km/s) = 7.18097 7.61854 7.40299
#
# Compressibility (1/GPa) = 0.01535031
#
# Stress axis : x y z
#
# Youngs Moduli (GPa) = 91.50079 86.68615 69.78916
#
# Poissons Ratio (x) = 0.43744 0.13549
# Poissons Ratio (y) = 0.46174 0.26059
# Poissons Ratio (z) = 0.17765 0.32368
#
# Static dielectric constant tensor:
#      x y z
#    x 4.068810 -0.066140 -0.093440 
#    y -0.066140 4.336340 -0.079280 
#    z -0.093440 -0.079280 3.932320 
# 
# 
# High freq. dielectric constant tensor:
#      x y z
#    x 1.852000 -0.007320 -0.000610 
#    y -0.007320 1.850090 -0.011180 
#    z -0.000610 -0.011180 1.836240 
# 
# From -- ./inp_files/299552.got.cif
#   From: 2010.06.25/outbox.cif.g09.slc.cpg/sg2_150_cif.got.tgz:299552.got - 2010.06.27 13:26:56.
