data_PCOD8034796
_publ_section_title
;
Structure prediction by ZEFSAII (Michael W. Deem and Ramdas Pophale) SiO2 
 PCOD8034796
Probable space group: P -1
;
_chemical_formula_sum "Si O2"
_cell_formula_units_Z 16
_cell_length_a 8.704059
_cell_length_b 18.063810
_cell_length_c 6.707137
_cell_angle_alpha 102.195202
_cell_angle_beta 128.453298
_cell_angle_gamma 64.190192
_cell_volume 740.800876
_symmetry_space_group_name_H-M "P -1"
_symmetry_group_IT_number 2
_symmetry_cell_setting 'triclinic'
loop_
_space_group_symop_operation_xyz
x,y,z
-x,-y,-z
loop_
_atom_site_type_symbol
_atom_site_label
_atom_site_fract_x
_atom_site_fract_y
_atom_site_fract_z
Si Si1 0.363749 0.817280 0.535095
Si Si2 0.355197 0.090169 0.010348
Si Si3 0.183748 0.513372 0.269900
Si Si4 0.998672 0.182571 0.465803
Si Si5 0.982970 0.647046 0.509379
Si Si6 0.590037 0.654115 0.406906
Si Si7 0.992369 0.089388 0.008632
Si Si8 0.330213 0.567047 0.038896
O O1 0.491293 0.868916 0.754117
O O2 0.537721 0.727145 0.565416
O O3 0.208266 0.807332 0.568962
O O4 0.228943 0.859351 0.254189
O O5 0.216985 0.142693 0.744791
O O6 0.198255 0.084430 0.050351
O O7 0.500000 0.000000 0.000000
O O8 0.076101 0.596490 0.357218
O O9 0.306327 0.435551 0.460649
O O10 0.340483 0.527274 0.242083
O O11 0.000000 0.500000 0.000000
O O12 0.978683 0.270219 0.422750
O O13 0.002944 0.126599 0.251319
O O14 0.734412 0.665330 0.351236
O O15 0.097216 0.595283 0.768859
O O16 0.377438 0.650517 0.135535
O O17 0.000000 0.000000 0.000000
O O18 0.500000 0.500000 0.000000
#
# Coordination Sequence:
#
# PCOD8034796 Si02
#       8
#     2   2   2   2   2   2   2   2
#     4  11  26  44  67 102 136 175 222 274 332 395
#     4  11  25  45  71 102 134 174 220 268 335 402
#     4  12  25  44  67  93 133 176 221 279 329 384
#     4  11  26  44  68 100 138 175 218 278 330 391
#     4  12  26  45  65  97 134 173 224 276 328 391
#     4  12  25  44  67  96 133 175 224 273 330 392
#     4  11  24  46  71 100 137 172 219 273 330 403
#     4  12  25  43  66  93 127 173 227 270 329 391
#
# _framework density 21.598246
#
# number of rings (size 3 to 8) (size 9 to 14) (size 15 to 20)
#    0.000    0.500    2.500    5.250    3.500   10.000 
#    0.000    0.000    0.000    0.000    0.000    0.000 
#    0.000    0.000    0.000    0.000    0.000    0.000 
#
# Total GULP energy -198461.521478 kJ/mol
# GULP energy per Si atom -12403.845092 kJ/mol
# Density = 2.154909 g / cm^3
# Si number density = 21.598246 Si / 1000 Ang^3
#
#
#
# Elastic Constant Matrix: (Units=GPa)
#
#
# Indices 1 2 3 4 5 6 
#
# 1 142.7828 52.0935 51.7753 11.7987 -6.7551 2.9127
# 2 52.0935 118.6975 24.5369 28.5339 -9.8236 0.3614
# 3 51.7753 24.5369 98.2866 15.4435 -4.8229 3.3997
# 4 11.7987 28.5339 15.4435 43.5761 0.4193 -1.0935
# 5 -6.7551 -9.8236 -4.8229 0.4193 43.9211 7.8368
# 6 2.9127 0.3614 3.3997 -1.0935 7.8368 40.5861
#
#
#
# Elastic Compliance Matrix: (Units=1/GPa)
#
#
# Indices 1 2 3 4 5 6 
#
# 1 0.009886 -0.003714 -0.004467 0.001328 0.000243 -0.000313
# 2 -0.003714 0.011849 0.000203 -0.006859 0.002252 -0.000476
# 3 -0.004467 0.000203 0.013132 -0.003614 0.001027 -0.001077
# 4 0.001328 -0.006859 -0.003614 0.028420 -0.002261 0.001471
# 5 0.000243 0.002252 0.001027 -0.002261 0.024314 -0.004879
# 6 -0.000313 -0.000476 -0.001077 0.001471 -0.004879 0.025738
#
#
# Mechanical properties :
#
#
# Convention : Reuss Voigt Hill
#
# Bulk Modulus (GPa) = 52.87416 68.50871 60.69143
# Shear Modulus (GPa) = 36.87345 41.04076 38.95711
#
# Velocity S-wave (km/s) = 4.13636 4.36385 4.25163
# Velocity P-wave (km/s) = 6.88088 7.56170 7.22931
#
# Compressibility (1/GPa) = 0.01891283
#
# Stress axis : x y z
#
# Youngs Moduli (GPa) = 101.14881 84.39281 76.14845
#
# Poissons Ratio (x) = 0.31341 0.34013
# Poissons Ratio (y) = 0.37564 -0.01544
# Poissons Ratio (z) = 0.45180 -0.01712
#
# Static dielectric constant tensor:
#      x y z
#    x 4.074530 0.083950 0.048950 
#    y 0.083950 4.094780 0.534350 
#    z 0.048950 0.534350 6.589620 
# 
# 
# High freq. dielectric constant tensor:
#      x y z
#    x 1.868660 0.003370 0.005640 
#    y 0.003370 1.856600 0.009140 
#    z 0.005640 0.009140 1.866110 
# 
# From -- ./inp_files/48743.got.cif
#   From: 2010.06.25/outbox.cif.g09.slc.cpg/sg2_25_cif.got.tgz:48743.got - 2010.06.27 13:26:56.
