data_PCOD8034700
_publ_section_title
;
Structure prediction by ZEFSAII (Michael W. Deem and Ramdas Pophale) SiO2 
 PCOD8034700
Probable space group: P -1
;
_chemical_formula_sum "Si O2"
_cell_formula_units_Z 16
_cell_length_a 9.304087
_cell_length_b 12.182242
_cell_length_c 5.529166
_cell_angle_alpha 85.245235
_cell_angle_beta 81.231923
_cell_angle_gamma 98.870161
_cell_volume 608.326400
_symmetry_space_group_name_H-M "P -1"
_symmetry_group_IT_number 2
_symmetry_cell_setting 'triclinic'
loop_
_space_group_symop_operation_xyz
x,y,z
-x,-y,-z
loop_
_atom_site_type_symbol
_atom_site_label
_atom_site_fract_x
_atom_site_fract_y
_atom_site_fract_z
Si Si1 0.408545 0.879611 0.993315
Si Si2 0.301414 0.481218 0.981557
Si Si3 0.125760 0.947775 0.231412
Si Si4 0.124357 0.427658 0.530046
Si Si5 0.065373 0.762253 0.612709
Si Si6 0.637801 0.299507 0.310815
Si Si7 0.869703 0.832558 0.025491
Si Si8 0.558822 0.697562 0.225671
O O1 0.425169 0.828809 0.730885
O O2 0.236289 0.883435 0.065160
O O3 0.457506 0.788508 0.172201
O O4 0.500000 0.000000 0.000000
O O5 0.201127 0.450411 0.766958
O O6 0.344755 0.616194 0.939813
O O7 0.437862 0.411008 0.927162
O O8 0.233173 0.448228 0.266410
O O9 0.119414 0.894565 0.512942
O O10 0.179379 0.081871 0.183050
O O11 0.959415 0.914693 0.181862
O O12 0.000000 0.500000 0.500000
O O13 0.041383 0.297690 0.563885
O O14 0.202510 0.695945 0.609273
O O15 0.970141 0.752336 0.885974
O O16 0.515012 0.346332 0.494545
O O17 0.727661 0.759309 0.196183
#
# Coordination Sequence:
#
# PCOD8034700 Si02
#       8
#     2   2   2   2   2   2   2   2
#     4  12  27  50  76 112 158 205 260 329 407 481
#     4  12  29  51  81 121 159 215 274 326 396 479
#     4  11  24  45  75 108 149 199 263 322 399 476
#     4  12  27  47  83 118 163 207 264 335 398 470
#     4  12  24  45  76 112 150 205 258 326 400 475
#     4  12  29  47  79 107 161 210 265 326 404 483
#     4  11  24  47  74 109 150 197 260 333 387 474
#     4  12  27  50  75 116 156 210 261 336 396 476
#
# _framework density 26.301666999999998
#
# number of rings (size 3 to 8) (size 9 to 14) (size 15 to 20)
#    0.000    0.250    6.250    1.875    5.250    2.000 
#    4.500    0.000    0.000    0.000    0.000    0.000 
#    0.000    0.000    0.000    0.000    0.000    0.000 
#
# Total GULP energy -198247.786110 kJ/mol
# GULP energy per Si atom -12390.486632 kJ/mol
# Density = 2.624180 g / cm^3
# Si number density = 26.301667 Si / 1000 Ang^3
#
#
#
# Elastic Constant Matrix: (Units=GPa)
#
#
# Indices 1 2 3 4 5 6 
#
# 1 102.2691 23.4921 32.2911 4.7319 -17.5853 -18.4265
# 2 23.4921 136.6582 9.6637 -1.8924 -11.8163 4.6257
# 3 32.2911 9.6637 94.0689 12.1940 -25.1009 -1.3067
# 4 4.7319 -1.8924 12.1940 50.2088 -5.9603 0.9300
# 5 -17.5853 -11.8163 -25.1009 -5.9603 49.4617 4.9727
# 6 -18.4265 4.6257 -1.3067 0.9300 4.9727 37.4942
#
#
#
# Elastic Compliance Matrix: (Units=1/GPa)
#
#
# Indices 1 2 3 4 5 6 
#
# 1 0.012794 -0.002022 -0.003640 -0.000328 0.001554 0.006212
# 2 -0.002022 0.007870 0.000184 0.000667 0.001554 -0.002181
# 3 -0.003640 0.000184 0.013618 -0.002256 0.005592 -0.002023
# 4 -0.000328 0.000667 -0.002256 0.020718 0.001498 -0.001035
# 5 0.001554 0.001554 0.005592 0.001498 0.024412 -0.002508
# 6 0.006212 -0.002181 -0.002023 -0.001035 -0.002508 0.030281
#
#
# Mechanical properties :
#
#
# Convention : Reuss Voigt Hill
#
# Bulk Modulus (GPa) = 42.87667 51.54333 47.21000
# Shear Modulus (GPa) = 38.93343 45.26956 42.10150
#
# Velocity S-wave (km/s) = 3.85160 4.15320 4.00524
# Velocity P-wave (km/s) = 6.00974 6.52980 6.27516
#
# Compressibility (1/GPa) = 0.02332271
#
# Stress axis : x y z
#
# Youngs Moduli (GPa) = 78.16266 127.07096 73.43350
#
# Poissons Ratio (x) = 0.25698 0.26733
# Poissons Ratio (y) = 0.15807 -0.01348
# Poissons Ratio (z) = 0.28455 -0.02333
#
# Static dielectric constant tensor:
#      x y z
#    x 4.955850 -0.198640 -0.057110 
#    y -0.198640 5.309800 -0.171780 
#    z -0.057110 -0.171780 4.640800 
# 
# 
# High freq. dielectric constant tensor:
#      x y z
#    x 2.068510 -0.013080 -0.002280 
#    y -0.013080 2.076640 -0.006270 
#    z -0.002280 -0.006270 2.041160 
# 
# From -- ./inp_files/37811.got.cif
#   From: 2010.06.25/outbox.cif.g09.slc.cpg/sg2_19_cif.got.tgz:37811.got - 2010.06.27 13:26:56.
