data_PCOD8034024
_publ_section_title
;
Structure prediction by ZEFSAII (Michael W. Deem and Ramdas Pophale) SiO2 
 PCOD8034024
Probable space group: P -1
;
_chemical_formula_sum "Si O2"
_cell_formula_units_Z 14
_cell_length_a 13.846595
_cell_length_b 11.059226
_cell_length_c 8.272465
_cell_angle_alpha 111.947289
_cell_angle_beta 115.046462
_cell_angle_gamma 32.660045
_cell_volume 618.950063
_symmetry_space_group_name_H-M "P -1"
_symmetry_group_IT_number 2
_symmetry_cell_setting 'triclinic'
loop_
_space_group_symop_operation_xyz
x,y,z
-x,-y,-z
loop_
_atom_site_type_symbol
_atom_site_label
_atom_site_fract_x
_atom_site_fract_y
_atom_site_fract_z
Si Si1 0.259730 0.011603 0.590922
Si Si2 0.013870 0.540698 0.208569
Si Si3 0.332985 0.507258 0.015542
Si Si4 0.207459 0.797137 0.599759
Si Si5 0.340790 0.409186 0.339221
Si Si6 0.972152 0.744113 0.770145
Si Si7 0.285204 0.820402 0.005868
O O1 0.171906 0.195688 0.752113
O O2 0.123028 0.131046 0.404354
O O3 0.302887 0.829378 0.610205
O O4 0.464925 0.853606 0.610538
O O5 0.186253 0.462842 0.312045
O O6 0.034630 0.403483 0.282028
O O7 0.000000 0.500000 0.000000
O O8 0.322441 0.456951 0.160251
O O9 0.528322 0.287443 0.957503
O O10 0.309085 0.689157 0.100470
O O11 0.180023 0.588743 0.837934
O O12 0.319419 0.560284 0.504911
O O13 0.213886 0.802481 0.799492
O O14 0.000000 0.000000 0.500000
O O15 0.865914 0.922955 0.928355
#
# Coordination Sequence:
#
# PCOD8034024 Si02
#       7
#     2   2   2   2   2   2   2
#     4  12  27  45  72 105 138 179 232 289 347 403
#     4  12  27  49  71  98 138 187 237 281 337 414
#     4  11  24  43  70 103 139 178 225 279 351 403
#     4  12  22  43  73 102 143 176 224 286 348 403
#     4  12  26  45  73 103 140 183 227 287 346 405
#     4  12  26  47  71 100 142 184 231 280 341 408
#     4  11  25  42  71 107 137 177 229 283 343 412
#
# _framework density 22.618950000000002
#
# number of rings (size 3 to 8) (size 9 to 14) (size 15 to 20)
#    0.000    0.286    4.286    4.714    4.000    2.286 
#    0.000    0.000    0.000    0.000    0.000    0.000 
#    0.000    0.000    0.000    0.000    0.000    0.000 
#
# Total GULP energy -173680.674915 kJ/mol
# GULP energy per Si atom -12405.762494 kJ/mol
# Density = 2.256747 g / cm^3
# Si number density = 22.618950 Si / 1000 Ang^3
#
#
#
# Elastic Constant Matrix: (Units=GPa)
#
#
# Indices 1 2 3 4 5 6 
#
# 1 100.7794 43.2639 6.1244 15.8636 10.4157 8.1120
# 2 43.2639 129.7815 59.4192 10.0815 22.9699 -35.5925
# 3 6.1244 59.4192 111.9296 13.2641 1.3457 1.2446
# 4 15.8636 10.0815 13.2641 39.5039 5.1973 0.7772
# 5 10.4157 22.9699 1.3457 5.1973 24.1486 4.4619
# 6 8.1120 -35.5925 1.2446 0.7772 4.4619 28.8964
#
#
#
# Elastic Compliance Matrix: (Units=1/GPa)
#
#
# Indices 1 2 3 4 5 6 
#
# 1 0.121656 -0.248762 0.133282 -0.056762 0.260060 -0.384929
# 2 -0.248762 0.559759 -0.300072 0.118887 -0.593021 0.860601
# 3 0.133282 -0.300072 0.170169 -0.066854 0.318149 -0.461679
# 4 -0.056762 0.118887 -0.066854 0.053757 -0.130433 0.183945
# 5 0.260060 -0.593021 0.318149 -0.130433 0.673205 -0.917591
# 6 -0.384929 0.860601 -0.461679 0.183945 -0.917591 1.359315
#
#
# Mechanical properties :
#
#
# Convention : Reuss Voigt Hill
#
# Bulk Modulus (GPa) = 48.82602 62.23396 55.52999
# Shear Modulus (GPa) = 1.32423 34.08864 17.70643
#
# Velocity S-wave (km/s) = 0.76598 3.88633 2.80092
# Velocity P-wave (km/s) = 4.73450 6.90738 5.92146
#
# Compressibility (1/GPa) = 0.02048088
#
# Stress axis : x y z
#
# Youngs Moduli (GPa) = 8.21990 1.78648 5.87650
#
# Poissons Ratio (x) = 0.44441 -0.78323
# Poissons Ratio (y) = 2.04480 1.76337
# Poissons Ratio (z) = -1.09556 0.53607
#
# Static dielectric constant tensor:
#      x y z
#    x 4.374510 -0.043810 0.042610 
#    y -0.043810 4.259290 -0.018080 
#    z 0.042610 -0.018080 4.022800 
# 
# 
# High freq. dielectric constant tensor:
#      x y z
#    x 1.899860 -0.009230 -0.001710 
#    y -0.009230 1.901980 -0.006950 
#    z -0.001710 -0.006950 1.892360 
# 
# From -- ./inp_files/305782.got.cif
#   From: 2010.06.25/outbox.cif.g09.slc.cpg/sg2_153_cif.got.tgz:305782.got - 2010.06.27 13:26:56.
