data_PCOD8034546
_publ_section_title
;
Structure prediction by ZEFSAII (Michael W. Deem and Ramdas Pophale) SiO2 
 PCOD8034546
Probable space group: P -1
;
_chemical_formula_sum "Si O2"
_cell_formula_units_Z 16
_cell_length_a 21.941305
_cell_length_b 9.743396
_cell_length_c 15.175309
_cell_angle_alpha 68.195310
_cell_angle_beta 160.011091
_cell_angle_gamma 124.285994
_cell_volume 759.627270
_symmetry_space_group_name_H-M "P -1"
_symmetry_group_IT_number 2
_symmetry_cell_setting 'triclinic'
loop_
_space_group_symop_operation_xyz
x,y,z
-x,-y,-z
loop_
_atom_site_type_symbol
_atom_site_label
_atom_site_fract_x
_atom_site_fract_y
_atom_site_fract_z
Si Si1 0.923587 0.609525 0.331744
Si Si2 0.576979 0.591581 0.677292
Si Si3 0.106180 0.278610 0.393005
Si Si4 0.342517 0.695921 0.599295
Si Si5 0.869369 0.163619 0.606996
Si Si6 0.600407 0.710279 0.354789
Si Si7 0.581730 0.909588 0.693760
Si Si8 0.205131 0.231981 0.731163
O O1 0.858478 0.693018 0.295484
O O2 0.000000 0.500000 0.500000
O O3 0.137581 0.796141 0.515937
O O4 0.685714 0.427119 0.999759
O O5 0.500000 0.500000 0.500000
O O6 0.372684 0.399511 0.507125
O O7 0.579755 0.767293 0.660773
O O8 0.848689 0.685801 0.027691
O O9 0.115221 0.457464 0.338366
O O10 0.308032 0.300150 0.610547
O O11 0.196248 0.313648 0.607526
O O12 0.843076 0.073586 0.056315
O O13 0.269335 0.792293 0.535934
O O14 0.402805 0.787827 0.561665
O O15 0.550643 0.718039 0.925464
O O16 0.738383 0.938527 0.508438
O O17 0.500000 0.000000 0.500000
O O18 0.000000 0.000000 0.500000
#
# Coordination Sequence:
#
# PCOD8034546 Si02
#       8
#     2   2   2   2   2   2   2   2
#     4  11  25  44  64 103 142 181 229 279 337 410
#     4  11  26  49  71  99 136 179 233 289 346 408
#     4  12  24  46  74  99 143 186 229 284 349 411
#     4  12  26  46  70 110 139 181 237 280 348 419
#     4  11  26  44  70 102 140 182 229 283 345 409
#     4  11  24  45  70  95 141 183 225 284 343 413
#     4  12  28  48  73 103 139 181 234 293 346 410
#     4  12  24  43  73 100 143 186 226 285 344 410
#
# _framework density 21.062961999999999
#
# number of rings (size 3 to 8) (size 9 to 14) (size 15 to 20)
#    0.000    0.500    5.000    2.625    7.000    3.500 
#    0.000    0.000    0.000    0.000    0.000    0.000 
#    0.000    0.000    0.000    0.000    0.000    0.000 
#
# Total GULP energy -198268.428258 kJ/mol
# GULP energy per Si atom -12391.776766 kJ/mol
# Density = 2.101502 g / cm^3
# Si number density = 21.062962 Si / 1000 Ang^3
#
#
#
# Elastic Constant Matrix: (Units=GPa)
#
#
# Indices 1 2 3 4 5 6 
#
# 1 148.1855 67.4225 45.6985 -7.1311 0.2547 1.5856
# 2 67.4225 162.8934 45.9348 4.3806 -2.4954 5.3176
# 3 45.6985 45.9348 56.1836 -3.8088 -2.8476 2.1177
# 4 -7.1311 4.3806 -3.8088 40.7573 0.2515 0.4805
# 5 0.2547 -2.4954 -2.8476 0.2515 30.3278 -2.7084
# 6 1.5856 5.3176 2.1177 0.4805 -2.7084 43.6416
#
#
#
# Elastic Compliance Matrix: (Units=1/GPa)
#
#
# Indices 1 2 3 4 5 6 
#
# 1 0.009735 -0.002425 -0.005888 0.001417 -0.000832 0.000160
# 2 -0.002425 0.008690 -0.005221 -0.001839 0.000199 -0.000685
# 3 -0.005888 -0.005221 0.027116 0.002056 0.002117 -0.000357
# 4 0.001417 -0.001839 0.002056 0.025177 -0.000198 -0.000217
# 5 -0.000832 0.000199 0.002117 -0.000198 0.033373 0.001977
# 6 0.000160 -0.000685 -0.000357 -0.000217 0.001977 0.023134
#
#
# Mechanical properties :
#
#
# Convention : Reuss Voigt Hill
#
# Bulk Modulus (GPa) = 54.13054 76.15268 65.14161
# Shear Modulus (GPa) = 31.16196 36.82578 33.99387
#
# Velocity S-wave (km/s) = 3.85056 4.18588 4.02172
# Velocity P-wave (km/s) = 6.74717 7.71981 7.24982
#
# Compressibility (1/GPa) = 0.01847386
#
# Stress axis : x y z
#
# Youngs Moduli (GPa) = 102.71783 115.07548 36.87801
#
# Poissons Ratio (x) = 0.27909 0.21713
# Poissons Ratio (y) = 0.24912 0.19253
# Poissons Ratio (z) = 0.60478 0.60079
#
# Static dielectric constant tensor:
#      x y z
#    x 4.740540 1.757670 -0.537340 
#    y 1.757670 5.833510 -1.298380 
#    z -0.537340 -1.298380 4.138600 
# 
# 
# High freq. dielectric constant tensor:
#      x y z
#    x 1.840470 0.005380 0.005650 
#    y 0.005380 1.850540 0.008590 
#    z 0.005650 0.008590 1.818900 
# 
# From -- ./inp_files/246059.got.cif
#   From: 2010.06.25/outbox.cif.g09.slc.cpg/sg2_124_cif.got.tgz:246059.got - 2010.06.27 13:26:56.
