data_PCOD8034244
_publ_section_title
;
Structure prediction by ZEFSAII (Michael W. Deem and Ramdas Pophale) SiO2 
 PCOD8034244
Probable space group: P -1
;
_chemical_formula_sum "Si O2"
_cell_formula_units_Z 16
_cell_length_a 14.435332
_cell_length_b 9.189481
_cell_length_c 12.818763
_cell_angle_alpha 65.749533
_cell_angle_beta 51.707099
_cell_angle_gamma 107.591972
_cell_volume 764.449145
_symmetry_space_group_name_H-M "P -1"
_symmetry_group_IT_number 2
_symmetry_cell_setting 'triclinic'
loop_
_space_group_symop_operation_xyz
x,y,z
-x,-y,-z
loop_
_atom_site_type_symbol
_atom_site_label
_atom_site_fract_x
_atom_site_fract_y
_atom_site_fract_z
Si Si1 0.542325 0.589015 0.288045
Si Si2 0.359951 0.069845 0.601451
Si Si3 0.351141 0.576495 0.061028
Si Si4 0.942854 0.621604 0.514286
Si Si5 0.763942 0.478012 0.465367
Si Si6 0.099192 0.940833 0.970085
Si Si7 0.534493 0.990234 0.650910
Si Si8 0.672752 0.787272 0.908968
O O1 0.512612 0.373601 0.403714
O O2 0.360941 0.497661 0.479588
O O3 0.719875 0.847073 0.146846
O O4 0.569034 0.633916 0.133241
O O5 0.422322 0.002015 0.659542
O O6 0.158365 0.923246 0.823881
O O7 0.335441 0.973408 0.530790
O O8 0.176613 0.477094 0.268858
O O9 0.289442 0.332859 0.147315
O O10 0.538916 0.767569 0.944591
O O11 0.389961 0.719583 0.887951
O O12 0.808847 0.529904 0.540344
O O13 0.000000 0.500000 0.500000
O O14 0.128206 0.923247 0.294741
O O15 0.657396 0.203026 0.591736
O O16 0.954122 0.673888 0.208344
O O17 0.000000 0.000000 0.000000
#
# Coordination Sequence:
#
# PCOD8034244 Si02
#       8
#     2   2   2   2   2   2   2   2
#     4  12  22  46  72 100 136 180 234 276 339 410
#     4  11  24  44  69  97 139 181 227 280 338 403
#     4  11  25  46  72  97 139 183 223 280 346 404
#     4  12  27  43  68 109 138 173 226 283 347 406
#     4  12  25  42  68 100 138 179 226 282 338 406
#     4  12  24  41  71 102 132 178 230 281 333 399
#     4  11  25  44  67  99 138 184 223 276 347 401
#     4  11  24  46  73 100 134 182 228 279 341 410
#
# _framework density 20.930105000000001
#
# number of rings (size 3 to 8) (size 9 to 14) (size 15 to 20)
#    0.000    0.500    6.250    2.250    3.500    1.500 
#    0.000    1.250    0.000    0.000    0.000    0.000 
#    0.000    0.000    0.000    0.000    0.000    0.000 
#
# Total GULP energy -198479.334395 kJ/mol
# GULP energy per Si atom -12404.958400 kJ/mol
# Density = 2.088247 g / cm^3
# Si number density = 20.930105 Si / 1000 Ang^3
#
#
#
# Elastic Constant Matrix: (Units=GPa)
#
#
# Indices 1 2 3 4 5 6 
#
# 1 89.6265 34.2154 47.4373 0.3945 1.1404 -11.1061
# 2 34.2154 103.2625 44.6671 14.0586 -10.1681 -7.4275
# 3 47.4373 44.6671 130.3206 24.4447 4.4832 -9.4310
# 4 0.3945 14.0586 24.4447 46.3305 -1.8218 -4.0566
# 5 1.1404 -10.1681 4.4832 -1.8218 37.1129 0.1047
# 6 -11.1061 -7.4275 -9.4310 -4.0566 0.1047 35.0677
#
#
#
# Elastic Compliance Matrix: (Units=1/GPa)
#
#
# Indices 1 2 3 4 5 6 
#
# 1 0.015427 -0.003315 -0.004920 0.003735 -0.000614 0.003294
# 2 -0.003315 0.012723 -0.002841 -0.002128 0.003825 0.000623
# 3 -0.004920 -0.002841 0.011523 -0.005236 -0.002277 0.000340
# 4 0.003735 -0.002128 -0.005236 0.025202 0.001165 0.002236
# 5 -0.000614 0.003825 -0.002277 0.001165 0.028344 0.000053
# 6 0.003294 0.000623 0.000340 0.002236 0.000053 0.030041
#
#
# Mechanical properties :
#
#
# Convention : Reuss Voigt Hill
#
# Bulk Modulus (GPa) = 57.07954 63.98322 60.53138
# Shear Modulus (GPa) = 33.05726 36.82820 34.94273
#
# Velocity S-wave (km/s) = 3.97849 4.19929 4.09038
# Velocity P-wave (km/s) = 6.95954 7.35855 7.16183
#
# Compressibility (1/GPa) = 0.01751941
#
# Stress axis : x y z
#
# Youngs Moduli (GPa) = 64.82254 78.59960 86.78196
#
# Poissons Ratio (x) = 0.26058 0.42698
# Poissons Ratio (y) = 0.21491 0.24656
# Poissons Ratio (z) = 0.31894 0.22331
#
# Static dielectric constant tensor:
#      x y z
#    x 3.560270 -0.098380 0.036380 
#    y -0.098380 3.987110 0.210750 
#    z 0.036380 0.210750 4.033780 
# 
# 
# High freq. dielectric constant tensor:
#      x y z
#    x 1.820120 -0.005820 0.009580 
#    y -0.005820 1.829830 0.010440 
#    z 0.009580 0.010440 1.830900 
# 
# From -- ./inp_files/273511.got.cif
#   From: 2010.06.25/outbox.cif.g09.slc.cpg/sg2_137_cif.got.tgz:273511.got - 2010.06.27 13:26:56.
