data_PCOD8034248
_publ_section_title
;
Structure prediction by ZEFSAII (Michael W. Deem and Ramdas Pophale) SiO2 
 PCOD8034248
Probable space group: P -1
;
_chemical_formula_sum "Si O2"
_cell_formula_units_Z 16
_cell_length_a 13.210809
_cell_length_b 8.338489
_cell_length_c 9.694524
_cell_angle_alpha 108.036164
_cell_angle_beta 113.869741
_cell_angle_gamma 47.367699
_cell_volume 717.487810
_symmetry_space_group_name_H-M "P -1"
_symmetry_group_IT_number 2
_symmetry_cell_setting 'triclinic'
loop_
_space_group_symop_operation_xyz
x,y,z
-x,-y,-z
loop_
_atom_site_type_symbol
_atom_site_label
_atom_site_fract_x
_atom_site_fract_y
_atom_site_fract_z
Si Si1 0.457441 0.654120 0.394126
Si Si2 0.930120 0.686407 0.129652
Si Si3 0.115868 0.028870 0.052116
Si Si4 0.316307 0.328679 0.592562
Si Si5 0.396098 0.550016 0.075591
Si Si6 0.357846 0.214004 0.904326
Si Si7 0.819329 0.877912 0.618659
Si Si8 0.964458 0.233590 0.523864
O O1 0.500000 0.500000 0.500000
O O2 0.549560 0.733073 0.437541
O O3 0.486926 0.490780 0.246650
O O4 0.293219 0.861793 0.384614
O O5 0.782467 0.754575 0.125164
O O6 0.028820 0.658156 0.303472
O O7 0.895336 0.890343 0.085281
O O8 0.000000 0.500000 0.000000
O O9 0.095906 0.187811 0.205657
O O10 0.272786 0.804822 0.086058
O O11 0.000000 0.000000 0.000000
O O12 0.368712 0.221634 0.746146
O O13 0.258824 0.224305 0.451079
O O14 0.191730 0.592963 0.587746
O O15 0.500000 0.500000 0.000000
O O16 0.333919 0.423585 0.004461
O O17 0.500000 0.000000 0.000000
O O18 0.924719 0.788226 0.524708
O O19 0.000000 0.000000 0.500000
#
# Coordination Sequence:
#
# PCOD8034248 Si02
#       8
#     2   2   2   2   2   2   2   2
#     4  11  26  44  71 105 141 188 239 300 353 427
#     4  12  27  47  73 109 145 184 245 302 356 436
#     4  11  25  43  72 102 140 185 234 298 357 419
#     4  12  26  47  73 104 148 189 238 297 358 429
#     4  11  24  44  69  98 140 187 238 290 358 418
#     4  12  28  45  74 106 141 193 243 295 358 428
#     4  11  25  45  71 103 144 189 236 292 367 425
#     4  12  27  46  75 108 143 191 240 294 368 435
#
# _framework density 22.300032999999999
#
# number of rings (size 3 to 8) (size 9 to 14) (size 15 to 20)
#    0.000    0.500    2.500    4.500    8.750    6.000 
#    0.000    0.000    0.000    0.000    0.000    0.000 
#    0.000    0.000    0.000    0.000    0.000    0.000 
#
# Total GULP energy -198309.007966 kJ/mol
# GULP energy per Si atom -12394.312998 kJ/mol
# Density = 2.224928 g / cm^3
# Si number density = 22.300033 Si / 1000 Ang^3
#
#
#
# Elastic Constant Matrix: (Units=GPa)
#
#
# Indices 1 2 3 4 5 6 
#
# 1 121.1371 1.4504 46.4647 -9.0045 -10.9093 6.4170
# 2 1.4504 64.0609 35.8894 -11.4805 -10.7532 -4.5234
# 3 46.4647 35.8894 157.4365 -7.2959 -6.7531 3.7175
# 4 -9.0045 -11.4805 -7.2959 43.2829 8.7387 0.3435
# 5 -10.9093 -10.7532 -6.7531 8.7387 44.9370 3.1088
# 6 6.4170 -4.5234 3.7175 0.3435 3.1088 37.5658
#
#
#
# Elastic Compliance Matrix: (Units=1/GPa)
#
#
# Indices 1 2 3 4 5 6 
#
# 1 0.009842 0.002135 -0.003190 0.001644 0.002191 -0.001305
# 2 0.002135 0.019767 -0.004843 0.004134 0.003567 0.002162
# 3 -0.003190 -0.004843 0.008374 -0.000422 -0.000536 -0.000819
# 4 0.001644 0.004134 -0.000422 0.025195 -0.003597 0.000326
# 5 0.002191 0.003567 -0.000536 -0.003597 0.024388 -0.001877
# 6 -0.001305 0.002162 -0.000819 0.000326 -0.001877 0.027337
#
#
# Mechanical properties :
#
#
# Convention : Reuss Voigt Hill
#
# Bulk Modulus (GPa) = 38.18728 56.69373 47.44051
# Shear Modulus (GPa) = 36.92014 42.41247 39.66630
#
# Velocity S-wave (km/s) = 4.07333 4.36581 4.22210
# Velocity P-wave (km/s) = 6.26771 7.13387 6.71477
#
# Compressibility (1/GPa) = 0.02618673
#
# Stress axis : x y z
#
# Youngs Moduli (GPa) = 101.60605 50.58914 119.41639
#
# Poissons Ratio (x) = -0.10800 0.38098
# Poissons Ratio (y) = -0.21691 0.57829
# Poissons Ratio (z) = 0.32416 0.24499
#
# Static dielectric constant tensor:
#      x y z
#    x 4.109800 -0.069890 -0.020950 
#    y -0.069890 4.427520 -0.189600 
#    z -0.020950 -0.189600 4.435560 
# 
# 
# High freq. dielectric constant tensor:
#      x y z
#    x 1.891210 0.004420 -0.000050 
#    y 0.004420 1.884140 -0.003010 
#    z -0.000050 -0.003010 1.899630 
# 
# From -- ./inp_files/184135.got.cif
#   From: 2010.06.25/outbox.cif.g09.slc.cpg/sg2_93_cif.got.tgz:184135.got - 2010.06.27 13:26:56.
