data_PCOD8034680
_publ_section_title
;
Structure prediction by ZEFSAII (Michael W. Deem and Ramdas Pophale) SiO2 
 PCOD8034680
Probable space group: P -1
;
_chemical_formula_sum "Si O2"
_cell_formula_units_Z 14
_cell_length_a 11.357438
_cell_length_b 17.659511
_cell_length_c 8.351348
_cell_angle_alpha 73.289753
_cell_angle_beta 55.128287
_cell_angle_gamma 29.854217
_cell_volume 588.384381
_symmetry_space_group_name_H-M "P -1"
_symmetry_group_IT_number 2
_symmetry_cell_setting 'triclinic'
loop_
_space_group_symop_operation_xyz
x,y,z
-x,-y,-z
loop_
_atom_site_type_symbol
_atom_site_label
_atom_site_fract_x
_atom_site_fract_y
_atom_site_fract_z
Si Si1 0.810438 0.995236 0.007883
Si Si2 0.337757 0.964211 0.246732
Si Si3 0.299278 0.361925 0.728771
Si Si4 0.398731 0.630838 0.412990
Si Si5 0.642386 0.510914 0.942530
Si Si6 0.279059 0.127334 0.744051
Si Si7 0.473691 0.739415 0.710223
O O1 0.910062 0.860613 0.080839
O O2 0.575224 0.156952 0.213109
O O3 0.136717 0.884051 0.792954
O O4 0.596421 0.082435 0.963844
O O5 0.415971 0.840442 0.336319
O O6 0.549057 0.926987 0.193661
O O7 0.978269 0.171089 0.417890
O O8 0.425572 0.388244 0.614608
O O9 0.242781 0.381804 0.567237
O O10 0.000000 0.500000 0.000000
O O11 0.500000 0.500000 0.500000
O O12 0.508379 0.589008 0.174175
O O13 0.558094 0.626143 0.828904
O O14 0.027129 0.317807 0.771088
O O15 0.500000 0.500000 0.000000
O O16 0.500000 0.000000 0.500000
#
# Coordination Sequence:
#
# PCOD8034680 Si02
#       7
#     2   2   2   2   2   2   2
#     4  11  24  45  74 109 148 196 255 315 379 458
#     4  12  26  47  75 107 154 200 255 313 388 455
#     4  12  27  49  75 113 152 199 258 320 384 455
#     4  12  26  47  76 111 152 202 257 315 385 459
#     4  12  24  45  74 107 150 198 256 315 378 456
#     4  12  26  46  71 111 153 200 252 318 385 455
#     4  11  25  46  77 110 147 198 260 312 387 452
#
# _framework density 23.793970999999999
#
# number of rings (size 3 to 8) (size 9 to 14) (size 15 to 20)
#    0.000    0.286    2.857    6.000    4.000    2.286 
#    0.000    4.286    0.000    0.000    0.000    0.000 
#    0.000    0.000    0.000    0.000    0.000    0.000 
#
# Total GULP energy -173504.328011 kJ/mol
# GULP energy per Si atom -12393.166286 kJ/mol
# Density = 2.373982 g / cm^3
# Si number density = 23.793971 Si / 1000 Ang^3
#
#
#
# Elastic Constant Matrix: (Units=GPa)
#
#
# Indices 1 2 3 4 5 6 
#
# 1 129.6972 55.6345 50.0119 16.9872 27.3698 3.3271
# 2 55.6345 171.3086 62.0581 -9.9344 4.7160 17.7786
# 3 50.0119 62.0581 150.8293 3.4316 37.7534 0.7416
# 4 16.9872 -9.9344 3.4316 40.6169 -7.1064 -1.9877
# 5 27.3698 4.7160 37.7534 -7.1064 48.7706 -6.2191
# 6 3.3271 17.7786 0.7416 -1.9877 -6.2191 42.9578
#
#
#
# Elastic Compliance Matrix: (Units=1/GPa)
#
#
# Indices 1 2 3 4 5 6 
#
# 1 0.012032 -0.003910 -0.000410 -0.007247 -0.007199 -0.000684
# 2 -0.003910 0.008790 -0.003534 0.004747 0.004464 -0.002408
# 3 -0.000410 -0.003534 0.010229 -0.002912 -0.007763 0.000059
# 4 -0.007247 0.004747 -0.002912 0.030989 0.010583 0.001613
# 5 -0.007199 0.004464 -0.007763 0.010583 0.032173 0.003992
# 6 -0.000684 -0.002408 0.000059 0.001613 0.003992 0.024980
#
#
# Mechanical properties :
#
#
# Convention : Reuss Voigt Hill
#
# Bulk Modulus (GPa) = 65.17781 87.47157 76.32469
# Shear Modulus (GPa) = 35.71074 45.41109 40.56092
#
# Velocity S-wave (km/s) = 3.87826 4.37339 4.13325
# Velocity P-wave (km/s) = 6.89250 7.89582 7.41116
#
# Compressibility (1/GPa) = 0.01534264
#
# Stress axis : x y z
#
# Youngs Moduli (GPa) = 83.11400 113.77211 97.76014
#
# Poissons Ratio (x) = 0.44482 0.04013
# Poissons Ratio (y) = 0.32496 0.34544
# Poissons Ratio (z) = 0.03412 0.40202
#
# Static dielectric constant tensor:
#      x y z
#    x 4.685030 0.100450 0.275120 
#    y 0.100450 4.553360 -0.023620 
#    z 0.275120 -0.023620 4.511790 
# 
# 
# High freq. dielectric constant tensor:
#      x y z
#    x 1.965000 0.012310 0.016930 
#    y 0.012310 1.955250 -0.005810 
#    z 0.016930 -0.005810 1.945970 
# 
# From -- ./inp_files/160215.got.cif
#   From: 2010.06.25/outbox.cif.g09.slc.cpg/sg2_81_cif.got.tgz:160215.got - 2010.06.27 13:26:56.
