data_PCOD8034675
_publ_section_title
;
Structure prediction by ZEFSAII (Michael W. Deem and Ramdas Pophale) SiO2 
 PCOD8034675
Probable space group: P -1
;
_chemical_formula_sum "Si O2"
_cell_formula_units_Z 12
_cell_length_a 8.767249
_cell_length_b 11.324971
_cell_length_c 13.782524
_cell_angle_alpha 150.498866
_cell_angle_beta 135.430882
_cell_angle_gamma 56.544470
_cell_volume 463.456521
_symmetry_space_group_name_H-M "P -1"
_symmetry_group_IT_number 2
_symmetry_cell_setting 'triclinic'
loop_
_space_group_symop_operation_xyz
x,y,z
-x,-y,-z
loop_
_atom_site_type_symbol
_atom_site_label
_atom_site_fract_x
_atom_site_fract_y
_atom_site_fract_z
Si Si1 0.468516 0.661281 0.447541
Si Si2 0.709903 0.876071 0.004164
Si Si3 0.986345 0.750515 0.724982
Si Si4 0.176538 0.541582 0.831646
Si Si5 0.438421 0.711875 0.255738
Si Si6 0.846628 0.082910 0.409067
O O1 0.731047 0.752154 0.629701
O O2 0.366112 0.612989 0.258668
O O3 0.381647 0.882251 0.619025
O O4 0.376558 0.400291 0.271615
O O5 0.800727 0.880503 0.159047
O O6 0.901644 0.014321 0.118799
O O7 0.500000 0.000000 0.000000
O O8 0.000000 0.500000 0.500000
O O9 0.121794 0.757853 0.892938
O O10 0.361210 0.410399 0.775924
O O11 0.953841 0.339874 0.593667
O O12 0.238453 0.647026 0.042276
O O13 0.500000 0.000000 0.500000
O O14 0.000000 0.000000 0.500000
#
# Coordination Sequence:
#
# PCOD8034675 Si02
#       6
#     2   2   2   2   2   2
#     4  12  27  48  75 111 147 194 250 301 373 438
#     4  12  25  48  78 107 153 194 239 310 366 435
#     4  12  23  50  77 107 152 196 243 305 368 441
#     4  11  24  46  71 104 149 191 243 304 365 434
#     4  11  24  45  74 106 145 194 247 301 364 438
#     4  12  27  47  73 108 147 192 250 307 366 439
#
# _framework density 25.892399000000001
#
# number of rings (size 3 to 8) (size 9 to 14) (size 15 to 20)
#    0.000    0.333    5.000    2.000    0.000   12.000 
#    0.000    7.500    0.000    0.000    0.000    0.000 
#    0.000    0.000    0.000    0.000    0.000    0.000 
#
# Total GULP energy -148843.730679 kJ/mol
# GULP energy per Si atom -12403.644223 kJ/mol
# Density = 2.583347 g / cm^3
# Si number density = 25.892399 Si / 1000 Ang^3
#
#
#
# Elastic Constant Matrix: (Units=GPa)
#
#
# Indices 1 2 3 4 5 6 
#
# 1 129.2141 50.6512 43.0359 -0.1958 15.5224 -6.3205
# 2 50.6512 131.7427 34.0249 -18.2663 7.4802 8.7133
# 3 43.0359 34.0249 115.1916 0.5937 9.1878 2.4666
# 4 -0.1958 -18.2663 0.5937 48.9326 8.2550 -0.6666
# 5 15.5224 7.4802 9.1878 8.2550 47.9652 -3.0176
# 6 -6.3205 8.7133 2.4666 -0.6666 -3.0176 38.7994
#
#
#
# Elastic Compliance Matrix: (Units=1/GPa)
#
#
# Indices 1 2 3 4 5 6 
#
# 1 0.010360 -0.003441 -0.002744 -0.000840 -0.001991 0.002466
# 2 -0.003441 0.010102 -0.001580 0.003908 -0.001004 -0.002740
# 3 -0.002744 -0.001580 0.010255 -0.000605 -0.000777 -0.000815
# 4 -0.000840 0.003908 -0.000605 0.022590 -0.004167 -0.000912
# 5 -0.001991 -0.001004 -0.000777 -0.004167 0.022618 0.001638
# 6 0.002466 -0.002740 -0.000815 -0.000912 0.001638 0.026954
#
#
# Mechanical properties :
#
#
# Convention : Reuss Voigt Hill
#
# Bulk Modulus (GPa) = 65.84036 70.17469 68.00753
# Shear Modulus (GPa) = 40.49510 43.70185 42.09847
#
# Velocity S-wave (km/s) = 3.95900 4.11277 4.03662
# Velocity P-wave (km/s) = 6.81043 7.05085 6.93168
#
# Compressibility (1/GPa) = 0.01518825
#
# Stress axis : x y z
#
# Youngs Moduli (GPa) = 96.52148 98.99375 97.50914
#
# Poissons Ratio (x) = 0.34065 0.26756
# Poissons Ratio (y) = 0.33215 0.15402
# Poissons Ratio (z) = 0.26485 0.15637
#
# Static dielectric constant tensor:
#      x y z
#    x 5.109010 0.364040 -0.353990 
#    y 0.364040 5.152160 -0.257840 
#    z -0.353990 -0.257840 5.278130 
# 
# 
# High freq. dielectric constant tensor:
#      x y z
#    x 2.046950 0.003480 -0.008060 
#    y 0.003480 2.048160 -0.002510 
#    z -0.008060 -0.002510 2.045950 
# 
# From -- ./inp_files/501322.got.cif
#   From: 2010.06.25/outbox.cif.g09.slc.cpg/sg2_251_cif.got.tgz:501322.got - 2010.06.27 13:26:56.
