data_PCOD8034819
_publ_section_title
;
Structure prediction by ZEFSAII (Michael W. Deem and Ramdas Pophale) SiO2 
 PCOD8034819
Probable space group: P -1
;
_chemical_formula_sum "Si O2"
_cell_formula_units_Z 16
_cell_length_a 11.866363
_cell_length_b 5.320550
_cell_length_c 17.698741
_cell_angle_alpha 57.910027
_cell_angle_beta 48.951172
_cell_angle_gamma 51.512200
_cell_volume 645.245696
_symmetry_space_group_name_H-M "P -1"
_symmetry_group_IT_number 2
_symmetry_cell_setting 'triclinic'
loop_
_space_group_symop_operation_xyz
x,y,z
-x,-y,-z
loop_
_atom_site_type_symbol
_atom_site_label
_atom_site_fract_x
_atom_site_fract_y
_atom_site_fract_z
Si Si1 0.589850 0.705557 0.695517
Si Si2 0.598026 0.598851 0.102853
Si Si3 0.059905 0.778484 0.934059
Si Si4 0.962338 0.270738 0.608077
Si Si5 0.484463 0.528971 0.390501
Si Si6 0.774138 0.408819 0.387146
Si Si7 0.380830 0.316762 0.085706
Si Si8 0.016965 0.696647 0.234777
O O1 0.500676 0.634038 0.820143
O O2 0.767631 0.397519 0.669318
O O3 0.504828 0.642060 0.667613
O O4 0.581316 0.070011 0.644982
O O5 0.743758 0.407622 0.127058
O O6 0.478729 0.951547 0.133091
O O7 0.671752 0.665423 0.981954
O O8 0.993575 0.984564 0.854439
O O9 0.000000 0.500000 0.000000
O O10 0.000000 0.000000 0.000000
O O11 0.029098 0.257312 0.665049
O O12 0.000000 0.500000 0.500000
O O13 0.074636 0.901293 0.591127
O O14 0.670095 0.359654 0.370580
O O15 0.359864 0.434992 0.511453
O O16 0.872795 0.608617 0.277870
O O17 0.210701 0.447445 0.185804
O O18 0.500000 0.500000 0.000000
#
# Coordination Sequence:
#
# PCOD8034819 Si02
#       8
#     2   2   2   2   2   2   2   2
#     4  12  27  48  76 112 151 203 262 316 397 464
#     4  11  26  43  73 104 150 197 254 315 380 465
#     4  12  28  50  76 113 154 204 256 321 386 463
#     4  12  27  47  76 113 156 207 261 327 389 466
#     4  11  28  49  77 112 154 203 258 326 390 472
#     4  11  27  47  78 108 157 202 265 320 402 463
#     4  11  24  46  71 109 150 202 256 319 391 462
#     4  12  27  47  80 112 158 210 263 328 397 469
#
# _framework density 24.796754
#
# number of rings (size 3 to 8) (size 9 to 14) (size 15 to 20)
#    0.000    0.500    2.500    3.750   10.500    4.000 
#    0.000    0.000    0.000    0.000    0.000    0.000 
#    0.000    0.000    0.000    0.000    0.000    0.000 
#
# Total GULP energy -198243.455963 kJ/mol
# GULP energy per Si atom -12390.215998 kJ/mol
# Density = 2.474032 g / cm^3
# Si number density = 24.796754 Si / 1000 Ang^3
#
#
#
# Elastic Constant Matrix: (Units=GPa)
#
#
# Indices 1 2 3 4 5 6 
#
# 1 78.6051 23.1879 32.3128 -3.6315 -15.5480 -5.5225
# 2 23.1879 107.9917 32.9843 -22.2437 -5.3000 -12.6530
# 3 32.3128 32.9843 133.1726 -10.3300 -13.5087 0.0218
# 4 -3.6315 -22.2437 -10.3300 31.5747 -4.7903 -2.7091
# 5 -15.5480 -5.3000 -13.5087 -4.7903 57.8182 1.3851
# 6 -5.5225 -12.6530 0.0218 -2.7091 1.3851 50.5399
#
#
#
# Elastic Compliance Matrix: (Units=1/GPa)
#
#
# Indices 1 2 3 4 5 6 
#
# 1 0.015225 -0.002146 -0.002848 -0.000118 0.003198 0.001034
# 2 -0.002146 0.012412 -0.001836 0.008292 0.000740 0.003298
# 3 -0.002848 -0.001836 0.008895 0.001420 0.001279 -0.000734
# 4 -0.000118 0.008292 0.001420 0.038945 0.004190 0.004035
# 5 0.003198 0.000740 0.001279 0.004190 0.018864 0.000242
# 6 0.001034 0.003298 -0.000734 0.004035 0.000242 0.020935
#
#
# Mechanical properties :
#
#
# Convention : Reuss Voigt Hill
#
# Bulk Modulus (GPa) = 43.71904 55.19326 49.45615
# Shear Modulus (GPa) = 36.61424 43.40552 40.00988
#
# Velocity S-wave (km/s) = 3.84679 4.18838 4.02121
# Velocity P-wave (km/s) = 6.11552 6.75993 6.44578
#
# Compressibility (1/GPa) = 0.02287333
#
# Stress axis : x y z
#
# Youngs Moduli (GPa) = 65.68126 80.56671 112.42507
#
# Poissons Ratio (x) = 0.17287 0.32016
# Poissons Ratio (y) = 0.14093 0.20640
# Poissons Ratio (z) = 0.18704 0.14791
#
# Static dielectric constant tensor:
#      x y z
#    x 3.558170 -0.792750 -0.826300 
#    y -0.792750 3.900500 -0.787750 
#    z -0.826300 -0.787750 3.964770 
# 
# 
# High freq. dielectric constant tensor:
#      x y z
#    x 1.988880 -0.023370 -0.006270 
#    y -0.023370 1.989070 -0.004630 
#    z -0.006270 -0.004630 2.007480 
# 
# From -- ./inp_files/564395.got.cif
#   From: 2010.06.25/outbox.cif.g09.slc.cpg/sg2_283_cif.got.tgz:564395.got - 2010.06.27 13:26:56.
