data_PCOD8034703
_publ_section_title
;
Structure prediction by ZEFSAII (Michael W. Deem and Ramdas Pophale) SiO2 
 PCOD8034703
Probable space group: P -1
;
_chemical_formula_sum "Si O2"
_cell_formula_units_Z 16
_cell_length_a 21.465427
_cell_length_b 12.592145
_cell_length_c 9.479898
_cell_angle_alpha 138.917852
_cell_angle_beta 145.272147
_cell_angle_gamma 27.289286
_cell_volume 666.578050
_symmetry_space_group_name_H-M "P -1"
_symmetry_group_IT_number 2
_symmetry_cell_setting 'triclinic'
loop_
_space_group_symop_operation_xyz
x,y,z
-x,-y,-z
loop_
_atom_site_type_symbol
_atom_site_label
_atom_site_fract_x
_atom_site_fract_y
_atom_site_fract_z
Si Si1 0.123355 0.267326 0.904914
Si Si2 0.142159 0.376847 0.749823
Si Si3 0.669587 0.807049 0.573038
Si Si4 0.184478 0.830032 0.146406
Si Si5 0.351988 0.518468 0.888169
Si Si6 0.659603 0.009578 0.473053
Si Si7 0.296148 0.771309 0.772100
Si Si8 0.695446 0.485212 0.700870
O O1 0.098936 0.311403 0.737115
O O2 0.145793 0.050542 0.756395
O O3 0.275303 0.191449 0.170488
O O4 0.000000 0.500000 0.000000
O O5 0.000000 0.500000 0.500000
O O6 0.304249 0.153985 0.750239
O O7 0.172781 0.524643 0.014709
O O8 0.716568 0.573816 0.395862
O O9 0.500000 0.000000 0.500000
O O10 0.704859 0.884351 0.582757
O O11 0.217011 0.977104 0.305474
O O12 0.289538 0.680946 0.330475
O O13 0.250390 0.638871 0.960390
O O14 0.000000 0.000000 0.000000
O O15 0.314592 0.710112 0.909932
O O16 0.540554 0.318649 0.069470
O O17 0.479430 0.255816 0.373226
O O18 0.263644 0.636682 0.496298
#
# Coordination Sequence:
#
# PCOD8034703 Si02
#       8
#     2   2   2   2   2   2   2   2
#     4  12  27  46  74 111 152 202 255 319 385 463
#     4  12  27  48  71 108 158 206 260 315 390 460
#     4  12  24  45  77 111 150 198 257 319 389 456
#     4  12  27  46  72 108 156 207 258 317 392 458
#     4  11  24  45  75 110 149 200 255 318 386 449
#     4  12  25  46  75 110 155 202 263 323 379 467
#     4  11  24  46  76 110 150 197 261 320 378 459
#     4  12  26  45  74 111 146 207 262 319 387 456
#
# _framework density 24.00319
#
# number of rings (size 3 to 8) (size 9 to 14) (size 15 to 20)
#    0.000    0.250    2.500    6.750    1.750    3.000 
#    0.000    1.875    0.000    0.000    0.000    0.000 
#    0.000    0.000    0.000    0.000    0.000    0.000 
#
# Total GULP energy -198252.233608 kJ/mol
# GULP energy per Si atom -12390.764600 kJ/mol
# Density = 2.394856 g / cm^3
# Si number density = 24.003190 Si / 1000 Ang^3
#
#
#
# Elastic Constant Matrix: (Units=GPa)
#
#
# Indices 1 2 3 4 5 6 
#
# 1 101.2174 41.1933 17.1049 -14.8442 -7.7850 5.3741
# 2 41.1933 145.8508 37.8292 -0.6155 -4.7893 -5.4142
# 3 17.1049 37.8292 120.4275 -0.6365 -1.4703 6.2559
# 4 -14.8442 -0.6155 -0.6365 45.6830 5.1984 -2.9489
# 5 -7.7850 -4.7893 -1.4703 5.1984 46.0846 5.6628
# 6 5.3741 -5.4142 6.2559 -2.9489 5.6628 43.4576
#
#
#
# Elastic Compliance Matrix: (Units=1/GPa)
#
#
# Indices 1 2 3 4 5 6 
#
# 1 0.012031 -0.003255 -0.000558 0.003574 0.001490 -0.001765
# 2 -0.003255 0.008430 -0.002277 -0.000882 0.000144 0.001702
# 3 -0.000558 -0.002277 0.009181 -0.000206 0.000179 -0.001574
# 4 0.003574 -0.000882 -0.000206 0.023386 -0.002300 0.001364
# 5 0.001490 0.000144 0.000179 -0.002300 0.022636 -0.003298
# 6 -0.001765 0.001702 -0.001574 0.001364 -0.003298 0.024190
#
#
# Mechanical properties :
#
#
# Convention : Reuss Voigt Hill
#
# Bulk Modulus (GPa) = 57.26324 62.19449 59.72886
# Shear Modulus (GPa) = 42.42466 45.13627 43.78047
#
# Velocity S-wave (km/s) = 4.20868 4.34109 4.27540
# Velocity P-wave (km/s) = 6.89388 7.14801 7.02209
#
# Compressibility (1/GPa) = 0.01746321
#
# Stress axis : x y z
#
# Youngs Moduli (GPa) = 83.11785 118.61791 108.91906
#
# Poissons Ratio (x) = 0.38608 0.06074
# Poissons Ratio (y) = 0.27054 0.24803
# Poissons Ratio (z) = 0.04635 0.27012
#
# Static dielectric constant tensor:
#      x y z
#    x 4.462940 -0.272160 -0.171960 
#    y -0.272160 4.880330 0.300320 
#    z -0.171960 0.300320 4.273560 
# 
# 
# High freq. dielectric constant tensor:
#      x y z
#    x 1.952470 0.001190 -0.013110 
#    y 0.001190 1.967900 0.007660 
#    z -0.013110 0.007660 1.962610 
# 
# From -- ./inp_files/346394.got.cif
#   From: 2010.06.25/outbox.cif.g09.slc.cpg/sg2_174_cif.got.tgz:346394.got - 2010.06.27 13:26:56.
