data_PCOD8034169
_publ_section_title
;
Structure prediction by ZEFSAII (Michael W. Deem and Ramdas Pophale) SiO2 
 PCOD8034169
Probable space group: P -1
;
_chemical_formula_sum "Si O2"
_cell_formula_units_Z 16
_cell_length_a 27.368191
_cell_length_b 8.342413
_cell_length_c 5.500936
_cell_angle_alpha 80.153516
_cell_angle_beta 122.431495
_cell_angle_gamma 138.015765
_cell_volume 648.920154
_symmetry_space_group_name_H-M "P -1"
_symmetry_group_IT_number 2
_symmetry_cell_setting 'triclinic'
loop_
_space_group_symop_operation_xyz
x,y,z
-x,-y,-z
loop_
_atom_site_type_symbol
_atom_site_label
_atom_site_fract_x
_atom_site_fract_y
_atom_site_fract_z
Si Si1 0.583855 0.897739 0.737430
Si Si2 0.867173 0.824028 0.758642
Si Si3 0.904430 0.389499 0.261546
Si Si4 0.758504 0.813802 0.176983
Si Si5 0.924529 0.630444 0.748125
Si Si6 0.268790 0.552574 0.114132
Si Si7 0.432798 0.479232 0.070136
Si Si8 0.453809 0.802071 0.713206
O O1 0.533469 0.730188 0.399069
O O2 0.580475 0.741525 0.960315
O O3 0.527753 0.938658 0.656177
O O4 0.693890 0.187008 0.939750
O O5 0.812709 0.875486 0.549376
O O6 0.877411 0.707631 0.604379
O O7 0.816746 0.612650 0.891291
O O8 0.965708 0.101981 0.044702
O O9 0.893252 0.474692 0.454493
O O10 0.000000 0.500000 0.500000
O O11 0.818244 0.073291 0.113433
O O12 0.899956 0.478505 0.971805
O O13 0.758008 0.632230 0.114145
O O14 0.653808 0.648727 0.963554
O O15 0.359161 0.685052 0.456133
O O16 0.429126 0.562131 0.783739
O O17 0.500000 0.000000 0.000000
#
# Coordination Sequence:
#
# PCOD8034169 Si02
#       8
#     2   2   2   2   2   2   2   2
#     4  11  25  43  66  94 141 182 232 293 359 426
#     4  11  27  46  73 107 142 190 245 297 363 441
#     4  12  26  49  78 109 151 193 241 305 377 437
#     4  12  26  43  71 103 140 188 247 301 365 444
#     4  11  28  50  77 109 151 197 242 302 370 445
#     4  12  25  43  69 101 141 183 244 299 359 436
#     4  11  24  44  64  99 134 185 232 291 358 426
#     4  12  22  42  68  97 134 190 235 290 362 434
#
# _framework density 24.656345000000002
#
# number of rings (size 3 to 8) (size 9 to 14) (size 15 to 20)
#    0.000    0.500    5.000    2.625    5.250    1.000 
#    0.000    0.000    0.000    0.000    0.000    0.000 
#    0.000    0.000    0.000    0.000    0.000    0.000 
#
# Total GULP energy -198257.980255 kJ/mol
# GULP energy per Si atom -12391.123766 kJ/mol
# Density = 2.460023 g / cm^3
# Si number density = 24.656345 Si / 1000 Ang^3
#
#
#
# Elastic Constant Matrix: (Units=GPa)
#
#
# Indices 1 2 3 4 5 6 
#
# 1 81.5688 14.1658 7.9901 8.7007 -4.6693 -4.0988
# 2 14.1658 157.2420 12.2164 18.4357 0.7316 -5.5589
# 3 7.9901 12.2164 36.4521 0.8444 -8.7808 -8.7926
# 4 8.7007 18.4357 0.8444 36.8126 -2.0054 5.1989
# 5 -4.6693 0.7316 -8.7808 -2.0054 30.4465 0.7497
# 6 -4.0988 -5.5589 -8.7926 5.1989 0.7497 36.9777
#
#
#
# Elastic Compliance Matrix: (Units=1/GPa)
#
#
# Indices 1 2 3 4 5 6 
#
# 1 0.012998 -0.000650 -0.001971 -0.002810 0.001225 0.001245
# 2 -0.000650 0.007041 -0.002175 -0.003525 -0.001153 0.000988
# 3 -0.001971 -0.002175 0.032415 0.000319 0.008949 0.006936
# 4 -0.002810 -0.003525 0.000319 0.030406 0.001874 -0.005078
# 5 0.001225 -0.001153 0.008949 0.001874 0.035737 0.001102
# 6 0.001245 0.000988 0.006936 -0.005078 0.001102 0.029671
#
#
# Mechanical properties :
#
#
# Convention : Reuss Voigt Hill
#
# Bulk Modulus (GPa) = 23.33023 38.22305 30.77664
# Shear Modulus (GPa) = 29.04498 36.90674 32.97586
#
# Velocity S-wave (km/s) = 3.43591 3.87311 3.66104
# Velocity P-wave (km/s) = 5.02229 5.96131 5.51183
#
# Compressibility (1/GPa) = 0.04286284
#
# Stress axis : x y z
#
# Youngs Moduli (GPa) = 76.93509 142.03128 30.84952
#
# Poissons Ratio (x) = 0.09233 0.06080
# Poissons Ratio (y) = 0.05001 0.06709
# Poissons Ratio (z) = 0.15163 0.30888
#
# Static dielectric constant tensor:
#      x y z
#    x 4.542300 -0.238850 0.157830 
#    y -0.238850 5.056930 -0.283420 
#    z 0.157830 -0.283420 4.065420 
# 
# 
# High freq. dielectric constant tensor:
#      x y z
#    x 1.987060 -0.006230 0.017080 
#    y -0.006230 2.007180 -0.001600 
#    z 0.017080 -0.001600 1.971620 
# 
# From -- ./inp_files/128262.got.cif
#   From: 2010.06.25/outbox.cif.g09.slc.cpg/sg2_65_cif.got.tgz:128262.got - 2010.06.27 13:26:56.
