data_PCOD8034665
_publ_section_title
;
Structure prediction by ZEFSAII (Michael W. Deem and Ramdas Pophale) SiO2 
 PCOD8034665
Probable space group: P -1
;
_chemical_formula_sum "Si O2"
_cell_formula_units_Z 14
_cell_length_a 9.298113
_cell_length_b 18.249437
_cell_length_c 5.608042
_cell_angle_alpha 116.918027
_cell_angle_beta 74.510311
_cell_angle_gamma 134.508396
_cell_volume 603.210990
_symmetry_space_group_name_H-M "P -1"
_symmetry_group_IT_number 2
_symmetry_cell_setting 'triclinic'
loop_
_space_group_symop_operation_xyz
x,y,z
-x,-y,-z
loop_
_atom_site_type_symbol
_atom_site_label
_atom_site_fract_x
_atom_site_fract_y
_atom_site_fract_z
Si Si1 0.297546 0.730261 0.451862
Si Si2 0.607971 0.953790 0.373207
Si Si3 0.262847 0.333796 0.930656
Si Si4 0.861738 0.628361 0.463709
Si Si5 0.051345 0.105630 0.524898
Si Si6 0.421643 0.201167 0.177274
Si Si7 0.631424 0.395713 0.039762
O O1 0.501161 0.854209 0.465056
O O2 0.365667 0.719325 0.657793
O O3 0.104501 0.717954 0.519825
O O4 0.237901 0.628573 0.171198
O O5 0.500000 0.000000 0.500000
O O6 0.597490 0.899999 0.051922
O O7 0.840746 0.063695 0.466563
O O8 0.197082 0.348097 0.724266
O O9 0.139555 0.202742 0.819414
O O10 0.223951 0.369120 0.245125
O O11 0.505844 0.406151 0.920506
O O12 0.777239 0.504477 0.298962
O O13 0.216306 0.153096 0.319256
O O14 0.000000 0.000000 0.500000
O O15 0.450284 0.283564 0.094901
#
# Coordination Sequence:
#
# PCOD8034665 Si02
#       7
#     2   2   2   2   2   2   2
#     4  11  25  46  69 107 143 188 248 291 353 452
#     4  11  25  42  69 104 143 187 239 302 365 415
#     4  12  27  48  72 112 144 187 250 300 356 438
#     4  12  29  46  76 107 151 190 236 307 371 414
#     4  12  23  46  71 102 138 194 239 292 363 426
#     4  11  24  45  74 103 144 189 252 290 354 450
#     4  11  25  48  74 102 143 193 240 298 362 434
#
# _framework density 23.209125
#
# number of rings (size 3 to 8) (size 9 to 14) (size 15 to 20)
#    0.000    0.571    2.857    4.286    8.000    3.429 
#    0.000    0.000    0.000    0.000    0.000    0.000 
#    0.000    0.000    0.000    0.000    0.000    0.000 
#
# Total GULP energy -173457.133458 kJ/mol
# GULP energy per Si atom -12389.795247 kJ/mol
# Density = 2.315630 g / cm^3
# Si number density = 23.209125 Si / 1000 Ang^3
#
#
#
# Elastic Constant Matrix: (Units=GPa)
#
#
# Indices 1 2 3 4 5 6 
#
# 1 130.2492 23.8118 23.8877 -9.2566 1.5343 13.6976
# 2 23.8118 42.7896 33.7753 12.3665 -0.0625 9.9650
# 3 23.8877 33.7753 125.2108 12.4655 -12.3407 -3.1311
# 4 -9.2566 12.3665 12.4655 41.6697 -7.4181 3.1606
# 5 1.5343 -0.0625 -12.3407 -7.4181 35.1200 7.0261
# 6 13.6976 9.9650 -3.1311 3.1606 7.0261 33.5664
#
#
#
# Elastic Compliance Matrix: (Units=1/GPa)
#
#
# Indices 1 2 3 4 5 6 
#
# 1 0.009357 -0.005075 -0.000832 0.004193 0.000765 -0.002944
# 2 -0.005075 0.037906 -0.008817 -0.009663 -0.003163 -0.008433
# 3 -0.000832 -0.008817 0.010967 -0.000558 0.003079 0.003388
# 4 0.004193 -0.009663 -0.000558 0.029330 0.006398 -0.002995
# 5 0.000765 -0.003163 0.003079 0.006398 0.032152 -0.006418
# 6 -0.002944 -0.008433 0.003388 -0.002995 -0.006418 0.035438
#
#
# Mechanical properties :
#
#
# Convention : Reuss Voigt Hill
#
# Bulk Modulus (GPa) = 34.74495 51.24434 42.99464
# Shear Modulus (GPa) = 25.74749 36.52287 31.13518
#
# Velocity S-wave (km/s) = 3.33433 3.97122 3.66663
# Velocity P-wave (km/s) = 5.46137 6.56923 6.04075
#
# Compressibility (1/GPa) = 0.02878116
#
# Stress axis : x y z
#
# Youngs Moduli (GPa) = 106.87696 26.38081 91.17948
#
# Poissons Ratio (x) = 0.13389 0.07583
# Poissons Ratio (y) = 0.54245 0.80397
# Poissons Ratio (z) = 0.08888 0.23261
#
# Static dielectric constant tensor:
#      x y z
#    x 3.548020 -1.023900 -0.702150 
#    y -1.023900 3.380460 -0.700290 
#    z -0.702150 -0.700290 3.775370 
# 
# 
# High freq. dielectric constant tensor:
#      x y z
#    x 1.930200 0.000250 -0.004420 
#    y 0.000250 1.919040 0.016890 
#    z -0.004420 0.016890 1.926490 
# 
# From -- ./inp_files/27625.got.cif
#   From: 2010.06.25/outbox.cif.g09.slc.cpg/sg2_14_cif.got.tgz:27625.got - 2010.06.27 13:26:56.
