data_PCOD8034976
_publ_section_title
;
Structure prediction by ZEFSAII (Michael W. Deem and Ramdas Pophale) SiO2 
 PCOD8034976
Probable space group: P -1
;
_chemical_formula_sum "Si O2"
_cell_formula_units_Z 16
_cell_length_a 12.251821
_cell_length_b 21.695976
_cell_length_c 9.870814
_cell_angle_alpha 152.905841
_cell_angle_beta 45.560941
_cell_angle_gamma 141.846394
_cell_volume 738.253597
_symmetry_space_group_name_H-M "P -1"
_symmetry_group_IT_number 2
_symmetry_cell_setting 'triclinic'
loop_
_space_group_symop_operation_xyz
x,y,z
-x,-y,-z
loop_
_atom_site_type_symbol
_atom_site_label
_atom_site_fract_x
_atom_site_fract_y
_atom_site_fract_z
Si Si1 0.147916 0.099751 0.673512
Si Si2 0.199819 0.596356 0.739983
Si Si3 0.703459 0.126786 0.239423
Si Si4 0.693770 0.553410 0.882672
Si Si5 0.804169 0.455221 0.849584
Si Si6 0.697299 0.534397 0.378626
Si Si7 0.687225 0.098004 0.895150
Si Si8 0.013204 0.118533 0.104865
O O1 0.296622 0.051455 0.448461
O O2 0.230941 0.280755 0.926883
O O3 0.000000 0.000000 0.500000
O O4 0.066954 0.057862 0.809521
O O5 0.288574 0.557326 0.460136
O O6 0.302711 0.600595 0.794348
O O7 0.997298 0.472202 0.709886
O O8 0.214693 0.762834 0.025888
O O9 0.671372 0.268661 0.589237
O O10 0.827088 0.108004 0.206636
O O11 0.521205 0.962597 0.057780
O O12 0.777920 0.164448 0.093859
O O13 0.803765 0.558007 0.926099
O O14 0.500000 0.500000 0.000000
O O15 0.751657 0.519554 0.150886
O O16 0.500000 0.500000 0.500000
O O17 0.838198 0.705985 0.644696
O O18 0.000000 0.000000 0.000000
#
# Coordination Sequence:
#
# PCOD8034976 Si02
#       8
#     2   2   2   2   2   2   2   2
#     4  12  25  46  71 107 145 189 241 300 359 432
#     4  12  25  47  72 106 139 192 244 299 356 427
#     4  11  24  47  69 107 144 184 238 298 357 432
#     4  12  25  43  74 105 143 189 245 299 355 421
#     4  12  25  45  75 101 141 193 241 295 361 428
#     4  12  29  49  71 102 147 192 246 298 359 439
#     4  11  26  42  76 108 143 183 238 302 361 420
#     4  12  29  48  71 102 150 192 240 297 370 434
#
# _framework density 21.672768999999999
#
# number of rings (size 3 to 8) (size 9 to 14) (size 15 to 20)
#    0.000    0.250    5.000    3.000    8.750    0.000 
#    0.000    1.250    0.000    0.000    0.000    0.000 
#    0.000    0.000    0.000    0.000    0.000    0.000 
#
# Total GULP energy -198362.244457 kJ/mol
# GULP energy per Si atom -12397.640279 kJ/mol
# Density = 2.162344 g / cm^3
# Si number density = 21.672769 Si / 1000 Ang^3
#
#
#
# Elastic Constant Matrix: (Units=GPa)
#
#
# Indices 1 2 3 4 5 6 
#
# 1 144.2508 52.4230 38.1771 6.7625 -10.0207 -18.3045
# 2 52.4230 97.0296 29.0993 -7.6450 0.2122 -9.3361
# 3 38.1771 29.0993 99.8727 -10.5865 -0.1289 -4.1722
# 4 6.7625 -7.6450 -10.5865 45.0942 -2.2469 -4.4321
# 5 -10.0207 0.2122 -0.1289 -2.2469 35.2257 -0.0535
# 6 -18.3045 -9.3361 -4.1722 -4.4321 -0.0535 51.2344
#
#
#
# Elastic Compliance Matrix: (Units=1/GPa)
#
#
# Indices 1 2 3 4 5 6 
#
# 1 0.009861 -0.004528 -0.002618 -0.002505 0.002667 0.002271
# 2 -0.004528 0.013625 -0.001930 0.002567 -0.001212 0.000929
# 3 -0.002618 -0.001930 0.011871 0.002819 -0.000510 -0.000077
# 4 -0.002505 0.002567 0.002819 0.023872 0.000808 0.001868
# 5 0.002667 -0.001212 -0.000510 0.000808 0.029205 0.000791
# 6 0.002271 0.000929 -0.000077 0.001868 0.000791 0.020655
#
#
# Mechanical properties :
#
#
# Convention : Reuss Voigt Hill
#
# Bulk Modulus (GPa) = 58.11536 64.50576 61.31056
# Shear Modulus (GPa) = 37.60088 41.07444 39.33766
#
# Velocity S-wave (km/s) = 4.16978 4.35812 4.26499
# Velocity P-wave (km/s) = 7.07502 7.42647 7.25287
#
# Compressibility (1/GPa) = 0.01720715
#
# Stress axis : x y z
#
# Youngs Moduli (GPa) = 101.40574 73.39290 84.24154
#
# Poissons Ratio (x) = 0.33229 0.22051
# Poissons Ratio (y) = 0.45912 0.16258
# Poissons Ratio (z) = 0.26544 0.14164
#
# Static dielectric constant tensor:
#      x y z
#    x 4.086020 -0.080010 0.138090 
#    y -0.080010 3.937080 0.107710 
#    z 0.138090 0.107710 3.820610 
# 
# 
# High freq. dielectric constant tensor:
#      x y z
#    x 1.868680 -0.002740 -0.007250 
#    y -0.002740 1.853530 -0.001130 
#    z -0.007250 -0.001130 1.855920 
# 
# From -- ./inp_files/283482.got.cif
#   From: 2010.06.25/outbox.cif.g09.slc.cpg/sg2_142_cif.got.tgz:283482.got - 2010.06.27 13:26:56.
