data_PCOD8034699
_publ_section_title
;
Structure prediction by ZEFSAII (Michael W. Deem and Ramdas Pophale) SiO2 
 PCOD8034699
Probable space group: P -1
;
_chemical_formula_sum "Si O2"
_cell_formula_units_Z 16
_cell_length_a 9.816860
_cell_length_b 8.067665
_cell_length_c 14.271497
_cell_angle_alpha 135.575583
_cell_angle_beta 120.120438
_cell_angle_gamma 74.234502
_cell_volume 677.286974
_symmetry_space_group_name_H-M "P -1"
_symmetry_group_IT_number 2
_symmetry_cell_setting 'triclinic'
loop_
_space_group_symop_operation_xyz
x,y,z
-x,-y,-z
loop_
_atom_site_type_symbol
_atom_site_label
_atom_site_fract_x
_atom_site_fract_y
_atom_site_fract_z
Si Si1 0.652220 0.227818 0.936687
Si Si2 0.964815 0.853302 0.683310
Si Si3 0.429522 0.448493 0.805610
Si Si4 0.677752 0.951778 0.528727
Si Si5 0.768871 0.438286 0.686354
Si Si6 0.500647 0.289598 0.250381
Si Si7 0.009763 0.710619 0.011743
Si Si8 0.153808 0.656030 0.527420
O O1 0.556022 0.324727 0.857924
O O2 0.819732 0.201887 0.938850
O O3 0.564478 0.981182 0.851887
O O4 0.676102 0.419342 0.106530
O O5 0.773655 0.856397 0.609339
O O6 0.973743 0.588025 0.616955
O O7 0.064359 0.869051 0.625563
O O8 0.045732 0.058306 0.863772
O O9 0.315139 0.232917 0.628740
O O10 0.517393 0.642988 0.839243
O O11 0.500000 0.000000 0.500000
O O12 0.775584 0.214807 0.665142
O O13 0.598363 0.530965 0.655178
O O14 0.803099 0.306313 0.549591
O O15 0.894878 0.648907 0.857968
O O16 0.686256 0.354303 0.362260
O O17 0.000000 0.500000 0.000000
#
# Coordination Sequence:
#
# PCOD8034699 Si02
#       8
#     2   2   2   2   2   2   2   2
#     4  11  27  45  72 111 148 190 248 299 369 441
#     4  11  25  46  71 100 146 191 235 295 370 429
#     4  11  24  45  75 108 144 193 242 303 365 437
#     4  12  22  45  73  99 137 189 242 291 356 431
#     4  12  26  43  75 106 138 192 243 298 366 433
#     4  12  24  48  74 107 149 191 246 305 366 435
#     4  12  26  47  70 102 150 191 239 303 368 439
#     4  11  26  45  70 108 142 184 247 303 355 436
#
# _framework density 23.623666
#
# number of rings (size 3 to 8) (size 9 to 14) (size 15 to 20)
#    0.000    0.500    3.750    3.750    1.750    7.500 
#    0.000    0.000    0.000    0.000    0.000    0.000 
#    0.000    0.000    0.000    0.000    0.000    0.000 
#
# Total GULP energy -198228.906103 kJ/mol
# GULP energy per Si atom -12389.306631 kJ/mol
# Density = 2.356990 g / cm^3
# Si number density = 23.623666 Si / 1000 Ang^3
#
#
#
# Elastic Constant Matrix: (Units=GPa)
#
#
# Indices 1 2 3 4 5 6 
#
# 1 108.0876 27.3819 38.4250 3.9750 -15.0831 -0.3993
# 2 27.3819 99.9455 36.4582 7.0495 -0.0372 11.1455
# 3 38.4250 36.4582 141.8424 17.3797 -14.5196 4.6466
# 4 3.9750 7.0495 17.3797 37.5193 0.3106 0.0024
# 5 -15.0831 -0.0372 -14.5196 0.3106 37.0069 2.2212
# 6 -0.3993 11.1455 4.6466 0.0024 2.2212 27.0460
#
#
#
# Elastic Compliance Matrix: (Units=1/GPa)
#
#
# Indices 1 2 3 4 5 6 
#
# 1 0.011112 -0.002437 -0.002078 0.000213 0.003636 0.001227
# 2 -0.002437 0.012096 -0.002358 -0.000909 -0.001629 -0.004482
# 3 -0.002078 -0.002358 0.008957 -0.003508 0.002744 -0.000823
# 4 0.000213 -0.000909 -0.003508 0.028439 -0.001596 0.001109
# 5 0.003636 -0.001629 0.002744 -0.001596 0.029723 -0.002187
# 6 0.001227 -0.004482 -0.000823 0.001109 -0.002187 0.039160
#
#
# Mechanical properties :
#
#
# Convention : Reuss Voigt Hill
#
# Bulk Modulus (GPa) = 54.28850 61.60063 57.94456
# Shear Modulus (GPa) = 33.47338 36.82181 35.14760
#
# Velocity S-wave (km/s) = 3.76831 3.95230 3.86140
# Velocity P-wave (km/s) = 6.47796 6.85274 6.66798
#
# Compressibility (1/GPa) = 0.01842011
#
# Stress axis : x y z
#
# Youngs Moduli (GPa) = 89.99431 82.66955 111.64825
#
# Poissons Ratio (x) = 0.20144 0.23200
# Poissons Ratio (y) = 0.21929 0.26323
# Poissons Ratio (z) = 0.18701 0.19491
#
# Static dielectric constant tensor:
#      x y z
#    x 4.602860 0.182450 -0.165420 
#    y 0.182450 4.380630 0.199040 
#    z -0.165420 0.199040 4.481430 
# 
# 
# High freq. dielectric constant tensor:
#      x y z
#    x 1.934130 -0.002680 -0.010540 
#    y -0.002680 1.936500 0.007950 
#    z -0.010540 0.007950 1.949090 
# 
# From -- ./inp_files/495925.got.cif
#   From: 2010.06.25/outbox.cif.g09.slc.cpg/sg2_248_cif.got.tgz:495925.got - 2010.06.27 13:26:56.
