data_PCOD8034746
_publ_section_title
;
Structure prediction by ZEFSAII (Michael W. Deem and Ramdas Pophale) SiO2 
 PCOD8034746
Probable space group: P -1
;
_chemical_formula_sum "Si O2"
_cell_formula_units_Z 14
_cell_length_a 12.728494
_cell_length_b 11.630040
_cell_length_c 9.414766
_cell_angle_alpha 57.967374
_cell_angle_beta 141.970257
_cell_angle_gamma 132.308996
_cell_volume 634.967087
_symmetry_space_group_name_H-M "P -1"
_symmetry_group_IT_number 2
_symmetry_cell_setting 'triclinic'
loop_
_space_group_symop_operation_xyz
x,y,z
-x,-y,-z
loop_
_atom_site_type_symbol
_atom_site_label
_atom_site_fract_x
_atom_site_fract_y
_atom_site_fract_z
Si Si1 0.830967 0.346167 0.997160
Si Si2 0.647430 0.211788 0.411444
Si Si3 0.929116 0.257973 0.448915
Si Si4 0.352799 0.487271 0.735123
Si Si5 0.251918 0.912980 0.135330
Si Si6 0.539816 0.633227 0.348308
Si Si7 0.917258 0.948571 0.603297
O O1 0.927850 0.292614 0.257391
O O2 0.724953 0.207426 0.863146
O O3 0.665698 0.369548 0.884453
O O4 0.000000 0.500000 0.000000
O O5 0.778827 0.287396 0.362602
O O6 0.622206 0.343211 0.384018
O O7 0.755612 0.145400 0.672729
O O8 0.439878 0.082114 0.214343
O O9 0.143326 0.377003 0.652981
O O10 0.880929 0.082340 0.541524
O O11 0.387635 0.404709 0.693541
O O12 0.500000 0.500000 0.000000
O O13 0.060516 0.922184 0.879037
O O14 0.500000 0.500000 0.500000
O O15 0.708353 0.795716 0.480207
O O16 0.000000 0.000000 0.500000
#
# Coordination Sequence:
#
# PCOD8034746 Si02
#       7
#     2   2   2   2   2   2   2
#     4  12  25  45  73 100 138 179 239 295 343 410
#     4  11  26  43  68 101 141 187 228 278 355 417
#     4  12  25  43  70 101 134 184 237 285 347 411
#     4  12  25  43  65  99 141 179 228 283 343 418
#     4  11  24  46  68  98 142 179 228 293 344 417
#     4  12  26  44  71 102 134 183 230 287 351 403
#     4  12  24  44  74 102 139 176 239 291 342 407
#
# _framework density 22.048387000000002
#
# number of rings (size 3 to 8) (size 9 to 14) (size 15 to 20)
#    0.000    0.286    2.857    6.429    2.000    5.143 
#    0.000    0.000    0.000    0.000    0.000    0.000 
#    0.000    0.000    0.000    0.000    0.000    0.000 
#
# Total GULP energy -173637.026781 kJ/mol
# GULP energy per Si atom -12402.644770 kJ/mol
# Density = 2.199820 g / cm^3
# Si number density = 22.048387 Si / 1000 Ang^3
#
#
#
# Elastic Constant Matrix: (Units=GPa)
#
#
# Indices 1 2 3 4 5 6 
#
# 1 89.4564 47.0779 31.3569 9.1438 14.2409 2.9174
# 2 47.0779 175.5149 58.8813 16.0427 16.0742 1.0387
# 3 31.3569 58.8813 139.3827 6.0254 7.3271 10.0716
# 4 9.1438 16.0427 6.0254 42.9713 2.0124 3.6702
# 5 14.2409 16.0742 7.3271 2.0124 35.9172 -1.2678
# 6 2.9174 1.0387 10.0716 3.6702 -1.2678 42.9405
#
#
#
# Elastic Compliance Matrix: (Units=1/GPa)
#
#
# Indices 1 2 3 4 5 6 
#
# 1 0.013981 -0.002676 -0.001709 -0.001512 -0.003929 -0.000471
# 2 -0.002676 0.007569 -0.002475 -0.001889 -0.001691 0.000691
# 3 -0.001709 -0.002475 0.008735 0.000228 -0.000077 -0.001895
# 4 -0.001512 -0.001889 0.000228 0.024439 -0.000041 -0.001995
# 5 -0.003929 -0.001691 -0.000077 -0.000041 0.030218 0.001222
# 6 -0.000471 0.000691 -0.001895 -0.001995 0.001222 0.023954
#
#
# Mechanical properties :
#
#
# Convention : Reuss Voigt Hill
#
# Bulk Modulus (GPa) = 60.36336 75.44293 67.90314
# Shear Modulus (GPa) = 39.02034 42.16832 40.59433
#
# Velocity S-wave (km/s) = 4.21141 4.37800 4.29551
# Velocity P-wave (km/s) = 7.14739 7.73609 7.44756
#
# Compressibility (1/GPa) = 0.01656634
#
# Stress axis : x y z
#
# Youngs Moduli (GPa) = 71.52360 132.11750 114.47550
#
# Poissons Ratio (x) = 0.35355 0.19563
# Poissons Ratio (y) = 0.19140 0.28330
# Poissons Ratio (z) = 0.12223 0.32696
#
# Static dielectric constant tensor:
#      x y z
#    x 3.647420 -0.149580 0.054010 
#    y -0.149580 4.244370 -0.141870 
#    z 0.054010 -0.141870 4.166190 
# 
# 
# High freq. dielectric constant tensor:
#      x y z
#    x 1.865170 -0.005120 0.003370 
#    y -0.005120 1.888760 0.002020 
#    z 0.003370 0.002020 1.880780 
# 
# From -- ./inp_files/157595.got.cif
#   From: 2010.06.25/outbox.cif.g09.slc.cpg/sg2_79_cif.got.tgz:157595.got - 2010.06.27 13:26:56.
