data_PCOD8034115
_publ_section_title
;
Structure prediction by ZEFSAII (Michael W. Deem and Ramdas Pophale) SiO2 
 PCOD8034115
Probable space group: P -1
;
_chemical_formula_sum "Si O2"
_cell_formula_units_Z 16
_cell_length_a 8.374332
_cell_length_b 17.128433
_cell_length_c 11.792452
_cell_angle_alpha 146.453300
_cell_angle_beta 133.513631
_cell_angle_gamma 49.780591
_cell_volume 666.900361
_symmetry_space_group_name_H-M "P -1"
_symmetry_group_IT_number 2
_symmetry_cell_setting 'triclinic'
loop_
_space_group_symop_operation_xyz
x,y,z
-x,-y,-z
loop_
_atom_site_type_symbol
_atom_site_label
_atom_site_fract_x
_atom_site_fract_y
_atom_site_fract_z
Si Si1 0.515810 0.525873 0.171943
Si Si2 0.179587 0.098685 0.711426
Si Si3 0.908518 0.356461 0.763950
Si Si4 0.612834 0.216780 0.835918
Si Si5 0.766330 0.443572 0.560210
Si Si6 0.941952 0.720497 0.930637
Si Si7 0.634748 0.946396 0.650323
Si Si8 0.899450 0.701944 0.620610
O O1 0.312211 0.639438 0.261219
O O2 0.744548 0.583826 0.377758
O O3 0.500000 0.500000 0.000000
O O4 0.519051 0.367022 0.038088
O O5 0.102205 0.225617 0.736278
O O6 0.411988 0.004749 0.679368
O O7 0.212495 0.153634 0.921905
O O8 0.000000 0.000000 0.500000
O O9 0.838605 0.341079 0.579700
O O10 0.000000 0.500000 0.000000
O O11 0.414969 0.163454 0.604904
O O12 0.724744 0.085833 0.814333
O O13 0.803768 0.257748 0.895455
O O14 0.500000 0.500000 0.500000
O O15 0.898711 0.575420 0.791990
O O16 0.853055 0.356534 0.381850
O O17 0.900294 0.725502 0.783053
O O18 0.814754 0.857690 0.713873
#
# Coordination Sequence:
#
# PCOD8034115 Si02
#       8
#     2   2   2   2   2   2   2   2
#     4  12  22  43  76 111 143 190 249 303 365 445
#     4  12  25  46  73 109 150 191 242 303 363 436
#     4  12  25  43  75 111 143 192 247 306 365 425
#     4  11  24  43  73 105 148 191 242 307 361 435
#     4  12  28  48  72 112 148 186 246 319 373 434
#     4  12  26  48  74 105 153 193 245 306 373 440
#     4  11  26  45  73 110 147 195 246 298 361 448
#     4  12  27  47  77 107 145 201 248 297 384 445
#
# _framework density 23.991592000000001
#
# number of rings (size 3 to 8) (size 9 to 14) (size 15 to 20)
#    0.000    0.250    5.000    4.125    5.250    1.000 
#    0.000    0.000    0.000    0.000    0.000    0.000 
#    0.000    0.000    0.000    0.000    0.000    0.000 
#
# Total GULP energy -198350.734088 kJ/mol
# GULP energy per Si atom -12396.920881 kJ/mol
# Density = 2.393699 g / cm^3
# Si number density = 23.991592 Si / 1000 Ang^3
#
#
#
# Elastic Constant Matrix: (Units=GPa)
#
#
# Indices 1 2 3 4 5 6 
#
# 1 127.3419 35.3136 32.9934 -1.2943 -9.8994 -2.5529
# 2 35.3136 117.3755 40.9761 10.4128 -10.0618 13.4159
# 3 32.9934 40.9761 90.3309 5.3845 -14.8168 17.8774
# 4 -1.2943 10.4128 5.3845 45.6023 11.0608 -5.8385
# 5 -9.8994 -10.0618 -14.8168 11.0608 49.1795 0.4655
# 6 -2.5529 13.4159 17.8774 -5.8385 0.4655 47.5119
#
#
#
# Elastic Compliance Matrix: (Units=1/GPa)
#
#
# Indices 1 2 3 4 5 6 
#
# 1 0.009285 -0.002141 -0.002933 0.001349 0.000221 0.002371
# 2 -0.002141 0.010966 -0.003323 -0.002826 0.001469 -0.002323
# 3 -0.002933 -0.003323 0.015579 -0.002864 0.004119 -0.005473
# 4 0.001349 -0.002826 -0.002864 0.025281 -0.006904 0.005122
# 5 0.000221 0.001469 0.004119 -0.006904 0.023501 -0.003031
# 6 0.002371 -0.002323 -0.005473 0.005122 -0.003031 0.024549
#
#
# Mechanical properties :
#
#
# Convention : Reuss Voigt Hill
#
# Bulk Modulus (GPa) = 52.53621 61.51272 57.02446
# Shear Modulus (GPa) = 37.79233 43.50975 40.65104
#
# Velocity S-wave (km/s) = 3.97323 4.26319 4.12076
# Velocity P-wave (km/s) = 6.55698 7.06597 6.81623
#
# Compressibility (1/GPa) = 0.01903449
#
# Stress axis : x y z
#
# Youngs Moduli (GPa) = 107.69933 91.18973 64.18908
#
# Poissons Ratio (x) = 0.19525 0.18829
# Poissons Ratio (y) = 0.23059 0.21332
# Poissons Ratio (z) = 0.31593 0.30306
#
# Static dielectric constant tensor:
#      x y z
#    x 4.654330 0.057570 -0.000290 
#    y 0.057570 4.341110 0.281530 
#    z -0.000290 0.281530 4.571150 
# 
# 
# High freq. dielectric constant tensor:
#      x y z
#    x 1.966330 0.006710 -0.003180 
#    y 0.006710 1.949530 0.012770 
#    z -0.003180 0.012770 1.950820 
# 
# From -- ./inp_files/403629.got.cif
#   From: 2010.06.25/outbox.cif.g09.slc.cpg/sg2_202_cif.got.tgz:403629.got - 2010.06.27 13:26:56.
