data_PCOD8034376
_publ_section_title
;
Structure prediction by ZEFSAII (Michael W. Deem and Ramdas Pophale) SiO2 
 PCOD8034376
Probable space group: P -1
;
_chemical_formula_sum "Si O2"
_cell_formula_units_Z 14
_cell_length_a 8.704126
_cell_length_b 14.957228
_cell_length_c 8.687016
_cell_angle_alpha 33.959368
_cell_angle_beta 70.210972
_cell_angle_gamma 68.266171
_cell_volume 585.773075
_symmetry_space_group_name_H-M "P -1"
_symmetry_group_IT_number 2
_symmetry_cell_setting 'triclinic'
loop_
_space_group_symop_operation_xyz
x,y,z
-x,-y,-z
loop_
_atom_site_type_symbol
_atom_site_label
_atom_site_fract_x
_atom_site_fract_y
_atom_site_fract_z
Si Si1 0.873150 0.109422 0.548674
Si Si2 0.465801 0.839391 0.897372
Si Si3 0.750555 0.634501 0.627624
Si Si4 0.245517 0.155622 0.407188
Si Si5 0.229072 0.723765 0.956767
Si Si6 0.017391 0.145925 0.904172
Si Si7 0.543114 0.182170 0.725631
O O1 0.718010 0.207720 0.555570
O O2 0.048808 0.165289 0.442022
O O3 0.836396 0.126457 0.353222
O O4 0.881082 0.927215 0.872896
O O5 0.654894 0.863025 0.762499
O O6 0.331064 0.007095 0.700046
O O7 0.420382 0.724834 0.935311
O O8 0.460027 0.759638 0.180049
O O9 0.727000 0.679666 0.750527
O O10 0.803493 0.440956 0.873665
O O11 0.898994 0.719261 0.396887
O O12 0.587601 0.692266 0.502500
O O13 0.152343 0.758426 0.104238
O O14 0.000000 0.000000 0.000000
O O15 0.500000 0.000000 0.000000
#
# Coordination Sequence:
#
# PCOD8034376 Si02
#       7
#     2   2   2   2   2   2   2
#     4  12  25  44  78 106 142 188 250 284 360 426
#     4  11  25  44  71 106 145 186 248 292 359 427
#     4  12  26  47  72 106 151 186 238 300 370 416
#     4  11  24  44  73 105 142 192 239 301 346 438
#     4  12  28  45  71 111 149 187 233 305 367 424
#     4  12  23  47  75 106 142 190 242 293 350 432
#     4  12  25  44  75 106 136 197 246 295 349 433
#
# _framework density 23.900037999999999
#
# number of rings (size 3 to 8) (size 9 to 14) (size 15 to 20)
#    0.000    0.286    5.714    2.571    4.000    3.429 
#    0.000    0.000    0.000    0.000    0.000    0.000 
#    0.000    0.000    0.000    0.000    0.000    0.000 
#
# Total GULP energy -173478.754412 kJ/mol
# GULP energy per Si atom -12391.339601 kJ/mol
# Density = 2.384564 g / cm^3
# Si number density = 23.900038 Si / 1000 Ang^3
#
#
#
# Elastic Constant Matrix: (Units=GPa)
#
#
# Indices 1 2 3 4 5 6 
#
# 1 119.5372 35.1587 27.4019 22.0931 -8.4282 -7.3987
# 2 35.1587 110.0705 27.0051 9.5384 -17.7106 0.4670
# 3 27.4019 27.0051 60.6593 5.5040 -8.7972 0.7359
# 4 22.0931 9.5384 5.5040 51.3090 5.9334 -8.1105
# 5 -8.4282 -17.7106 -8.7972 5.9334 33.4586 6.2779
# 6 -7.3987 0.4670 0.7359 -8.1105 6.2779 39.6315
#
#
#
# Elastic Compliance Matrix: (Units=1/GPa)
#
#
# Indices 1 2 3 4 5 6 
#
# 1 0.010589 -0.002045 -0.003376 -0.003776 0.001159 0.001107
# 2 -0.002045 0.011569 -0.003261 -0.001809 0.005388 -0.001681
# 3 -0.003376 -0.003261 0.019995 -0.000697 0.003104 -0.001597
# 4 -0.003776 -0.001809 -0.000697 0.023181 -0.007180 0.005211
# 5 0.001159 0.005388 0.003104 -0.007180 0.036463 -0.007150
# 6 0.001107 -0.001681 -0.001597 0.005211 -0.007150 0.027688
#
#
# Mechanical properties :
#
#
# Convention : Reuss Voigt Hill
#
# Bulk Modulus (GPa) = 40.33876 52.15536 46.24706
# Shear Modulus (GPa) = 32.23509 38.25992 35.24750
#
# Velocity S-wave (km/s) = 3.67651 4.00538 3.84446
# Velocity P-wave (km/s) = 5.91076 6.57727 6.25290
#
# Compressibility (1/GPa) = 0.02479006
#
# Stress axis : x y z
#
# Youngs Moduli (GPa) = 94.43640 86.43695 50.01292
#
# Poissons Ratio (x) = 0.17677 0.16883
# Poissons Ratio (y) = 0.19313 0.16308
# Poissons Ratio (z) = 0.31879 0.28185
#
# Static dielectric constant tensor:
#      x y z
#    x 4.528000 -0.060340 -0.109210 
#    y -0.060340 4.375520 0.348590 
#    z -0.109210 0.348590 4.299540 
# 
# 
# High freq. dielectric constant tensor:
#      x y z
#    x 1.963810 -0.004050 -0.011780 
#    y -0.004050 1.947480 0.033120 
#    z -0.011780 0.033120 1.924340 
# 
# From -- ./inp_files/205007.got.cif
#   From: 2010.06.25/outbox.cif.g09.slc.cpg/sg2_103_cif.got.tgz:205007.got - 2010.06.27 13:26:56.
