data_PCOD8034975
_publ_section_title
;
Structure prediction by ZEFSAII (Michael W. Deem and Ramdas Pophale) SiO2 
 PCOD8034975
Probable space group: P -1
;
_chemical_formula_sum "Si O2"
_cell_formula_units_Z 16
_cell_length_a 6.603902
_cell_length_b 22.247523
_cell_length_c 14.778824
_cell_angle_alpha 148.989232
_cell_angle_beta 125.619622
_cell_angle_gamma 76.032687
_cell_volume 716.672571
_symmetry_space_group_name_H-M "P -1"
_symmetry_group_IT_number 2
_symmetry_cell_setting 'triclinic'
loop_
_space_group_symop_operation_xyz
x,y,z
-x,-y,-z
loop_
_atom_site_type_symbol
_atom_site_label
_atom_site_fract_x
_atom_site_fract_y
_atom_site_fract_z
Si Si1 0.394178 0.471285 0.834225
Si Si2 0.313679 0.683147 0.545201
Si Si3 0.278609 0.269742 0.884800
Si Si4 0.725858 0.587396 0.756640
Si Si5 0.428689 0.923862 0.612213
Si Si6 0.683034 0.784734 0.596684
Si Si7 0.398655 0.921244 0.967005
Si Si8 0.393671 0.874088 0.236991
O O1 0.500290 0.385165 0.699168
O O2 0.024881 0.357971 0.605896
O O3 0.500000 0.500000 0.000000
O O4 0.514826 0.615176 0.993303
O O5 0.280647 0.536242 0.352816
O O6 0.519855 0.783819 0.643773
O O7 0.438433 0.790400 0.804589
O O8 0.339875 0.148727 0.738436
O O9 0.909668 0.193669 0.675671
O O10 0.382227 0.348366 0.113031
O O11 0.500000 0.500000 0.500000
O O12 0.068194 0.718270 0.976917
O O13 0.618777 0.858445 0.594136
O O14 0.650175 0.068888 0.794477
O O15 0.372903 0.972721 0.756065
O O16 0.046459 0.868852 0.826274
O O17 0.500000 0.000000 0.000000
O O18 0.500000 0.000000 0.500000
#
# Coordination Sequence:
#
# PCOD8034975 Si02
#       8
#     2   2   2   2   2   2   2   2
#     4  11  25  41  74 104 145 185 234 302 365 436
#     4  11  24  47  69 106 145 186 244 298 365 435
#     4  12  27  50  71 111 142 190 260 296 365 448
#     4  12  29  48  78 106 145 201 246 311 370 431
#     4  12  27  45  76 103 150 195 240 306 365 437
#     4  11  25  45  70 109 144 188 243 299 369 435
#     4  11  26  45  70 112 148 189 239 298 370 444
#     4  12  29  51  73 106 150 197 252 305 365 439
#
# _framework density 22.325396000000001
#
# number of rings (size 3 to 8) (size 9 to 14) (size 15 to 20)
#    0.000    0.500    5.000    1.500    8.750    1.500 
#    0.000    0.000    0.000    0.000    0.000    0.000 
#    0.000    0.000    0.000    0.000    0.000    0.000 
#
# Total GULP energy -198326.969886 kJ/mol
# GULP energy per Si atom -12395.435618 kJ/mol
# Density = 2.227458 g / cm^3
# Si number density = 22.325396 Si / 1000 Ang^3
#
#
#
# Elastic Constant Matrix: (Units=GPa)
#
#
# Indices 1 2 3 4 5 6 
#
# 1 110.9433 40.0673 34.2888 0.7633 -20.1546 3.3972
# 2 40.0673 123.4252 31.0340 9.6640 -11.6708 10.5970
# 3 34.2888 31.0340 103.7491 -9.1345 -22.1607 3.7957
# 4 0.7633 9.6640 -9.1345 39.4545 10.2342 -7.9534
# 5 -20.1546 -11.6708 -22.1607 10.2342 48.4864 9.8015
# 6 3.3972 10.5970 3.7957 -7.9534 9.8015 44.6414
#
#
#
# Elastic Compliance Matrix: (Units=1/GPa)
#
#
# Indices 1 2 3 4 5 6 
#
# 1 0.011335 -0.002584 -0.002293 -0.001240 0.003515 -0.001047
# 2 -0.002584 0.010234 -0.002027 -0.004089 0.001978 -0.003223
# 3 -0.002293 -0.002027 0.012027 0.002190 0.003756 -0.000801
# 4 -0.001240 -0.004089 0.002190 0.030794 -0.008670 0.008269
# 5 0.003515 0.001978 0.003756 -0.008670 0.027871 -0.008720
# 6 -0.001047 -0.003223 -0.000801 0.008269 -0.008720 0.026701
#
#
# Mechanical properties :
#
#
# Convention : Reuss Voigt Hill
#
# Bulk Modulus (GPa) = 50.53543 60.98863 55.76203
# Shear Modulus (GPa) = 35.87662 42.03164 38.95413
#
# Velocity S-wave (km/s) = 4.01307 4.34370 4.18165
# Velocity P-wave (km/s) = 6.64515 7.24805 6.95314
#
# Compressibility (1/GPa) = 0.01978810
#
# Stress axis : x y z
#
# Youngs Moduli (GPa) = 88.22560 97.71010 83.14434
#
# Poissons Ratio (x) = 0.25244 0.19068
# Poissons Ratio (y) = 0.22793 0.16855
# Poissons Ratio (z) = 0.20233 0.19808
#
# Static dielectric constant tensor:
#      x y z
#    x 32.896990 -2.422610 -51.955290 
#    y -2.422610 4.257350 4.552660 
#    z -51.955290 4.552660 97.655940 
# 
# 
# High freq. dielectric constant tensor:
#      x y z
#    x 1.890730 0.006920 -0.015640 
#    y 0.006920 1.879870 0.016270 
#    z -0.015640 0.016270 1.894150 
# 
# From -- ./inp_files/84527.got.cif
#   From: 2010.06.25/outbox.cif.g09.slc.cpg/sg2_43_cif.got.tgz:84527.got - 2010.06.27 13:26:56.
