data_PCOD8034176
_publ_section_title
;
Structure prediction by ZEFSAII (Michael W. Deem and Ramdas Pophale) SiO2 
 PCOD8034176
Probable space group: P -1
;
_chemical_formula_sum "Si O2"
_cell_formula_units_Z 16
_cell_length_a 9.057978
_cell_length_b 9.355602
_cell_length_c 13.389538
_cell_angle_alpha 66.373033
_cell_angle_beta 90.459042
_cell_angle_gamma 46.306863
_cell_volume 678.599362
_symmetry_space_group_name_H-M "P -1"
_symmetry_group_IT_number 2
_symmetry_cell_setting 'triclinic'
loop_
_space_group_symop_operation_xyz
x,y,z
-x,-y,-z
loop_
_atom_site_type_symbol
_atom_site_label
_atom_site_fract_x
_atom_site_fract_y
_atom_site_fract_z
Si Si1 0.480686 0.851844 0.273737
Si Si2 0.822275 0.007334 0.526186
Si Si3 0.546241 0.482040 0.689533
Si Si4 0.658396 0.387144 0.127221
Si Si5 0.064774 0.115410 0.782548
Si Si6 0.793572 0.779154 0.420640
Si Si7 0.269005 0.193319 0.884372
Si Si8 0.024124 0.311243 0.192736
O O1 0.470091 0.673364 0.319593
O O2 0.564571 0.857446 0.379918
O O3 0.674710 0.747235 0.228093
O O4 0.235910 0.128068 0.168285
O O5 0.791838 0.881500 0.491676
O O6 0.895379 0.875145 0.668665
O O7 0.586379 0.289948 0.445370
O O8 0.000000 0.000000 0.500000
O O9 0.461532 0.551660 0.784754
O O10 0.798924 0.343602 0.729859
O O11 0.776858 0.460378 0.108580
O O12 0.874110 0.108021 0.182250
O O13 0.500000 0.500000 0.000000
O O14 0.175127 0.126315 0.693823
O O15 0.190440 0.078656 0.893531
O O16 0.000000 0.500000 0.500000
O O17 0.036302 0.460559 0.848821
O O18 0.500000 0.000000 0.000000
#
# Coordination Sequence:
#
# PCOD8034176 Si02
#       8
#     2   2   2   2   2   2   2   2
#     4  11  26  44  69 102 141 181 233 281 349 408
#     4  12  23  43  72 100 148 182 224 288 343 417
#     4  12  25  45  72 106 138 184 231 284 352 413
#     4  12  25  46  72 101 139 178 234 295 345 407
#     4  11  25  43  69 107 133 179 239 283 347 411
#     4  11  24  44  66 102 143 184 225 279 341 412
#     4  11  25  47  70  97 141 185 232 293 345 410
#     4  12  25  45  69 105 140 184 231 281 351 410
#
# _framework density 23.577976
#
# number of rings (size 3 to 8) (size 9 to 14) (size 15 to 20)
#    0.000    0.500    5.000    3.000    3.500    3.000 
#    0.000    0.000    0.000    0.000    0.000    0.000 
#    0.000    0.000    0.000    0.000    0.000    0.000 
#
# Total GULP energy -198223.650616 kJ/mol
# GULP energy per Si atom -12388.978164 kJ/mol
# Density = 2.352431 g / cm^3
# Si number density = 23.577976 Si / 1000 Ang^3
#
#
#
# Elastic Constant Matrix: (Units=GPa)
#
#
# Indices 1 2 3 4 5 6 
#
# 1 84.1395 24.2871 15.6498 5.6781 35.8979 14.2918
# 2 24.2871 139.7578 22.3979 -20.8663 14.6679 12.6211
# 3 15.6498 22.3979 78.9937 -7.5045 26.2062 6.4090
# 4 5.6781 -20.8663 -7.5045 35.0345 4.9533 11.9727
# 5 35.8979 14.6679 26.2062 4.9533 40.2897 -3.2052
# 6 14.2918 12.6211 6.4090 11.9727 -3.2052 40.9874
#
#
#
# Elastic Compliance Matrix: (Units=1/GPa)
#
#
# Indices 1 2 3 4 5 6 
#
# 1 0.024209 -0.000357 0.005767 0.005300 -0.026868 -0.012883
# 2 -0.000357 0.009423 0.000204 0.008293 -0.004710 -0.005600
# 3 0.005767 0.000204 0.019763 0.009493 -0.019990 -0.009500
# 4 0.005300 0.008293 0.009493 0.044665 -0.021045 -0.020579
# 5 -0.026868 -0.004710 -0.019990 -0.021045 0.068086 0.025416
# 6 -0.012883 -0.005600 -0.009500 -0.020579 0.025416 0.040098
#
#
# Mechanical properties :
#
#
# Convention : Reuss Voigt Hill
#
# Bulk Modulus (GPa) = 15.47423 47.50673 31.49048
# Shear Modulus (GPa) = 23.08861 39.29941 31.19401
#
# Velocity S-wave (km/s) = 3.13268 4.08706 3.64127
# Velocity P-wave (km/s) = 4.43421 6.51648 5.57345
#
# Compressibility (1/GPa) = 0.06462356
#
# Stress axis : x y z
#
# Youngs Moduli (GPa) = 41.30712 106.12518 50.59871
#
# Poissons Ratio (x) = 0.03785 -0.29181
# Poissons Ratio (y) = 0.01473 -0.01031
# Poissons Ratio (z) = -0.23823 -0.02162
#
# Static dielectric constant tensor:
#      x y z
#    x 4.570570 0.221990 0.293930 
#    y 0.221990 4.687990 0.154230 
#    z 0.293930 0.154230 4.373070 
# 
# 
# High freq. dielectric constant tensor:
#      x y z
#    x 1.945260 0.011850 0.020740 
#    y 0.011850 1.951080 -0.009910 
#    z 0.020740 -0.009910 1.925490 
# 
# From -- ./inp_files/188225.got.cif
#   From: 2010.06.25/outbox.cif.g09.slc.cpg/sg2_95_cif.got.tgz:188225.got - 2010.06.27 13:26:56.
