data_PCOD8034574
_publ_section_title
;
Structure prediction by ZEFSAII (Michael W. Deem and Ramdas Pophale) SiO2 
 PCOD8034574
Probable space group: P -1
;
_chemical_formula_sum "Si O2"
_cell_formula_units_Z 16
_cell_length_a 18.448063
_cell_length_b 17.735745
_cell_length_c 9.607626
_cell_angle_alpha 29.794778
_cell_angle_beta 38.396727
_cell_angle_gamma 26.205934
_cell_volume 689.589278
_symmetry_space_group_name_H-M "P -1"
_symmetry_group_IT_number 2
_symmetry_cell_setting 'triclinic'
loop_
_space_group_symop_operation_xyz
x,y,z
-x,-y,-z
loop_
_atom_site_type_symbol
_atom_site_label
_atom_site_fract_x
_atom_site_fract_y
_atom_site_fract_z
Si Si1 0.904542 0.372706 0.364246
Si Si2 0.070771 0.091264 0.289118
Si Si3 0.607242 0.807726 0.753396
Si Si4 0.084845 0.584216 0.228422
Si Si5 0.250085 0.619417 0.162881
Si Si6 0.551857 0.303863 0.651852
Si Si7 0.234079 0.209750 0.203864
Si Si8 0.429150 0.745332 0.598148
O O1 0.834026 0.304689 0.678821
O O2 0.972464 0.246118 0.320491
O O3 0.046910 0.327851 0.305982
O O4 0.761664 0.629029 0.136672
O O5 0.258582 0.888958 0.362798
O O6 0.000000 0.000000 0.500000
O O7 0.048731 0.213502 0.991004
O O8 0.736802 0.583120 0.841409
O O9 0.703219 0.839403 0.653880
O O10 0.500000 0.000000 0.500000
O O11 0.495868 0.802327 0.023936
O O12 0.124955 0.638244 0.223698
O O13 0.000000 0.500000 0.500000
O O14 0.432622 0.377484 0.291409
O O15 0.281054 0.762639 0.832957
O O16 0.500000 0.500000 0.500000
O O17 0.476962 0.385712 0.477583
O O18 0.348602 0.984313 0.313338
#
# Coordination Sequence:
#
# PCOD8034574 Si02
#       8
#     2   2   2   2   2   2   2   2
#     4  11  25  47  73 106 143 190 243 292 363 432
#     4  12  26  49  74 106 141 194 243 299 364 432
#     4  12  25  44  71 107 144 189 238 291 363 428
#     4  12  26  48  72 108 148 188 241 301 359 436
#     4  11  26  46  73 107 149 190 244 302 356 428
#     4  12  27  48  75 103 143 191 245 303 362 435
#     4  11  24  45  71 105 145 186 240 292 362 428
#     4  11  25  47  72 108 149 189 246 297 366 428
#
# _framework density 23.202217999999998
#
# number of rings (size 3 to 8) (size 9 to 14) (size 15 to 20)
#    0.000    0.500    2.500    5.250    3.500    4.500 
#    2.250    0.000    0.000    0.000    0.000    0.000 
#    0.000    0.000    0.000    0.000    0.000    0.000 
#
# Total GULP energy -198348.622798 kJ/mol
# GULP energy per Si atom -12396.788925 kJ/mol
# Density = 2.314941 g / cm^3
# Si number density = 23.202218 Si / 1000 Ang^3
#
#
#
# Elastic Constant Matrix: (Units=GPa)
#
#
# Indices 1 2 3 4 5 6 
#
# 1 154.3954 33.2540 57.6793 -4.9141 9.7618 3.3064
# 2 33.2540 89.1573 35.8371 -7.5458 2.9978 20.5133
# 3 57.6793 35.8371 149.8403 8.0327 4.0520 13.5441
# 4 -4.9141 -7.5458 8.0327 41.6156 -0.4400 -6.2807
# 5 9.7618 2.9978 4.0520 -0.4400 36.0895 -0.0785
# 6 3.3064 20.5133 13.5441 -6.2807 -0.0785 32.8574
#
#
#
# Elastic Compliance Matrix: (Units=1/GPa)
#
#
# Indices 1 2 3 4 5 6 
#
# 1 0.008100 -0.002171 -0.002804 0.001382 -0.001675 0.001956
# 2 -0.002171 0.014823 -0.002075 0.001640 -0.000408 -0.007868
# 3 -0.002804 -0.002075 0.008626 -0.002751 -0.000076 -0.002504
# 4 0.001382 0.001640 -0.002751 0.025761 0.000124 0.004895
# 5 -0.001675 -0.000408 -0.000076 0.000124 0.028207 0.000546
# 6 0.001956 -0.007868 -0.002504 0.004895 0.000546 0.037119
#
#
# Mechanical properties :
#
#
# Convention : Reuss Voigt Hill
#
# Bulk Modulus (GPa) = 57.31549 71.88153 64.59851
# Shear Modulus (GPa) = 35.07500 39.88737 37.48119
#
# Velocity S-wave (km/s) = 3.89229 4.15072 4.02358
# Velocity P-wave (km/s) = 6.70493 7.34977 7.03474
#
# Compressibility (1/GPa) = 0.01744729
#
# Stress axis : x y z
#
# Youngs Moduli (GPa) = 123.45554 67.46439 115.93515
#
# Poissons Ratio (x) = 0.14645 0.32514
# Poissons Ratio (y) = 0.26799 0.24059
# Poissons Ratio (z) = 0.34623 0.14001
#
# Static dielectric constant tensor:
#      x y z
#    x 4.405500 -0.143180 0.066930 
#    y -0.143180 4.090820 -0.047910 
#    z 0.066930 -0.047910 4.125500 
# 
# 
# High freq. dielectric constant tensor:
#      x y z
#    x 1.936560 -0.012930 0.007320 
#    y -0.012930 1.913650 0.000790 
#    z 0.007320 0.000790 1.925700 
# 
# From -- ./inp_files/336639.got.cif
#   From: 2010.06.25/outbox.cif.g09.slc.cpg/sg2_169_cif.got.tgz:336639.got - 2010.06.27 13:26:56.
