data_PCOD8034382
_publ_section_title
;
Structure prediction by ZEFSAII (Michael W. Deem and Ramdas Pophale) SiO2 
 PCOD8034382
Probable space group: P -1
;
_chemical_formula_sum "Si O2"
_cell_formula_units_Z 14
_cell_length_a 9.824654
_cell_length_b 9.421885
_cell_length_c 11.177455
_cell_angle_alpha 75.019771
_cell_angle_beta 55.867232
_cell_angle_gamma 112.430526
_cell_volume 622.573757
_symmetry_space_group_name_H-M "P -1"
_symmetry_group_IT_number 2
_symmetry_cell_setting 'triclinic'
loop_
_space_group_symop_operation_xyz
x,y,z
-x,-y,-z
loop_
_atom_site_type_symbol
_atom_site_label
_atom_site_fract_x
_atom_site_fract_y
_atom_site_fract_z
Si Si1 0.163110 0.314932 0.663175
Si Si2 0.161420 0.795897 0.663595
Si Si3 0.518596 0.654463 0.037781
Si Si4 0.576427 0.019109 0.266553
Si Si5 0.833413 0.355891 0.887321
Si Si6 0.417560 0.301685 0.732644
Si Si7 0.962925 0.974279 0.663491
O O1 0.215757 0.264671 0.774051
O O2 0.361897 0.539405 0.484735
O O3 0.939655 0.275339 0.791694
O O4 0.135816 0.181040 0.599507
O O5 0.317937 0.883954 0.449956
O O6 0.031885 0.568061 0.797160
O O7 0.986817 0.821274 0.727966
O O8 0.301447 0.915663 0.683198
O O9 0.299469 0.625087 0.147940
O O10 0.562442 0.628122 0.157556
O O11 0.500000 0.500000 0.000000
O O12 0.716543 0.872340 0.843760
O O13 0.623471 0.896551 0.199041
O O14 0.664707 0.208502 0.105801
O O15 0.000000 0.000000 0.500000
#
# Coordination Sequence:
#
# PCOD8034382 Si02
#       7
#     2   2   2   2   2   2   2
#     4  11  26  46  75 105 138 195 238 291 364 415
#     4  11  24  45  71 107 144 186 236 294 359 414
#     4  12  27  45  69 105 143 186 239 293 358 425
#     4  11  24  44  73 107 142 184 242 295 348 433
#     4  12  26  45  73 106 140 191 235 295 357 424
#     4  11  25  47  72 105 147 182 244 296 349 437
#     4  12  25  45  72 102 144 188 237 296 359 421
#
# _framework density 22.487296000000001
#
# number of rings (size 3 to 8) (size 9 to 14) (size 15 to 20)
#    0.000    0.571    4.286    3.000    2.000    6.286 
#    0.000    0.000    0.000    0.000    0.000    0.000 
#    0.000    0.000    0.000    0.000    0.000    0.000 
#
# Total GULP energy -173680.622318 kJ/mol
# GULP energy per Si atom -12405.758737 kJ/mol
# Density = 2.243611 g / cm^3
# Si number density = 22.487296 Si / 1000 Ang^3
#
#
#
# Elastic Constant Matrix: (Units=GPa)
#
#
# Indices 1 2 3 4 5 6 
#
# 1 122.6005 50.3528 33.9987 19.9728 -6.6722 4.0103
# 2 50.3528 126.2499 34.1314 2.4155 8.2147 4.2274
# 3 33.9987 34.1314 107.7159 -7.4335 -1.2787 0.0736
# 4 19.9728 2.4155 -7.4335 41.9582 2.7493 4.8888
# 5 -6.6722 8.2147 -1.2787 2.7493 33.3518 5.1841
# 6 4.0103 4.2274 0.0736 4.8888 5.1841 36.2296
#
#
#
# Elastic Compliance Matrix: (Units=1/GPa)
#
#
# Indices 1 2 3 4 5 6 
#
# 1 0.011829 -0.004071 -0.002817 -0.006082 0.003849 -0.000559
# 2 -0.004071 0.010280 -0.001925 0.001281 -0.003460 -0.000423
# 3 -0.002817 -0.001925 0.011017 0.003395 0.000045 0.000049
# 4 -0.006082 0.001281 0.003395 0.027792 -0.003263 -0.002766
# 5 0.003849 -0.003460 0.000045 -0.003263 0.032535 -0.004238
# 6 -0.000559 -0.000423 0.000049 -0.002766 -0.004238 0.028692
#
#
# Mechanical properties :
#
#
# Convention : Reuss Voigt Hill
#
# Bulk Modulus (GPa) = 64.51777 65.94800 65.23288
# Shear Modulus (GPa) = 34.49740 38.18017 36.33879
#
# Velocity S-wave (km/s) = 3.92099 4.12497 4.02427
# Velocity P-wave (km/s) = 7.01797 7.21649 7.11792
#
# Compressibility (1/GPa) = 0.01549961
#
# Stress axis : x y z
#
# Youngs Moduli (GPa) = 84.54088 97.27895 90.76509
#
# Poissons Ratio (x) = 0.39607 0.25569
# Poissons Ratio (y) = 0.34420 0.17468
# Poissons Ratio (z) = 0.23816 0.18722
#
# Static dielectric constant tensor:
#      x y z
#    x 4.148830 -0.051920 -0.182830 
#    y -0.051920 3.966740 -0.104850 
#    z -0.182830 -0.104850 4.102180 
# 
# 
# High freq. dielectric constant tensor:
#      x y z
#    x 1.887210 0.000130 -0.007070 
#    y 0.000130 1.890920 -0.009270 
#    z -0.007070 -0.009270 1.893400 
# 
# From -- ./inp_files/240362.got.cif
#   From: 2010.06.25/outbox.cif.g09.slc.cpg/sg2_121_cif.got.tgz:240362.got - 2010.06.27 13:26:56.
