data_PCOD8034983
_publ_section_title
;
Structure prediction by ZEFSAII (Michael W. Deem and Ramdas Pophale) SiO2 
 PCOD8034983
Probable space group: P -1
;
_chemical_formula_sum "Si O2"
_cell_formula_units_Z 16
_cell_length_a 14.906442
_cell_length_b 8.726071
_cell_length_c 8.965944
_cell_angle_alpha 113.084398
_cell_angle_beta 137.437601
_cell_angle_gamma 72.193443
_cell_volume 725.402795
_symmetry_space_group_name_H-M "P -1"
_symmetry_group_IT_number 2
_symmetry_cell_setting 'triclinic'
loop_
_space_group_symop_operation_xyz
x,y,z
-x,-y,-z
loop_
_atom_site_type_symbol
_atom_site_label
_atom_site_fract_x
_atom_site_fract_y
_atom_site_fract_z
Si Si1 0.202603 0.514606 0.358717
Si Si2 0.356443 0.941615 0.345075
Si Si3 0.619562 0.878718 0.058263
Si Si4 0.075687 0.298148 0.874897
Si Si5 0.557819 0.335484 0.435662
Si Si6 0.025708 0.310081 0.499028
Si Si7 0.813954 0.047216 0.142431
Si Si8 0.759857 0.774614 0.481180
O O1 0.329727 0.626200 0.532774
O O2 0.240310 0.403983 0.506474
O O3 0.075020 0.634714 0.271318
O O4 0.176272 0.397413 0.139211
O O5 0.369183 0.775382 0.392562
O O6 0.500000 0.000000 0.500000
O O7 0.271410 0.079702 0.384812
O O8 0.284868 0.896578 0.087826
O O9 0.736519 0.987101 0.171868
O O10 0.659207 0.781367 0.221303
O O11 0.567946 0.751217 0.823614
O O12 0.500000 0.000000 0.000000
O O13 0.121124 0.314812 0.763698
O O14 0.087980 0.102051 0.854952
O O15 0.500000 0.500000 0.500000
O O16 0.093413 0.211526 0.405605
O O17 0.000000 0.500000 0.500000
O O18 0.895187 0.210207 0.346859
#
# Coordination Sequence:
#
# PCOD8034983 Si02
#       8
#     2   2   2   2   2   2   2   2
#     4  11  26  45  75 104 145 188 237 299 357 428
#     4  12  25  48  73 104 141 188 248 290 356 441
#     4  12  26  45  73 107 143 191 243 296 360 437
#     4  11  24  47  70 102 148 185 236 292 361 428
#     4  12  27  45  75 106 145 191 242 302 367 421
#     4  12  28  44  71 109 142 185 241 303 361 427
#     4  12  26  45  76  99 147 190 233 296 363 426
#     4  12  25  46  73 103 146 186 246 295 357 434
#
# _framework density 22.056712000000001
#
# number of rings (size 3 to 8) (size 9 to 14) (size 15 to 20)
#    0.000    0.250    6.250    1.875    5.250    1.000 
#    0.000    0.000    0.000    0.000    0.000    0.000 
#    0.000    0.000    0.000    0.000    0.000    0.000 
#
# Total GULP energy -198406.777605 kJ/mol
# GULP energy per Si atom -12400.423600 kJ/mol
# Density = 2.200651 g / cm^3
# Si number density = 22.056712 Si / 1000 Ang^3
#
#
#
# Elastic Constant Matrix: (Units=GPa)
#
#
# Indices 1 2 3 4 5 6 
#
# 1 128.5276 45.8377 28.4469 3.9032 5.9074 6.8709
# 2 45.8377 138.2532 52.6831 -9.3180 11.7298 11.4382
# 3 28.4469 52.6831 103.1100 -12.3030 -9.3434 17.9307
# 4 3.9032 -9.3180 -12.3030 46.1096 5.4448 -8.2402
# 5 5.9074 11.7298 -9.3434 5.4448 36.2463 -1.2993
# 6 6.8709 11.4382 17.9307 -8.2402 -1.2993 48.6638
#
#
#
# Elastic Compliance Matrix: (Units=1/GPa)
#
#
# Indices 1 2 3 4 5 6 
#
# 1 0.009091 -0.002469 -0.001434 -0.001639 -0.000823 -0.000474
# 2 -0.002469 0.010378 -0.004811 0.001513 -0.004430 -0.000180
# 3 -0.001434 -0.004811 0.013779 0.001642 0.004976 -0.003333
# 4 -0.001639 0.001513 0.001642 0.023516 -0.003218 0.003167
# 5 -0.000823 -0.004430 0.004976 -0.003218 0.030909 -0.000396
# 6 -0.000474 -0.000180 -0.003333 0.003167 -0.000396 0.022412
#
#
# Mechanical properties :
#
#
# Convention : Reuss Voigt Hill
#
# Bulk Modulus (GPa) = 63.21353 69.31402 66.26377
# Shear Modulus (GPa) = 37.65465 42.39883 40.02674
#
# Velocity S-wave (km/s) = 4.13628 4.38912 4.26457
# Velocity P-wave (km/s) = 7.17868 7.56171 7.37268
#
# Compressibility (1/GPa) = 0.01581940
#
# Stress axis : x y z
#
# Youngs Moduli (GPa) = 109.99405 96.36122 72.57676
#
# Poissons Ratio (x) = 0.23792 0.10410
# Poissons Ratio (y) = 0.27158 0.34914
# Poissons Ratio (z) = 0.15777 0.46356
#
# Static dielectric constant tensor:
#      x y z
#    x 4.264230 -0.034590 -0.191710 
#    y -0.034590 4.185120 -0.281090 
#    z -0.191710 -0.281090 3.853280 
# 
# 
# High freq. dielectric constant tensor:
#      x y z
#    x 1.882120 -0.008080 -0.008500 
#    y -0.008080 1.883000 -0.018440 
#    z -0.008500 -0.018440 1.865550 
# 
# From -- ./inp_files/299298.got.cif
#   From: 2010.06.25/outbox.cif.g09.slc.cpg/sg2_150_cif.got.tgz:299298.got - 2010.06.27 13:26:56.
