data_PCOD8034691
_publ_section_title
;
Structure prediction by ZEFSAII (Michael W. Deem and Ramdas Pophale) SiO2 
 PCOD8034691
Probable space group: P -1
;
_chemical_formula_sum "Si O2"
_cell_formula_units_Z 14
_cell_length_a 11.384750
_cell_length_b 12.019127
_cell_length_c 5.097871
_cell_angle_alpha 85.823463
_cell_angle_beta 97.623005
_cell_angle_gamma 125.660928
_cell_volume 561.741651
_symmetry_space_group_name_H-M "P -1"
_symmetry_group_IT_number 2
_symmetry_cell_setting 'triclinic'
loop_
_space_group_symop_operation_xyz
x,y,z
-x,-y,-z
loop_
_atom_site_type_symbol
_atom_site_label
_atom_site_fract_x
_atom_site_fract_y
_atom_site_fract_z
Si Si1 0.939621 0.679362 0.123273
Si Si2 0.787765 0.389307 0.938195
Si Si3 0.884097 0.026201 0.054446
Si Si4 0.630676 0.559760 0.227417
Si Si5 0.817422 0.256755 0.468047
Si Si6 0.472055 0.667307 0.382729
Si Si7 0.293606 0.039403 0.483958
O O1 0.788241 0.660080 0.127594
O O2 0.041346 0.810816 0.947411
O O3 0.021165 0.702999 0.422287
O O4 0.918199 0.549356 0.990953
O O5 0.784823 0.334191 0.658570
O O6 0.632190 0.371470 0.899076
O O7 0.802092 0.300642 0.170084
O O8 0.753277 0.950052 0.821631
O O9 0.818246 0.969437 0.332395
O O10 0.000000 0.000000 0.000000
O O11 0.605576 0.653034 0.391423
O O12 0.629678 0.441127 0.400872
O O13 0.500000 0.500000 0.000000
O O14 0.701729 0.092276 0.469996
O O15 0.543353 0.824671 0.453559
#
# Coordination Sequence:
#
# PCOD8034691 Si02
#       7
#     2   2   2   2   2   2   2
#     4  11  24  45  75 102 142 182 238 296 356 414
#     4  12  25  45  72 103 140 187 239 293 346 410
#     4  11  25  43  71 105 141 187 233 289 353 420
#     4  11  24  47  69 107 141 180 232 290 359 423
#     4  11  26  46  69 104 140 187 240 292 346 409
#     4  11  27  43  74 103 144 188 234 288 356 427
#     4  11  26  46  68 102 145 186 237 285 349 423
#
# _framework density 24.92249
#
# number of rings (size 3 to 8) (size 9 to 14) (size 15 to 20)
#    0.000    0.857    1.429    4.714    4.000    8.000 
#    0.000    0.000    0.000    0.000    0.000    0.000 
#    0.000    0.000    0.000    0.000    0.000    0.000 
#
# Total GULP energy -173615.488900 kJ/mol
# GULP energy per Si atom -12401.106350 kJ/mol
# Density = 2.486576 g / cm^3
# Si number density = 24.922490 Si / 1000 Ang^3
#
#
#
# Elastic Constant Matrix: (Units=GPa)
#
#
# Indices 1 2 3 4 5 6 
#
# 1 55.2387 0.1216 13.7638 -6.1415 14.4430 -2.6756
# 2 0.1216 151.9571 39.9850 20.0431 22.6060 -3.4045
# 3 13.7638 39.9850 85.0066 10.0135 18.1605 0.4997
# 4 -6.1415 20.0431 10.0135 25.7085 -3.7965 1.5426
# 5 14.4430 22.6060 18.1605 -3.7965 46.6675 2.7735
# 6 -2.6756 -3.4045 0.4997 1.5426 2.7735 39.4684
#
#
#
# Elastic Compliance Matrix: (Units=1/GPa)
#
#
# Indices 1 2 3 4 5 6 
#
# 1 0.020937 0.001107 -0.003281 0.004501 -0.005478 0.001765
# 2 0.001107 0.008751 -0.002693 -0.006201 -0.004121 0.001396
# 3 -0.003281 -0.002693 0.015001 -0.005096 -0.003922 -0.000170
# 4 0.004501 -0.006201 -0.005096 0.048079 0.007659 -0.002583
# 5 -0.005478 -0.004121 -0.003922 0.007659 0.027442 -0.002905
# 6 0.001765 0.001396 -0.000170 -0.002583 -0.002905 0.025884
#
#
# Mechanical properties :
#
#
# Convention : Reuss Voigt Hill
#
# Bulk Modulus (GPa) = 28.60790 44.43815 36.52302
# Shear Modulus (GPa) = 29.85466 38.25766 34.05616
#
# Velocity S-wave (km/s) = 3.46482 3.92224 3.70061
# Velocity P-wave (km/s) = 5.24503 6.19526 5.73984
#
# Compressibility (1/GPa) = 0.03495538
#
# Stress axis : x y z
#
# Youngs Moduli (GPa) = 47.76311 114.27526 66.66255
#
# Poissons Ratio (x) = -0.12655 0.21873
# Poissons Ratio (y) = -0.05289 0.17950
# Poissons Ratio (z) = 0.15672 0.30771
#
# Static dielectric constant tensor:
#      x y z
#    x 4.812930 -0.305400 0.145090 
#    y -0.305400 4.646170 0.124900 
#    z 0.145090 0.124900 4.410440 
# 
# 
# High freq. dielectric constant tensor:
#      x y z
#    x 1.996480 -0.014410 0.006670 
#    y -0.014410 2.001470 0.008950 
#    z 0.006670 0.008950 1.994060 
# 
# From -- ./inp_files/70071.got.cif
#   From: 2010.06.25/outbox.cif.g09.slc.cpg/sg2_36_cif.got.tgz:70071.got - 2010.06.27 13:26:56.
