data_PCOD8034271
_publ_section_title
;
Structure prediction by ZEFSAII (Michael W. Deem and Ramdas Pophale) SiO2 
 PCOD8034271
Probable space group: P -1
;
_chemical_formula_sum "Si O2"
_cell_formula_units_Z 16
_cell_length_a 8.394537
_cell_length_b 11.405687
_cell_length_c 14.813886
_cell_angle_alpha 109.263748
_cell_angle_beta 31.477794
_cell_angle_gamma 99.236865
_cell_volume 677.818116
_symmetry_space_group_name_H-M "P -1"
_symmetry_group_IT_number 2
_symmetry_cell_setting 'triclinic'
loop_
_space_group_symop_operation_xyz
x,y,z
-x,-y,-z
loop_
_atom_site_type_symbol
_atom_site_label
_atom_site_fract_x
_atom_site_fract_y
_atom_site_fract_z
Si Si1 0.817253 0.389654 0.313368
Si Si2 0.765479 0.114195 0.321537
Si Si3 0.621895 0.776284 0.301513
Si Si4 0.019030 0.529900 0.101371
Si Si5 0.470292 0.334309 0.049482
Si Si6 0.601818 0.922437 0.676189
Si Si7 0.296836 0.803928 0.282375
Si Si8 0.764527 0.127047 0.991487
O O1 0.500000 0.500000 0.500000
O O2 0.765014 0.249223 0.310938
O O3 0.963253 0.407547 0.149772
O O4 0.094598 0.401335 0.252842
O O5 0.618550 0.120628 0.494403
O O6 0.571546 0.047019 0.328587
O O7 0.117424 0.021699 0.135643
O O8 0.457126 0.741382 0.281937
O O9 0.728328 0.654995 0.287434
O O10 0.930500 0.817928 0.132848
O O11 0.347519 0.560604 0.980125
O O12 0.000000 0.500000 0.000000
O O13 0.575992 0.288788 0.885616
O O14 0.528491 0.210130 0.054243
O O15 0.925831 0.817483 0.476210
O O16 0.647146 0.055864 0.726968
O O17 0.399925 0.863156 0.829482
#
# Coordination Sequence:
#
# PCOD8034271 Si02
#       8
#     2   2   2   2   2   2   2   2
#     4  12  27  47  73 104 144 194 244 292 356 422
#     4  12  25  45  72 102 155 189 239 297 358 430
#     4  11  24  44  70 103 143 193 239 297 360 426
#     4  11  25  49  75 102 138 195 248 295 356 430
#     4  11  27  48  75 106 145 190 235 307 360 430
#     4  11  25  41  68 109 148 187 235 296 357 442
#     4  11  25  43  69 107 148 187 235 293 374 424
#     4  11  25  42  74 106 142 187 238 296 369 419
#
# _framework density 23.605155
#
# number of rings (size 3 to 8) (size 9 to 14) (size 15 to 20)
#    0.000    0.750    2.500    4.125   10.500    1.000 
#    0.000    0.625    0.000    0.000    0.000    0.000 
#    0.000    0.000    0.000    0.000    0.000    0.000 
#
# Total GULP energy -198384.142742 kJ/mol
# GULP energy per Si atom -12399.008921 kJ/mol
# Density = 2.355143 g / cm^3
# Si number density = 23.605155 Si / 1000 Ang^3
#
#
#
# Elastic Constant Matrix: (Units=GPa)
#
#
# Indices 1 2 3 4 5 6 
#
# 1 151.3491 30.4374 67.3649 -2.9104 0.3701 -7.5737
# 2 30.4374 96.0077 37.0057 -5.1209 -3.1374 -11.0849
# 3 67.3649 37.0057 125.3408 -5.5688 -9.1426 -3.9017
# 4 -2.9104 -5.1209 -5.5688 32.7824 -12.4446 4.0895
# 5 0.3701 -3.1374 -9.1426 -12.4446 47.7613 10.0653
# 6 -7.5737 -11.0849 -3.9017 4.0895 10.0653 42.8704
#
#
#
# Elastic Compliance Matrix: (Units=1/GPa)
#
#
# Indices 1 2 3 4 5 6 
#
# 1 0.008911 -0.000992 -0.004606 -0.000896 -0.001532 0.001344
# 2 -0.000992 0.012224 -0.002955 0.000968 -0.000059 0.002638
# 3 -0.004606 -0.002955 0.011607 0.002423 0.003002 -0.001457
# 4 -0.000896 0.000968 0.002423 0.035913 0.011097 -0.005719
# 5 -0.001532 -0.000059 0.003002 0.011097 0.025920 -0.007157
# 6 0.001344 0.002638 -0.001457 -0.005719 -0.007157 0.026339
#
#
# Mechanical properties :
#
#
# Convention : Reuss Voigt Hill
#
# Bulk Modulus (GPa) = 63.95623 71.36817 67.66220
# Shear Modulus (GPa) = 34.90870 40.54214 37.72542
#
# Velocity S-wave (km/s) = 3.84977 4.14878 4.00207
# Velocity P-wave (km/s) = 6.84937 7.29724 7.07685
#
# Compressibility (1/GPa) = 0.01563569
#
# Stress axis : x y z
#
# Youngs Moduli (GPa) = 112.22591 81.80902 86.15326
#
# Poissons Ratio (x) = 0.08119 0.39680
# Poissons Ratio (y) = 0.11137 0.25456
# Poissons Ratio (z) = 0.51689 0.24172
#
# Static dielectric constant tensor:
#      x y z
#    x 4.378480 -0.474960 -0.411650 
#    y -0.474960 4.912740 0.403660 
#    z -0.411650 0.403660 4.518360 
# 
# 
# High freq. dielectric constant tensor:
#      x y z
#    x 1.940520 -0.019670 -0.011360 
#    y -0.019670 1.941810 0.000800 
#    z -0.011360 0.000800 1.937390 
# 
# From -- ./inp_files/500499.got.cif
#   From: 2010.06.25/outbox.cif.g09.slc.cpg/sg2_251_cif.got.tgz:500499.got - 2010.06.27 13:26:56.
