data_PCOD8034513
_publ_section_title
;
Structure prediction by ZEFSAII (Michael W. Deem and Ramdas Pophale) SiO2 
 PCOD8034513
Probable space group: P -1
;
_chemical_formula_sum "Si O2"
_cell_formula_units_Z 14
_cell_length_a 20.505665
_cell_length_b 13.528932
_cell_length_c 9.256391
_cell_angle_alpha 138.387693
_cell_angle_beta 32.028079
_cell_angle_gamma 153.325515
_cell_volume 610.833896
_symmetry_space_group_name_H-M "P -1"
_symmetry_group_IT_number 2
_symmetry_cell_setting 'triclinic'
loop_
_space_group_symop_operation_xyz
x,y,z
-x,-y,-z
loop_
_atom_site_type_symbol
_atom_site_label
_atom_site_fract_x
_atom_site_fract_y
_atom_site_fract_z
Si Si1 0.608735 0.905381 0.021143
Si Si2 0.262051 0.482188 0.771901
Si Si3 0.013497 0.834205 0.802336
Si Si4 0.758023 0.554494 0.720795
Si Si5 0.787354 0.791770 0.685556
Si Si6 0.199541 0.633220 0.809974
Si Si7 0.396697 0.069023 0.261725
O O1 0.708952 0.886345 0.921700
O O2 0.683722 0.970224 0.788568
O O3 0.401745 0.668010 0.135016
O O4 0.647395 0.105883 0.228084
O O5 0.283250 0.368137 0.492331
O O6 0.214669 0.596162 0.907326
O O7 0.458419 0.674347 0.688517
O O8 0.104441 0.317505 0.004324
O O9 0.929860 0.699178 0.661366
O O10 0.214547 0.937697 0.557502
O O11 0.000000 0.000000 0.000000
O O12 0.728409 0.690822 0.850767
O O13 0.773455 0.485465 0.466007
O O14 0.000000 0.000000 0.500000
O O15 0.000000 0.500000 0.000000
O O16 0.500000 0.000000 0.000000
#
# Coordination Sequence:
#
# PCOD8034513 Si02
#       7
#     2   2   2   2   2   2   2
#     4  12  23  44  72 101 143 185 239 299 356 429
#     4  11  25  47  72 102 144 187 237 297 359 426
#     4  12  27  47  77 107 142 193 245 295 361 430
#     4  11  25  44  69 105 137 186 242 295 360 423
#     4  11  24  46  69 101 142 186 240 298 354 424
#     4  11  24  45  69  99 138 187 235 292 356 428
#     4  12  26  46  72 109 147 185 239 300 362 426
#
# _framework density 22.919488999999999
#
# number of rings (size 3 to 8) (size 9 to 14) (size 15 to 20)
#    0.000    0.571    2.857    6.000    2.000    2.857 
#   10.286    0.000    0.000    0.000    0.000    0.000 
#    0.000    0.000    0.000    0.000    0.000    0.000 
#
# Total GULP energy -173454.058799 kJ/mol
# GULP energy per Si atom -12389.575629 kJ/mol
# Density = 2.286732 g / cm^3
# Si number density = 22.919489 Si / 1000 Ang^3
#
#
#
# Elastic Constant Matrix: (Units=GPa)
#
#
# Indices 1 2 3 4 5 6 
#
# 1 103.3337 39.6202 32.9919 -0.5470 -4.4309 -17.1369
# 2 39.6202 140.5963 35.2823 -10.4396 -5.4067 -5.8660
# 3 32.9919 35.2823 80.9531 -17.2186 -9.0644 -6.7681
# 4 -0.5470 -10.4396 -17.2186 39.0821 -1.3516 -0.3257
# 5 -4.4309 -5.4067 -9.0644 -1.3516 42.0202 -1.6812
# 6 -17.1369 -5.8660 -6.7681 -0.3257 -1.6812 47.6646
#
#
#
# Elastic Compliance Matrix: (Units=1/GPa)
#
#
# Indices 1 2 3 4 5 6 
#
# 1 0.012572 -0.002502 -0.004204 -0.002309 0.000167 0.003605
# 2 -0.002502 0.008518 -0.002417 0.001186 0.000342 -0.000174
# 3 -0.004204 -0.002417 0.017006 0.006904 0.003167 0.000765
# 4 -0.002309 0.001186 0.006904 0.029000 0.002354 0.000577
# 5 0.000167 0.000342 0.003167 0.002354 0.024676 0.001438
# 6 0.003605 -0.000174 0.000765 0.000577 0.001438 0.022418
#
#
# Mechanical properties :
#
#
# Convention : Reuss Voigt Hill
#
# Bulk Modulus (GPa) = 50.37686 60.07467 55.22576
# Shear Modulus (GPa) = 35.95749 40.21930 38.08839
#
# Velocity S-wave (km/s) = 3.96518 4.19359 4.08098
# Velocity P-wave (km/s) = 6.55677 7.05098 6.80836
#
# Compressibility (1/GPa) = 0.01985038
#
# Stress axis : x y z
#
# Youngs Moduli (GPa) = 79.54251 117.39640 58.80119
#
# Poissons Ratio (x) = 0.29377 0.24720
# Poissons Ratio (y) = 0.19905 0.14210
# Poissons Ratio (z) = 0.33439 0.28371
#
# Static dielectric constant tensor:
#      x y z
#    x 4.260130 -0.106410 0.115570 
#    y -0.106410 4.482540 0.233540 
#    z 0.115570 0.233540 3.417670 
# 
# 
# High freq. dielectric constant tensor:
#      x y z
#    x 1.918610 0.001540 0.004280 
#    y 0.001540 1.930470 0.001930 
#    z 0.004280 0.001930 1.886790 
# 
# From -- ./inp_files/308491.got.cif
#   From: 2010.06.25/outbox.cif.g09.slc.cpg/sg2_155_cif.got.tgz:308491.got - 2010.06.27 13:26:56.
