data_PCOD8034954
_publ_section_title
;
Structure prediction by ZEFSAII (Michael W. Deem and Ramdas Pophale) SiO2 
 PCOD8034954
Probable space group: P -1
;
_chemical_formula_sum "Si O2"
_cell_formula_units_Z 12
_cell_length_a 19.800272
_cell_length_b 11.763822
_cell_length_c 17.587626
_cell_angle_alpha 32.294210
_cell_angle_beta 21.183236
_cell_angle_gamma 22.071807
_cell_volume 550.913487
_symmetry_space_group_name_H-M "P -1"
_symmetry_group_IT_number 2
_symmetry_cell_setting 'triclinic'
loop_
_space_group_symop_operation_xyz
x,y,z
-x,-y,-z
loop_
_atom_site_type_symbol
_atom_site_label
_atom_site_fract_x
_atom_site_fract_y
_atom_site_fract_z
Si Si1 0.449386 0.278025 0.866066
Si Si2 0.337691 0.837497 0.453537
Si Si3 0.433709 0.402293 0.339949
Si Si4 0.830606 0.768995 0.211943
Si Si5 0.738282 0.281647 0.813894
Si Si6 0.727403 0.841084 0.108629
O O1 0.645206 0.155431 0.659135
O O2 0.507636 0.415847 0.788038
O O3 0.146643 0.545815 0.003628
O O4 0.500000 0.000000 0.000000
O O5 0.500000 0.500000 0.500000
O O6 0.461255 0.933076 0.314641
O O7 0.024602 0.093675 0.659917
O O8 0.232676 0.424133 0.589466
O O9 0.295209 0.548083 0.321458
O O10 0.705085 0.041706 0.248628
O O11 0.706917 0.919982 0.173939
O O12 0.500000 0.500000 0.000000
O O13 0.735841 0.035537 0.933623
O O14 0.000000 0.500000 0.000000
#
# Coordination Sequence:
#
# PCOD8034954 Si02
#       6
#     2   2   2   2   2   2
#     4  12  25  43  71 102 136 179 233 283 342 409
#     4  12  25  42  72 103 132 180 230 277 344 403
#     4  11  26  44  68  99 141 184 228 282 346 410
#     4  11  24  47  67 100 141 185 225 282 347 408
#     4  12  26  47  67 104 139 177 231 285 344 406
#     4  12  23  45  74  99 139 180 229 284 340 408
#
# _framework density 21.782003
#
# number of rings (size 3 to 8) (size 9 to 14) (size 15 to 20)
#    0.000    0.333    5.000    3.500    0.000    2.000 
#    6.000    0.000    0.000    0.000    0.000    0.000 
#    0.000    0.000    0.000    0.000    0.000    0.000 
#
# Total GULP energy -148815.784475 kJ/mol
# GULP energy per Si atom -12401.315373 kJ/mol
# Density = 2.173243 g / cm^3
# Si number density = 21.782003 Si / 1000 Ang^3
#
#
#
# Elastic Constant Matrix: (Units=GPa)
#
#
# Indices 1 2 3 4 5 6 
#
# 1 100.8629 28.6805 37.0147 2.4199 -11.2505 1.1782
# 2 28.6805 111.4923 48.7140 -6.4725 -10.5067 -0.0566
# 3 37.0147 48.7140 126.4544 8.2301 -15.6102 -4.5303
# 4 2.4199 -6.4725 8.2301 54.1838 -6.2868 -0.6927
# 5 -11.2505 -10.5067 -15.6102 -6.2868 51.6176 -5.1595
# 6 1.1782 -0.0566 -4.5303 -0.6927 -5.1595 39.4345
#
#
#
# Elastic Compliance Matrix: (Units=1/GPa)
#
#
# Indices 1 2 3 4 5 6 
#
# 1 0.011496 -0.001735 -0.002539 -0.000189 0.001315 -0.000469
# 2 -0.001735 0.011328 -0.003880 0.002133 0.000993 -0.000210
# 3 -0.002539 -0.003880 0.010531 -0.001724 0.001780 0.001483
# 4 -0.000189 0.002133 -0.001724 0.019249 0.002260 0.000444
# 5 0.001315 0.000993 0.001780 0.002260 0.020970 0.002950
# 6 -0.000469 -0.000210 0.001483 0.000444 0.002950 0.025936
#
#
# Mechanical properties :
#
#
# Convention : Reuss Voigt Hill
#
# Bulk Modulus (GPa) = 58.65996 63.06977 60.86487
# Shear Modulus (GPa) = 41.15209 44.00721 42.57965
#
# Velocity S-wave (km/s) = 4.35129 4.49970 4.42612
# Velocity P-wave (km/s) = 7.22730 7.48427 7.35691
#
# Compressibility (1/GPa) = 0.01704740
#
# Stress axis : x y z
#
# Youngs Moduli (GPa) = 86.98496 88.27651 94.96003
#
# Poissons Ratio (x) = 0.15319 0.24108
# Poissons Ratio (y) = 0.15095 0.36842
# Poissons Ratio (z) = 0.22084 0.34249
#
# Static dielectric constant tensor:
#      x y z
#    x 3.959580 -0.005560 0.081930 
#    y -0.005560 3.958490 -0.100370 
#    z 0.081930 -0.100370 4.173330 
# 
# 
# High freq. dielectric constant tensor:
#      x y z
#    x 1.849880 -0.004610 0.002300 
#    y -0.004610 1.873120 -0.006200 
#    z 0.002300 -0.006200 1.872110 
# 
# From -- ./inp_files/35887.got.cif
#   From: 2010.06.25/outbox.cif.g09.slc.cpg/sg2_18_cif.got.tgz:35887.got - 2010.06.27 13:26:56.
