data_PCOD8034264
_publ_section_title
;
Structure prediction by ZEFSAII (Michael W. Deem and Ramdas Pophale) SiO2 
 PCOD8034264
Probable space group: P -1
;
_chemical_formula_sum "Si O2"
_cell_formula_units_Z 16
_cell_length_a 20.717066
_cell_length_b 8.735671
_cell_length_c 11.654600
_cell_angle_alpha 53.750048
_cell_angle_beta 139.380314
_cell_angle_gamma 148.138589
_cell_volume 716.058993
_symmetry_space_group_name_H-M "P -1"
_symmetry_group_IT_number 2
_symmetry_cell_setting 'triclinic'
loop_
_space_group_symop_operation_xyz
x,y,z
-x,-y,-z
loop_
_atom_site_type_symbol
_atom_site_label
_atom_site_fract_x
_atom_site_fract_y
_atom_site_fract_z
Si Si1 0.531300 0.773090 0.199435
Si Si2 0.667885 0.857358 0.755564
Si Si3 0.942251 0.125098 0.885242
Si Si4 0.617141 0.170764 0.475024
Si Si5 0.934868 0.710608 0.590392
Si Si6 0.127401 0.698639 0.488007
Si Si7 0.563417 0.005342 0.907361
Si Si8 0.169087 0.757380 0.973689
O O1 0.484946 0.484851 0.274922
O O2 0.710321 0.044821 0.345288
O O3 0.432228 0.766155 0.151944
O O4 0.492584 0.778612 0.014921
O O5 0.640389 0.978513 0.567278
O O6 0.787575 0.881059 0.857745
O O7 0.725633 0.056373 0.856618
O O8 0.052458 0.412544 0.988318
O O9 0.912985 0.180660 0.699028
O O10 0.000000 0.000000 0.000000
O O11 0.787888 0.516809 0.565919
O O12 0.542091 0.171434 0.268129
O O13 0.500000 0.000000 0.500000
O O14 0.869925 0.492028 0.494879
O O15 0.076875 0.814750 0.797306
O O16 0.000000 0.000000 0.500000
O O17 0.000000 0.500000 0.500000
O O18 0.730259 0.164055 0.034010
#
# Coordination Sequence:
#
# PCOD8034264 Si02
#       8
#     2   2   2   2   2   2   2   2
#     4  11  25  43  72 102 148 190 240 297 370 433
#     4  12  25  43  69 105 143 189 233 304 369 430
#     4  11  24  44  70 101 141 186 243 294 368 423
#     4  12  25  47  72 108 146 190 244 303 367 434
#     4  11  26  47  74 100 145 192 241 301 364 430
#     4  11  24  48  69 101 141 187 246 296 357 441
#     4  11  24  45  70 102 143 188 246 295 358 441
#     4  11  24  44  70 101 142 183 242 297 356 434
#
# _framework density 22.344528
#
# number of rings (size 3 to 8) (size 9 to 14) (size 15 to 20)
#    0.000    0.750    5.000    2.625    1.750    7.500 
#    0.000    0.000    0.000    0.000    0.000    0.000 
#    0.000    0.000    0.000    0.000    0.000    0.000 
#
# Total GULP energy -198358.801543 kJ/mol
# GULP energy per Si atom -12397.425096 kJ/mol
# Density = 2.229367 g / cm^3
# Si number density = 22.344528 Si / 1000 Ang^3
#
#
#
# Elastic Constant Matrix: (Units=GPa)
#
#
# Indices 1 2 3 4 5 6 
#
# 1 106.1870 38.3284 44.0309 2.7925 12.2699 23.4052
# 2 38.3284 150.1843 60.6993 -12.6520 9.8095 4.7154
# 3 44.0309 60.6993 118.3239 -1.2128 6.9836 -3.4054
# 4 2.7925 -12.6520 -1.2128 35.2887 -2.2623 8.4757
# 5 12.2699 9.8095 6.9836 -2.2623 40.5470 2.4854
# 6 23.4052 4.7154 -3.4054 8.4757 2.4854 37.7364
#
#
#
# Elastic Compliance Matrix: (Units=1/GPa)
#
#
# Indices 1 2 3 4 5 6 
#
# 1 0.014058 -0.001215 -0.004708 0.000257 -0.002591 -0.008879
# 2 -0.001215 0.009037 -0.004142 0.003497 -0.000819 -0.001481
# 3 -0.004708 -0.004142 0.012460 -0.001893 -0.000131 0.004996
# 4 0.000257 0.003497 -0.001893 0.031523 0.001649 -0.007956
# 5 -0.002591 -0.000819 -0.000131 0.001649 0.025782 -0.000371
# 6 -0.008879 -0.001481 0.004996 -0.007956 -0.000371 0.034454
#
#
# Mechanical properties :
#
#
# Convention : Reuss Voigt Hill
#
# Bulk Modulus (GPa) = 64.83097 73.42358 69.12727
# Shear Modulus (GPa) = 32.76830 38.15687 35.46259
#
# Velocity S-wave (km/s) = 3.83365 4.13687 3.98814
# Velocity P-wave (km/s) = 6.97661 7.46655 7.22573
#
# Compressibility (1/GPa) = 0.01542473
#
# Stress axis : x y z
#
# Youngs Moduli (GPa) = 71.13501 110.65073 80.25474
#
# Poissons Ratio (x) = 0.13448 0.37782
# Poissons Ratio (y) = 0.08646 0.33244
# Poissons Ratio (z) = 0.33489 0.45835
#
# Static dielectric constant tensor:
#      x y z
#    x 4.230090 0.317090 0.176740 
#    y 0.317090 4.020340 0.032220 
#    z 0.176740 0.032220 4.220550 
# 
# 
# High freq. dielectric constant tensor:
#      x y z
#    x 1.887010 0.018640 0.009730 
#    y 0.018640 1.873640 0.001440 
#    z 0.009730 0.001440 1.891400 
# 
# From -- ./inp_files/469859.got.cif
#   From: 2010.06.25/outbox.cif.g09.slc.cpg/sg2_235_cif.got.tgz:469859.got - 2010.06.27 13:26:56.
