data_PCOD8034302
_publ_section_title
;
Structure prediction by ZEFSAII (Michael W. Deem and Ramdas Pophale) SiO2 
 PCOD8034302
Probable space group: P -1
;
_chemical_formula_sum "Si O2"
_cell_formula_units_Z 16
_cell_length_a 12.787164
_cell_length_b 13.035272
_cell_length_c 9.338520
_cell_angle_alpha 50.935085
_cell_angle_beta 91.313537
_cell_angle_gamma 130.055429
_cell_volume 707.837256
_symmetry_space_group_name_H-M "P -1"
_symmetry_group_IT_number 2
_symmetry_cell_setting 'triclinic'
loop_
_space_group_symop_operation_xyz
x,y,z
-x,-y,-z
loop_
_atom_site_type_symbol
_atom_site_label
_atom_site_fract_x
_atom_site_fract_y
_atom_site_fract_z
Si Si1 0.044071 0.936373 0.169452
Si Si2 0.700473 0.447462 0.538807
Si Si3 0.290026 0.051794 0.853263
Si Si4 0.119467 0.673110 0.727881
Si Si5 0.708176 0.426652 0.236058
Si Si6 0.864254 0.381280 0.727542
Si Si7 0.829717 0.810421 0.760429
Si Si8 0.688234 0.886922 0.515426
O O1 0.145626 0.094907 0.170218
O O2 0.181024 0.980615 0.052712
O O3 0.850604 0.678403 0.433101
O O4 0.000000 0.000000 0.000000
O O5 0.499489 0.297370 0.674904
O O6 0.780175 0.530696 0.306268
O O7 0.700697 0.303251 0.735603
O O8 0.233849 0.060276 0.690454
O O9 0.240646 0.849086 0.006349
O O10 0.257392 0.692896 0.687816
O O11 0.991154 0.577574 0.676776
O O12 0.203437 0.898560 0.574361
O O13 0.000000 0.500000 0.000000
O O14 0.499316 0.235608 0.403563
O O15 0.789554 0.613350 0.957786
O O16 0.000000 0.500000 0.500000
O O17 0.676721 0.735556 0.733986
O O18 0.000000 0.000000 0.500000
#
# Coordination Sequence:
#
# PCOD8034302 Si02
#       8
#     2   2   2   2   2   2   2   2
#     4  12  24  45  71  98 137 181 230 279 337 408
#     4  11  24  44  71 103 132 182 227 285 344 402
#     4  11  25  46  70 101 141 176 228 285 343 408
#     4  12  23  42  70  99 134 183 227 276 351 402
#     4  11  24  46  67  99 143 176 228 287 339 408
#     4  12  22  42  72  95 138 178 226 280 343 408
#     4  12  26  46  71 100 136 184 227 276 348 411
#     4  11  25  45  69 101 137 181 227 285 342 407
#
# _framework density 22.604064999999999
#
# number of rings (size 3 to 8) (size 9 to 14) (size 15 to 20)
#    0.000    0.500    5.000    3.375    0.000    0.500 
#    6.750    0.000    0.000    0.000    0.000    0.000 
#    0.000    0.000    0.000    0.000    0.000    0.000 
#
# Total GULP energy -198262.777972 kJ/mol
# GULP energy per Si atom -12391.423623 kJ/mol
# Density = 2.255262 g / cm^3
# Si number density = 22.604065 Si / 1000 Ang^3
#
#
#
# Elastic Constant Matrix: (Units=GPa)
#
#
# Indices 1 2 3 4 5 6 
#
# 1 77.4108 20.8772 6.7321 3.9147 10.4914 13.3046
# 2 20.8772 98.0392 23.0560 17.7494 -2.4014 7.7375
# 3 6.7321 23.0560 90.2456 6.2282 8.8881 3.5389
# 4 3.9147 17.7494 6.2282 34.1984 8.6236 6.0555
# 5 10.4914 -2.4014 8.8881 8.6236 39.5981 9.0485
# 6 13.3046 7.7375 3.5389 6.0555 9.0485 32.1705
#
#
#
# Elastic Compliance Matrix: (Units=1/GPa)
#
#
# Indices 1 2 3 4 5 6 
#
# 1 0.014984 -0.003227 0.000121 0.001656 -0.003463 -0.004771
# 2 -0.003227 0.012990 -0.002968 -0.006615 0.004060 -0.001360
# 3 0.000121 -0.002968 0.012114 0.000043 -0.002977 0.000161
# 4 0.001656 -0.006615 0.000043 0.035038 -0.007672 -0.003536
# 5 -0.003463 0.004060 -0.002977 -0.007672 0.030188 -0.006264
# 6 -0.004771 -0.001360 0.000161 -0.003536 -0.006264 0.035794
#
#
# Mechanical properties :
#
#
# Convention : Reuss Voigt Hill
#
# Bulk Modulus (GPa) = 35.79298 40.78068 38.28683
# Shear Modulus (GPa) = 30.75625 35.52874 33.14250
#
# Velocity S-wave (km/s) = 3.69270 3.96888 3.83328
# Velocity P-wave (km/s) = 5.83528 6.25165 6.04705
#
# Compressibility (1/GPa) = 0.02793844
#
# Stress axis : x y z
#
# Youngs Moduli (GPa) = 66.73964 76.98508 82.54867
#
# Poissons Ratio (x) = 0.24844 -0.00996
# Poissons Ratio (y) = 0.21538 0.24499
# Poissons Ratio (z) = -0.00805 0.22848
#
# Static dielectric constant tensor:
#      x y z
#    x 3.993130 0.691470 0.513860 
#    y 0.691470 3.246940 -0.383980 
#    z 0.513860 -0.383980 3.670150 
# 
# 
# High freq. dielectric constant tensor:
#      x y z
#    x 1.893840 0.014190 0.009590 
#    y 0.014190 1.897420 0.009480 
#    z 0.009590 0.009480 1.899050 
# 
# From -- ./inp_files/314693.got.cif
#   From: 2010.06.25/outbox.cif.g09.slc.cpg/sg2_158_cif.got.tgz:314693.got - 2010.06.27 13:26:56.
