data_PCOD8034247
_publ_section_title
;
Structure prediction by ZEFSAII (Michael W. Deem and Ramdas Pophale) SiO2 
 PCOD8034247
Probable space group: P -1
;
_chemical_formula_sum "Si O2"
_cell_formula_units_Z 16
_cell_length_a 19.140552
_cell_length_b 8.195704
_cell_length_c 16.581617
_cell_angle_alpha 47.438826
_cell_angle_beta 157.445262
_cell_angle_gamma 134.887254
_cell_volume 703.967921
_symmetry_space_group_name_H-M "P -1"
_symmetry_group_IT_number 2
_symmetry_cell_setting 'triclinic'
loop_
_space_group_symop_operation_xyz
x,y,z
-x,-y,-z
loop_
_atom_site_type_symbol
_atom_site_label
_atom_site_fract_x
_atom_site_fract_y
_atom_site_fract_z
Si Si1 0.754200 0.215735 0.604507
Si Si2 0.363485 0.070377 0.662745
Si Si3 0.026815 0.248846 0.608376
Si Si4 0.596713 0.736638 0.068845
Si Si5 0.649597 0.751007 0.587567
Si Si6 0.490619 0.457465 0.789962
Si Si7 0.119824 0.193090 0.903337
Si Si8 0.958515 0.295101 0.959973
O O1 0.641128 0.376322 0.390165
O O2 0.834164 0.323224 0.740747
O O3 0.931505 0.223078 0.733681
O O4 0.610995 0.947657 0.541311
O O5 0.306835 0.115623 0.496147
O O6 0.434354 0.318881 0.694577
O O7 0.179859 0.928970 0.565029
O O8 0.527325 0.940045 0.884988
O O9 0.173819 0.214603 0.707905
O O10 0.118325 0.199770 0.804216
O O11 0.000000 0.500000 0.500000
O O12 0.531143 0.713463 0.099779
O O13 0.500000 0.500000 0.000000
O O14 0.500000 0.500000 0.500000
O O15 0.832255 0.711079 0.839642
O O16 0.704763 0.598823 0.951124
O O17 0.156701 0.948673 0.043417
O O18 0.000000 0.500000 0.000000
#
# Coordination Sequence:
#
# PCOD8034247 Si02
#       8
#     2   2   2   2   2   2   2   2
#     4  11  25  46  71 100 146 185 231 288 356 409
#     4  12  26  45  69 107 141 180 237 287 350 423
#     4  12  23  43  74  98 138 183 232 292 350 410
#     4  12  24  44  73  99 138 185 233 285 351 412
#     4  11  25  44  71 105 140 183 234 288 346 419
#     4  12  27  44  69 106 139 182 236 287 350 425
#     4  11  24  44  69  98 140 183 232 285 350 417
#     4  11  25  45  69 103 140 184 236 286 353 418
#
# _framework density 22.728307999999998
#
# number of rings (size 3 to 8) (size 9 to 14) (size 15 to 20)
#    0.000    0.500    5.000    4.125    5.250    2.000 
#    0.000    0.000    0.000    0.000    0.000    0.000 
#    0.000    0.000    0.000    0.000    0.000    0.000 
#
# Total GULP energy -198320.025166 kJ/mol
# GULP energy per Si atom -12395.001573 kJ/mol
# Density = 2.267658 g / cm^3
# Si number density = 22.728308 Si / 1000 Ang^3
#
#
#
# Elastic Constant Matrix: (Units=GPa)
#
#
# Indices 1 2 3 4 5 6 
#
# 1 57.7365 26.7792 11.8919 6.5670 -1.3233 -7.9773
# 2 26.7792 124.4496 28.4965 20.5365 14.6975 -7.5594
# 3 11.8919 28.4965 92.0793 2.8298 12.3522 4.9081
# 4 6.5670 20.5365 2.8298 42.8019 -3.6724 -2.1718
# 5 -1.3233 14.6975 12.3522 -3.6724 41.7938 3.9073
# 6 -7.9773 -7.5594 4.9081 -2.1718 3.9073 43.6059
#
#
#
# Elastic Compliance Matrix: (Units=1/GPa)
#
#
# Indices 1 2 3 4 5 6 
#
# 1 0.020025 -0.003841 -0.001824 -0.000771 0.002179 0.002969
# 2 -0.003841 0.010675 -0.002241 -0.004631 -0.003761 0.001507
# 3 -0.001824 -0.002241 0.012243 0.000221 -0.002696 -0.001848
# 4 -0.000771 -0.004631 0.000221 0.026016 0.003826 -0.000016
# 5 0.002179 -0.003761 -0.002696 0.003826 0.026652 -0.002148
# 6 0.002969 0.001507 -0.001848 -0.000016 -0.002148 0.024137
#
#
# Mechanical properties :
#
#
# Convention : Reuss Voigt Hill
#
# Bulk Modulus (GPa) = 36.85941 45.40007 41.12974
# Shear Modulus (GPa) = 34.57709 39.44684 37.01196
#
# Velocity S-wave (km/s) = 3.90465 4.17055 4.03979
# Velocity P-wave (km/s) = 6.04822 6.57342 6.31628
#
# Compressibility (1/GPa) = 0.02713011
#
# Stress axis : x y z
#
# Youngs Moduli (GPa) = 49.93695 93.67806 81.68120
#
# Poissons Ratio (x) = 0.35981 0.14902
# Poissons Ratio (y) = 0.19181 0.18305
# Poissons Ratio (z) = 0.09110 0.20994
#
# Static dielectric constant tensor:
#      x y z
#    x 4.188780 0.090380 0.204410 
#    y 0.090380 4.486250 0.111040 
#    z 0.204410 0.111040 4.422500 
# 
# 
# High freq. dielectric constant tensor:
#      x y z
#    x 1.884240 -0.003060 -0.005870 
#    y -0.003060 1.910470 0.002260 
#    z -0.005870 0.002260 1.910030 
# 
# From -- ./inp_files/338211.got.cif
#   From: 2010.06.25/outbox.cif.g09.slc.cpg/sg2_170_cif.got.tgz:338211.got - 2010.06.27 13:26:56.
