data_PCOD8034451
_publ_section_title
;
Structure prediction by ZEFSAII (Michael W. Deem and Ramdas Pophale) SiO2 
 PCOD8034451
Probable space group: P -1
;
_chemical_formula_sum "Si O2"
_cell_formula_units_Z 12
_cell_length_a 9.228457
_cell_length_b 18.471104
_cell_length_c 6.823332
_cell_angle_alpha 45.362363
_cell_angle_beta 133.310561
_cell_angle_gamma 135.303130
_cell_volume 540.186244
_symmetry_space_group_name_H-M "P -1"
_symmetry_group_IT_number 2
_symmetry_cell_setting 'triclinic'
loop_
_space_group_symop_operation_xyz
x,y,z
-x,-y,-z
loop_
_atom_site_type_symbol
_atom_site_label
_atom_site_fract_x
_atom_site_fract_y
_atom_site_fract_z
Si Si1 0.465672 0.025748 0.200798
Si Si2 0.740000 0.662273 0.858032
Si Si3 0.990206 0.608338 0.879409
Si Si4 0.884827 0.083654 0.216568
Si Si5 0.484663 0.736120 0.183980
Si Si6 0.352620 0.385260 0.701047
O O1 0.695198 0.046373 0.274666
O O2 0.500000 0.000000 0.500000
O O3 0.404844 0.131065 0.928743
O O4 0.246099 0.925828 0.091648
O O5 0.544293 0.673145 0.535326
O O6 0.825621 0.584129 0.960511
O O7 0.936583 0.786732 0.841821
O O8 0.637510 0.597046 0.089955
O O9 0.900959 0.661120 0.522227
O O10 0.224241 0.697207 0.006329
O O11 0.000000 0.500000 0.000000
O O12 0.000000 0.000000 0.500000
O O13 0.563785 0.708440 0.100551
O O14 0.500000 0.500000 0.500000
#
# Coordination Sequence:
#
# PCOD8034451 Si02
#       6
#     2   2   2   2   2   2
#     4  11  26  42  71 101 140 179 227 283 337 412
#     4  11  26  44  73  97 144 182 225 290 338 407
#     4  11  24  47  67 100 134 176 234 282 342 410
#     4  11  24  45  65 105 136 178 231 273 349 406
#     4  11  24  45  65 101 139 178 233 277 346 410
#     4  11  26  46  67 102 136 182 233 281 345 404
#
# _framework density 22.214559000000001
#
# number of rings (size 3 to 8) (size 9 to 14) (size 15 to 20)
#    0.000    1.000    5.000    0.000    4.667    5.333 
#    0.000    0.000    0.000    0.000    0.000    0.000 
#    0.000    0.000    0.000    0.000    0.000    0.000 
#
# Total GULP energy -148749.714292 kJ/mol
# GULP energy per Si atom -12395.809524 kJ/mol
# Density = 2.216400 g / cm^3
# Si number density = 22.214559 Si / 1000 Ang^3
#
#
#
# Elastic Constant Matrix: (Units=GPa)
#
#
# Indices 1 2 3 4 5 6 
#
# 1 136.9004 29.6851 79.1928 1.4670 -0.4071 -31.0165
# 2 29.6851 78.9612 27.4758 7.4629 -0.9500 -7.1073
# 3 79.1928 27.4758 136.3145 25.3814 -13.5246 -4.5092
# 4 1.4670 7.4629 25.3814 42.8858 -8.7820 9.1618
# 5 -0.4071 -0.9500 -13.5246 -8.7820 44.2126 6.4372
# 6 -31.0165 -7.1073 -4.5092 9.1618 6.4372 42.9796
#
#
#
# Elastic Compliance Matrix: (Units=1/GPa)
#
#
# Indices 1 2 3 4 5 6 
#
# 1 0.014901 -0.001963 -0.008707 0.002220 -0.003521 0.009569
# 2 -0.001963 0.014181 -0.001370 -0.002022 -0.000727 0.001324
# 3 -0.008707 -0.001370 0.014024 -0.006116 0.003587 -0.004272
# 4 0.002220 -0.002022 -0.006116 0.029592 0.004918 -0.006419
# 5 -0.003521 -0.000727 0.003587 0.004918 0.025690 -0.007181
# 6 0.009569 0.001324 -0.004272 -0.006419 -0.007181 0.032387
#
#
# Mechanical properties :
#
#
# Convention : Reuss Voigt Hill
#
# Bulk Modulus (GPa) = 52.56043 69.43150 60.99596
# Shear Modulus (GPa) = 31.01813 40.40376 35.71094
#
# Velocity S-wave (km/s) = 3.74076 4.26936 4.01377
# Velocity P-wave (km/s) = 6.50918 7.45829 6.99984
#
# Compressibility (1/GPa) = 0.01902572
#
# Stress axis : x y z
#
# Youngs Moduli (GPa) = 67.11023 70.51897 71.30616
#
# Poissons Ratio (x) = 0.13842 0.62088
# Poissons Ratio (y) = 0.13173 0.09767
# Poissons Ratio (z) = 0.58434 0.09659
#
# Static dielectric constant tensor:
#      x y z
#    x 4.289310 -0.141220 0.230190 
#    y -0.141220 4.200530 0.417380 
#    z 0.230190 0.417380 4.010970 
# 
# 
# High freq. dielectric constant tensor:
#      x y z
#    x 1.883450 -0.016610 0.019040 
#    y -0.016610 1.888900 0.027520 
#    z 0.019040 0.027520 1.870710 
# 
# From -- ./inp_files/7244.got.cif
#   From: 2010.06.25/outbox.cif.g09.slc.cpg/sg2_4_cif.got.tgz:7244.got - 2010.06.27 13:26:56.
