data_PCOD8034822
_publ_section_title
;
Structure prediction by ZEFSAII (Michael W. Deem and Ramdas Pophale) SiO2 
 PCOD8034822
Probable space group: P -1
;
_chemical_formula_sum "Si O2"
_cell_formula_units_Z 16
_cell_length_a 9.055801
_cell_length_b 21.018179
_cell_length_c 8.754585
_cell_angle_alpha 64.140858
_cell_angle_beta 118.692255
_cell_angle_gamma 149.224444
_cell_volume 746.882937
_symmetry_space_group_name_H-M "P -1"
_symmetry_group_IT_number 2
_symmetry_cell_setting 'triclinic'
loop_
_space_group_symop_operation_xyz
x,y,z
-x,-y,-z
loop_
_atom_site_type_symbol
_atom_site_label
_atom_site_fract_x
_atom_site_fract_y
_atom_site_fract_z
Si Si1 0.213067 0.529111 0.463549
Si Si2 0.897843 0.283092 0.585074
Si Si3 0.717178 0.868339 0.568043
Si Si4 0.692959 0.875409 0.894623
Si Si5 0.228866 0.269378 0.302395
Si Si6 0.663129 0.616818 0.058113
Si Si7 0.300233 0.871687 0.612654
Si Si8 0.333653 0.615052 0.101262
O O1 0.499769 0.594910 0.624619
O O2 0.327298 0.609975 0.287062
O O3 0.000000 0.500000 0.500000
O O4 0.022304 0.396922 0.449391
O O5 0.552382 0.173830 0.565259
O O6 0.923728 0.232201 0.522106
O O7 0.059312 0.321228 0.782505
O O8 0.773903 0.877769 0.764761
O O9 0.662919 0.772944 0.570514
O O10 0.000000 0.000000 0.500000
O O11 0.492063 0.876293 0.781682
O O12 0.512701 0.749097 0.016131
O O13 0.000000 0.000000 0.000000
O O14 0.904467 0.167076 0.317430
O O15 0.207097 0.281164 0.101768
O O16 0.468726 0.591453 0.113455
O O17 0.500000 0.500000 0.000000
O O18 0.500000 0.000000 0.500000
O O19 0.000000 0.500000 0.000000
#
# Coordination Sequence:
#
# PCOD8034822 Si02
#       8
#     2   2   2   2   2   2   2   2
#     4  12  25  42  75 105 140 188 238 292 362 427
#     4  11  25  46  71 102 148 182 241 293 361 430
#     4  11  24  46  71  98 138 193 239 289 356 437
#     4  11  27  47  70 105 144 188 243 296 366 430
#     4  12  24  44  71 104 142 178 240 292 356 431
#     4  12  27  44  71 111 146 182 235 303 365 423
#     4  11  27  47  72 103 143 191 238 293 357 428
#     4  12  27  46  74 103 149 188 242 303 360 437
#
# _framework density 21.422364999999999
#
# number of rings (size 3 to 8) (size 9 to 14) (size 15 to 20)
#    0.000    0.500    3.750    4.500    8.750    2.000 
#    0.000    1.875    0.000    0.000    0.000    0.000 
#    0.000    0.000    0.000    0.000    0.000    0.000 
#
# Total GULP energy -198382.272889 kJ/mol
# GULP energy per Si atom -12398.892056 kJ/mol
# Density = 2.137361 g / cm^3
# Si number density = 21.422365 Si / 1000 Ang^3
#
#
#
# Elastic Constant Matrix: (Units=GPa)
#
#
# Indices 1 2 3 4 5 6 
#
# 1 123.8472 41.0283 50.1822 -6.6955 -12.4109 7.1633
# 2 41.0283 140.0916 64.0667 -1.1252 -3.4063 7.2936
# 3 50.1822 64.0667 151.7830 1.9693 -10.5985 12.5586
# 4 -6.6955 -1.1252 1.9693 49.8674 5.4079 -1.6260
# 5 -12.4109 -3.4063 -10.5985 5.4079 35.4530 -4.5358
# 6 7.1633 7.2936 12.5586 -1.6260 -4.5358 41.0869
#
#
#
# Elastic Compliance Matrix: (Units=1/GPa)
#
#
# Indices 1 2 3 4 5 6 
#
# 1 0.009931 -0.001740 -0.002365 0.001116 0.002382 -0.000393
# 2 -0.001740 0.009169 -0.003321 0.000178 -0.000798 -0.000390
# 3 -0.002365 -0.003321 0.009023 -0.000963 0.001489 -0.001630
# 4 0.001116 0.000178 -0.000963 0.020583 -0.002948 0.000557
# 5 0.002382 -0.000798 0.001489 -0.002948 0.030176 0.002486
# 6 -0.000393 -0.000390 -0.001630 0.000557 0.002486 0.025271
#
#
# Mechanical properties :
#
#
# Convention : Reuss Voigt Hill
#
# Bulk Modulus (GPa) = 75.34317 80.69734 78.02026
# Shear Modulus (GPa) = 40.50982 42.64445 41.57713
#
# Velocity S-wave (km/s) = 4.35329 4.46651 4.41026
# Velocity P-wave (km/s) = 7.77913 8.02191 7.90145
#
# Compressibility (1/GPa) = 0.01327260
#
# Stress axis : x y z
#
# Youngs Moduli (GPa) = 100.69815 109.06798 110.82684
#
# Poissons Ratio (x) = 0.18974 0.26207
# Poissons Ratio (y) = 0.17518 0.36801
# Poissons Ratio (z) = 0.23812 0.36217
#
# Static dielectric constant tensor:
#      x y z
#    x 4.070140 -0.136000 0.107310 
#    y -0.136000 4.081610 -0.131270 
#    z 0.107310 -0.131270 4.372200 
# 
# 
# High freq. dielectric constant tensor:
#      x y z
#    x 1.849340 -0.001040 0.000170 
#    y -0.001040 1.855200 -0.001190 
#    z 0.000170 -0.001190 1.849070 
# 
# From -- ./inp_files/223489.got.cif
#   From: 2010.06.25/outbox.cif.g09.slc.cpg/sg2_112_cif.got.tgz:223489.got - 2010.06.27 13:26:56.
