data_PCOD8034920
_publ_section_title
;
Structure prediction by ZEFSAII (Michael W. Deem and Ramdas Pophale) SiO2 
 PCOD8034920
Probable space group: P -1
;
_chemical_formula_sum "Si O2"
_cell_formula_units_Z 16
_cell_length_a 11.599388
_cell_length_b 8.504570
_cell_length_c 9.017786
_cell_angle_alpha 81.970242
_cell_angle_beta 51.353674
_cell_angle_gamma 95.672604
_cell_volume 667.756153
_symmetry_space_group_name_H-M "P -1"
_symmetry_group_IT_number 2
_symmetry_cell_setting 'triclinic'
loop_
_space_group_symop_operation_xyz
x,y,z
-x,-y,-z
loop_
_atom_site_type_symbol
_atom_site_label
_atom_site_fract_x
_atom_site_fract_y
_atom_site_fract_z
Si Si1 0.844621 0.634263 0.440971
Si Si2 0.847084 0.358713 0.955211
Si Si3 0.143941 0.950458 0.825866
Si Si4 0.589099 0.102156 0.784652
Si Si5 0.874814 0.990753 0.475773
Si Si6 0.564700 0.784071 0.367069
Si Si7 0.690170 0.497018 0.287945
Si Si8 0.352407 0.568467 0.143097
O O1 0.725246 0.553223 0.421908
O O2 0.785546 0.570414 0.659783
O O3 0.004622 0.593764 0.273760
O O4 0.859815 0.826057 0.415426
O O5 0.699047 0.361110 0.976149
O O6 0.823375 0.183480 0.071700
O O7 0.842130 0.487985 0.075866
O O8 0.097358 0.881660 0.703571
O O9 0.295141 0.099959 0.673502
O O10 0.000000 0.000000 0.000000
O O11 0.730020 0.019797 0.672095
O O12 0.497632 0.092552 0.705762
O O13 0.625211 0.292029 0.769871
O O14 0.500000 0.000000 0.000000
O O15 0.000000 0.000000 0.500000
O O16 0.622132 0.640793 0.250685
O O17 0.429398 0.682315 0.596583
O O18 0.500000 0.500000 0.000000
#
# Coordination Sequence:
#
# PCOD8034920 Si02
#       8
#     2   2   2   2   2   2   2   2
#     4  12  25  52  71 112 156 199 254 315 380 459
#     4  12  26  46  76 113 151 205 254 314 380 455
#     4  12  26  49  77 110 155 201 254 310 384 452
#     4  12  26  45  74 112 147 197 256 308 381 450
#     4  12  28  50  75 107 154 203 251 316 382 455
#     4  11  24  46  75 110 152 194 254 316 374 446
#     4  11  24  46  78 109 153 192 257 312 383 445
#     4  12  27  49  75 111 155 201 254 317 381 453
#
# _framework density 23.960846
#
# number of rings (size 3 to 8) (size 9 to 14) (size 15 to 20)
#    0.000    0.250    3.750    4.500    3.500    3.000 
#    2.250    0.000    0.000    0.000    0.000    0.000 
#    0.000    0.000    0.000    0.000    0.000    0.000 
#
# Total GULP energy -198271.068331 kJ/mol
# GULP energy per Si atom -12391.941771 kJ/mol
# Density = 2.390631 g / cm^3
# Si number density = 23.960846 Si / 1000 Ang^3
#
#
#
# Elastic Constant Matrix: (Units=GPa)
#
#
# Indices 1 2 3 4 5 6 
#
# 1 174.0663 46.7522 72.2249 -0.5806 3.3429 -26.5190
# 2 46.7522 75.3249 49.8981 18.5502 -9.4754 -20.5349
# 3 72.2249 49.8981 169.0609 17.5001 -10.7140 -23.5448
# 4 -0.5806 18.5502 17.5001 49.5224 -12.2720 -3.0173
# 5 3.3429 -9.4754 -10.7140 -12.2720 43.0340 3.5673
# 6 -26.5190 -20.5349 -23.5448 -3.0173 3.5673 44.6876
#
#
#
# Elastic Compliance Matrix: (Units=1/GPa)
#
#
# Indices 1 2 3 4 5 6 
#
# 1 0.008055 -0.003504 -0.002414 0.001993 -0.001609 0.002161
# 2 -0.003504 0.020635 -0.003140 -0.005866 0.001930 0.005198
# 3 -0.002414 -0.003140 0.008269 -0.001438 0.001037 0.001301
# 4 0.001993 -0.005866 -0.001438 0.024138 0.005166 -0.001053
# 5 -0.001609 0.001930 0.001037 0.005166 0.025620 -0.001218
# 6 0.002161 0.005198 0.001301 -0.001053 -0.001218 0.026760
#
#
# Mechanical properties :
#
#
# Convention : Reuss Voigt Hill
#
# Bulk Modulus (GPa) = 53.07210 84.02252 68.54731
# Shear Modulus (GPa) = 36.26495 44.08726 40.17611
#
# Velocity S-wave (km/s) = 3.89460 4.29414 4.09924
# Velocity P-wave (km/s) = 6.51318 7.72845 7.14669
#
# Compressibility (1/GPa) = 0.01884229
#
# Stress axis : x y z
#
# Youngs Moduli (GPa) = 124.15365 48.46028 120.93488
#
# Poissons Ratio (x) = 0.16982 0.29195
# Poissons Ratio (y) = 0.43507 0.37973
# Poissons Ratio (z) = 0.29972 0.15216
#
# Static dielectric constant tensor:
#      x y z
#    x 4.614280 -0.346520 0.013430 
#    y -0.346520 4.283600 0.184870 
#    z 0.013430 0.184870 4.315030 
# 
# 
# High freq. dielectric constant tensor:
#      x y z
#    x 1.960960 -0.025040 0.003410 
#    y -0.025040 1.950680 0.007940 
#    z 0.003410 0.007940 1.960710 
# 
# From -- ./inp_files/243354.got.cif
#   From: 2010.06.25/outbox.cif.g09.slc.cpg/sg2_122_cif.got.tgz:243354.got - 2010.06.27 13:26:56.
