data_PCOD8034384
_publ_section_title
;
Structure prediction by ZEFSAII (Michael W. Deem and Ramdas Pophale) SiO2 
 PCOD8034384
Probable space group: P -1
;
_chemical_formula_sum "Si O2"
_cell_formula_units_Z 16
_cell_length_a 8.694567
_cell_length_b 25.598923
_cell_length_c 10.767808
_cell_angle_alpha 151.107124
_cell_angle_beta 137.922657
_cell_angle_gamma 32.426204
_cell_volume 620.874286
_symmetry_space_group_name_H-M "P -1"
_symmetry_group_IT_number 2
_symmetry_cell_setting 'triclinic'
loop_
_space_group_symop_operation_xyz
x,y,z
-x,-y,-z
loop_
_atom_site_type_symbol
_atom_site_label
_atom_site_fract_x
_atom_site_fract_y
_atom_site_fract_z
Si Si1 0.598223 0.162553 0.539420
Si Si2 0.228414 0.333246 0.454448
Si Si3 0.690060 0.903538 0.596361
Si Si4 0.071979 0.138879 0.925912
Si Si5 0.198822 0.815668 0.880082
Si Si6 0.396135 0.481416 0.525341
Si Si7 0.281792 0.543424 0.848552
Si Si8 0.716963 0.823514 0.180402
O O1 0.450777 0.276061 0.581859
O O2 0.373107 0.194913 0.580920
O O3 0.865137 0.160438 0.734796
O O4 0.691354 0.020681 0.241259
O O5 0.296642 0.408380 0.552039
O O6 0.922802 0.462326 0.589075
O O7 0.215134 0.216077 0.144050
O O8 0.825798 0.843542 0.417197
O O9 0.913722 0.912777 0.828396
O O10 0.376749 0.053574 0.715287
O O11 0.884657 0.202124 0.070114
O O12 0.389930 0.673022 0.628948
O O13 0.401886 0.862731 0.104808
O O14 0.500000 0.500000 0.500000
O O15 0.371706 0.565039 0.810388
O O16 0.500000 0.500000 0.000000
O O17 0.962838 0.677297 0.968504
#
# Coordination Sequence:
#
# PCOD8034384 Si02
#       8
#     2   2   2   2   2   2   2   2
#     4  11  25  45  73 110 149 202 263 315 384 456
#     4  12  26  47  76 108 151 200 249 314 382 453
#     4  11  24  44  73 108 151 202 260 318 383 452
#     4  11  25  44  74 109 151 200 258 320 382 455
#     4  12  23  45  70 108 150 199 255 315 388 450
#     4  12  26  48  75 109 154 197 251 310 379 460
#     4  12  30  51  79 116 154 206 256 319 387 460
#     4  11  26  47  70 109 155 198 256 321 382 454
#
# _framework density 25.770112000000001
#
# number of rings (size 3 to 8) (size 9 to 14) (size 15 to 20)
#    0.000    0.500    5.000    1.875    3.500    1.000 
#    2.250    1.875    0.000    0.000    0.000    0.000 
#    0.000    0.000    0.000    0.000    0.000    0.000 
#
# Total GULP energy -198258.462951 kJ/mol
# GULP energy per Si atom -12391.153934 kJ/mol
# Density = 2.571146 g / cm^3
# Si number density = 25.770112 Si / 1000 Ang^3
#
#
#
# Elastic Constant Matrix: (Units=GPa)
#
#
# Indices 1 2 3 4 5 6 
#
# 1 96.9465 42.2241 40.0936 -5.7136 -16.8090 9.3169
# 2 42.2241 166.0155 38.1190 -10.5072 -24.1226 14.4245
# 3 40.0936 38.1190 111.6936 1.1778 -11.2732 8.3787
# 4 -5.7136 -10.5072 1.1778 50.4228 -3.9382 -3.7066
# 5 -16.8090 -24.1226 -11.2732 -3.9382 40.4466 -0.6497
# 6 9.3169 14.4245 8.3787 -3.7066 -0.6497 34.2418
#
#
#
# Elastic Compliance Matrix: (Units=1/GPa)
#
#
# Indices 1 2 3 4 5 6 
#
# 1 0.013537 -0.001814 -0.003758 0.001394 0.003604 -0.001781
# 2 -0.001814 0.007607 -0.001449 0.001530 0.003494 -0.002124
# 3 -0.003758 -0.001449 0.010944 -0.001028 0.000506 -0.001147
# 4 0.001394 0.001530 -0.001028 0.020699 0.003246 0.001530
# 5 0.003604 0.003494 0.000506 0.003246 0.028736 -0.001680
# 6 -0.001781 -0.002124 -0.001147 0.001530 -0.001680 0.030998
#
#
# Mechanical properties :
#
#
# Convention : Reuss Voigt Hill
#
# Bulk Modulus (GPa) = 55.40992 68.39208 61.90100
# Shear Modulus (GPa) = 37.71387 41.97018 39.84202
#
# Velocity S-wave (km/s) = 3.82969 4.04002 3.93626
# Velocity P-wave (km/s) = 6.41121 6.95408 6.68816
#
# Compressibility (1/GPa) = 0.01804731
#
# Stress axis : x y z
#
# Youngs Moduli (GPa) = 73.87111 131.46432 91.37050
#
# Poissons Ratio (x) = 0.23842 0.34335
# Poissons Ratio (y) = 0.13397 0.13241
# Poissons Ratio (z) = 0.27759 0.19051
#
# Static dielectric constant tensor:
#      x y z
#    x 4.746690 0.197220 0.263610 
#    y 0.197220 4.710400 0.127150 
#    z 0.263610 0.127150 4.881500 
# 
# 
# High freq. dielectric constant tensor:
#      x y z
#    x 2.040140 0.011140 -0.004210 
#    y 0.011140 2.048430 0.005090 
#    z -0.004210 0.005090 2.022100 
# 
# From -- ./inp_files/407365.got.cif
#   From: 2010.06.25/outbox.cif.g09.slc.cpg/sg2_204_cif.got.tgz:407365.got - 2010.06.27 13:26:56.
