data_PCOD8034657
_publ_section_title
;
Structure prediction by ZEFSAII (Michael W. Deem and Ramdas Pophale) SiO2 
 PCOD8034657
Probable space group: P -1
;
_chemical_formula_sum "Si O2"
_cell_formula_units_Z 16
_cell_length_a 18.151797
_cell_length_b 8.148763
_cell_length_c 21.747123
_cell_angle_alpha 146.553526
_cell_angle_beta 156.621722
_cell_angle_gamma 33.844373
_cell_volume 672.051618
_symmetry_space_group_name_H-M "P -1"
_symmetry_group_IT_number 2
_symmetry_cell_setting 'triclinic'
loop_
_space_group_symop_operation_xyz
x,y,z
-x,-y,-z
loop_
_atom_site_type_symbol
_atom_site_label
_atom_site_fract_x
_atom_site_fract_y
_atom_site_fract_z
Si Si1 0.964037 0.760514 0.232289
Si Si2 0.083204 0.675466 0.429855
Si Si3 0.389701 0.263141 0.616890
Si Si4 0.305993 0.644191 0.361854
Si Si5 0.655933 0.425493 0.190840
Si Si6 0.810369 0.201636 0.949178
Si Si7 0.186108 0.205939 0.058482
Si Si8 0.742468 0.421216 0.123925
O O1 0.103327 0.717889 0.385564
O O2 0.108940 0.659707 0.253467
O O3 0.822073 0.106862 0.229672
O O4 0.816077 0.554986 0.060980
O O5 0.293139 0.526844 0.575575
O O6 0.942221 0.460916 0.265032
O O7 0.000000 0.000000 0.500000
O O8 0.335790 0.360341 0.677044
O O9 0.621710 0.172572 0.758690
O O10 0.301579 0.985421 0.443410
O O11 0.500000 0.500000 0.500000
O O12 0.338169 0.387841 0.251231
O O13 0.700175 0.579220 0.208743
O O14 0.433210 0.412779 0.006806
O O15 0.821440 0.061543 0.981699
O O16 0.000000 0.000000 0.000000
O O17 0.000000 0.500000 0.000000
O O18 0.239058 0.955192 0.964938
#
# Coordination Sequence:
#
# PCOD8034657 Si02
#       8
#     2   2   2   2   2   2   2   2
#     4  12  25  44  73 103 141 186 233 285 354 421
#     4  12  26  42  66 107 145 177 223 288 361 413
#     4  12  25  47  71 102 147 181 227 296 353 416
#     4  12  25  47  71 100 138 186 233 289 347 408
#     4  11  24  45  74 102 138 188 231 283 353 428
#     4  12  25  48  71 100 136 189 238 285 346 418
#     4  12  23  45  70  98 134 185 233 285 336 417
#     4  11  25  45  69 105 140 185 237 281 345 436
#
# _framework density 23.807694999999999
#
# number of rings (size 3 to 8) (size 9 to 14) (size 15 to 20)
#    0.000    0.250    6.250    2.250    3.500    2.000 
#    2.250    1.250    0.000    0.000    0.000    0.000 
#    0.000    0.000    0.000    0.000    0.000    0.000 
#
# Total GULP energy -198213.285632 kJ/mol
# GULP energy per Si atom -12388.330352 kJ/mol
# Density = 2.375351 g / cm^3
# Si number density = 23.807695 Si / 1000 Ang^3
#
#
#
# Elastic Constant Matrix: (Units=GPa)
#
#
# Indices 1 2 3 4 5 6 
#
# 1 47.6911 14.5467 21.8506 -4.5851 -0.7302 -6.2649
# 2 14.5467 130.1960 47.2920 -13.7998 5.4765 -1.7509
# 3 21.8506 47.2920 125.0524 -0.6291 -2.9308 0.5132
# 4 -4.5851 -13.7998 -0.6291 57.8158 -3.8208 -3.8160
# 5 -0.7302 5.4765 -2.9308 -3.8208 36.5639 -1.3822
# 6 -6.2649 -1.7509 0.5132 -3.8160 -1.3822 33.6050
#
#
#
# Elastic Compliance Matrix: (Units=1/GPa)
#
#
# Indices 1 2 3 4 5 6 
#
# 1 0.023827 -0.001058 -0.003756 0.001953 0.000715 0.004696
# 2 -0.001058 0.009303 -0.003359 0.002038 -0.001452 0.000511
# 3 -0.003756 -0.003359 0.009948 -0.000992 0.001080 -0.001095
# 4 0.001953 0.002038 -0.000992 0.018209 0.001656 0.002621
# 5 0.000715 -0.001452 0.001080 0.001656 0.027893 0.001376
# 6 0.004696 0.000511 -0.001095 0.002621 0.001376 0.031030
#
#
# Mechanical properties :
#
#
# Convention : Reuss Voigt Hill
#
# Bulk Modulus (GPa) = 37.40764 52.25755 44.83259
# Shear Modulus (GPa) = 34.37184 40.21365 37.29274
#
# Velocity S-wave (km/s) = 3.80376 4.11433 3.96209
# Velocity P-wave (km/s) = 5.91929 6.67591 6.30895
#
# Compressibility (1/GPa) = 0.02673251
#
# Stress axis : x y z
#
# Youngs Moduli (GPa) = 41.96848 107.49202 100.52113
#
# Poissons Ratio (x) = 0.11370 0.37756
# Poissons Ratio (y) = 0.04439 0.33767
# Poissons Ratio (z) = 0.15764 0.36109
#
# Static dielectric constant tensor:
#      x y z
#    x 4.035130 0.073990 -0.135620 
#    y 0.073990 4.542730 -0.004930 
#    z -0.135620 -0.004930 4.631010 
# 
# 
# High freq. dielectric constant tensor:
#      x y z
#    x 1.927270 -0.007800 -0.021150 
#    y -0.007800 1.963430 -0.007260 
#    z -0.021150 -0.007260 1.954990 
# 
# From -- ./inp_files/613640.got.cif
#   From: 2010.06.25/outbox.cif.g09.slc.cpg/sg2_307_cif.got.tgz:613640.got - 2010.06.27 13:26:56.
