data_PCOD8034917
_publ_section_title
;
Structure prediction by ZEFSAII (Michael W. Deem and Ramdas Pophale) SiO2 
 PCOD8034917
Probable space group: P -1
;
_chemical_formula_sum "Si O2"
_cell_formula_units_Z 12
_cell_length_a 5.020374
_cell_length_b 26.344185
_cell_length_c 10.080745
_cell_angle_alpha 155.241831
_cell_angle_beta 100.127209
_cell_angle_gamma 70.943468
_cell_volume 502.639357
_symmetry_space_group_name_H-M "P -1"
_symmetry_group_IT_number 2
_symmetry_cell_setting 'triclinic'
loop_
_space_group_symop_operation_xyz
x,y,z
-x,-y,-z
loop_
_atom_site_type_symbol
_atom_site_label
_atom_site_fract_x
_atom_site_fract_y
_atom_site_fract_z
Si Si1 0.242863 0.000309 0.627912
Si Si2 0.392043 0.671882 0.068929
Si Si3 0.781625 0.713300 0.705430
Si Si4 0.773652 0.727826 0.028703
Si Si5 0.384849 0.569464 0.293002
Si Si6 0.271439 0.943489 0.793995
O O1 0.553192 0.879079 0.336623
O O2 0.149280 0.985731 0.734988
O O3 0.000000 0.000000 0.500000
O O4 0.300673 0.132048 0.940191
O O5 0.600147 0.652153 0.911140
O O6 0.429069 0.782652 0.430720
O O7 0.047602 0.727321 0.134462
O O8 0.477136 0.534438 0.824179
O O9 0.485277 0.690704 0.599614
O O10 0.030089 0.632005 0.425670
O O11 0.893233 0.657463 0.730901
O O12 0.500000 0.500000 0.000000
O O13 0.500000 0.000000 0.000000
O O14 0.000000 0.000000 0.000000
#
# Coordination Sequence:
#
# PCOD8034917 Si02
#       6
#     2   2   2   2   2   2
#     4  11  25  47  77 111 151 182 240 310 366 434
#     4  11  25  46  71  99 150 180 238 304 346 429
#     4  12  26  44  75 104 141 192 237 289 366 428
#     4  11  24  46  75 109 138 179 239 305 368 411
#     4  12  29  47  68 100 147 197 241 288 344 431
#     4  11  25  42  71 103 137 190 237 293 362 419
#
# _framework density 23.873975000000002
#
# number of rings (size 3 to 8) (size 9 to 14) (size 15 to 20)
#    0.000    0.667    0.000    8.000    4.667    8.000 
#    0.000    0.000    0.000    0.000    0.000    0.000 
#    0.000    0.000    0.000    0.000    0.000    0.000 
#
# Total GULP energy -148824.016105 kJ/mol
# GULP energy per Si atom -12402.001342 kJ/mol
# Density = 2.381964 g / cm^3
# Si number density = 23.873975 Si / 1000 Ang^3
#
#
#
# Elastic Constant Matrix: (Units=GPa)
#
#
# Indices 1 2 3 4 5 6 
#
# 1 143.7797 43.1958 30.0271 2.8454 -0.4116 13.1531
# 2 43.1958 101.4866 45.3204 -1.4893 -6.1716 11.8495
# 3 30.0271 45.3204 72.1835 -4.8932 16.8686 24.1329
# 4 2.8454 -1.4893 -4.8932 40.8673 17.5019 -3.9820
# 5 -0.4116 -6.1716 16.8686 17.5019 44.9802 -12.0658
# 6 13.1531 11.8495 24.1329 -3.9820 -12.0658 46.3152
#
#
#
# Elastic Compliance Matrix: (Units=1/GPa)
#
#
# Indices 1 2 3 4 5 6 
#
# 1 0.008196 -0.002562 -0.001852 -0.001265 0.000743 -0.000622
# 2 -0.002562 0.017882 -0.015902 -0.005753 0.012569 0.007218
# 3 -0.001852 -0.015902 0.039788 0.014443 -0.028744 -0.022384
# 4 -0.001265 -0.005753 0.014443 0.034663 -0.021968 -0.008437
# 5 0.000743 0.012569 -0.028744 -0.021968 0.049330 0.022513
# 6 -0.000622 0.007218 -0.022384 -0.008437 0.022513 0.036724
#
#
# Mechanical properties :
#
#
# Convention : Reuss Voigt Hill
#
# Bulk Modulus (GPa) = 39.62968 61.61516 50.62242
# Shear Modulus (GPa) = 21.21993 39.69296 30.45644
#
# Velocity S-wave (km/s) = 2.98456 4.08193 3.57559
# Velocity P-wave (km/s) = 5.33970 6.93403 6.18842
#
# Compressibility (1/GPa) = 0.02523361
#
# Stress axis : x y z
#
# Youngs Moduli (GPa) = 122.01605 55.92091 25.13300
#
# Poissons Ratio (x) = 0.14326 0.04656
# Poissons Ratio (y) = 0.31259 0.39967
# Poissons Ratio (z) = 0.22602 0.88926
#
# Static dielectric constant tensor:
#      x y z
#    x 4.438110 0.348980 0.123790 
#    y 0.348980 4.546150 -0.127500 
#    z 0.123790 -0.127500 4.559600 
# 
# 
# High freq. dielectric constant tensor:
#      x y z
#    x 1.960330 0.019700 0.001300 
#    y 0.019700 1.948720 -0.003940 
#    z 0.001300 -0.003940 1.957940 
# 
# From -- ./inp_files/142461.got.cif
#   From: 2010.06.25/outbox.cif.g09.slc.cpg/sg2_72_cif.got.tgz:142461.got - 2010.06.27 13:26:56.
