data_PCOD8034774
_publ_section_title
;
Structure prediction by ZEFSAII (Michael W. Deem and Ramdas Pophale) SiO2 
 PCOD8034774
Probable space group: P -1
;
_chemical_formula_sum "Si O2"
_cell_formula_units_Z 12
_cell_length_a 6.298781
_cell_length_b 16.378397
_cell_length_c 16.185106
_cell_angle_alpha 154.626382
_cell_angle_beta 47.826651
_cell_angle_gamma 134.150414
_cell_volume 508.567710
_symmetry_space_group_name_H-M "P -1"
_symmetry_group_IT_number 2
_symmetry_cell_setting 'triclinic'
loop_
_space_group_symop_operation_xyz
x,y,z
-x,-y,-z
loop_
_atom_site_type_symbol
_atom_site_label
_atom_site_fract_x
_atom_site_fract_y
_atom_site_fract_z
Si Si1 0.003014 0.735064 0.615284
Si Si2 0.264257 0.412708 0.288775
Si Si3 0.849455 0.121236 0.011985
Si Si4 0.156872 0.113204 0.641240
Si Si5 0.873610 0.351766 0.047726
Si Si6 0.828384 0.252726 0.593464
O O1 0.278313 0.646364 0.488814
O O2 0.946625 0.683745 0.485789
O O3 0.732489 0.630867 0.653242
O O4 0.059483 0.971577 0.826494
O O5 0.537765 0.358070 0.124922
O O6 0.958067 0.278455 0.202157
O O7 0.910105 0.231748 0.010026
O O8 0.500000 0.000000 0.000000
O O9 0.489752 0.237306 0.641764
O O10 0.157753 0.959121 0.572617
O O11 0.000000 0.000000 0.500000
O O12 0.976563 0.261252 0.856576
O O13 0.074555 0.578769 0.208813
#
# Coordination Sequence:
#
# PCOD8034774 Si02
#       6
#     2   2   2   2   2   2
#     4  11  24  46  70 102 151 176 233 282 349 418
#     4  11  27  42  70 111 140 186 230 282 347 420
#     4  12  25  43  69 104 143 189 230 282 343 418
#     4  11  28  48  74 100 135 186 239 296 351 410
#     4  12  26  46  74 101 143 184 236 292 348 414
#     4  11  26  47  71 105 137 186 233 291 351 410
#
# _framework density 23.595676000000001
#
# number of rings (size 3 to 8) (size 9 to 14) (size 15 to 20)
#    0.000    0.667    5.000    1.000    4.667    4.667 
#    0.000    0.000    0.000    0.000    0.000    0.000 
#    0.000    0.000    0.000    0.000    0.000    0.000 
#
# Total GULP energy -148745.339391 kJ/mol
# GULP energy per Si atom -12395.444949 kJ/mol
# Density = 2.354197 g / cm^3
# Si number density = 23.595676 Si / 1000 Ang^3
#
#
#
# Elastic Constant Matrix: (Units=GPa)
#
#
# Indices 1 2 3 4 5 6 
#
# 1 88.6317 30.4706 44.5495 -11.3614 4.0097 24.8346
# 2 30.4706 60.0171 30.8156 -5.9783 8.4841 10.7976
# 3 44.5495 30.8156 167.5796 -15.6707 -6.0310 14.1930
# 4 -11.3614 -5.9783 -15.6707 42.9124 -10.6133 -1.3498
# 5 4.0097 8.4841 -6.0310 -10.6133 47.4318 6.9433
# 6 24.8346 10.7976 14.1930 -1.3498 6.9433 39.9023
#
#
#
# Elastic Compliance Matrix: (Units=1/GPa)
#
#
# Indices 1 2 3 4 5 6 
#
# 1 0.017183 -0.005825 -0.002484 0.002848 0.001131 -0.008335
# 2 -0.005825 0.021513 -0.002519 -0.000393 -0.003665 -0.000676
# 3 -0.002484 -0.002519 0.007441 0.002233 0.002213 -0.000729
# 4 0.002848 -0.000393 0.002233 0.026315 0.006394 -0.002683
# 5 0.001131 -0.003665 0.002213 0.006394 0.024008 -0.004461
# 6 -0.008335 -0.000676 -0.000729 -0.002683 -0.004461 0.031376
#
#
# Mechanical properties :
#
#
# Convention : Reuss Voigt Hill
#
# Bulk Modulus (GPa) = 40.84670 58.65554 49.75112
# Shear Modulus (GPa) = 31.71516 40.07548 35.89532
#
# Velocity S-wave (km/s) = 3.67019 4.12567 3.90457
# Velocity P-wave (km/s) = 5.94214 6.89981 6.43881
#
# Compressibility (1/GPa) = 0.02448178
#
# Stress axis : x y z
#
# Youngs Moduli (GPa) = 58.19625 46.48322 134.39082
#
# Poissons Ratio (x) = 0.27077 0.33380
# Poissons Ratio (y) = 0.33900 0.33850
# Poissons Ratio (z) = 0.14455 0.11708
#
# Static dielectric constant tensor:
#      x y z
#    x 4.033940 -0.197620 -0.286140 
#    y -0.197620 4.252290 0.112840 
#    z -0.286140 0.112840 4.559710 
# 
# 
# High freq. dielectric constant tensor:
#      x y z
#    x 1.917180 -0.020160 -0.013010 
#    y -0.020160 1.930410 0.001040 
#    z -0.013010 0.001040 1.958060 
# 
# From -- ./inp_files/22095.got.cif
#   From: 2010.06.25/outbox.cif.g09.slc.cpg/sg2_12_cif.got.tgz:22095.got - 2010.06.27 13:26:56.
