data_PCOD8034110
_publ_section_title
;
Structure prediction by ZEFSAII (Michael W. Deem and Ramdas Pophale) SiO2 
 PCOD8034110
Probable space group: P -1
;
_chemical_formula_sum "Si O2"
_cell_formula_units_Z 16
_cell_length_a 9.329605
_cell_length_b 14.096638
_cell_length_c 11.211245
_cell_angle_alpha 31.799150
_cell_angle_beta 108.201153
_cell_angle_gamma 94.182828
_cell_volume 681.305771
_symmetry_space_group_name_H-M "P -1"
_symmetry_group_IT_number 2
_symmetry_cell_setting 'triclinic'
loop_
_space_group_symop_operation_xyz
x,y,z
-x,-y,-z
loop_
_atom_site_type_symbol
_atom_site_label
_atom_site_fract_x
_atom_site_fract_y
_atom_site_fract_z
Si Si1 0.625544 0.708715 0.759172
Si Si2 0.107141 0.563506 0.735165
Si Si3 0.026262 0.988319 0.244579
Si Si4 0.242834 0.417610 0.319450
Si Si5 0.305155 0.932032 0.549905
Si Si6 0.880999 0.694863 0.195833
Si Si7 0.298472 0.797149 0.952874
Si Si8 0.588156 0.795261 0.179549
O O1 0.645114 0.718744 0.610272
O O2 0.436817 0.755823 0.694172
O O3 0.670130 0.867268 0.674229
O O4 0.751101 0.494163 0.064932
O O5 0.086073 0.766715 0.445827
O O6 0.170156 0.384281 0.852069
O O7 0.937070 0.584833 0.730273
O O8 0.125852 0.973628 0.408416
O O9 0.837826 0.045674 0.168714
O O10 0.041859 0.144474 0.986995
O O11 0.323775 0.359982 0.530848
O O12 0.232630 0.634779 0.068732
O O13 0.326116 0.890853 0.738868
O O14 0.722996 0.812005 0.107100
O O15 0.000000 0.500000 0.500000
O O16 0.465246 0.722690 0.152157
O O17 0.500000 0.000000 0.000000
#
# Coordination Sequence:
#
# PCOD8034110 Si02
#       8
#     2   2   2   2   2   2   2   2
#     4  11  24  43  73 103 151 188 239 306 369 433
#     4  12  24  47  74 110 143 195 243 301 372 430
#     4  12  26  46  77 109 145 193 243 303 369 438
#     4  12  25  46  69 105 149 193 242 304 365 438
#     4  11  24  44  71 108 143 190 243 305 367 438
#     4  12  26  51  74 107 150 189 247 302 361 438
#     4  12  25  46  73 106 146 189 247 302 367 437
#     4  12  27  48  72 105 147 195 248 300 368 434
#
# _framework density 23.484316
#
# number of rings (size 3 to 8) (size 9 to 14) (size 15 to 20)
#    0.000    0.250    3.750    4.875    3.500    3.500 
#    2.250    0.000    0.000    0.000    0.000    0.000 
#    0.000    0.000    0.000    0.000    0.000    0.000 
#
# Total GULP energy -198409.385802 kJ/mol
# GULP energy per Si atom -12400.586613 kJ/mol
# Density = 2.343086 g / cm^3
# Si number density = 23.484316 Si / 1000 Ang^3
#
#
#
# Elastic Constant Matrix: (Units=GPa)
#
#
# Indices 1 2 3 4 5 6 
#
# 1 126.7607 47.6231 47.4637 10.7677 7.9876 -27.8773
# 2 47.6231 67.3443 25.2684 0.4123 -5.6446 -25.4703
# 3 47.4637 25.2684 118.2450 1.4301 -7.9239 -8.2137
# 4 10.7677 0.4123 1.4301 48.9884 7.1082 1.3216
# 5 7.9876 -5.6446 -7.9239 7.1082 36.2451 -0.0175
# 6 -27.8773 -25.4703 -8.2137 1.3216 -0.0175 47.9618
#
#
#
# Elastic Compliance Matrix: (Units=1/GPa)
#
#
# Indices 1 2 3 4 5 6 
#
# 1 0.013120 -0.006932 -0.003820 -0.002169 -0.004379 0.003349
# 2 -0.006932 0.023858 -0.001413 0.000434 0.004853 0.008389
# 3 -0.003820 -0.001413 0.010399 0.000165 0.002862 -0.001193
# 4 -0.002169 0.000434 0.000165 0.021450 -0.003626 -0.001595
# 5 -0.004379 0.004853 0.002862 -0.003626 0.030648 0.000633
# 6 0.003349 0.008389 -0.001193 -0.001595 0.000633 0.027091
#
#
# Mechanical properties :
#
#
# Convention : Reuss Voigt Hill
#
# Bulk Modulus (GPa) = 43.38846 61.45116 52.41981
# Shear Modulus (GPa) = 31.53008 39.43873 35.48440
#
# Velocity S-wave (km/s) = 3.66813 4.10245 3.89135
# Velocity P-wave (km/s) = 6.03787 6.97595 6.52379
#
# Compressibility (1/GPa) = 0.02304761
#
# Stress axis : x y z
#
# Youngs Moduli (GPa) = 76.21941 41.91441 96.16164
#
# Poissons Ratio (x) = 0.29055 0.36731
# Poissons Ratio (y) = 0.52836 0.13589
# Poissons Ratio (z) = 0.29113 0.05923
#
# Static dielectric constant tensor:
#      x y z
#    x 4.274360 -0.072520 0.063970 
#    y -0.072520 4.183460 0.018330 
#    z 0.063970 0.018330 4.559910 
# 
# 
# High freq. dielectric constant tensor:
#      x y z
#    x 1.931370 -0.001120 0.003120 
#    y -0.001120 1.929310 -0.001920 
#    z 0.003120 -0.001920 1.943370 
# 
# From -- ./inp_files/398204.got.cif
#   From: 2010.06.25/outbox.cif.g09.slc.cpg/sg2_200_cif.got.tgz:398204.got - 2010.06.27 13:26:56.
