data_PCOD8034455
_publ_section_title
;
Structure prediction by ZEFSAII (Michael W. Deem and Ramdas Pophale) SiO2 
 PCOD8034455
Probable space group: P -1
;
_chemical_formula_sum "Si O2"
_cell_formula_units_Z 16
_cell_length_a 6.316368
_cell_length_b 8.796711
_cell_length_c 19.256518
_cell_angle_alpha 55.264576
_cell_angle_beta 126.626998
_cell_angle_gamma 104.642350
_cell_volume 699.466147
_symmetry_space_group_name_H-M "P -1"
_symmetry_group_IT_number 2
_symmetry_cell_setting 'triclinic'
loop_
_space_group_symop_operation_xyz
x,y,z
-x,-y,-z
loop_
_atom_site_type_symbol
_atom_site_label
_atom_site_fract_x
_atom_site_fract_y
_atom_site_fract_z
Si Si1 0.236448 0.101086 0.838527
Si Si2 0.230749 0.481307 0.655991
Si Si3 0.739968 0.254264 0.278363
Si Si4 0.777828 0.875407 0.009940
Si Si5 0.207576 0.528239 0.906246
Si Si6 0.235025 0.988213 0.409561
Si Si7 0.705265 0.442134 0.495519
Si Si8 0.189477 0.150169 0.213296
O O1 0.239214 0.281467 0.744635
O O2 0.271211 0.151453 0.911533
O O3 0.956467 0.019310 0.799604
O O4 0.489440 0.955475 0.900268
O O5 0.291295 0.636307 0.682899
O O6 0.420925 0.480612 0.624481
O O7 0.952276 0.542326 0.545445
O O8 0.804327 0.395590 0.194451
O O9 0.466929 0.173733 0.223762
O O10 0.972140 0.078850 0.376682
O O11 0.892431 0.673134 0.056264
O O12 0.000000 0.000000 0.000000
O O13 0.014334 0.660474 0.884519
O O14 0.500000 0.500000 0.000000
O O15 0.261615 0.117644 0.315487
O O16 0.500000 0.000000 0.500000
O O17 0.208170 0.779642 0.435167
O O18 0.500000 0.500000 0.500000
#
# Coordination Sequence:
#
# PCOD8034455 Si02
#       8
#     2   2   2   2   2   2   2   2
#     4  11  24  47  65 106 141 181 248 293 351 439
#     4  11  24  45  67 102 143 184 239 298 356 421
#     4  11  26  45  74 103 142 197 236 302 364 431
#     4  11  26  43  73 101 140 190 233 297 364 421
#     4  11  24  45  66 104 145 183 245 292 354 441
#     4  11  24  46  69 103 145 181 248 295 356 436
#     4  11  25  44  71 102 137 189 236 299 363 428
#     4  11  25  42  70 101 141 192 233 297 359 419
#
# _framework density 22.874589
#
# number of rings (size 3 to 8) (size 9 to 14) (size 15 to 20)
#    0.000    1.000    3.750    1.500    3.500    6.500 
#    0.000    0.000    0.000    0.000    0.000    0.000 
#    0.000    0.000    0.000    0.000    0.000    0.000 
#
# Total GULP energy -198330.868807 kJ/mol
# GULP energy per Si atom -12395.679300 kJ/mol
# Density = 2.282253 g / cm^3
# Si number density = 22.874589 Si / 1000 Ang^3
#
#
#
# Elastic Constant Matrix: (Units=GPa)
#
#
# Indices 1 2 3 4 5 6 
#
# 1 108.2840 46.1373 37.1212 -10.8070 9.2559 3.5527
# 2 46.1373 131.9119 40.1550 -18.9387 5.8777 3.2174
# 3 37.1212 40.1550 105.1284 -7.0403 4.1296 -4.7869
# 4 -10.8070 -18.9387 -7.0403 42.2393 4.5733 -0.5589
# 5 9.2559 5.8777 4.1296 4.5733 46.1760 6.5044
# 6 3.5527 3.2174 -4.7869 -0.5589 6.5044 39.4005
#
#
#
# Elastic Compliance Matrix: (Units=1/GPa)
#
#
# Indices 1 2 3 4 5 6 
#
# 1 0.011807 -0.002941 -0.002924 0.001393 -0.001746 -0.000872
# 2 -0.002941 0.009904 -0.002526 0.003331 -0.000678 -0.000691
# 3 -0.002924 -0.002526 0.011623 0.000128 -0.000420 0.001953
# 4 0.001393 0.003331 0.000128 0.025917 -0.003357 0.000540
# 5 -0.001746 -0.000678 -0.000420 -0.003357 0.022981 -0.003680
# 6 -0.000872 -0.000691 0.001953 0.000540 -0.003680 0.026368
#
#
# Mechanical properties :
#
#
# Convention : Reuss Voigt Hill
#
# Bulk Modulus (GPa) = 60.41209 65.79459 63.10334
# Shear Modulus (GPa) = 38.19758 40.35721 39.27740
#
# Velocity S-wave (km/s) = 4.09084 4.20489 4.14826
# Velocity P-wave (km/s) = 6.98432 7.23881 7.11271
#
# Compressibility (1/GPa) = 0.01655298
#
# Stress axis : x y z
#
# Youngs Moduli (GPa) = 84.69529 100.97271 86.03278
#
# Poissons Ratio (x) = 0.29692 0.25154
# Poissons Ratio (y) = 0.24906 0.21734
# Poissons Ratio (z) = 0.24763 0.25508
#
# Static dielectric constant tensor:
#      x y z
#    x 4.374170 -0.051290 -0.096040 
#    y -0.051290 4.480910 -0.189090 
#    z -0.096040 -0.189090 4.503710 
# 
# 
# High freq. dielectric constant tensor:
#      x y z
#    x 1.900450 0.005230 -0.004500 
#    y 0.005230 1.909050 0.000380 
#    z -0.004500 0.000380 1.916270 
# 
# From -- ./inp_files/48670.got.cif
#   From: 2010.06.25/outbox.cif.g09.slc.cpg/sg2_25_cif.got.tgz:48670.got - 2010.06.27 13:26:56.
