data_PCOD8034387
_publ_section_title
;
Structure prediction by ZEFSAII (Michael W. Deem and Ramdas Pophale) SiO2 
 PCOD8034387
Probable space group: P -1
;
_chemical_formula_sum "Si O2"
_cell_formula_units_Z 16
_cell_length_a 14.734375
_cell_length_b 9.208215
_cell_length_c 9.255714
_cell_angle_alpha 63.843845
_cell_angle_beta 127.452395
_cell_angle_gamma 78.896805
_cell_volume 682.714904
_symmetry_space_group_name_H-M "P -1"
_symmetry_group_IT_number 2
_symmetry_cell_setting 'triclinic'
loop_
_space_group_symop_operation_xyz
x,y,z
-x,-y,-z
loop_
_atom_site_type_symbol
_atom_site_label
_atom_site_fract_x
_atom_site_fract_y
_atom_site_fract_z
Si Si1 0.594547 0.703057 0.339109
Si Si2 0.295964 0.542600 0.165488
Si Si3 0.260343 0.964587 0.475108
Si Si4 0.890456 0.747309 0.257746
Si Si5 0.022326 0.981394 0.859591
Si Si6 0.683340 0.817893 0.771950
Si Si7 0.478986 0.522478 0.799570
Si Si8 0.693765 0.926685 0.240359
O O1 0.592037 0.628595 0.528469
O O2 0.616099 0.546078 0.308369
O O3 0.721917 0.721841 0.426442
O O4 0.442111 0.942206 0.062305
O O5 0.256169 0.422061 0.082480
O O6 0.375026 0.598636 0.109322
O O7 0.164824 0.754856 0.031581
O O8 0.376117 0.773061 0.561229
O O9 0.232657 0.161650 0.285010
O O10 0.332721 0.921052 0.723212
O O11 0.116916 0.985352 0.358370
O O12 0.837300 0.843139 0.324422
O O13 0.000000 0.500000 0.500000
O O14 0.975948 0.829698 0.253591
O O15 0.751061 0.823189 0.985636
O O16 0.000000 0.000000 0.000000
O O17 0.500000 0.000000 0.500000
O O18 0.500000 0.500000 0.000000
#
# Coordination Sequence:
#
# PCOD8034387 Si02
#       8
#     2   2   2   2   2   2   2   2
#     4  11  24  44  73 109 156 196 259 320 403 461
#     4  12  27  46  84 109 157 213 268 327 401 476
#     4  12  26  48  77 107 160 200 265 323 394 473
#     4  12  31  51  78 110 164 209 262 326 414 479
#     4  12  29  53  78 113 158 214 268 325 395 493
#     4  12  26  50  80 120 153 207 271 333 397 476
#     4  12  26  44  72 115 150 202 263 332 390 467
#     4  11  26  45  72 114 151 201 254 333 392 476
#
# _framework density 23.435846999999999
#
# number of rings (size 3 to 8) (size 9 to 14) (size 15 to 20)
#    0.000    0.250    5.000    2.625    8.750    1.000 
#    0.000    0.000    0.000    0.000    0.000    0.000 
#    0.000    0.000    0.000    0.000    0.000    0.000 
#
# Total GULP energy -198265.694184 kJ/mol
# GULP energy per Si atom -12391.605887 kJ/mol
# Density = 2.338251 g / cm^3
# Si number density = 23.435847 Si / 1000 Ang^3
#
#
#
# Elastic Constant Matrix: (Units=GPa)
#
#
# Indices 1 2 3 4 5 6 
#
# 1 163.8122 70.0011 49.4896 1.5072 -9.9480 -0.0281
# 2 70.0011 138.0536 22.9903 2.6948 0.9647 1.1375
# 3 49.4896 22.9903 86.7337 9.4854 -4.5304 4.0960
# 4 1.5072 2.6948 9.4854 44.3911 -0.2289 1.3466
# 5 -9.9480 0.9647 -4.5304 -0.2289 35.0163 2.5184
# 6 -0.0281 1.1375 4.0960 1.3466 2.5184 50.0522
#
#
#
# Elastic Compliance Matrix: (Units=1/GPa)
#
#
# Indices 1 2 3 4 5 6 
#
# 1 0.009203 -0.004004 -0.004181 0.000826 0.002167 0.000307
# 2 -0.004004 0.009328 -0.000214 -0.000388 -0.001416 -0.000115
# 3 -0.004181 -0.000214 0.014379 -0.002879 0.000741 -0.001134
# 4 0.000826 -0.000388 -0.002879 0.023150 0.000052 -0.000380
# 5 0.002167 -0.001416 0.000741 0.000052 0.029418 -0.001509
# 6 0.000307 -0.000115 -0.001134 -0.000380 -0.001509 0.020161
#
#
# Mechanical properties :
#
#
# Convention : Reuss Voigt Hill
#
# Bulk Modulus (GPa) = 62.06775 74.84016 68.45396
# Shear Modulus (GPa) = 39.12152 42.29981 40.71066
#
# Velocity S-wave (km/s) = 4.09014 4.25304 4.17239
# Velocity P-wave (km/s) = 6.98908 7.49141 7.24460
#
# Compressibility (1/GPa) = 0.01611143
#
# Stress axis : x y z
#
# Youngs Moduli (GPa) = 108.66271 107.20651 69.54438
#
# Poissons Ratio (x) = 0.42923 0.29079
# Poissons Ratio (y) = 0.43506 0.01488
# Poissons Ratio (z) = 0.45436 0.02295
#
# Static dielectric constant tensor:
#      x y z
#    x 4.585460 0.027640 0.002230 
#    y 0.027640 4.693720 0.039410 
#    z 0.002230 0.039410 4.146360 
# 
# 
# High freq. dielectric constant tensor:
#      x y z
#    x 1.935390 0.007800 -0.019120 
#    y 0.007800 1.953720 0.005670 
#    z -0.019120 0.005670 1.908820 
# 
# From -- ./inp_files/297988.got.cif
#   From: 2010.06.25/outbox.cif.g09.slc.cpg/sg2_149_cif.got.tgz:297988.got - 2010.06.27 13:26:56.
