data_PCOD8034637
_publ_section_title
;
Structure prediction by ZEFSAII (Michael W. Deem and Ramdas Pophale) SiO2 
 PCOD8034637
Probable space group: P -1
;
_chemical_formula_sum "Si O2"
_cell_formula_units_Z 16
_cell_length_a 13.460649
_cell_length_b 14.474955
_cell_length_c 8.995514
_cell_angle_alpha 38.569361
_cell_angle_beta 55.813161
_cell_angle_gamma 38.358416
_cell_volume 672.172381
_symmetry_space_group_name_H-M "P -1"
_symmetry_group_IT_number 2
_symmetry_cell_setting 'triclinic'
loop_
_space_group_symop_operation_xyz
x,y,z
-x,-y,-z
loop_
_atom_site_type_symbol
_atom_site_label
_atom_site_fract_x
_atom_site_fract_y
_atom_site_fract_z
Si Si1 0.002389 0.666663 0.841778
Si Si2 0.089430 0.082492 0.126649
Si Si3 0.417270 0.479645 0.376094
Si Si4 0.287709 0.630214 0.611317
Si Si5 0.835350 0.727108 0.375239
Si Si6 0.244592 0.083797 0.493170
Si Si7 0.516687 0.896668 0.270202
Si Si8 0.154151 0.851897 0.947920
O O1 0.910276 0.779809 0.930398
O O2 0.916681 0.820325 0.585124
O O3 0.175586 0.595607 0.816287
O O4 0.000000 0.500000 0.000000
O O5 0.206074 0.858577 0.370814
O O6 0.150366 0.111694 0.887937
O O7 0.914791 0.153004 0.146041
O O8 0.336601 0.524413 0.546139
O O9 0.558644 0.486306 0.261317
O O10 0.509911 0.253495 0.545417
O O11 0.278109 0.628984 0.187455
O O12 0.789390 0.766427 0.538845
O O13 0.693959 0.769840 0.346614
O O14 0.000000 0.500000 0.500000
O O15 0.380969 0.046716 0.319983
O O16 0.271534 0.898364 0.772272
O O17 0.500000 0.000000 0.000000
O O18 0.000000 0.000000 0.000000
#
# Coordination Sequence:
#
# PCOD8034637 Si02
#       8
#     2   2   2   2   2   2   2   2
#     4  12  27  45  72 110 151 196 258 313 380 463
#     4  12  24  46  77 104 146 204 248 319 379 455
#     4  11  25  45  73 107 145 197 252 318 376 451
#     4  11  24  45  73 105 145 195 262 300 378 461
#     4  12  26  47  76 111 153 202 259 315 395 462
#     4  12  26  48  76 110 153 203 256 316 393 455
#     4  12  29  49  75 110 160 204 257 319 387 463
#     4  12  23  47  78 109 149 195 259 322 381 460
#
# _framework density 23.803419000000002
#
# number of rings (size 3 to 8) (size 9 to 14) (size 15 to 20)
#    0.000    0.250    3.750    4.500    7.000    1.500 
#    4.500    0.000    0.000    0.000    0.000    0.000 
#    0.000    0.000    0.000    0.000    0.000    0.000 
#
# Total GULP energy -198314.199686 kJ/mol
# GULP energy per Si atom -12394.637480 kJ/mol
# Density = 2.374924 g / cm^3
# Si number density = 23.803419 Si / 1000 Ang^3
#
#
#
# Elastic Constant Matrix: (Units=GPa)
#
#
# Indices 1 2 3 4 5 6 
#
# 1 95.5449 45.7420 37.7306 3.5717 18.6944 9.4693
# 2 45.7420 137.1344 48.2145 7.5506 0.7530 12.9390
# 3 37.7306 48.2145 87.2085 1.6389 -3.0675 -2.7777
# 4 3.5717 7.5506 1.6389 34.6128 -4.3298 -3.9311
# 5 18.6944 0.7530 -3.0675 -4.3298 47.4477 1.9265
# 6 9.4693 12.9390 -2.7777 -3.9311 1.9265 44.5007
#
#
#
# Elastic Compliance Matrix: (Units=1/GPa)
#
#
# Indices 1 2 3 4 5 6 
#
# 1 0.015612 -0.002908 -0.005427 -0.001841 -0.006515 -0.002696
# 2 -0.002908 0.010179 -0.004400 -0.001952 0.000636 -0.002815
# 3 -0.005427 -0.004400 0.016444 0.001543 0.003272 0.003455
# 4 -0.001841 -0.001952 0.001543 0.030275 0.003473 0.003580
# 5 -0.006515 0.000636 0.003272 0.003473 0.024134 0.000668
# 6 -0.002696 -0.002815 0.003455 0.003580 0.000668 0.024367
#
#
# Mechanical properties :
#
#
# Convention : Reuss Voigt Hill
#
# Bulk Modulus (GPa) = 59.65103 64.80690 62.22896
# Shear Modulus (GPa) = 32.87985 37.85895 35.36940
#
# Velocity S-wave (km/s) = 3.72063 3.99241 3.85891
# Velocity P-wave (km/s) = 6.60088 6.96688 6.78635
#
# Compressibility (1/GPa) = 0.01676417
#
# Stress axis : x y z
#
# Youngs Moduli (GPa) = 64.05175 98.24468 60.81375
#
# Poissons Ratio (x) = 0.28569 0.33006
# Poissons Ratio (y) = 0.18626 0.26758
# Poissons Ratio (z) = 0.34764 0.43227
#
# Static dielectric constant tensor:
#      x y z
#    x 4.483900 0.034640 0.214590 
#    y 0.034640 4.497770 -0.052960 
#    z 0.214590 -0.052960 4.302130 
# 
# 
# High freq. dielectric constant tensor:
#      x y z
#    x 1.963910 0.006730 0.006400 
#    y 0.006730 1.942610 0.002980 
#    z 0.006400 0.002980 1.938230 
# 
# From -- ./inp_files/312352.got.cif
#   From: 2010.06.25/outbox.cif.g09.slc.cpg/sg2_157_cif.got.tgz:312352.got - 2010.06.27 13:26:56.
