data_PCOD8034436
_publ_section_title
;
Structure prediction by ZEFSAII (Michael W. Deem and Ramdas Pophale) SiO2 
 PCOD8034436
Probable space group: P -1
;
_chemical_formula_sum "Si O2"
_cell_formula_units_Z 14
_cell_length_a 13.778811
_cell_length_b 8.250677
_cell_length_c 11.089867
_cell_angle_alpha 61.289326
_cell_angle_beta 115.863730
_cell_angle_gamma 147.242973
_cell_volume 596.912043
_symmetry_space_group_name_H-M "P -1"
_symmetry_group_IT_number 2
_symmetry_cell_setting 'triclinic'
loop_
_space_group_symop_operation_xyz
x,y,z
-x,-y,-z
loop_
_atom_site_type_symbol
_atom_site_label
_atom_site_fract_x
_atom_site_fract_y
_atom_site_fract_z
Si Si1 0.853547 0.957443 0.447222
Si Si2 0.145700 0.835322 0.397040
Si Si3 0.506074 0.031905 0.282758
Si Si4 0.559828 0.313274 0.431821
Si Si5 0.639271 0.847229 0.993048
Si Si6 0.745775 0.142102 0.190991
Si Si7 0.974954 0.183956 0.919376
O O1 0.660753 0.640989 0.396787
O O2 0.832148 0.959549 0.576552
O O3 0.893636 0.203835 0.308347
O O4 0.000000 0.000000 0.500000
O O5 0.082369 0.826899 0.238970
O O6 0.000000 0.500000 0.500000
O O7 0.342959 0.019563 0.420826
O O8 0.625248 0.328660 0.330063
O O9 0.391288 0.000649 0.143571
O O10 0.621126 0.040940 0.268334
O O11 0.377137 0.741309 0.408369
O O12 0.834879 0.041057 0.998243
O O13 0.500000 0.500000 0.000000
O O14 0.629466 0.878795 0.118809
O O15 0.843513 0.456701 0.075831
O O16 0.000000 0.000000 0.000000
#
# Coordination Sequence:
#
# PCOD8034436 Si02
#       7
#     2   2   2   2   2   2   2
#     4  12  29  42  75 111 148 193 252 307 375 446
#     4  12  25  50  78 108 151 197 251 311 375 444
#     4  11  24  44  76 101 145 190 252 299 375 430
#     4  11  25  46  74 108 146 193 251 313 371 441
#     4  12  27  47  74 106 148 196 249 304 378 452
#     4  12  27  48  72 105 151 194 249 309 376 450
#     4  12  28  48  75 110 151 198 248 310 379 447
#
# _framework density 23.454042000000001
#
# number of rings (size 3 to 8) (size 9 to 14) (size 15 to 20)
#    0.000    0.286    4.286    3.000   10.000    1.143 
#    0.000    0.000    0.000    0.000    0.000    0.000 
#    0.000    0.000    0.000    0.000    0.000    0.000 
#
# Total GULP energy -173526.744938 kJ/mol
# GULP energy per Si atom -12394.767496 kJ/mol
# Density = 2.340066 g / cm^3
# Si number density = 23.454042 Si / 1000 Ang^3
#
#
#
# Elastic Constant Matrix: (Units=GPa)
#
#
# Indices 1 2 3 4 5 6 
#
# 1 169.9009 43.0911 59.2855 10.7803 -9.8040 -17.1826
# 2 43.0911 111.1969 21.1448 6.7203 -12.4342 -17.2461
# 3 59.2855 21.1448 116.7840 8.5030 0.3017 -5.3488
# 4 10.7803 6.7203 8.5030 30.7036 -12.9282 -6.4567
# 5 -9.8040 -12.4342 0.3017 -12.9282 58.9369 9.7776
# 6 -17.1826 -17.2461 -5.3488 -6.4567 9.7776 36.8509
#
#
#
# Elastic Compliance Matrix: (Units=1/GPa)
#
#
# Indices 1 2 3 4 5 6 
#
# 1 0.007884 -0.001989 -0.003496 -0.000773 0.000409 0.001994
# 2 -0.001989 0.010610 -0.000742 -0.000124 0.001293 0.003566
# 3 -0.003496 -0.000742 0.010609 -0.002151 -0.001181 -0.000501
# 4 -0.000773 -0.000124 -0.002151 0.037399 0.007421 0.003853
# 5 0.000409 0.001293 -0.001181 0.007421 0.019480 -0.003244
# 6 0.001994 0.003566 -0.000501 0.003853 -0.003244 0.031198
#
#
# Mechanical properties :
#
#
# Convention : Reuss Voigt Hill
#
# Bulk Modulus (GPa) = 60.06426 71.65828 65.86127
# Shear Modulus (GPa) = 36.98681 43.58897 40.28789
#
# Velocity S-wave (km/s) = 3.97544 4.31569 4.14906
# Velocity P-wave (km/s) = 6.83646 7.44665 7.14807
#
# Compressibility (1/GPa) = 0.01664884
#
# Stress axis : x y z
#
# Youngs Moduli (GPa) = 126.83277 94.25071 94.26310
#
# Poissons Ratio (x) = 0.18745 0.32953
# Poissons Ratio (y) = 0.25225 0.06998
# Poissons Ratio (z) = 0.44339 0.06997
#
# Static dielectric constant tensor:
#      x y z
#    x 4.443620 -0.333050 -0.072290 
#    y -0.333050 4.274570 -0.015000 
#    z -0.072290 -0.015000 4.500570 
# 
# 
# High freq. dielectric constant tensor:
#      x y z
#    x 1.944770 -0.023770 -0.003140 
#    y -0.023770 1.918080 0.002310 
#    z -0.003140 0.002310 1.941460 
# 
# From -- ./inp_files/445664.got.cif
#   From: 2010.06.25/outbox.cif.g09.slc.cpg/sg2_223_cif.got.tgz:445664.got - 2010.06.27 13:26:56.
