data_PCOD8034101
_publ_section_title
;
Structure prediction by ZEFSAII (Michael W. Deem and Ramdas Pophale) SiO2 
 PCOD8034101
Probable space group: P -1
;
_chemical_formula_sum "Si O2"
_cell_formula_units_Z 14
_cell_length_a 8.848064
_cell_length_b 9.574857
_cell_length_c 15.036147
_cell_angle_alpha 109.526801
_cell_angle_beta 64.250474
_cell_angle_gamma 149.081130
_cell_volume 587.500170
_symmetry_space_group_name_H-M "P -1"
_symmetry_group_IT_number 2
_symmetry_cell_setting 'triclinic'
loop_
_space_group_symop_operation_xyz
x,y,z
-x,-y,-z
loop_
_atom_site_type_symbol
_atom_site_label
_atom_site_fract_x
_atom_site_fract_y
_atom_site_fract_z
Si Si1 0.209278 0.525447 0.991010
Si Si2 0.573010 0.305792 0.725557
Si Si3 0.491217 0.415356 0.231127
Si Si4 0.644820 0.908268 0.456894
Si Si5 0.016395 0.642304 0.414107
Si Si6 0.212226 0.013856 0.936310
Si Si7 0.020726 0.125599 0.658886
O O1 0.286968 0.471110 0.880248
O O2 0.525728 0.811117 0.017746
O O3 0.000000 0.500000 0.000000
O O4 0.009982 0.292590 0.066468
O O5 0.674124 0.552851 0.747588
O O6 0.382013 0.114773 0.647142
O O7 0.875869 0.427150 0.677670
O O8 0.356775 0.118520 0.824724
O O9 0.685808 0.585866 0.306404
O O10 0.242763 0.103586 0.249080
O O11 0.890658 0.962051 0.431638
O O12 0.335926 0.636851 0.530186
O O13 0.782926 0.171829 0.507696
O O14 0.096009 0.841280 0.374464
O O15 0.000000 0.000000 0.000000
#
# Coordination Sequence:
#
# PCOD8034101 Si02
#       7
#     2   2   2   2   2   2   2
#     4  12  28  47  77 104 152 184 243 299 362 425
#     4  11  27  44  73 101 144 182 238 288 359 421
#     4  11  25  45  68 102 142 188 228 287 364 422
#     4  11  24  45  66 102 140 185 227 294 356 416
#     4  12  25  43  71 102 137 182 241 290 346 419
#     4  12  27  50  75 111 144 191 239 297 360 436
#     4  11  24  43  72  99 138 185 234 289 352 425
#
# _framework density 23.829778999999998
#
# number of rings (size 3 to 8) (size 9 to 14) (size 15 to 20)
#    0.000    0.571    1.429    6.000    6.000    4.571 
#    0.000    0.000    0.000    0.000    0.000    0.000 
#    0.000    0.000    0.000    0.000    0.000    0.000 
#
# Total GULP energy -173669.635045 kJ/mol
# GULP energy per Si atom -12404.973932 kJ/mol
# Density = 2.377554 g / cm^3
# Si number density = 23.829779 Si / 1000 Ang^3
#
#
#
# Elastic Constant Matrix: (Units=GPa)
#
#
# Indices 1 2 3 4 5 6 
#
# 1 122.5330 18.0031 52.6508 -4.3534 -12.0578 -4.0592
# 2 18.0031 74.8819 7.2154 -12.3963 -3.4831 3.8680
# 3 52.6508 7.2154 129.8440 -7.2901 -10.7012 -6.5001
# 4 -4.3534 -12.3963 -7.2901 34.0347 -11.9024 -3.2942
# 5 -12.0578 -3.4831 -10.7012 -11.9024 29.0771 -5.1390
# 6 -4.0592 3.8680 -6.5001 -3.2942 -5.1390 33.3483
#
#
#
# Elastic Compliance Matrix: (Units=1/GPa)
#
#
# Indices 1 2 3 4 5 6 
#
# 1 0.010466 -0.001866 -0.003711 0.001229 0.003506 0.001429
# 2 -0.001866 0.015061 0.000582 0.006665 0.003866 -0.000607
# 3 -0.003711 0.000582 0.009813 0.003455 0.003971 0.002347
# 4 0.001229 0.006665 0.003455 0.040558 0.020456 0.007209
# 5 0.003506 0.003866 0.003971 0.020456 0.047939 0.010161
# 6 0.001429 -0.000607 0.002347 0.007209 0.010161 0.032966
#
#
# Mechanical properties :
#
#
# Convention : Reuss Voigt Hill
#
# Bulk Modulus (GPa) = 39.44641 53.66638 46.55640
# Shear Modulus (GPa) = 28.53204 35.91800 32.22502
#
# Velocity S-wave (km/s) = 3.46400 3.88657 3.68135
# Velocity P-wave (km/s) = 5.70862 6.53531 6.13590
#
# Compressibility (1/GPa) = 0.02535085
#
# Stress axis : x y z
#
# Youngs Moduli (GPa) = 95.55113 66.39510 101.90984
#
# Poissons Ratio (x) = 0.12389 0.37814
# Poissons Ratio (y) = 0.17829 -0.05932
# Poissons Ratio (z) = 0.35455 -0.03865
#
# Static dielectric constant tensor:
#      x y z
#    x 4.575540 -0.104520 -0.094490 
#    y -0.104520 4.224840 -0.040640 
#    z -0.094490 -0.040640 4.550440 
# 
# 
# High freq. dielectric constant tensor:
#      x y z
#    x 1.956930 -0.002770 -0.003610 
#    y -0.002770 1.946150 -0.008000 
#    z -0.003610 -0.008000 1.954680 
# 
# From -- ./inp_files/328262.got.cif
#   From: 2010.06.25/outbox.cif.g09.slc.cpg/sg2_165_cif.got.tgz:328262.got - 2010.06.27 13:26:56.
