data_PCOD8034697
_publ_section_title
;
Structure prediction by ZEFSAII (Michael W. Deem and Ramdas Pophale) SiO2 
 PCOD8034697
Probable space group: P -1
;
_chemical_formula_sum "Si O2"
_cell_formula_units_Z 16
_cell_length_a 7.828412
_cell_length_b 22.201471
_cell_length_c 11.676332
_cell_angle_alpha 159.927782
_cell_angle_beta 109.151436
_cell_angle_gamma 70.815093
_cell_volume 656.628352
_symmetry_space_group_name_H-M "P -1"
_symmetry_group_IT_number 2
_symmetry_cell_setting 'triclinic'
loop_
_space_group_symop_operation_xyz
x,y,z
-x,-y,-z
loop_
_atom_site_type_symbol
_atom_site_label
_atom_site_fract_x
_atom_site_fract_y
_atom_site_fract_z
Si Si1 0.066584 0.195208 0.878189
Si Si2 0.331116 0.610693 0.108698
Si Si3 0.988469 0.801964 0.876553
Si Si4 0.288657 0.958072 0.122675
Si Si5 0.569738 0.710562 0.148380
Si Si6 0.471651 0.292514 0.121720
Si Si7 0.049340 0.458804 0.147885
Si Si8 0.701658 0.039637 0.131353
O O1 0.990521 0.261566 0.102196
O O2 0.278787 0.221186 0.981848
O O3 0.000000 0.000000 0.500000
O O4 0.992716 0.313729 0.968926
O O5 0.400343 0.621651 0.011286
O O6 0.284552 0.794401 0.488558
O O7 0.500000 0.500000 0.000000
O O8 0.142327 0.514718 0.914875
O O9 0.083577 0.643268 0.541792
O O10 0.101846 0.974227 0.183264
O O11 0.788359 0.865447 0.903644
O O12 0.398642 0.128259 0.471806
O O13 0.396475 0.788212 0.897117
O O14 0.227336 0.930162 0.928044
O O15 0.493942 0.772163 0.117526
O O16 0.764754 0.596577 0.978548
O O17 0.500000 0.500000 0.500000
O O18 0.500000 0.000000 0.000000
#
# Coordination Sequence:
#
# PCOD8034697 Si02
#       8
#     2   2   2   2   2   2   2   2
#     4  11  24  45  75 107 145 192 244 303 375 435
#     4  12  28  46  77 104 147 194 241 303 361 443
#     4  12  26  45  74 106 144 193 237 309 367 433
#     4  12  25  45  74 104 146 188 243 304 363 440
#     4  11  26  48  73 110 142 194 243 296 376 428
#     4  11  26  45  75 110 146 186 245 312 362 439
#     4  11  27  47  72 108 149 186 245 305 361 438
#     4  12  25  48  70 106 144 191 248 291 369 442
#
# _framework density 24.366904999999999
#
# number of rings (size 3 to 8) (size 9 to 14) (size 15 to 20)
#    0.000    0.500    1.250    7.125    8.750    0.500 
#    0.000    0.000    0.000    0.000    0.000    0.000 
#    0.000    0.000    0.000    0.000    0.000    0.000 
#
# Total GULP energy -198217.508304 kJ/mol
# GULP energy per Si atom -12388.594269 kJ/mol
# Density = 2.431144 g / cm^3
# Si number density = 24.366905 Si / 1000 Ang^3
#
#
#
# Elastic Constant Matrix: (Units=GPa)
#
#
# Indices 1 2 3 4 5 6 
#
# 1 103.9280 6.2622 23.0662 -11.3598 4.1403 2.0445
# 2 6.2622 77.7087 16.0915 -8.4306 -18.7929 3.1023
# 3 23.0662 16.0915 106.0977 -3.0978 -8.7789 -2.4085
# 4 -11.3598 -8.4306 -3.0978 38.7332 -1.1843 -9.7986
# 5 4.1403 -18.7929 -8.7789 -1.1843 41.3122 -4.0428
# 6 2.0445 3.1023 -2.4085 -9.7986 -4.0428 47.8477
#
#
#
# Elastic Compliance Matrix: (Units=1/GPa)
#
#
# Indices 1 2 3 4 5 6 
#
# 1 0.010524 -0.000487 -0.002278 0.002716 -0.001694 -0.000120
# 2 -0.000487 0.015211 -0.001541 0.003303 0.006755 0.000204
# 3 -0.002278 -0.001541 0.010327 0.000103 0.001812 0.000891
# 4 0.002716 0.003303 0.000103 0.028894 0.002650 0.005816
# 5 -0.001694 0.006755 0.001812 0.002650 0.028169 0.002648
# 6 -0.000120 0.000204 0.000891 0.005816 0.002648 0.022351
#
#
# Mechanical properties :
#
#
# Convention : Reuss Voigt Hill
#
# Bulk Modulus (GPa) = 36.42857 42.06381 39.24619
# Shear Modulus (GPa) = 37.52722 41.73294 39.63008
#
# Velocity S-wave (km/s) = 3.92866 4.14295 4.03723
# Velocity P-wave (km/s) = 5.96335 6.33921 6.15415
#
# Compressibility (1/GPa) = 0.02745098
#
# Stress axis : x y z
#
# Youngs Moduli (GPa) = 95.02436 65.74284 96.83007
#
# Poissons Ratio (x) = 0.03199 0.22055
# Poissons Ratio (y) = 0.04624 0.14923
# Poissons Ratio (z) = 0.21643 0.10132
#
# Static dielectric constant tensor:
#      x y z
#    x 4.706130 -0.062780 0.178910 
#    y -0.062780 4.686220 0.348890 
#    z 0.178910 0.348890 4.268010 
# 
# 
# High freq. dielectric constant tensor:
#      x y z
#    x 1.989030 -0.000730 0.009510 
#    y -0.000730 1.974450 -0.008290 
#    z 0.009510 -0.008290 1.965650 
# 
# From -- ./inp_files/406846.got.cif
#   From: 2010.06.25/outbox.cif.g09.slc.cpg/sg2_204_cif.got.tgz:406846.got - 2010.06.27 13:26:56.
