data_PCOD8034026
_publ_section_title
;
Structure prediction by ZEFSAII (Michael W. Deem and Ramdas Pophale) SiO2 
 PCOD8034026
Probable space group: P -1
;
_chemical_formula_sum "Si O2"
_cell_formula_units_Z 12
_cell_length_a 8.772807
_cell_length_b 13.129503
_cell_length_c 10.848315
_cell_angle_alpha 143.702075
_cell_angle_beta 80.474414
_cell_angle_gamma 74.532803
_cell_volume 531.307993
_symmetry_space_group_name_H-M "P -1"
_symmetry_group_IT_number 2
_symmetry_cell_setting 'triclinic'
loop_
_space_group_symop_operation_xyz
x,y,z
-x,-y,-z
loop_
_atom_site_type_symbol
_atom_site_label
_atom_site_fract_x
_atom_site_fract_y
_atom_site_fract_z
Si Si1 0.704599 0.269382 0.369698
Si Si2 0.873810 0.137052 0.958506
Si Si3 0.482317 0.735561 0.002312
Si Si4 0.526266 0.912302 0.774292
Si Si5 0.894797 0.479043 0.169058
Si Si6 0.332633 0.280820 0.811595
O O1 0.612271 0.150996 0.292430
O O2 0.568871 0.517221 0.694769
O O3 0.713102 0.304904 0.257128
O O4 0.933433 0.110544 0.247297
O O5 0.769386 0.088536 0.822688
O O6 0.947243 0.251845 0.991794
O O7 0.548486 0.664557 0.067445
O O8 0.562115 0.866372 0.083953
O O9 0.774354 0.683811 0.489122
O O10 0.500000 0.000000 0.000000
O O11 0.728036 0.592234 0.187872
O O12 0.115352 0.393962 0.018358
O O13 0.500000 0.000000 0.500000
#
# Coordination Sequence:
#
# PCOD8034026 Si02
#       6
#     2   2   2   2   2   2
#     4  11  25  45  66 107 147 180 229 286 356 420
#     4  11  24  43  70 103 144 181 232 290 348 424
#     4  12  24  43  72  99 140 187 231 287 346 413
#     4  12  23  43  76 104 144 183 224 287 356 420
#     4  11  25  46  73 103 142 185 239 290 349 415
#     4  11  26  47  72 101 139 190 243 291 344 414
#
# _framework density 22.585768999999999
#
# number of rings (size 3 to 8) (size 9 to 14) (size 15 to 20)
#    0.000    0.667    5.000    2.500    2.333    0.667 
#    0.000    5.833    0.000    0.000    0.000    0.000 
#    0.000    0.000    0.000    0.000    0.000    0.000 
#
# Total GULP energy -148775.496428 kJ/mol
# GULP energy per Si atom -12397.958036 kJ/mol
# Density = 2.253436 g / cm^3
# Si number density = 22.585769 Si / 1000 Ang^3
#
#
#
# Elastic Constant Matrix: (Units=GPa)
#
#
# Indices 1 2 3 4 5 6 
#
# 1 95.1525 25.4199 41.7393 -10.0471 9.7644 -14.0748
# 2 25.4199 97.5564 27.4249 -2.8616 3.2075 -17.0358
# 3 41.7393 27.4249 82.6297 -11.4124 -0.7430 -10.7999
# 4 -10.0471 -2.8616 -11.4124 27.7146 10.6699 5.5768
# 5 9.7644 3.2075 -0.7430 10.6699 35.8677 4.4062
# 6 -14.0748 -17.0358 -10.7999 5.5768 4.4062 50.7773
#
#
#
# Elastic Compliance Matrix: (Units=1/GPa)
#
#
# Indices 1 2 3 4 5 6 
#
# 1 0.015039 -0.001430 -0.006249 0.004454 -0.005711 0.002366
# 2 -0.001430 0.012018 -0.002969 -0.000791 -0.000901 0.003169
# 3 -0.006249 -0.002969 0.016830 0.003858 0.001127 0.000330
# 4 0.004454 -0.000791 0.003858 0.045071 -0.014233 -0.001925
# 5 -0.005711 -0.000901 0.001127 -0.014233 0.034147 -0.003045
# 6 0.002366 0.003169 0.000330 -0.001925 -0.003045 0.021959
#
#
# Mechanical properties :
#
#
# Convention : Reuss Voigt Hill
#
# Bulk Modulus (GPa) = 44.26797 51.61190 47.93994
# Shear Modulus (GPa) = 28.75366 34.92222 31.83794
#
# Velocity S-wave (km/s) = 3.57191 3.93645 3.75860
# Velocity P-wave (km/s) = 6.05424 6.60015 6.33308
#
# Compressibility (1/GPa) = 0.02258969
#
# Stress axis : x y z
#
# Youngs Moduli (GPa) = 66.49350 83.21054 59.41616
#
# Poissons Ratio (x) = 0.11902 0.37129
# Poissons Ratio (y) = 0.09511 0.17643
# Poissons Ratio (z) = 0.41552 0.24708
#
# Static dielectric constant tensor:
#      x y z
#    x 4.728130 -0.276890 0.001830 
#    y -0.276890 4.518910 -0.071750 
#    z 0.001830 -0.071750 4.114440 
# 
# 
# High freq. dielectric constant tensor:
#      x y z
#    x 1.888040 -0.013990 -0.005540 
#    y -0.013990 1.906950 0.003750 
#    z -0.005540 0.003750 1.891320 
# 
# From -- ./inp_files/309289.got.cif
#   From: 2010.06.25/outbox.cif.g09.slc.cpg/sg2_155_cif.got.tgz:309289.got - 2010.06.27 13:26:56.
