data_PCOD8034116
_publ_section_title
;
Structure prediction by ZEFSAII (Michael W. Deem and Ramdas Pophale) SiO2 
 PCOD8034116
Probable space group: P -1
;
_chemical_formula_sum "Si O2"
_cell_formula_units_Z 16
_cell_length_a 17.885020
_cell_length_b 9.672954
_cell_length_c 11.306543
_cell_angle_alpha 81.584422
_cell_angle_beta 129.551935
_cell_angle_gamma 139.651509
_cell_volume 716.876669
_symmetry_space_group_name_H-M "P -1"
_symmetry_group_IT_number 2
_symmetry_cell_setting 'triclinic'
loop_
_space_group_symop_operation_xyz
x,y,z
-x,-y,-z
loop_
_atom_site_type_symbol
_atom_site_label
_atom_site_fract_x
_atom_site_fract_y
_atom_site_fract_z
Si Si1 0.430816 0.675177 0.162342
Si Si2 0.108927 0.783803 0.102006
Si Si3 0.261267 0.384043 0.470153
Si Si4 0.512140 0.168292 0.543861
Si Si5 0.658909 0.744384 0.901366
Si Si6 0.060795 0.943045 0.644844
Si Si7 0.998210 0.784427 0.218501
Si Si8 0.146540 0.805389 0.570306
O O1 0.456773 0.802066 0.288954
O O2 0.406139 0.481416 0.201210
O O3 0.615180 0.932926 0.223415
O O4 0.223242 0.464166 0.919484
O O5 0.979298 0.714720 0.070715
O O6 0.316531 0.013755 0.346145
O O7 0.157216 0.939548 0.015961
O O8 0.000000 0.500000 0.000000
O O9 0.306306 0.525394 0.378733
O O10 0.459513 0.589709 0.719752
O O11 0.130603 0.322533 0.428943
O O12 0.132829 0.090389 0.334521
O O13 0.500000 0.000000 0.500000
O O14 0.734481 0.793477 0.102237
O O15 0.100059 0.872029 0.601541
O O16 0.000000 0.000000 0.500000
O O17 0.094774 0.778106 0.386998
O O18 0.000000 0.500000 0.500000
#
# Coordination Sequence:
#
# PCOD8034116 Si02
#       8
#     2   2   2   2   2   2   2   2
#     4  12  24  45  72 101 136 185 235 291 355 417
#     4  11  25  42  69 107 148 182 227 290 359 423
#     4  11  24  44  70 107 137 186 235 293 348 417
#     4  11  25  42  70 104 146 181 232 291 355 427
#     4  11  24  43  73 106 138 185 233 293 348 417
#     4  12  25  47  74 101 141 186 244 286 348 428
#     4  12  24  46  71 103 139 183 240 285 359 420
#     4  12  29  48  70  99 146 190 229 303 349 426
#
# _framework density 22.319043000000001
#
# number of rings (size 3 to 8) (size 9 to 14) (size 15 to 20)
#    0.000    0.500    5.000    1.500    7.000    6.500 
#    0.000    0.000    0.000    0.000    0.000    0.000 
#    0.000    0.000    0.000    0.000    0.000    0.000 
#
# Total GULP energy -198366.339355 kJ/mol
# GULP energy per Si atom -12397.896210 kJ/mol
# Density = 2.226824 g / cm^3
# Si number density = 22.319043 Si / 1000 Ang^3
#
#
#
# Elastic Constant Matrix: (Units=GPa)
#
#
# Indices 1 2 3 4 5 6 
#
# 1 143.6879 48.7066 46.7443 13.5169 2.0992 12.9654
# 2 48.7066 134.4665 41.0858 32.1675 -9.1021 2.3625
# 3 46.7443 41.0858 96.0036 11.8572 4.0530 7.6562
# 4 13.5169 32.1675 11.8572 33.9787 8.0003 5.1015
# 5 2.0992 -9.1021 4.0530 8.0003 42.2009 7.6354
# 6 12.9654 2.3625 7.6562 5.1015 7.6354 29.0854
#
#
#
# Elastic Compliance Matrix: (Units=1/GPa)
#
#
# Indices 1 2 3 4 5 6 
#
# 1 0.009032 -0.002293 -0.003193 0.000172 -0.000128 -0.002996
# 2 -0.002293 0.012082 -0.003039 -0.010816 0.004795 0.001479
# 3 -0.003193 -0.003039 0.013449 0.000035 -0.001528 -0.001475
# 4 0.000172 -0.010816 0.000035 0.042481 -0.009652 -0.004125
# 5 -0.000128 0.004795 -0.001528 -0.009652 0.027711 -0.005512
# 6 -0.002996 0.001479 -0.001475 -0.004125 -0.005512 0.038155
#
#
# Mechanical properties :
#
#
# Convention : Reuss Voigt Hill
#
# Bulk Modulus (GPa) = 57.09936 71.91459 64.50698
# Shear Modulus (GPa) = 30.15734 36.89441 33.52587
#
# Velocity S-wave (km/s) = 3.67985 4.07018 3.87992
# Velocity P-wave (km/s) = 6.61013 7.37425 7.00262
#
# Compressibility (1/GPa) = 0.01751333
#
# Stress axis : x y z
#
# Youngs Moduli (GPa) = 110.72269 82.76859 74.35354
#
# Poissons Ratio (x) = 0.18978 0.23742
# Poissons Ratio (y) = 0.25388 0.22593
# Poissons Ratio (z) = 0.35355 0.25150
#
# Static dielectric constant tensor:
#      x y z
#    x 4.169960 0.332930 0.249740 
#    y 0.332930 4.222160 -0.062720 
#    z 0.249740 -0.062720 4.274250 
# 
# 
# High freq. dielectric constant tensor:
#      x y z
#    x 1.890910 0.004090 0.014530 
#    y 0.004090 1.867160 0.004690 
#    z 0.014530 0.004690 1.892270 
# 
# From -- ./inp_files/462150.got.cif
#   From: 2010.06.25/outbox.cif.g09.slc.cpg/sg2_232_cif.got.tgz:462150.got - 2010.06.27 13:26:56.
