data_PCOD8034162
_publ_section_title
;
Structure prediction by ZEFSAII (Michael W. Deem and Ramdas Pophale) SiO2 
 PCOD8034162
Probable space group: P -1
;
_chemical_formula_sum "Si O2"
_cell_formula_units_Z 12
_cell_length_a 8.480997
_cell_length_b 11.015438
_cell_length_c 8.979300
_cell_angle_alpha 131.599372
_cell_angle_beta 77.212409
_cell_angle_gamma 126.098392
_cell_volume 486.435789
_symmetry_space_group_name_H-M "P -1"
_symmetry_group_IT_number 2
_symmetry_cell_setting 'triclinic'
loop_
_space_group_symop_operation_xyz
x,y,z
-x,-y,-z
loop_
_atom_site_type_symbol
_atom_site_label
_atom_site_fract_x
_atom_site_fract_y
_atom_site_fract_z
Si Si1 0.013139 0.649199 0.383701
Si Si2 0.588235 0.322228 0.700643
Si Si3 0.001292 0.033461 0.203591
Si Si4 0.790460 0.066564 0.684237
Si Si5 0.581365 0.665908 0.963937
Si Si6 0.627438 0.208633 0.054223
O O1 0.223447 0.678514 0.379228
O O2 0.018519 0.757675 0.315450
O O3 0.980291 0.761418 0.611978
O O4 0.830993 0.409008 0.246979
O O5 0.594689 0.494914 0.748070
O O6 0.379377 0.105311 0.531096
O O7 0.595305 0.402725 0.933183
O O8 0.157982 0.026267 0.267909
O O9 0.000000 0.000000 0.000000
O O10 0.785310 0.840069 0.149170
O O11 0.695201 0.172256 0.855180
O O12 0.536227 0.748887 0.898052
O O13 0.500000 0.000000 0.000000
#
# Coordination Sequence:
#
# PCOD8034162 Si02
#       6
#     2   2   2   2   2   2
#     4  12  25  48  77 110 148 197 254 301 367 439
#     4  11  24  43  78 112 143 188 247 311 350 436
#     4  12  27  46  74 111 154 195 244 308 377 438
#     4  12  24  46  76 111 148 196 252 299 365 442
#     4  11  24  44  70 111 152 187 246 299 367 432
#     4  12  27  46  74 110 154 196 243 308 374 439
#
# _framework density 24.669238
#
# number of rings (size 3 to 8) (size 9 to 14) (size 15 to 20)
#    0.000    0.333    3.333    5.500    4.667    1.333 
#    0.000    8.333    0.000    0.000    0.000    0.000 
#    0.000    0.000    0.000    0.000    0.000    0.000 
#
# Total GULP energy -148675.153375 kJ/mol
# GULP energy per Si atom -12389.596115 kJ/mol
# Density = 2.461309 g / cm^3
# Si number density = 24.669238 Si / 1000 Ang^3
#
#
#
# Elastic Constant Matrix: (Units=GPa)
#
#
# Indices 1 2 3 4 5 6 
#
# 1 145.9288 42.2212 42.1369 7.7718 -14.3502 -21.8443
# 2 42.2212 127.1810 68.6050 23.4754 1.6993 -6.9304
# 3 42.1369 68.6050 148.5237 13.0970 -24.9624 0.1002
# 4 7.7718 23.4754 13.0970 50.4432 2.4970 4.6117
# 5 -14.3502 1.6993 -24.9624 2.4970 43.0608 12.4375
# 6 -21.8443 -6.9304 0.1002 4.6117 12.4375 34.6469
#
#
#
# Elastic Compliance Matrix: (Units=1/GPa)
#
#
# Indices 1 2 3 4 5 6 
#
# 1 0.008610 -0.001666 -0.001507 -0.000645 0.000671 0.004945
# 2 -0.001666 0.012677 -0.005923 -0.004204 -0.005401 0.004001
# 3 -0.001507 -0.005923 0.011165 0.000163 0.007617 -0.004923
# 4 -0.000645 -0.004204 0.000163 0.022223 -0.000032 -0.004195
# 5 0.000671 -0.005401 0.007617 -0.000032 0.031542 -0.011998
# 6 0.004945 0.004001 -0.004923 -0.004195 -0.011998 0.037660
#
#
# Mechanical properties :
#
#
# Convention : Reuss Voigt Hill
#
# Bulk Modulus (GPa) = 70.11961 80.83996 75.47979
# Shear Modulus (GPa) = 34.05469 43.54154 38.79811
#
# Velocity S-wave (km/s) = 3.71947 4.20576 3.97007
# Velocity P-wave (km/s) = 6.85066 7.51168 7.18877
#
# Compressibility (1/GPa) = 0.01426135
#
# Stress axis : x y z
#
# Youngs Moduli (GPa) = 116.13950 78.88441 89.56307
#
# Poissons Ratio (x) = 0.13141 0.13497
# Poissons Ratio (y) = 0.19348 0.53045
# Poissons Ratio (z) = 0.17502 0.46720
#
# Static dielectric constant tensor:
#      x y z
#    x 4.650300 0.048160 -0.389270 
#    y 0.048160 4.466910 0.174350 
#    z -0.389270 0.174350 4.490170 
# 
# 
# High freq. dielectric constant tensor:
#      x y z
#    x 1.991000 -0.003670 -0.019730 
#    y -0.003670 1.979370 0.014790 
#    z -0.019730 0.014790 1.986080 
# 
# From -- ./inp_files/147635.got.cif
#   From: 2010.06.25/outbox.cif.g09.slc.cpg/sg2_74_cif.got.tgz:147635.got - 2010.06.27 13:26:56.
