data_PCOD8034786
_publ_section_title
;
Structure prediction by ZEFSAII (Michael W. Deem and Ramdas Pophale) SiO2 
 PCOD8034786
Probable space group: P -1
;
_chemical_formula_sum "Si O2"
_cell_formula_units_Z 16
_cell_length_a 8.811365
_cell_length_b 22.644229
_cell_length_c 19.800477
_cell_angle_alpha 160.234387
_cell_angle_beta 149.448285
_cell_angle_gamma 29.895117
_cell_volume 641.385193
_symmetry_space_group_name_H-M "P -1"
_symmetry_group_IT_number 2
_symmetry_cell_setting 'triclinic'
loop_
_space_group_symop_operation_xyz
x,y,z
-x,-y,-z
loop_
_atom_site_type_symbol
_atom_site_label
_atom_site_fract_x
_atom_site_fract_y
_atom_site_fract_z
Si Si1 0.207731 0.541691 0.565445
Si Si2 0.917240 0.131988 0.674721
Si Si3 0.163971 0.341980 0.194275
Si Si4 0.139649 0.856813 0.791818
Si Si5 0.719320 0.190130 0.932578
Si Si6 0.259700 0.433490 0.116388
Si Si7 0.218168 0.284024 0.604497
Si Si8 0.812937 0.826607 0.376120
O O1 0.236260 0.422976 0.380504
O O2 0.046868 0.756123 0.712140
O O3 0.564960 0.510490 0.692447
O O4 0.000000 0.500000 0.500000
O O5 0.552391 0.263514 0.674943
O O6 0.985722 0.982647 0.602949
O O7 0.000000 0.000000 0.500000
O O8 0.131406 0.264647 0.904396
O O9 0.483010 0.202491 0.134534
O O10 0.988994 0.498249 0.240664
O O11 0.928451 0.229112 0.995177
O O12 0.994720 0.814680 0.621247
O O13 0.951237 0.075798 0.959041
O O14 0.495241 0.091256 0.702566
O O15 0.508157 0.376399 0.088897
O O16 0.999253 0.624237 0.198511
O O17 0.286069 0.199854 0.614772
#
# Coordination Sequence:
#
# PCOD8034786 Si02
#       8
#     2   2   2   2   2   2   2   2
#     4  11  24  47  74  99 140 190 237 297 355 423
#     4  12  26  45  74 109 147 188 234 300 360 427
#     4  11  24  46  75 100 141 194 238 297 359 422
#     4  11  24  46  70 105 145 184 243 296 361 423
#     4  12  25  44  71 106 148 185 239 303 356 427
#     4  12  26  47  72 112 139 191 244 288 367 431
#     4  11  24  48  72 105 146 188 240 297 355 433
#     4  12  26  47  76 105 150 190 238 296 365 426
#
# _framework density 24.946007000000002
#
# number of rings (size 3 to 8) (size 9 to 14) (size 15 to 20)
#    0.000    0.500    3.750    4.875    1.750    4.500 
#    4.500    0.000    0.000    0.000    0.000    0.000 
#    0.000    0.000    0.000    0.000    0.000    0.000 
#
# Total GULP energy -198336.649361 kJ/mol
# GULP energy per Si atom -12396.040585 kJ/mol
# Density = 2.488923 g / cm^3
# Si number density = 24.946007 Si / 1000 Ang^3
#
#
#
# Elastic Constant Matrix: (Units=GPa)
#
#
# Indices 1 2 3 4 5 6 
#
# 1 127.5781 56.8705 22.5875 5.4414 25.8177 -4.4425
# 2 56.8705 143.1505 30.0056 9.7364 19.6526 -1.1731
# 3 22.5875 30.0056 88.5188 -2.0716 32.6246 -3.7785
# 4 5.4414 9.7364 -2.0716 32.0881 5.0833 3.7602
# 5 25.8177 19.6526 32.6246 5.0833 42.7994 5.4738
# 6 -4.4425 -1.1731 -3.7785 3.7602 5.4738 45.9092
#
#
#
# Elastic Compliance Matrix: (Units=1/GPa)
#
#
# Indices 1 2 3 4 5 6 
#
# 1 0.010440 -0.003521 0.000553 -0.000013 -0.005305 0.001599
# 2 -0.003521 0.009004 -0.002188 -0.002255 -0.000063 -0.000099
# 3 0.000553 -0.002188 0.016850 0.003394 -0.012914 0.002646
# 4 -0.000013 -0.002255 0.003394 0.033118 -0.005238 -0.001868
# 5 -0.005305 -0.000063 -0.012914 -0.005238 0.037783 -0.005654
# 6 0.001599 -0.000099 0.002646 -0.001868 -0.005654 0.022979
#
#
# Mechanical properties :
#
#
# Convention : Reuss Voigt Hill
#
# Bulk Modulus (GPa) = 38.48818 64.24164 51.36491
# Shear Modulus (GPa) = 33.52397 40.81160 37.16778
#
# Velocity S-wave (km/s) = 3.66985 4.04913 3.86415
# Velocity P-wave (km/s) = 5.78093 6.90426 6.36742
#
# Compressibility (1/GPa) = 0.02598201
#
# Stress axis : x y z
#
# Youngs Moduli (GPa) = 95.78626 111.05944 59.34842
#
# Poissons Ratio (x) = 0.39105 -0.03281
# Poissons Ratio (y) = 0.33727 0.12983
# Poissons Ratio (z) = -0.05295 0.24296
#
# Static dielectric constant tensor:
#      x y z
#    x 4.507220 0.009600 0.185170 
#    y 0.009600 4.972240 0.236810 
#    z 0.185170 0.236810 4.549380 
# 
# 
# High freq. dielectric constant tensor:
#      x y z
#    x 1.999810 -0.000790 0.008250 
#    y -0.000790 2.009390 0.008880 
#    z 0.008250 0.008880 1.987650 
# 
# From -- ./inp_files/592003.got.cif
#   From: 2010.06.25/outbox.cif.g09.slc.cpg/sg2_297_cif.got.tgz:592003.got - 2010.06.27 13:26:56.
