data_PCOD8034598
_publ_section_title
;
Structure prediction by ZEFSAII (Michael W. Deem and Ramdas Pophale) SiO2 
 PCOD8034598
Probable space group: P -1
;
_chemical_formula_sum "Si O2"
_cell_formula_units_Z 12
_cell_length_a 14.182761
_cell_length_b 12.018316
_cell_length_c 7.294694
_cell_angle_alpha 130.990233
_cell_angle_beta 117.100111
_cell_angle_gamma 29.960825
_cell_volume 447.268031
_symmetry_space_group_name_H-M "P -1"
_symmetry_group_IT_number 2
_symmetry_cell_setting 'triclinic'
loop_
_space_group_symop_operation_xyz
x,y,z
-x,-y,-z
loop_
_atom_site_type_symbol
_atom_site_label
_atom_site_fract_x
_atom_site_fract_y
_atom_site_fract_z
Si Si1 0.555180 0.377966 0.204375
Si Si2 0.216944 0.169913 0.148932
Si Si3 0.205965 0.424155 0.702549
Si Si4 0.713888 0.719319 0.972085
Si Si5 0.149297 0.762891 0.523545
Si Si6 0.213399 0.753947 0.058115
O O1 0.638408 0.397403 0.453780
O O2 0.323035 0.662280 0.252853
O O3 0.688658 0.255206 0.012228
O O4 0.599198 0.157766 0.062822
O O5 0.287828 0.219912 0.397810
O O6 0.156805 0.305153 0.041117
O O7 0.031805 0.299898 0.206082
O O8 0.292318 0.261130 0.794093
O O9 0.265829 0.520945 0.813154
O O10 0.808658 0.454481 0.709126
O O11 0.500000 0.000000 0.000000
O O12 0.000000 0.000000 0.500000
O O13 0.023896 0.931570 0.786967
#
# Coordination Sequence:
#
# PCOD8034598 Si02
#       6
#     2   2   2   2   2   2
#     4  11  25  45  74 107 135 190 242 290 356 425
#     4  11  25  44  75 103 144 190 238 296 358 428
#     4  11  24  47  71 103 142 192 238 292 361 422
#     4  12  27  47  71 107 146 188 237 298 358 428
#     4  12  25  47  72 102 145 186 234 298 351 424
#     4  11  24  45  72 102 140 184 243 292 351 422
#
# _framework density 26.829550000000001
#
# number of rings (size 3 to 8) (size 9 to 14) (size 15 to 20)
#    0.000    0.667    3.333    3.000    4.667    6.000 
#    3.000    0.000    0.000    0.000    0.000    0.000 
#    0.000    0.000    0.000    0.000    0.000    0.000 
#
# Total GULP energy -148845.335444 kJ/mol
# GULP energy per Si atom -12403.777954 kJ/mol
# Density = 2.676848 g / cm^3
# Si number density = 26.829550 Si / 1000 Ang^3
#
#
#
# Elastic Constant Matrix: (Units=GPa)
#
#
# Indices 1 2 3 4 5 6 
#
# 1 95.3691 24.8469 21.6597 15.1025 20.8782 7.1035
# 2 24.8469 115.8290 39.6618 7.2021 13.2833 13.2959
# 3 21.6597 39.6618 87.6843 6.0507 12.8238 17.9722
# 4 15.1025 7.2021 6.0507 47.7087 2.0336 3.0359
# 5 20.8782 13.2833 12.8238 2.0336 34.8186 2.6095
# 6 7.1035 13.2959 17.9722 3.0359 2.6095 60.9516
#
#
#
# Elastic Compliance Matrix: (Units=1/GPa)
#
#
# Indices 1 2 3 4 5 6 
#
# 1 0.013182 -0.001338 -0.001357 -0.003490 -0.006661 -0.000385
# 2 -0.001338 0.010621 -0.004011 -0.000544 -0.001675 -0.000879
# 3 -0.001357 -0.004011 0.014639 -0.000503 -0.002783 -0.003139
# 4 -0.003490 -0.000544 -0.000503 0.022190 0.001226 -0.000484
# 5 -0.006661 -0.001675 -0.002783 0.001226 0.034275 0.000434
# 6 -0.000385 -0.000879 -0.003139 -0.000484 0.000434 0.017574
#
#
# Mechanical properties :
#
#
# Convention : Reuss Voigt Hill
#
# Bulk Modulus (GPa) = 39.95138 52.35770 46.15454
# Shear Modulus (GPa) = 37.24800 42.87669 40.06235
#
# Velocity S-wave (km/s) = 3.73006 4.00198 3.86841
# Velocity P-wave (km/s) = 5.78569 6.39623 6.09861
#
# Compressibility (1/GPa) = 0.02503042
#
# Stress axis : x y z
#
# Youngs Moduli (GPa) = 75.86054 94.15687 68.31013
#
# Poissons Ratio (x) = 0.12597 0.09270
# Poissons Ratio (y) = 0.10149 0.27398
# Poissons Ratio (z) = 0.10294 0.37764
#
# Static dielectric constant tensor:
#      x y z
#    x 5.620920 0.254160 -0.241350 
#    y 0.254160 4.993140 -0.640250 
#    z -0.241350 -0.640250 4.726350 
# 
# 
# High freq. dielectric constant tensor:
#      x y z
#    x 2.116700 0.002080 -0.013930 
#    y 0.002080 2.103610 -0.012520 
#    z -0.013930 -0.012520 2.073130 
# 
# From -- ./inp_files/166308.got.cif
#   From: 2010.06.25/outbox.cif.g09.slc.cpg/sg2_84_cif.got.tgz:166308.got - 2010.06.27 13:26:56.
