data_PCOD8034517
_publ_section_title
;
Structure prediction by ZEFSAII (Michael W. Deem and Ramdas Pophale) SiO2 
 PCOD8034517
Probable space group: P -1
;
_chemical_formula_sum "Si O2"
_cell_formula_units_Z 16
_cell_length_a 25.269131
_cell_length_b 15.553855
_cell_length_c 9.553949
_cell_angle_alpha 134.401728
_cell_angle_beta 150.264297
_cell_angle_gamma 25.578171
_cell_volume 740.402253
_symmetry_space_group_name_H-M "P -1"
_symmetry_group_IT_number 2
_symmetry_cell_setting 'triclinic'
loop_
_space_group_symop_operation_xyz
x,y,z
-x,-y,-z
loop_
_atom_site_type_symbol
_atom_site_label
_atom_site_fract_x
_atom_site_fract_y
_atom_site_fract_z
Si Si1 0.481950 0.576405 0.197263
Si Si2 0.864987 0.472990 0.740948
Si Si3 0.898541 0.185430 0.374334
Si Si4 0.255370 0.229401 0.415639
Si Si5 0.972054 0.859085 0.672904
Si Si6 0.311503 0.693234 0.380019
Si Si7 0.864891 0.537748 0.315386
Si Si8 0.600496 0.731541 0.678684
O O1 0.658028 0.367966 0.457758
O O2 0.482641 0.720455 0.361486
O O3 0.500000 0.500000 0.000000
O O4 0.291597 0.707251 0.989589
O O5 0.836397 0.359652 0.517618
O O6 0.740460 0.661210 0.554476
O O7 0.783874 0.576650 0.825215
O O8 0.088817 0.296670 0.055080
O O9 0.032620 0.101179 0.457206
O O10 0.000000 0.000000 0.500000
O O11 0.227973 0.301320 0.590320
O O12 0.458279 0.973280 0.591584
O O13 0.995430 0.695499 0.564753
O O14 0.781137 0.085171 0.573883
O O15 0.158810 0.742908 0.032915
O O16 0.500000 0.500000 0.500000
O O17 0.000000 0.500000 0.500000
O O18 0.688134 0.652237 0.946488
#
# Coordination Sequence:
#
# PCOD8034517 Si02
#       8
#     2   2   2   2   2   2   2   2
#     4  12  24  42  67 106 139 177 236 286 347 425
#     4  11  24  46  70  99 146 176 239 290 345 418
#     4  12  24  43  73 104 141 185 228 291 358 418
#     4  11  25  46  70 102 137 193 234 289 349 407
#     4  11  25  46  71  98 146 182 229 297 348 412
#     4  11  24  45  70 101 136 184 231 282 357 418
#     4  12  25  48  71 102 140 185 238 285 348 415
#     4  12  25  45  71 100 140 183 239 291 344 419
#
# _framework density 21.609874999999999
#
# number of rings (size 3 to 8) (size 9 to 14) (size 15 to 20)
#    0.000    0.500    6.250    2.250    0.000    1.000 
#    4.500    0.000    0.000    0.000    0.000    0.000 
#    0.000    0.000    0.000    0.000    0.000    0.000 
#
# Total GULP energy -198404.294158 kJ/mol
# GULP energy per Si atom -12400.268385 kJ/mol
# Density = 2.156069 g / cm^3
# Si number density = 21.609875 Si / 1000 Ang^3
#
#
#
# Elastic Constant Matrix: (Units=GPa)
#
#
# Indices 1 2 3 4 5 6 
#
# 1 110.6233 49.3499 32.7206 0.9599 -9.7546 10.8683
# 2 49.3499 143.7539 47.1758 -7.4526 4.3512 13.5676
# 3 32.7206 47.1758 71.4984 8.7145 -18.0761 4.2203
# 4 0.9599 -7.4526 8.7145 35.2909 0.9469 0.5413
# 5 -9.7546 4.3512 -18.0761 0.9469 38.6159 -1.0035
# 6 10.8683 13.5676 4.2203 0.5413 -1.0035 45.0023
#
#
#
# Elastic Compliance Matrix: (Units=1/GPa)
#
#
# Indices 1 2 3 4 5 6 
#
# 1 0.011494 -0.003005 -0.002647 -0.000322 0.001970 -0.001574
# 2 -0.003005 0.011215 -0.007958 0.004606 -0.005915 -0.002097
# 3 -0.002647 -0.007958 0.024348 -0.007956 0.011849 0.001115
# 4 -0.000322 0.004606 -0.007956 0.031436 -0.005123 -0.001057
# 5 0.001970 -0.005915 0.011849 -0.005123 0.032758 0.000989
# 6 -0.001574 -0.002097 0.001115 -0.001057 0.000989 0.023163
#
#
# Mechanical properties :
#
#
# Convention : Reuss Voigt Hill
#
# Bulk Modulus (GPa) = 50.41001 64.92979 57.66990
# Shear Modulus (GPa) = 29.71804 36.89046 33.30425
#
# Velocity S-wave (km/s) = 3.71240 4.13620 3.93002
# Velocity P-wave (km/s) = 6.46172 7.27478 6.88027
#
# Compressibility (1/GPa) = 0.01983733
#
# Stress axis : x y z
#
# Youngs Moduli (GPa) = 86.99881 89.16494 41.07072
#
# Poissons Ratio (x) = 0.26794 0.10873
# Poissons Ratio (y) = 0.26143 0.32684
# Poissons Ratio (z) = 0.23032 0.70957
#
# Static dielectric constant tensor:
#      x y z
#    x 3.960480 0.058490 0.033500 
#    y 0.058490 4.011020 -0.051400 
#    z 0.033500 -0.051400 3.972480 
# 
# 
# High freq. dielectric constant tensor:
#      x y z
#    x 1.854250 0.002940 -0.013490 
#    y 0.002940 1.858440 0.002910 
#    z -0.013490 0.002910 1.854420 
# 
# From -- ./inp_files/354606.got.cif
#   From: 2010.06.25/outbox.cif.g09.slc.cpg/sg2_178_cif.got.tgz:354606.got - 2010.06.27 13:26:56.
