data_PCOD8034641
_publ_section_title
;
Structure prediction by ZEFSAII (Michael W. Deem and Ramdas Pophale) SiO2 
 PCOD8034641
Probable space group: P -1
;
_chemical_formula_sum "Si O2"
_cell_formula_units_Z 16
_cell_length_a 8.859401
_cell_length_b 9.184147
_cell_length_c 16.091376
_cell_angle_alpha 145.021774
_cell_angle_beta 112.573021
_cell_angle_gamma 75.632994
_cell_volume 687.597875
_symmetry_space_group_name_H-M "P -1"
_symmetry_group_IT_number 2
_symmetry_cell_setting 'triclinic'
loop_
_space_group_symop_operation_xyz
x,y,z
-x,-y,-z
loop_
_atom_site_type_symbol
_atom_site_label
_atom_site_fract_x
_atom_site_fract_y
_atom_site_fract_z
Si Si1 0.573106 0.777628 0.124740
Si Si2 0.385577 0.606542 0.284808
Si Si3 0.111622 0.153069 0.377325
Si Si4 0.931253 0.380666 0.302413
Si Si5 0.056278 0.302751 0.132571
Si Si6 0.548968 0.952551 0.619999
Si Si7 0.404169 0.772712 0.919245
Si Si8 0.067411 0.364159 0.871757
O O1 0.555087 0.971792 0.287612
O O2 0.762242 0.754089 0.130571
O O3 0.500000 0.500000 0.000000
O O4 0.456206 0.849054 0.059702
O O5 0.231495 0.381857 0.159553
O O6 0.361003 0.809212 0.302495
O O7 0.542681 0.488680 0.227484
O O8 0.424735 0.756048 0.448998
O O9 0.118404 0.365109 0.549094
O O10 0.978602 0.190432 0.295171
O O11 0.290033 0.179777 0.382042
O O12 0.062957 0.885791 0.289983
O O13 0.788261 0.235050 0.145103
O O14 0.074173 0.442952 0.292381
O O15 0.922577 0.433127 0.108212
O O16 0.000000 0.000000 0.000000
O O17 0.500000 0.000000 0.000000
O O18 0.000000 0.500000 0.000000
#
# Coordination Sequence:
#
# PCOD8034641 Si02
#       8
#     2   2   2   2   2   2   2   2
#     4  12  25  43  73 110 142 189 250 297 357 447
#     4  11  24  45  73 106 146 194 241 305 376 430
#     4  11  24  49  73 103 148 191 246 297 369 441
#     4  11  26  45  72 106 147 191 239 305 369 437
#     4  12  26  45  71 109 146 189 246 307 372 439
#     4  11  24  47  74 107 145 193 248 304 361 439
#     4  12  24  46  70 104 148 190 240 297 368 434
#     4  12  25  45  76 106 146 195 241 302 365 436
#
# _framework density 23.269414000000001
#
# number of rings (size 3 to 8) (size 9 to 14) (size 15 to 20)
#    0.000    0.500    3.750    4.500    1.750    2.500 
#    0.000    1.250    0.000    0.000    0.000    0.000 
#    0.000    0.000    0.000    0.000    0.000    0.000 
#
# Total GULP energy -198214.241199 kJ/mol
# GULP energy per Si atom -12388.390075 kJ/mol
# Density = 2.321645 g / cm^3
# Si number density = 23.269414 Si / 1000 Ang^3
#
#
#
# Elastic Constant Matrix: (Units=GPa)
#
#
# Indices 1 2 3 4 5 6 
#
# 1 121.8484 19.6805 52.5082 -8.7513 -12.8710 -9.1843
# 2 19.6805 101.4134 65.4686 -9.4629 19.8801 -1.0452
# 3 52.5082 65.4686 114.7134 -15.7983 -26.3861 3.1442
# 4 -8.7513 -9.4629 -15.7983 43.6990 5.1545 3.1906
# 5 -12.8710 19.8801 -26.3861 5.1545 40.8937 3.5901
# 6 -9.1843 -1.0452 3.1442 3.1906 3.5901 34.4450
#
#
#
# Elastic Compliance Matrix: (Units=1/GPa)
#
#
# Indices 1 2 3 4 5 6 
#
# 1 0.011173 0.004778 -0.009102 0.000258 -0.005103 0.004463
# 2 0.004778 0.038487 -0.033386 0.001213 -0.039737 0.009519
# 3 -0.009102 -0.033386 0.042046 0.002141 0.041259 -0.011777
# 4 0.000258 0.001213 0.002141 0.024366 -0.002011 -0.002137
# 5 -0.005103 -0.039737 0.041259 -0.002011 0.070223 -0.013465
# 6 0.004463 0.009519 -0.011777 -0.002137 -0.013465 0.033187
#
#
# Mechanical properties :
#
#
# Convention : Reuss Voigt Hill
#
# Bulk Modulus (GPa) = 61.40333 68.14333 64.77333
# Shear Modulus (GPa) = 16.64828 37.16204 26.90516
#
# Velocity S-wave (km/s) = 2.67771 4.00063 3.40405
# Velocity P-wave (km/s) = 6.00045 7.11956 6.58383
#
# Compressibility (1/GPa) = 0.01628576
#
# Stress axis : x y z
#
# Youngs Moduli (GPa) = 89.49854 25.98254 23.78358
#
# Poissons Ratio (x) = -0.12414 0.21648
# Poissons Ratio (y) = -0.42762 0.79405
# Poissons Ratio (z) = 0.81461 0.86746
#
# Static dielectric constant tensor:
#      x y z
#    x 3.505280 0.155290 0.059010 
#    y 0.155290 3.910140 -0.025840 
#    z 0.059010 -0.025840 4.080590 
# 
# 
# High freq. dielectric constant tensor:
#      x y z
#    x 1.934180 -0.007990 -0.009530 
#    y -0.007990 1.924250 -0.000860 
#    z -0.009530 -0.000860 1.923040 
# 
# From -- ./inp_files/495930.got.cif
#   From: 2010.06.25/outbox.cif.g09.slc.cpg/sg2_248_cif.got.tgz:495930.got - 2010.06.27 13:26:56.
