data_PCOD8034687
_publ_section_title
;
Structure prediction by ZEFSAII (Michael W. Deem and Ramdas Pophale) SiO2 
 PCOD8034687
Probable space group: P -1
;
_chemical_formula_sum "Si O2"
_cell_formula_units_Z 16
_cell_length_a 15.758584
_cell_length_b 9.001412
_cell_length_c 11.525341
_cell_angle_alpha 106.162663
_cell_angle_beta 54.084451
_cell_angle_gamma 60.556775
_cell_volume 686.369211
_symmetry_space_group_name_H-M "P -1"
_symmetry_group_IT_number 2
_symmetry_cell_setting 'triclinic'
loop_
_space_group_symop_operation_xyz
x,y,z
-x,-y,-z
loop_
_atom_site_type_symbol
_atom_site_label
_atom_site_fract_x
_atom_site_fract_y
_atom_site_fract_z
Si Si1 0.699771 0.158455 0.754971
Si Si2 0.063939 0.781947 0.237941
Si Si3 0.622848 0.589742 0.437337
Si Si4 0.353542 0.328624 0.311841
Si Si5 0.080340 0.110542 0.245702
Si Si6 0.917225 0.428970 0.046319
Si Si7 0.237761 0.920510 0.836438
Si Si8 0.564261 0.757465 0.028487
O O1 0.626176 0.093554 0.736378
O O2 0.799933 0.989683 0.759516
O O3 0.500000 0.500000 0.000000
O O4 0.857641 0.045282 0.524555
O O5 0.079460 0.622229 0.101262
O O6 0.076459 0.929721 0.197117
O O7 0.236145 0.544239 0.139495
O O8 0.654670 0.549556 0.543057
O O9 0.393799 0.853866 0.651786
O O10 0.705604 0.329233 0.261074
O O11 0.706466 0.642512 0.319030
O O12 0.133452 0.545718 0.508238
O O13 0.513610 0.998506 0.140538
O O14 0.424606 0.313860 0.130679
O O15 0.189933 0.037881 0.029511
O O16 0.055770 0.147974 0.947868
O O17 0.000000 0.500000 0.000000
#
# Coordination Sequence:
#
# PCOD8034687 Si02
#       8
#     2   2   2   2   2   2   2   2
#     4  12  25  43  74 108 143 187 236 293 369 422
#     4  12  26  46  73 104 149 187 240 298 360 434
#     4  11  24  48  74 103 140 190 244 300 357 431
#     4  11  24  45  74  99 147 184 241 299 356 430
#     4  12  22  46  77 105 139 191 242 299 355 435
#     4  12  28  46  71 106 147 189 238 299 363 430
#     4  11  25  46  76 105 137 191 250 299 356 427
#     4  11  26  47  67 109 141 190 235 302 360 432
#
# _framework density 23.311069
#
# number of rings (size 3 to 8) (size 9 to 14) (size 15 to 20)
#    0.000    0.500    5.000    3.000    3.500    4.000 
#    0.000    0.000    0.000    0.000    0.000    0.000 
#    0.000    0.000    0.000    0.000    0.000    0.000 
#
# Total GULP energy -198253.313922 kJ/mol
# GULP energy per Si atom -12390.832120 kJ/mol
# Density = 2.325801 g / cm^3
# Si number density = 23.311069 Si / 1000 Ang^3
#
#
#
# Elastic Constant Matrix: (Units=GPa)
#
#
# Indices 1 2 3 4 5 6 
#
# 1 92.5658 14.8525 39.9825 -17.4906 -7.8250 0.0508
# 2 14.8525 58.2546 37.9727 -7.4999 -10.8786 -0.1904
# 3 39.9825 37.9727 127.1248 -3.9381 -20.9481 -1.8179
# 4 -17.4906 -7.4999 -3.9381 31.2051 1.2695 -8.1651
# 5 -7.8250 -10.8786 -20.9481 1.2695 40.3662 -9.5240
# 6 0.0508 -0.1904 -1.8179 -8.1651 -9.5240 41.0498
#
#
#
# Elastic Compliance Matrix: (Units=1/GPa)
#
#
# Indices 1 2 3 4 5 6 
#
# 1 0.014078 0.000244 -0.004108 0.007800 0.000779 0.001534
# 2 0.000244 0.022273 -0.006037 0.005008 0.003127 0.001557
# 3 -0.004108 -0.006037 0.011543 -0.002207 0.003859 0.000945
# 4 0.007800 0.005008 -0.002207 0.039422 0.002441 0.008323
# 5 0.000779 0.003127 0.003859 0.002441 0.029464 0.007506
# 6 0.001534 0.001557 0.000945 0.008323 0.007506 0.027805
#
#
# Mechanical properties :
#
#
# Convention : Reuss Voigt Hill
#
# Bulk Modulus (GPa) = 35.60041 51.50672 43.55356
# Shear Modulus (GPa) = 28.77696 34.86670 31.82183
#
# Velocity S-wave (km/s) = 3.51732 3.87164 3.69873
# Velocity P-wave (km/s) = 5.63919 6.49072 6.07988
#
# Compressibility (1/GPa) = 0.02808956
#
# Stress axis : x y z
#
# Youngs Moduli (GPa) = 71.03532 44.89786 86.63465
#
# Poissons Ratio (x) = -0.01093 0.35593
# Poissons Ratio (y) = -0.01730 0.52301
# Poissons Ratio (z) = 0.29184 0.27104
#
# Static dielectric constant tensor:
#      x y z
#    x 4.333090 0.006710 -0.359730 
#    y 0.006710 4.105980 -0.159180 
#    z -0.359730 -0.159180 4.600680 
# 
# 
# High freq. dielectric constant tensor:
#      x y z
#    x 1.928220 -0.009110 -0.014100 
#    y -0.009110 1.910050 -0.002920 
#    z -0.014100 -0.002920 1.936380 
# 
# From -- ./inp_files/447790.got.cif
#   From: 2010.06.25/outbox.cif.g09.slc.cpg/sg2_224_cif.got.tgz:447790.got - 2010.06.27 13:26:56.
