data_PCOD8034790
_publ_section_title
;
Structure prediction by ZEFSAII (Michael W. Deem and Ramdas Pophale) SiO2 
 PCOD8034790
Probable space group: P -1
;
_chemical_formula_sum "Si O2"
_cell_formula_units_Z 14
_cell_length_a 8.703921
_cell_length_b 11.320952
_cell_length_c 6.471569
_cell_angle_alpha 99.893973
_cell_angle_beta 79.335210
_cell_angle_gamma 90.580428
_cell_volume 617.197031
_symmetry_space_group_name_H-M "P -1"
_symmetry_group_IT_number 2
_symmetry_cell_setting 'triclinic'
loop_
_space_group_symop_operation_xyz
x,y,z
-x,-y,-z
loop_
_atom_site_type_symbol
_atom_site_label
_atom_site_fract_x
_atom_site_fract_y
_atom_site_fract_z
Si Si1 0.406325 0.379786 0.020297
Si Si2 0.086802 0.108352 0.401944
Si Si3 0.128263 0.674637 0.548001
Si Si4 0.675907 0.994780 0.031204
Si Si5 0.591491 0.230994 0.277820
Si Si6 0.920579 0.507544 0.803728
Si Si7 0.342854 0.186916 0.649731
O O1 0.490784 0.297839 0.146661
O O2 0.232412 0.407783 0.148750
O O3 0.500000 0.500000 0.000000
O O4 0.385889 0.310873 0.787649
O O5 0.180447 0.190555 0.564811
O O6 0.956028 0.196409 0.362433
O O7 0.200575 0.055922 0.180188
O O8 0.000000 0.000000 0.500000
O O9 0.305001 0.677877 0.590026
O O10 0.126757 0.627242 0.296671
O O11 0.051262 0.566464 0.652020
O O12 0.679170 0.917787 0.213614
O O13 0.711644 0.133202 0.116127
O O14 0.500000 0.000000 0.000000
O O15 0.479385 0.160122 0.441502
O O16 0.000000 0.500000 0.000000
#
# Coordination Sequence:
#
# PCOD8034790 Si02
#       7
#     2   2   2   2   2   2   2
#     4  12  26  43  70 105 139 187 243 293 354 427
#     4  12  28  46  72 107 143 186 240 292 360 426
#     4  11  26  44  68 102 138 183 235 292 354 416
#     4  12  25  46  72 104 141 186 235 289 355 423
#     4  12  26  44  72 105 145 185 242 291 358 426
#     4  11  24  46  70  96 140 185 233 294 353 412
#     4  12  24  45  73  99 144 187 234 298 351 424
#
# _framework density 22.683195000000001
#
# number of rings (size 3 to 8) (size 9 to 14) (size 15 to 20)
#    0.000    0.286    2.857    5.571    2.000   10.286 
#    0.000    0.000    0.000    0.000    0.000    0.000 
#    0.000    0.000    0.000    0.000    0.000    0.000 
#
# Total GULP energy -173565.573074 kJ/mol
# GULP energy per Si atom -12397.540934 kJ/mol
# Density = 2.263157 g / cm^3
# Si number density = 22.683195 Si / 1000 Ang^3
#
#
#
# Elastic Constant Matrix: (Units=GPa)
#
#
# Indices 1 2 3 4 5 6 
#
# 1 125.9241 38.4800 57.7918 8.9160 18.9662 3.5781
# 2 38.4800 118.5977 58.3950 7.2452 4.4472 0.7198
# 3 57.7918 58.3950 135.4190 7.9069 11.4225 -1.9005
# 4 8.9160 7.2452 7.9069 42.8530 5.7564 0.2702
# 5 18.9662 4.4472 11.4225 5.7564 41.1798 10.8492
# 6 3.5781 0.7198 -1.9005 0.2702 10.8492 42.3902
#
#
#
# Elastic Compliance Matrix: (Units=1/GPa)
#
#
# Indices 1 2 3 4 5 6 
#
# 1 0.010632 -0.001526 -0.003528 -0.000817 -0.003613 -0.000100
# 2 -0.001526 0.010976 -0.004112 -0.000898 0.000907 -0.000468
# 3 -0.003528 -0.004112 0.010803 -0.000414 -0.001174 0.001155
# 4 -0.000817 -0.000898 -0.000414 0.024127 -0.002961 0.000670
# 5 -0.003613 0.000907 -0.001174 -0.002961 0.028439 -0.007023
# 6 -0.000100 -0.000468 0.001155 0.000670 -0.007023 0.025452
#
#
# Mechanical properties :
#
#
# Convention : Reuss Voigt Hill
#
# Bulk Modulus (GPa) = 71.03811 76.58603 73.81207
# Shear Modulus (GPa) = 37.46622 40.30286 38.88454
#
# Velocity S-wave (km/s) = 4.06854 4.21975 4.14484
# Velocity P-wave (km/s) = 7.31137 7.58804 7.45099
#
# Compressibility (1/GPa) = 0.01407695
#
# Stress axis : x y z
#
# Youngs Moduli (GPa) = 94.05848 91.11188 92.56987
#
# Poissons Ratio (x) = 0.13908 0.32658
# Poissons Ratio (y) = 0.14358 0.38065
# Poissons Ratio (z) = 0.33183 0.37466
#
# Static dielectric constant tensor:
#      x y z
#    x 4.064920 0.612330 0.538700 
#    y 0.612330 3.148460 -0.495920 
#    z 0.538700 -0.495920 3.867430 
# 
# 
# High freq. dielectric constant tensor:
#      x y z
#    x 1.910140 0.007140 0.011220 
#    y 0.007140 1.899720 0.009690 
#    z 0.011220 0.009690 1.908580 
# 
# From -- ./inp_files/26867.got.cif
#   From: 2010.06.25/outbox.cif.g09.slc.cpg/sg2_14_cif.got.tgz:26867.got - 2010.06.27 13:26:56.
