data_PCOD8034071
_publ_section_title
;
Structure prediction by ZEFSAII (Michael W. Deem and Ramdas Pophale) SiO2 
 PCOD8034071
Probable space group: P -1
;
_chemical_formula_sum "Si O2"
_cell_formula_units_Z 16
_cell_length_a 8.500503
_cell_length_b 11.690235
_cell_length_c 16.352971
_cell_angle_alpha 52.066015
_cell_angle_beta 64.630363
_cell_angle_gamma 35.033820
_cell_volume 725.633380
_symmetry_space_group_name_H-M "P -1"
_symmetry_group_IT_number 2
_symmetry_cell_setting 'triclinic'
loop_
_space_group_symop_operation_xyz
x,y,z
-x,-y,-z
loop_
_atom_site_type_symbol
_atom_site_label
_atom_site_fract_x
_atom_site_fract_y
_atom_site_fract_z
Si Si1 0.090492 0.821628 0.844000
Si Si2 0.158305 0.369817 0.605421
Si Si3 0.484241 0.164816 0.888989
Si Si4 0.114472 0.802352 0.657997
Si Si5 0.599726 0.097176 0.207877
Si Si6 0.961718 0.592163 0.719923
Si Si7 0.707981 0.609705 0.005677
Si Si8 0.388400 0.700453 0.490942
O O1 0.181152 0.750672 0.760820
O O2 0.200483 0.895572 0.827699
O O3 0.233688 0.588405 0.957069
O O4 0.757276 0.029464 0.836303
O O5 0.980885 0.563197 0.630839
O O6 0.453053 0.254515 0.580964
O O7 0.000000 0.500000 0.500000
O O8 0.213362 0.165238 0.701539
O O9 0.220604 0.335984 0.812502
O O10 0.441147 0.308024 0.909013
O O11 0.500000 0.000000 0.000000
O O12 0.966693 0.753851 0.678299
O O13 0.392518 0.649008 0.608569
O O14 0.925546 0.066670 0.569854
O O15 0.487972 0.170152 0.107605
O O16 0.333530 0.284131 0.243772
O O17 0.000000 0.500000 0.000000
O O18 0.500000 0.500000 0.500000
#
# Coordination Sequence:
#
# PCOD8034071 Si02
#       8
#     2   2   2   2   2   2   2   2
#     4  12  27  43  72 109 146 184 235 297 366 421
#     4  12  29  45  70 104 148 187 239 296 364 418
#     4  12  24  41  77 105 138 187 242 290 347 425
#     4  11  24  43  72 100 133 186 244 294 344 425
#     4  12  28  47  70 106 153 187 234 294 367 432
#     4  12  24  46  73 101 141 192 240 290 352 430
#     4  12  23  47  76 105 141 188 241 292 356 429
#     4  11  24  44  70  99 134 181 250 295 344 413
#
# _framework density 22.049702
#
# number of rings (size 3 to 8) (size 9 to 14) (size 15 to 20)
#    0.000    0.250    6.250    1.875    3.500    2.000 
#    0.000    0.000    0.000    0.000    0.000    0.000 
#    0.000    0.000    0.000    0.000    0.000    0.000 
#
# Total GULP energy -198421.531923 kJ/mol
# GULP energy per Si atom -12401.345745 kJ/mol
# Density = 2.199952 g / cm^3
# Si number density = 22.049702 Si / 1000 Ang^3
#
#
#
# Elastic Constant Matrix: (Units=GPa)
#
#
# Indices 1 2 3 4 5 6 
#
# 1 98.8095 19.6125 37.6621 -6.7622 -7.3738 12.1390
# 2 19.6125 94.6212 30.0110 6.9169 5.8464 7.3536
# 3 37.6621 30.0110 109.8689 -6.6128 9.6749 12.1879
# 4 -6.7622 6.9169 -6.6128 53.5006 6.7354 -3.2751
# 5 -7.3738 5.8464 9.6749 6.7354 48.3251 5.8056
# 6 12.1390 7.3536 12.1879 -3.2751 5.8056 30.0050
#
#
#
# Elastic Compliance Matrix: (Units=1/GPa)
#
#
# Indices 1 2 3 4 5 6 
#
# 1 0.012572 -0.001367 -0.003759 0.000668 0.003196 -0.003770
# 2 -0.001367 0.012016 -0.002726 -0.002064 -0.000663 -0.001382
# 3 -0.003759 -0.002726 0.011662 0.001526 -0.002565 -0.001885
# 4 0.000668 -0.002064 0.001526 0.019751 -0.002989 0.002350
# 5 0.003196 -0.000663 -0.002565 -0.002989 0.022770 -0.004821
# 6 -0.003770 -0.001382 -0.001885 0.002350 -0.004821 0.037146
#
#
# Mechanical properties :
#
#
# Convention : Reuss Voigt Hill
#
# Bulk Modulus (GPa) = 48.67386 53.09677 50.88532
# Shear Modulus (GPa) = 36.10870 40.76708 38.43789
#
# Velocity S-wave (km/s) = 4.05112 4.30452 4.17974
# Velocity P-wave (km/s) = 6.63360 6.98841 6.81332
#
# Compressibility (1/GPa) = 0.02054491
#
# Stress axis : x y z
#
# Youngs Moduli (GPa) = 79.54166 83.22469 85.74930
#
# Poissons Ratio (x) = 0.11376 0.32236
# Poissons Ratio (y) = 0.10872 0.23377
# Poissons Ratio (z) = 0.29902 0.22689
#
# Static dielectric constant tensor:
#      x y z
#    x 3.805330 0.171210 -0.099990 
#    y 0.171210 4.253030 0.091650 
#    z -0.099990 0.091650 4.171930 
# 
# 
# High freq. dielectric constant tensor:
#      x y z
#    x 1.848300 0.011270 -0.009760 
#    y 0.011270 1.883640 0.003350 
#    z -0.009760 0.003350 1.884150 
# 
# From -- ./inp_files/90549.got.cif
#   From: 2010.06.25/outbox.cif.g09.slc.cpg/sg2_46_cif.got.tgz:90549.got - 2010.06.27 13:26:56.
