data_PCOD8034400
_publ_section_title
;
Structure prediction by ZEFSAII (Michael W. Deem and Ramdas Pophale) SiO2 
 PCOD8034400
Probable space group: P -1
;
_chemical_formula_sum "Si O2"
_cell_formula_units_Z 12
_cell_length_a 15.402600
_cell_length_b 9.267295
_cell_length_c 13.130552
_cell_angle_alpha 48.992959
_cell_angle_beta 27.793140
_cell_angle_gamma 38.279478
_cell_volume 536.622141
_symmetry_space_group_name_H-M "P -1"
_symmetry_group_IT_number 2
_symmetry_cell_setting 'triclinic'
loop_
_space_group_symop_operation_xyz
x,y,z
-x,-y,-z
loop_
_atom_site_type_symbol
_atom_site_label
_atom_site_fract_x
_atom_site_fract_y
_atom_site_fract_z
Si Si1 0.956566 0.193508 0.876094
Si Si2 0.765172 0.536744 0.254068
Si Si3 0.461238 0.511945 0.153339
Si Si4 0.291220 0.982156 0.225999
Si Si5 0.714511 0.128486 0.485922
Si Si6 0.115466 0.503963 0.629776
O O1 0.991870 0.374786 0.810507
O O2 0.696339 0.331918 0.049239
O O3 0.121087 0.092950 0.654138
O O4 0.000000 0.000000 0.000000
O O5 0.773977 0.312111 0.314232
O O6 0.550044 0.763190 0.315764
O O7 0.727793 0.577612 0.394515
O O8 0.000000 0.500000 0.000000
O O9 0.344048 0.773219 0.195573
O O10 0.289120 0.437925 0.386799
O O11 0.500000 0.500000 0.000000
O O12 0.234793 0.950950 0.413474
O O13 0.072258 0.217224 0.297478
O O14 0.500000 0.000000 0.000000
#
# Coordination Sequence:
#
# PCOD8034400 Si02
#       6
#     2   2   2   2   2   2
#     4  12  28  48  70 107 146 183 235 294 349 413
#     4  11  24  44  74 103 136 188 235 281 351 415
#     4  12  28  47  73 107 141 184 236 290 355 418
#     4  12  25  48  74 103 143 187 234 290 352 418
#     4  11  26  45  71 104 144 180 236 292 340 422
#     4  12  26  47  73 103 144 187 233 289 351 419
#
# _framework density 22.362103000000001
#
# number of rings (size 3 to 8) (size 9 to 14) (size 15 to 20)
#    0.000    0.333    3.333    4.500    7.000    5.333 
#    0.000    0.000    0.000    0.000    0.000    0.000 
#    0.000    0.000    0.000    0.000    0.000    0.000 
#
# Total GULP energy -148880.668795 kJ/mol
# GULP energy per Si atom -12406.722400 kJ/mol
# Density = 2.231121 g / cm^3
# Si number density = 22.362103 Si / 1000 Ang^3
#
#
#
# Elastic Constant Matrix: (Units=GPa)
#
#
# Indices 1 2 3 4 5 6 
#
# 1 122.1747 54.5412 40.5364 0.6849 6.9417 -6.3179
# 2 54.5412 130.7135 42.5890 4.4814 2.2411 -5.0939
# 3 40.5364 42.5890 135.6837 -2.4484 -8.4241 1.5587
# 4 0.6849 4.4814 -2.4484 32.5943 -0.3647 8.0157
# 5 6.9417 2.2411 -8.4241 -0.3647 55.1525 9.3705
# 6 -6.3179 -5.0939 1.5587 8.0157 9.3705 17.0312
#
#
#
# Elastic Compliance Matrix: (Units=1/GPa)
#
#
# Indices 1 2 3 4 5 6 
#
# 1 0.010967 -0.003502 -0.002415 -0.001237 -0.002498 0.005199
# 2 -0.003502 0.010083 -0.002260 -0.002366 -0.000933 0.003551
# 3 -0.002415 -0.002260 0.009062 0.002282 0.002631 -0.004923
# 4 -0.001237 -0.002366 0.002282 0.036398 0.004396 -0.020925
# 5 -0.002498 -0.000933 0.002631 0.004396 0.021524 -0.015358
# 6 0.005199 0.003551 -0.004923 -0.020925 -0.015358 0.080455
#
#
# Mechanical properties :
#
#
# Convention : Reuss Voigt Hill
#
# Bulk Modulus (GPa) = 72.67666 73.76722 73.22194
# Shear Modulus (GPa) = 26.39511 37.68263 32.03887
#
# Velocity S-wave (km/s) = 3.43935 4.10946 3.78925
# Velocity P-wave (km/s) = 6.95289 7.45494 7.20829
#
# Compressibility (1/GPa) = 0.01375958
#
# Stress axis : x y z
#
# Youngs Moduli (GPa) = 91.18263 99.17372 110.35040
#
# Poissons Ratio (x) = 0.34726 0.26645
# Poissons Ratio (y) = 0.31928 0.24943
# Poissons Ratio (z) = 0.22016 0.22416
#
# Static dielectric constant tensor:
#      x y z
#    x 4.093450 -0.083220 -0.087490 
#    y -0.083220 4.213050 -0.059770 
#    z -0.087490 -0.059770 4.083310 
# 
# 
# High freq. dielectric constant tensor:
#      x y z
#    x 1.895100 -0.005750 -0.005230 
#    y -0.005750 1.883020 0.000770 
#    z -0.005230 0.000770 1.901340 
# 
# From -- ./inp_files/149808.got.cif
#   From: 2010.06.25/outbox.cif.g09.slc.cpg/sg2_75_cif.got.tgz:149808.got - 2010.06.27 13:26:56.
