data_PCOD8034422
_publ_section_title
;
Structure prediction by ZEFSAII (Michael W. Deem and Ramdas Pophale) SiO2 
 PCOD8034422
Probable space group: P -1
;
_chemical_formula_sum "Si O2"
_cell_formula_units_Z 16
_cell_length_a 14.236300
_cell_length_b 11.587371
_cell_length_c 5.359835
_cell_angle_alpha 70.518559
_cell_angle_beta 124.856637
_cell_angle_gamma 91.726033
_cell_volume 669.115622
_symmetry_space_group_name_H-M "P -1"
_symmetry_group_IT_number 2
_symmetry_cell_setting 'triclinic'
loop_
_space_group_symop_operation_xyz
x,y,z
-x,-y,-z
loop_
_atom_site_type_symbol
_atom_site_label
_atom_site_fract_x
_atom_site_fract_y
_atom_site_fract_z
Si Si1 0.064677 0.523848 0.831379
Si Si2 0.907100 0.205865 0.210244
Si Si3 0.504553 0.805853 0.267111
Si Si4 0.375248 0.549563 0.885167
Si Si5 0.683246 0.564823 0.609471
Si Si6 0.674341 0.213998 0.607341
Si Si7 0.342591 0.010846 0.531708
Si Si8 0.906952 0.973952 0.678339
O O1 0.077686 0.667703 0.723588
O O2 0.000000 0.500000 0.500000
O O3 0.188691 0.425776 0.103367
O O4 0.000000 0.500000 0.000000
O O5 0.030585 0.136226 0.330453
O O6 0.861993 0.110036 0.393894
O O7 0.802366 0.239935 0.832106
O O8 0.594709 0.697661 0.333332
O O9 0.425504 0.737603 0.373238
O O10 0.590060 0.878267 0.504202
O O11 0.421928 0.907669 0.900797
O O12 0.294712 0.506884 0.573316
O O13 0.357788 0.701583 0.752715
O O14 0.500000 0.500000 0.000000
O O15 0.364703 0.508146 0.182347
O O16 0.676161 0.066355 0.688886
O O17 0.210602 0.068896 0.381648
O O18 0.000000 0.000000 0.000000
#
# Coordination Sequence:
#
# PCOD8034422 Si02
#       8
#     2   2   2   2   2   2   2   2
#     4  12  30  52  76 109 152 199 250 315 384 450
#     4  11  26  45  72 105 143 189 253 308 371 446
#     4  11  26  45  67 107 150 192 245 300 383 442
#     4  12  25  42  76 109 145 186 251 301 369 443
#     4  12  27  48  72 112 144 199 245 307 374 453
#     4  12  23  44  72 102 147 188 245 309 366 449
#     4  11  25  44  72 102 148 191 245 308 372 440
#     4  11  24  44  75 106 136 194 251 310 364 433
#
# _framework density 23.912161000000001
#
# number of rings (size 3 to 8) (size 9 to 14) (size 15 to 20)
#    0.000    0.500    5.000    2.250    7.000    0.000 
#    0.000    0.000    0.000    0.000    0.000    0.000 
#    0.000    0.000    0.000    0.000    0.000    0.000 
#
# Total GULP energy -198231.669520 kJ/mol
# GULP energy per Si atom -12389.479345 kJ/mol
# Density = 2.385774 g / cm^3
# Si number density = 23.912161 Si / 1000 Ang^3
#
#
#
# Elastic Constant Matrix: (Units=GPa)
#
#
# Indices 1 2 3 4 5 6 
#
# 1 98.6034 14.3338 28.6210 -1.4972 22.5433 4.4983
# 2 14.3338 108.3135 15.3304 2.9414 6.8521 -3.4363
# 3 28.6210 15.3304 92.0740 1.9539 17.4605 3.8900
# 4 -1.4972 2.9414 1.9539 36.7569 -7.2660 -0.4671
# 5 22.5433 6.8521 17.4605 -7.2660 44.9860 -1.5829
# 6 4.4983 -3.4363 3.8900 -0.4671 -1.5829 27.4822
#
#
#
# Elastic Compliance Matrix: (Units=1/GPa)
#
#
# Indices 1 2 3 4 5 6 
#
# 1 0.012301 -0.000993 -0.002591 -0.000323 -0.005132 -0.002072
# 2 -0.000993 0.009645 -0.001233 -0.000842 -0.000576 0.001496
# 3 -0.002591 -0.001233 0.012684 -0.001441 -0.003732 -0.001765
# 4 -0.000323 -0.000842 -0.001441 0.028431 0.005475 0.000950
# 5 -0.005132 -0.000576 -0.003732 0.005475 0.027326 0.002963
# 6 -0.002072 0.001496 -0.001765 0.000950 0.002963 0.037350
#
#
# Mechanical properties :
#
#
# Convention : Reuss Voigt Hill
#
# Bulk Modulus (GPa) = 40.00659 46.17348 43.09004
# Shear Modulus (GPa) = 34.31609 37.89206 36.10408
#
# Velocity S-wave (km/s) = 3.79237 3.98507 3.88991
# Velocity P-wave (km/s) = 5.99525 6.36599 6.18340
#
# Compressibility (1/GPa) = 0.02499588
#
# Stress axis : x y z
#
# Youngs Moduli (GPa) = 81.29369 103.67824 78.83738
#
# Poissons Ratio (x) = 0.10300 0.20424
# Poissons Ratio (y) = 0.08076 0.09723
# Poissons Ratio (z) = 0.21060 0.12786
#
# Static dielectric constant tensor:
#      x y z
#    x 7.274800 -4.698600 -5.251610 
#    y -4.698600 12.563940 9.104140 
#    z -5.251610 9.104140 13.703190 
# 
# 
# High freq. dielectric constant tensor:
#      x y z
#    x 1.946020 -0.003600 0.021640 
#    y -0.003600 1.952340 -0.001230 
#    z 0.021640 -0.001230 1.960330 
# 
# From -- ./inp_files/68995.got.cif
#   From: 2010.06.25/outbox.cif.g09.slc.cpg/sg2_35_cif.got.tgz:68995.got - 2010.06.27 13:26:56.
