data_PCOD8034410
_publ_section_title
;
Structure prediction by ZEFSAII (Michael W. Deem and Ramdas Pophale) SiO2 
 PCOD8034410
Probable space group: P -1
;
_chemical_formula_sum "Si O2"
_cell_formula_units_Z 16
_cell_length_a 8.696084
_cell_length_b 10.948786
_cell_length_c 8.664414
_cell_angle_alpha 67.664535
_cell_angle_beta 113.625080
_cell_angle_gamma 107.148853
_cell_volume 689.143315
_symmetry_space_group_name_H-M "P -1"
_symmetry_group_IT_number 2
_symmetry_cell_setting 'triclinic'
loop_
_space_group_symop_operation_xyz
x,y,z
-x,-y,-z
loop_
_atom_site_type_symbol
_atom_site_label
_atom_site_fract_x
_atom_site_fract_y
_atom_site_fract_z
Si Si1 0.872927 0.277095 0.826251
Si Si2 0.659680 0.490721 0.680247
Si Si3 0.409471 0.890454 0.365655
Si Si4 0.356448 0.855894 0.694373
Si Si5 0.501108 0.362653 0.978283
Si Si6 0.239749 0.215905 0.450404
Si Si7 0.836773 0.800759 0.216728
Si Si8 0.080107 0.901933 0.799614
O O1 0.816641 0.422538 0.711570
O O2 0.700820 0.169133 0.793059
O O3 0.008677 0.265660 0.753610
O O4 0.935697 0.234089 0.039529
O O5 0.500000 0.500000 0.500000
O O6 0.592216 0.395123 0.838402
O O7 0.742353 0.639403 0.694502
O O8 0.296263 0.850651 0.494131
O O9 0.583325 0.833065 0.472735
O O10 0.457919 0.048871 0.279802
O O11 0.227628 0.917302 0.723015
O O12 0.378867 0.711171 0.831704
O O13 0.323088 0.264414 0.922149
O O14 0.500000 0.500000 0.000000
O O15 0.192296 0.238688 0.597869
O O16 0.097344 0.109987 0.358169
O O17 0.883595 0.963515 0.145032
#
# Coordination Sequence:
#
# PCOD8034410 Si02
#       8
#     2   2   2   2   2   2   2   2
#     4  12  27  45  73 105 148 193 241 299 367 431
#     4  12  25  50  72 103 142 198 245 293 357 433
#     4  11  24  44  74 108 144 192 245 297 365 434
#     4  11  25  43  75 107 142 192 248 293 366 428
#     4  12  27  48  75 106 148 191 247 299 361 439
#     4  12  26  46  76 104 153 190 240 301 361 433
#     4  12  27  47  73 110 148 191 238 306 369 424
#     4  12  27  47  73 112 149 184 244 310 364 427
#
# _framework density 23.217234000000001
#
# number of rings (size 3 to 8) (size 9 to 14) (size 15 to 20)
#    0.000    0.250    5.000    3.000    7.000    3.000 
#    0.000    0.000    0.000    0.000    0.000    0.000 
#    0.000    0.000    0.000    0.000    0.000    0.000 
#
# Total GULP energy -198346.719693 kJ/mol
# GULP energy per Si atom -12396.669981 kJ/mol
# Density = 2.316439 g / cm^3
# Si number density = 23.217234 Si / 1000 Ang^3
#
#
#
# Elastic Constant Matrix: (Units=GPa)
#
#
# Indices 1 2 3 4 5 6 
#
# 1 114.7621 29.7281 22.8577 1.7276 -1.7102 -19.8977
# 2 29.7281 112.4490 20.2345 -0.1570 7.5169 -4.2329
# 3 22.8577 20.2345 75.0253 -5.4373 -4.6562 -4.1911
# 4 1.7276 -0.1570 -5.4373 46.7596 2.9695 5.3197
# 5 -1.7102 7.5169 -4.6562 2.9695 32.4561 -1.3268
# 6 -19.8977 -4.2329 -4.1911 5.3197 -1.3268 37.9481
#
#
#
# Elastic Compliance Matrix: (Units=1/GPa)
#
#
# Indices 1 2 3 4 5 6 
#
# 1 0.010745 -0.002285 -0.002389 -0.001360 0.001095 0.005344
# 2 -0.002285 0.010065 -0.002210 0.000088 -0.002794 -0.000429
# 3 -0.002389 -0.002210 0.014921 0.001665 0.002374 -0.000002
# 4 -0.001360 0.000088 0.001665 0.022180 -0.002034 -0.003700
# 5 0.001095 -0.002794 0.002374 -0.002034 0.032121 0.001933
# 6 0.005344 -0.000429 -0.000002 -0.003700 0.001933 0.029692
#
#
# Mechanical properties :
#
#
# Convention : Reuss Voigt Hill
#
# Bulk Modulus (GPa) = 45.53035 49.76410 47.64723
# Shear Modulus (GPa) = 35.50815 38.72717 37.11766
#
# Velocity S-wave (km/s) = 3.91498 4.08859 4.00273
# Velocity P-wave (km/s) = 6.33161 6.61585 6.47529
#
# Compressibility (1/GPa) = 0.02196337
#
# Stress axis : x y z
#
# Youngs Moduli (GPa) = 93.06851 99.35175 67.02109
#
# Poissons Ratio (x) = 0.22698 0.16014
# Poissons Ratio (y) = 0.21262 0.14809
# Poissons Ratio (z) = 0.22238 0.21953
#
# Static dielectric constant tensor:
#      x y z
#    x 4.270740 0.001030 -0.068980 
#    y 0.001030 4.409730 -0.031310 
#    z -0.068980 -0.031310 4.308750 
# 
# 
# High freq. dielectric constant tensor:
#      x y z
#    x 1.925570 -0.003760 -0.003360 
#    y -0.003760 1.922460 -0.005110 
#    z -0.003360 -0.005110 1.921650 
# 
# From -- ./inp_files/185398.got.cif
#   From: 2010.06.25/outbox.cif.g09.slc.cpg/sg2_93_cif.got.tgz:185398.got - 2010.06.27 13:26:56.
