data_PCOD8034815
_publ_section_title
;
Structure prediction by ZEFSAII (Michael W. Deem and Ramdas Pophale) SiO2 
 PCOD8034815
Probable space group: P -1
;
_chemical_formula_sum "Si O2"
_cell_formula_units_Z 10
_cell_length_a 6.034194
_cell_length_b 6.237161
_cell_length_c 15.604335
_cell_angle_alpha 103.864090
_cell_angle_beta 46.107173
_cell_angle_gamma 103.097624
_cell_volume 409.354470
_symmetry_space_group_name_H-M "P -1"
_symmetry_group_IT_number 2
_symmetry_cell_setting 'triclinic'
loop_
_space_group_symop_operation_xyz
x,y,z
-x,-y,-z
loop_
_atom_site_type_symbol
_atom_site_label
_atom_site_fract_x
_atom_site_fract_y
_atom_site_fract_z
Si Si1 0.604657 0.972825 0.275316
Si Si2 0.743992 0.654530 0.549741
Si Si3 0.562497 0.369516 0.853330
Si Si4 0.726690 0.811627 0.921940
Si Si5 0.218181 0.278949 0.644679
O O1 0.327843 0.135066 0.351070
O O2 0.921364 0.099544 0.172165
O O3 0.547334 0.741220 0.217565
O O4 0.613698 0.911734 0.368776
O O5 0.417016 0.513836 0.617040
O O6 0.851642 0.765863 0.441070
O O7 0.000000 0.500000 0.500000
O O8 0.619433 0.637669 0.857639
O O9 0.894165 0.286609 0.782280
O O10 0.307240 0.309097 0.988401
O O11 0.500000 0.000000 0.000000
#
# Coordination Sequence:
#
# PCOD8034815 Si02
#       5
#     2   2   2   2   2
#     4  12  25  46  77 106 143 194 235 297 363 420
#     4  11  26  46  73 106 146 191 241 295 359 427
#     4  11  25  44  73 107 143 188 242 287 363 431
#     4  11  24  47  72 105 147 187 236 300 354 428
#     4  11  24  46  71 107 145 186 242 298 352 432
#
# _framework density 24.428705999999998
#
# number of rings (size 3 to 8) (size 9 to 14) (size 15 to 20)
#    0.000    0.800    4.000    2.400    0.000   10.400 
#    0.000    0.000    0.000    0.000    0.000    0.000 
#    0.000    0.000    0.000    0.000    0.000    0.000 
#
# Total GULP energy -123955.421450 kJ/mol
# GULP energy per Si atom -12395.542145 kJ/mol
# Density = 2.437310 g / cm^3
# Si number density = 24.428706 Si / 1000 Ang^3
#
#
#
# Elastic Constant Matrix: (Units=GPa)
#
#
# Indices 1 2 3 4 5 6 
#
# 1 109.4551 62.3530 58.2365 15.1831 4.8956 -4.2511
# 2 62.3530 128.0300 62.1563 34.4790 -10.8651 5.9464
# 3 58.2365 62.1563 125.1236 7.8816 -7.7720 3.2850
# 4 15.1831 34.4790 7.8816 57.0462 0.3707 -3.8150
# 5 4.8956 -10.8651 -7.7720 0.3707 33.0772 0.0853
# 6 -4.2511 5.9464 3.2850 -3.8150 0.0853 47.1452
#
#
#
# Elastic Compliance Matrix: (Units=1/GPa)
#
#
# Indices 1 2 3 4 5 6 
#
# 1 0.015169 -0.005799 -0.004588 0.000300 -0.005238 0.002453
# 2 -0.005799 0.015038 -0.003936 -0.007217 0.004961 -0.002738
# 3 -0.004588 -0.003936 0.012119 0.001870 0.002214 -0.000614
# 4 0.000300 -0.007217 0.001870 0.021740 -0.002226 0.002570
# 5 -0.005238 0.004961 0.002214 -0.002226 0.033186 -0.001492
# 6 0.002453 -0.002738 -0.000614 0.002570 -0.001492 0.022031
#
#
# Mechanical properties :
#
#
# Convention : Reuss Voigt Hill
#
# Bulk Modulus (GPa) = 73.10836 80.90004 77.00420
# Shear Modulus (GPa) = 32.78940 39.44459 36.11700
#
# Velocity S-wave (km/s) = 3.66765 4.02267 3.84925
# Velocity P-wave (km/s) = 6.92298 7.40031 7.16562
#
# Compressibility (1/GPa) = 0.01367833
#
# Stress axis : x y z
#
# Youngs Moduli (GPa) = 65.92507 66.49918 82.51751
#
# Poissons Ratio (x) = 0.38565 0.37857
# Poissons Ratio (y) = 0.38232 0.32482
# Poissons Ratio (z) = 0.30245 0.26176
#
# Static dielectric constant tensor:
#      x y z
#    x 4.073570 0.173610 -0.109910 
#    y 0.173610 4.634490 -0.130670 
#    z -0.109910 -0.130670 4.809920 
# 
# 
# High freq. dielectric constant tensor:
#      x y z
#    x 1.946490 0.012070 -0.016660 
#    y 0.012070 1.984060 -0.005100 
#    z -0.016660 -0.005100 1.988040 
# 
# From -- ./inp_files/1482.got.cif
#   From: 2010.06.25/outbox.cif.g09.slc.cpg/sg2_1_cif.got.tgz:1482.got - 2010.06.27 13:26:56.
