data_PCOD8034946
_publ_section_title
;
Structure prediction by ZEFSAII (Michael W. Deem and Ramdas Pophale) SiO2 
 PCOD8034946
Probable space group: P -1
;
_chemical_formula_sum "Si O2"
_cell_formula_units_Z 14
_cell_length_a 19.316929
_cell_length_b 13.787888
_cell_length_c 10.789631
_cell_angle_alpha 136.762958
_cell_angle_beta 29.937354
_cell_angle_gamma 155.723453
_cell_volume 562.596444
_symmetry_space_group_name_H-M "P -1"
_symmetry_group_IT_number 2
_symmetry_cell_setting 'triclinic'
loop_
_space_group_symop_operation_xyz
x,y,z
-x,-y,-z
loop_
_atom_site_type_symbol
_atom_site_label
_atom_site_fract_x
_atom_site_fract_y
_atom_site_fract_z
Si Si1 0.835492 0.252137 0.951177
Si Si2 0.329697 0.904978 0.316043
Si Si3 0.706490 0.056504 0.216181
Si Si4 0.084004 0.441089 0.171128
Si Si5 0.121924 0.934616 0.480016
Si Si6 0.540406 0.470515 0.273415
Si Si7 0.351531 0.301616 0.937437
O O1 0.607060 0.143535 0.147746
O O2 0.737396 0.055230 0.020633
O O3 0.976669 0.279416 0.651012
O O4 0.000000 0.500000 0.000000
O O5 0.281388 0.733194 0.136250
O O6 0.263018 0.996253 0.439389
O O7 0.156995 0.727541 0.533950
O O8 0.634597 0.855212 0.214307
O O9 0.500000 0.000000 0.500000
O O10 0.973737 0.333977 0.104894
O O11 0.207751 0.403815 0.997651
O O12 0.311995 0.178862 0.327825
O O13 0.919438 0.868875 0.784840
O O14 0.500000 0.500000 0.500000
O O15 0.552607 0.589082 0.249123
O O16 0.500000 0.500000 0.000000
#
# Coordination Sequence:
#
# PCOD8034946 Si02
#       7
#     2   2   2   2   2   2   2
#     4  12  27  46  80 122 160 207 269 334 410 484
#     4  11  24  46  81 111 155 207 263 327 394 476
#     4  12  28  49  76 113 158 206 268 329 404 481
#     4  11  24  46  80 109 154 203 268 316 400 475
#     4  12  27  51  78 113 163 208 273 332 402 483
#     4  12  28  49  82 114 157 214 276 328 402 487
#     4  12  31  52  80 114 167 217 264 339 420 475
#
# _framework density 24.884623000000001
#
# number of rings (size 3 to 8) (size 9 to 14) (size 15 to 20)
#    0.000    0.286    4.286    3.000    8.000    4.571 
#    0.000    0.000    0.000    0.000    0.000    0.000 
#    0.000    0.000    0.000    0.000    0.000    0.000 
#
# Total GULP energy -173596.596525 kJ/mol
# GULP energy per Si atom -12399.756895 kJ/mol
# Density = 2.482798 g / cm^3
# Si number density = 24.884623 Si / 1000 Ang^3
#
#
#
# Elastic Constant Matrix: (Units=GPa)
#
#
# Indices 1 2 3 4 5 6 
#
# 1 182.5357 53.9288 60.6783 -0.2137 -4.4236 -11.6701
# 2 53.9288 135.7911 44.5620 0.3421 -21.0300 17.2669
# 3 60.6783 44.5620 110.5405 3.2360 -8.7961 -4.2510
# 4 -0.2137 0.3421 3.2360 35.5296 1.7186 -2.4219
# 5 -4.4236 -21.0300 -8.7961 1.7186 47.7448 5.2743
# 6 -11.6701 17.2669 -4.2510 -2.4219 5.2743 41.7356
#
#
#
# Elastic Compliance Matrix: (Units=1/GPa)
#
#
# Indices 1 2 3 4 5 6 
#
# 1 0.007401 -0.002531 -0.003052 0.000617 -0.001346 0.003012
# 2 -0.002531 0.010792 -0.002807 -0.000505 0.004692 -0.006080
# 3 -0.003052 -0.002807 0.011982 -0.001015 0.000571 0.001397
# 4 0.000617 -0.000505 -0.001015 0.028470 -0.001613 0.002134
# 5 -0.001346 0.004692 0.000571 -0.001613 0.023640 -0.005340
# 6 0.003012 -0.006080 0.001397 0.002134 -0.005340 0.028259
#
#
# Mechanical properties :
#
#
# Convention : Reuss Voigt Hill
#
# Bulk Modulus (GPa) = 74.65063 83.02286 78.83674
# Shear Modulus (GPa) = 37.93976 42.98186 40.46081
#
# Velocity S-wave (km/s) = 3.90888 4.16052 4.03666
# Velocity P-wave (km/s) = 7.10185 7.51768 7.31272
#
# Compressibility (1/GPa) = 0.01339573
#
# Stress axis : x y z
#
# Youngs Moduli (GPa) = 135.11255 92.66538 83.45820
#
# Poissons Ratio (x) = 0.23452 0.25470
# Poissons Ratio (y) = 0.34195 0.23425
# Poissons Ratio (z) = 0.41234 0.26010
#
# Static dielectric constant tensor:
#      x y z
#    x 4.949970 -0.045010 0.137080 
#    y -0.045010 5.143830 0.038740 
#    z 0.137080 0.038740 4.479680 
# 
# 
# High freq. dielectric constant tensor:
#      x y z
#    x 2.015690 0.003000 0.007870 
#    y 0.003000 1.991570 -0.005060 
#    z 0.007870 -0.005060 1.992340 
# 
# From -- ./inp_files/471954.got.cif
#   From: 2010.06.25/outbox.cif.g09.slc.cpg/sg2_236_cif.got.tgz:471954.got - 2010.06.27 13:26:56.
