data_PCOD8034142
_publ_section_title
;
Structure prediction by ZEFSAII (Michael W. Deem and Ramdas Pophale) SiO2 
 PCOD8034142
Probable space group: P -1
;
_chemical_formula_sum "Si O2"
_cell_formula_units_Z 16
_cell_length_a 9.142023
_cell_length_b 13.783737
_cell_length_c 9.380023
_cell_angle_alpha 120.177611
_cell_angle_beta 59.947446
_cell_angle_gamma 78.333921
_cell_volume 703.079809
_symmetry_space_group_name_H-M "P -1"
_symmetry_group_IT_number 2
_symmetry_cell_setting 'triclinic'
loop_
_space_group_symop_operation_xyz
x,y,z
-x,-y,-z
loop_
_atom_site_type_symbol
_atom_site_label
_atom_site_fract_x
_atom_site_fract_y
_atom_site_fract_z
Si Si1 0.050257 0.779323 0.446849
Si Si2 0.074061 0.378476 0.983087
Si Si3 0.476253 0.880307 0.523730
Si Si4 0.643659 0.021150 0.652653
Si Si5 0.856357 0.148821 0.254763
Si Si6 0.128733 0.505209 0.314664
Si Si7 0.719240 0.357027 0.239493
Si Si8 0.407751 0.715149 0.018852
O O1 0.044386 0.859081 0.648121
O O2 0.021315 0.661276 0.419827
O O3 0.269476 0.712423 0.207588
O O4 0.864822 0.891136 0.513999
O O5 0.150041 0.403339 0.109083
O O6 0.869860 0.383500 0.106509
O O7 0.275133 0.230262 0.715612
O O8 0.000000 0.500000 0.000000
O O9 0.329804 0.961987 0.516312
O O10 0.382285 0.806440 0.585742
O O11 0.468402 0.990184 0.718871
O O12 0.565619 0.161882 0.880429
O O13 0.840962 0.265577 0.252752
O O14 0.000000 0.000000 0.000000
O O15 0.000000 0.500000 0.500000
O O16 0.365345 0.438549 0.202271
O O17 0.500000 0.500000 0.500000
O O18 0.684233 0.268283 0.081601
#
# Coordination Sequence:
#
# PCOD8034142 Si02
#       8
#     2   2   2   2   2   2   2   2
#     4  12  25  46  73 104 134 187 239 282 341 423
#     4  12  24  46  74 101 135 188 234 282 344 417
#     4  11  25  45  71 103 141 184 236 283 347 419
#     4  11  24  43  75 101 135 176 245 282 333 409
#     4  12  27  45  69 104 147 181 226 291 361 405
#     4  12  26  45  67 102 141 178 226 292 349 404
#     4  12  27  46  72 106 144 181 228 293 356 409
#     4  12  24  46  73 102 137 186 236 282 340 418
#
# _framework density 22.757017999999999
#
# number of rings (size 3 to 8) (size 9 to 14) (size 15 to 20)
#    0.000    0.250    2.500    6.750    5.250    2.000 
#    0.000    1.875    0.000    0.000    0.000    0.000 
#    0.000    0.000    0.000    0.000    0.000    0.000 
#
# Total GULP energy -198431.835305 kJ/mol
# GULP energy per Si atom -12401.989707 kJ/mol
# Density = 2.270522 g / cm^3
# Si number density = 22.757018 Si / 1000 Ang^3
#
#
#
# Elastic Constant Matrix: (Units=GPa)
#
#
# Indices 1 2 3 4 5 6 
#
# 1 136.0262 48.6847 50.8231 -5.7263 10.0760 1.3207
# 2 48.6847 146.4167 50.9072 1.2313 -15.0565 -5.5379
# 3 50.8231 50.9072 114.9315 -3.4427 -4.7758 -1.8806
# 4 -5.7263 1.2313 -3.4427 32.5520 -2.0787 3.3474
# 5 10.0760 -15.0565 -4.7758 -2.0787 43.1025 9.0581
# 6 1.3207 -5.5379 -1.8806 3.3474 9.0581 45.0115
#
#
#
# Elastic Compliance Matrix: (Units=1/GPa)
#
#
# Indices 1 2 3 4 5 6 
#
# 1 0.009791 -0.002460 -0.003347 0.001256 -0.003431 -0.000133
# 2 -0.002460 0.008972 -0.002770 -0.000905 0.003259 0.000472
# 3 -0.003347 -0.002770 0.011478 0.000808 0.001136 -0.000052
# 4 0.001256 -0.000905 0.000808 0.031446 0.001578 -0.002771
# 5 -0.003431 0.003259 0.001136 0.001578 0.026367 -0.004874
# 6 -0.000133 0.000472 -0.000052 -0.002771 -0.004874 0.023463
#
#
# Mechanical properties :
#
#
# Convention : Reuss Voigt Hill
#
# Bulk Modulus (GPa) = 76.41362 77.57827 76.99594
# Shear Modulus (GPa) = 37.58438 40.59717 39.09078
#
# Velocity S-wave (km/s) = 4.06834 4.22825 4.14907
# Velocity P-wave (km/s) = 7.46454 7.61586 7.54058
#
# Compressibility (1/GPa) = 0.01308667
#
# Stress axis : x y z
#
# Youngs Moduli (GPa) = 102.13639 111.46373 87.12092
#
# Poissons Ratio (x) = 0.27422 0.29159
# Poissons Ratio (y) = 0.25128 0.24131
# Poissons Ratio (z) = 0.34184 0.30874
#
# Static dielectric constant tensor:
#      x y z
#    x 4.428760 0.033410 0.102170 
#    y 0.033410 4.058060 0.053360 
#    z 0.102170 0.053360 4.063700 
# 
# 
# High freq. dielectric constant tensor:
#      x y z
#    x 1.919810 0.001050 0.012060 
#    y 0.001050 1.906280 0.004400 
#    z 0.012060 0.004400 1.894070 
# 
# From -- ./inp_files/208622.got.cif
#   From: 2010.06.25/outbox.cif.g09.slc.cpg/sg2_105_cif.got.tgz:208622.got - 2010.06.27 13:26:56.
