data_PCOD8034593
_publ_section_title
;
Structure prediction by ZEFSAII (Michael W. Deem and Ramdas Pophale) SiO2 
 PCOD8034593
Probable space group: P -1
;
_chemical_formula_sum "Si O2"
_cell_formula_units_Z 16
_cell_length_a 11.571535
_cell_length_b 9.447916
_cell_length_c 8.038100
_cell_angle_alpha 91.280533
_cell_angle_beta 115.689559
_cell_angle_gamma 63.960370
_cell_volume 696.055020
_symmetry_space_group_name_H-M "P -1"
_symmetry_group_IT_number 2
_symmetry_cell_setting 'triclinic'
loop_
_space_group_symop_operation_xyz
x,y,z
-x,-y,-z
loop_
_atom_site_type_symbol
_atom_site_label
_atom_site_fract_x
_atom_site_fract_y
_atom_site_fract_z
Si Si1 0.835511 0.267818 0.262674
Si Si2 0.383988 0.838884 0.034257
Si Si3 0.875384 0.949732 0.746377
Si Si4 0.889171 0.246612 0.669334
Si Si5 0.440610 0.876182 0.447667
Si Si6 0.380566 0.466447 0.340828
Si Si7 0.676652 0.600465 0.034454
Si Si8 0.816239 0.814527 0.046523
O O1 0.840389 0.217933 0.456409
O O2 0.772682 0.461206 0.222180
O O3 0.999430 0.183656 0.291837
O O4 0.733582 0.216650 0.093003
O O5 0.413911 0.819212 0.249404
O O6 0.535967 0.740900 0.034691
O O7 0.316947 0.027447 0.951233
O O8 0.909996 0.099495 0.801822
O O9 0.717105 0.038563 0.556544
O O10 0.856848 0.861494 0.894777
O O11 0.775133 0.419538 0.673898
O O12 0.042089 0.247767 0.749905
O O13 0.566733 0.722338 0.612561
O O14 0.500000 0.000000 0.500000
O O15 0.500000 0.500000 0.500000
O O16 0.370099 0.491260 0.136145
O O17 0.772338 0.673033 0.008647
#
# Coordination Sequence:
#
# PCOD8034593 Si02
#       8
#     2   2   2   2   2   2   2   2
#     4  12  26  44  73 103 136 185 229 288 343 406
#     4  11  24  46  71  99 142 182 227 283 343 414
#     4  11  24  45  71  99 139 175 236 282 336 416
#     4  12  25  44  72 102 137 182 239 281 338 417
#     4  11  25  43  70 103 135 182 226 279 347 404
#     4  12  23  41  70  96 134 182 227 283 332 406
#     4  12  27  45  68 106 143 177 230 289 349 407
#     4  11  26  44  72 100 137 186 223 289 352 399
#
# _framework density 22.986689999999999
#
# number of rings (size 3 to 8) (size 9 to 14) (size 15 to 20)
#    0.000    0.500    2.500    6.000    3.500    4.500 
#    0.000    0.000    0.000    0.000    0.000    0.000 
#    0.000    0.000    0.000    0.000    0.000    0.000 
#
# Total GULP energy -198352.380542 kJ/mol
# GULP energy per Si atom -12397.023784 kJ/mol
# Density = 2.293437 g / cm^3
# Si number density = 22.986690 Si / 1000 Ang^3
#
#
#
# Elastic Constant Matrix: (Units=GPa)
#
#
# Indices 1 2 3 4 5 6 
#
# 1 109.9659 47.3787 29.3792 -4.7851 4.0632 -13.1285
# 2 47.3787 120.7574 20.1670 -17.8325 3.1319 -15.6750
# 3 29.3792 20.1670 89.2709 -1.9280 -3.7036 -6.0931
# 4 -4.7851 -17.8325 -1.9280 30.2257 -4.6593 2.4374
# 5 4.0632 3.1319 -3.7036 -4.6593 31.6144 -5.9880
# 6 -13.1285 -15.6750 -6.0931 2.4374 -5.9880 53.2632
#
#
#
# Elastic Compliance Matrix: (Units=1/GPa)
#
#
# Indices 1 2 3 4 5 6 
#
# 1 0.011802 -0.004093 -0.002953 -0.001048 -0.001373 0.001260
# 2 -0.004093 0.011130 -0.000886 0.005788 0.000544 0.001962
# 3 -0.002953 -0.000886 0.012507 0.000073 0.002070 0.000672
# 4 -0.001048 0.005788 0.000073 0.037097 0.005099 0.000329
# 5 -0.001373 0.000544 0.002070 0.005099 0.033426 0.003583
# 6 0.001260 0.001962 0.000672 0.000329 0.003583 0.020127
#
#
# Mechanical properties :
#
#
# Convention : Reuss Voigt Hill
#
# Bulk Modulus (GPa) = 51.08427 57.09378 54.08903
# Shear Modulus (GPa) = 33.67501 37.89195 35.78348
#
# Velocity S-wave (km/s) = 3.83166 4.06449 3.94979
# Velocity P-wave (km/s) = 6.46893 6.84970 6.66204
#
# Compressibility (1/GPa) = 0.01957550
#
# Stress axis : x y z
#
# Youngs Moduli (GPa) = 84.73444 89.84728 79.95449
#
# Poissons Ratio (x) = 0.36772 0.23610
# Poissons Ratio (y) = 0.34679 0.07084
# Poissons Ratio (z) = 0.25021 0.07960
#
# Static dielectric constant tensor:
#      x y z
#    x 4.005410 0.600570 -0.507340 
#    y 0.600570 -0.799020 4.738270 
#    z -0.507340 4.738270 -0.467380 
# 
# 
# High freq. dielectric constant tensor:
#      x y z
#    x 1.905310 -0.009540 0.013370 
#    y -0.009540 1.924140 -0.015870 
#    z 0.013370 -0.015870 1.909220 
# 
# From -- ./inp_files/244714.got.cif
#   From: 2010.06.25/outbox.cif.g09.slc.cpg/sg2_123_cif.got.tgz:244714.got - 2010.06.27 13:26:56.
