data_PCOD8034645
_publ_section_title
;
Structure prediction by ZEFSAII (Michael W. Deem and Ramdas Pophale) SiO2 
 PCOD8034645
Probable space group: P -1
;
_chemical_formula_sum "Si O2"
_cell_formula_units_Z 14
_cell_length_a 11.471037
_cell_length_b 27.700614
_cell_length_c 14.139419
_cell_angle_alpha 157.829670
_cell_angle_beta 35.049962
_cell_angle_gamma 157.752696
_cell_volume 618.184020
_symmetry_space_group_name_H-M "P -1"
_symmetry_group_IT_number 2
_symmetry_cell_setting 'triclinic'
loop_
_space_group_symop_operation_xyz
x,y,z
-x,-y,-z
loop_
_atom_site_type_symbol
_atom_site_label
_atom_site_fract_x
_atom_site_fract_y
_atom_site_fract_z
Si Si1 0.623286 0.916551 0.263445
Si Si2 0.214053 0.903414 0.082755
Si Si3 0.353876 0.562003 0.669929
Si Si4 0.672265 0.293963 0.588321
Si Si5 0.597691 0.715893 0.076769
Si Si6 0.341731 0.326926 0.518603
Si Si7 0.671806 0.490049 0.791877
O O1 0.568644 0.833456 0.253302
O O2 0.500000 0.000000 0.500000
O O3 0.444818 0.732911 0.978393
O O4 0.989209 0.103412 0.330287
O O5 0.972788 0.865020 0.106523
O O6 0.368747 0.055331 0.342272
O O7 0.008728 0.697339 0.899952
O O8 0.500000 0.000000 0.000000
O O9 0.500000 0.500000 0.500000
O O10 0.455107 0.644834 0.645787
O O11 0.969352 0.361476 0.558511
O O12 0.554244 0.346961 0.832947
O O13 0.757594 0.399702 0.623030
O O14 0.391834 0.502113 0.777807
O O15 0.441706 0.347397 0.597157
O O16 0.500000 0.500000 0.000000
#
# Coordination Sequence:
#
# PCOD8034645 Si02
#       7
#     2   2   2   2   2   2   2
#     4  12  28  45  77 107 144 205 260 300 370 451
#     4  11  25  43  74 110 150 194 243 312 389 444
#     4  12  28  50  72 106 153 200 250 312 374 438
#     4  12  25  44  75 104 149 197 247 310 376 449
#     4  11  24  45  73 110 149 192 252 311 372 454
#     4  11  24  48  74 102 153 190 246 318 372 439
#     4  11  24  45  75 111 149 188 252 311 378 454
#
# _framework density 22.646977
#
# number of rings (size 3 to 8) (size 9 to 14) (size 15 to 20)
#    0.000    0.571    4.286    4.286    4.000    4.571 
#    0.000    0.000    0.000    0.000    0.000    0.000 
#    0.000    0.000    0.000    0.000    0.000    0.000 
#
# Total GULP energy -173524.294579 kJ/mol
# GULP energy per Si atom -12394.592470 kJ/mol
# Density = 2.259543 g / cm^3
# Si number density = 22.646977 Si / 1000 Ang^3
#
#
#
# Elastic Constant Matrix: (Units=GPa)
#
#
# Indices 1 2 3 4 5 6 
#
# 1 126.0769 32.9178 44.6003 -4.1661 -10.0609 -1.1268
# 2 32.9178 92.2977 12.5146 8.8448 -2.4042 -22.4894
# 3 44.6003 12.5146 104.6672 9.5349 2.8602 -0.3553
# 4 -4.1661 8.8448 9.5349 43.6818 -0.8858 12.6047
# 5 -10.0609 -2.4042 2.8602 -0.8858 41.7647 -6.7308
# 6 -1.1268 -22.4894 -0.3553 12.6047 -6.7308 24.9978
#
#
#
# Elastic Compliance Matrix: (Units=1/GPa)
#
#
# Indices 1 2 3 4 5 6 
#
# 1 0.011255 -0.005413 -0.004685 0.005112 0.001777 -0.006528
# 2 -0.005413 0.019791 0.000996 -0.011715 0.003453 0.024412
# 3 -0.004685 0.000996 0.011844 -0.003967 -0.001575 0.002429
# 4 0.005112 -0.011715 -0.003967 0.034857 -0.003068 -0.028768
# 5 0.001777 0.003453 -0.001575 -0.003068 0.026523 0.011853
# 6 -0.006528 0.024412 0.002429 -0.028768 0.011853 0.079404
#
#
# Mechanical properties :
#
#
# Convention : Reuss Voigt Hill
#
# Bulk Modulus (GPa) = 40.50945 55.90082 48.20514
# Shear Modulus (GPa) = 23.79745 37.62279 30.71012
#
# Velocity S-wave (km/s) = 3.24512 4.08029 3.68643
# Velocity P-wave (km/s) = 5.65396 6.85095 6.28104
#
# Compressibility (1/GPa) = 0.02468560
#
# Stress axis : x y z
#
# Youngs Moduli (GPa) = 88.85202 50.52824 84.43096
#
# Poissons Ratio (x) = 0.27351 0.39556
# Poissons Ratio (y) = 0.48096 -0.08410
# Poissons Ratio (z) = 0.41627 -0.05033
#
# Static dielectric constant tensor:
#      x y z
#    x 4.680710 0.120350 0.407530 
#    y 0.120350 4.157410 0.196020 
#    z 0.407530 0.196020 4.308330 
# 
# 
# High freq. dielectric constant tensor:
#      x y z
#    x 1.899190 -0.007810 0.011730 
#    y -0.007810 1.903240 0.003950 
#    z 0.011730 0.003950 1.899090 
# 
# From -- ./inp_files/524641.got.cif
#   From: 2010.06.25/outbox.cif.g09.slc.cpg/sg2_263_cif.got.tgz:524641.got - 2010.06.27 13:26:56.
