data_PCOD8034160
_publ_section_title
;
Structure prediction by ZEFSAII (Michael W. Deem and Ramdas Pophale) SiO2 
 PCOD8034160
Probable space group: P -1
;
_chemical_formula_sum "Si O2"
_cell_formula_units_Z 10
_cell_length_a 10.844201
_cell_length_b 10.214638
_cell_length_c 7.582667
_cell_angle_alpha 109.913149
_cell_angle_beta 40.359281
_cell_angle_gamma 127.149567
_cell_volume 421.744107
_symmetry_space_group_name_H-M "P -1"
_symmetry_group_IT_number 2
_symmetry_cell_setting 'triclinic'
loop_
_space_group_symop_operation_xyz
x,y,z
-x,-y,-z
loop_
_atom_site_type_symbol
_atom_site_label
_atom_site_fract_x
_atom_site_fract_y
_atom_site_fract_z
Si Si1 0.633282 0.938596 0.432245
Si Si2 0.346357 0.810938 0.020941
Si Si3 0.885985 0.787693 0.017057
Si Si4 0.554395 0.432736 0.081558
Si Si5 0.055920 0.166448 0.621379
O O1 0.500000 0.000000 0.500000
O O2 0.467949 0.811017 0.707127
O O3 0.700351 0.832008 0.189675
O O4 0.879947 0.107344 0.310161
O O5 0.350225 0.686166 0.102142
O O6 0.088998 0.761671 0.256793
O O7 0.500000 0.000000 0.000000
O O8 0.757192 0.588505 0.045912
O O9 0.985192 0.863943 0.139194
O O10 0.318644 0.321708 0.392191
O O11 0.500000 0.500000 0.000000
O O12 0.000000 0.000000 0.500000
#
# Coordination Sequence:
#
# PCOD8034160 Si02
#       5
#     2   2   2   2   2
#     4  11  24  43  77 106 140 189 240 289 368 428
#     4  12  26  46  76 105 142 191 245 290 363 435
#     4  11  26  47  72 108 149 183 240 303 358 425
#     4  12  30  46  70 108 151 189 241 303 356 420
#     4  12  25  49  76 103 144 193 241 300 360 428
#
# _framework density 23.71106
#
# number of rings (size 3 to 8) (size 9 to 14) (size 15 to 20)
#    0.000    0.400    6.000    0.600   11.200    3.200 
#    0.000    0.000    0.000    0.000    0.000    0.000 
#    0.000    0.000    0.000    0.000    0.000    0.000 
#
# Total GULP energy -123886.649616 kJ/mol
# GULP energy per Si atom -12388.664962 kJ/mol
# Density = 2.365709 g / cm^3
# Si number density = 23.711060 Si / 1000 Ang^3
#
#
#
# Elastic Constant Matrix: (Units=GPa)
#
#
# Indices 1 2 3 4 5 6 
#
# 1 133.6799 58.1253 16.8332 21.8182 -18.0217 -40.6298
# 2 58.1253 166.6683 20.3461 -3.1928 -19.6370 -15.9005
# 3 16.8332 20.3461 53.4658 7.2181 -31.3731 -11.4121
# 4 21.8182 -3.1928 7.2181 32.6456 -3.7933 -12.8955
# 5 -18.0217 -19.6370 -31.3731 -3.7933 50.4789 7.3909
# 6 -40.6298 -15.9005 -11.4121 -12.8955 7.3909 60.2714
#
#
#
# Elastic Compliance Matrix: (Units=1/GPa)
#
#
# Indices 1 2 3 4 5 6 
#
# 1 0.011938 -0.003591 0.000891 -0.006020 0.002129 0.005720
# 2 -0.003591 0.007632 -0.001766 0.003608 0.000872 -0.000076
# 3 0.000891 -0.001766 0.030911 -0.004381 0.018099 0.002831
# 4 -0.006020 0.003608 -0.004381 0.037506 -0.001272 0.004245
# 5 0.002129 0.000872 0.018099 -0.001272 0.031930 0.000904
# 6 0.005720 -0.000076 0.002831 0.004245 0.000904 0.021760
#
#
# Mechanical properties :
#
#
# Convention : Reuss Voigt Hill
#
# Bulk Modulus (GPa) = 24.06768 60.49147 42.27958
# Shear Modulus (GPa) = 30.40286 45.91312 38.15799
#
# Velocity S-wave (km/s) = 3.58470 4.40518 4.01595
# Velocity P-wave (km/s) = 5.22550 7.17227 6.27484
#
# Compressibility (1/GPa) = 0.04154949
#
# Stress axis : x y z
#
# Youngs Moduli (GPa) = 83.76913 131.02158 32.35112
#
# Poissons Ratio (x) = 0.47047 -0.02881
# Poissons Ratio (y) = 0.30080 0.05712
# Poissons Ratio (z) = -0.07461 0.23132
#
# Static dielectric constant tensor:
#      x y z
#    x 4.846080 -0.633200 -0.391140 
#    y -0.633200 4.745070 -0.077850 
#    z -0.391140 -0.077850 2.758310 
# 
# 
# High freq. dielectric constant tensor:
#      x y z
#    x 1.941440 -0.023120 -0.019240 
#    y -0.023120 1.937720 -0.007750 
#    z -0.019240 -0.007750 1.949160 
# 
# From -- ./inp_files/135969.got.cif
#   From: 2010.06.25/outbox.cif.g09.slc.cpg/sg2_68_cif.got.tgz:135969.got - 2010.06.27 13:26:56.
