data_PCOD8034127
_publ_section_title
;
Structure prediction by ZEFSAII (Michael W. Deem and Ramdas Pophale) SiO2 
 PCOD8034127
Probable space group: P -1
;
_chemical_formula_sum "Si O2"
_cell_formula_units_Z 16
_cell_length_a 8.946416
_cell_length_b 14.566467
_cell_length_c 8.609530
_cell_angle_alpha 137.072924
_cell_angle_beta 69.316920
_cell_angle_gamma 103.629003
_cell_volume 714.424041
_symmetry_space_group_name_H-M "P -1"
_symmetry_group_IT_number 2
_symmetry_cell_setting 'triclinic'
loop_
_space_group_symop_operation_xyz
x,y,z
-x,-y,-z
loop_
_atom_site_type_symbol
_atom_site_label
_atom_site_fract_x
_atom_site_fract_y
_atom_site_fract_z
Si Si1 0.713391 0.321921 0.834319
Si Si2 0.944027 0.709015 0.848186
Si Si3 0.986486 0.160191 0.695860
Si Si4 0.544179 0.550374 0.376932
Si Si5 0.288670 0.180145 0.416664
Si Si6 0.454751 0.901098 0.530790
Si Si7 0.206067 0.567958 0.372038
Si Si8 0.821710 0.948087 0.006044
O O1 0.564246 0.247250 0.719365
O O2 0.814944 0.393701 0.752756
O O3 0.819790 0.207166 0.738878
O O4 0.653517 0.433572 0.115530
O O5 0.842694 0.584276 0.780821
O O6 0.821916 0.805344 0.916933
O O7 0.096131 0.668436 0.638062
O O8 0.012487 0.784972 0.063356
O O9 0.128773 0.221822 0.620670
O O10 0.000000 0.000000 0.500000
O O11 0.500000 0.500000 0.500000
O O12 0.642552 0.686106 0.519350
O O13 0.388353 0.583373 0.373527
O O14 0.408527 0.103559 0.395958
O O15 0.249329 0.072219 0.164413
O O16 0.500000 0.000000 0.500000
O O17 0.287724 0.944665 0.727018
O O18 0.000000 0.000000 0.000000
#
# Coordination Sequence:
#
# PCOD8034127 Si02
#       8
#     2   2   2   2   2   2   2   2
#     4  12  26  46  73 101 148 188 237 302 367 423
#     4  11  24  43  74 102 143 189 242 291 363 433
#     4  12  26  47  70 106 144 188 243 296 360 442
#     4  12  27  45  73 105 148 189 242 305 360 429
#     4  12  26  46  74 106 146 189 246 296 366 431
#     4  12  27  45  72 107 145 193 242 299 364 436
#     4  11  24  45  71 104 142 187 239 302 360 427
#     4  12  26  47  74 103 148 195 241 299 360 436
#
# _framework density 22.395662999999999
#
# number of rings (size 3 to 8) (size 9 to 14) (size 15 to 20)
#    0.000    0.250    1.250    8.250    5.250    4.000 
#    4.500    0.000    0.000    0.000    0.000    0.000 
#    0.000    0.000    0.000    0.000    0.000    0.000 
#
# Total GULP energy -198538.913210 kJ/mol
# GULP energy per Si atom -12408.682076 kJ/mol
# Density = 2.234469 g / cm^3
# Si number density = 22.395663 Si / 1000 Ang^3
#
#
#
# Elastic Constant Matrix: (Units=GPa)
#
#
# Indices 1 2 3 4 5 6 
#
# 1 111.0916 25.9011 32.7856 -8.3176 14.5381 -4.1583
# 2 25.9011 127.6348 42.7365 -18.5044 18.2850 3.7517
# 3 32.7856 42.7365 128.6828 -15.3136 18.5390 10.0548
# 4 -8.3176 -18.5044 -15.3136 30.9296 -4.9909 -0.0871
# 5 14.5381 18.2850 18.5390 -4.9909 29.6308 -5.0345
# 6 -4.1583 3.7517 10.0548 -0.0871 -5.0345 44.9838
#
#
#
# Elastic Compliance Matrix: (Units=1/GPa)
#
#
# Indices 1 2 3 4 5 6 
#
# 1 0.010262 -0.000952 -0.001865 0.000793 -0.002957 0.001115
# 2 -0.000952 0.009839 -0.001913 0.004055 -0.003879 -0.000907
# 3 -0.001865 -0.001913 0.010009 0.002627 -0.004186 -0.002713
# 4 0.000793 0.004055 0.002627 0.036513 0.001512 -0.000612
# 5 -0.002957 -0.003879 -0.004186 0.001512 0.041422 0.005624
# 6 0.001115 -0.000907 -0.002713 -0.000612 0.005624 0.023644
#
#
# Mechanical properties :
#
#
# Convention : Reuss Voigt Hill
#
# Bulk Modulus (GPa) = 48.42637 63.36171 55.89404
# Shear Modulus (GPa) = 33.77634 38.84123 36.30879
#
# Velocity S-wave (km/s) = 3.88772 4.16903 4.03083
# Velocity P-wave (km/s) = 6.46704 7.17829 6.83192
#
# Compressibility (1/GPa) = 0.02064991
#
# Stress axis : x y z
#
# Youngs Moduli (GPa) = 97.44545 101.63931 99.90958
#
# Poissons Ratio (x) = 0.09678 0.18634
# Poissons Ratio (y) = 0.09279 0.19110
# Poissons Ratio (z) = 0.18175 0.19440
#
# Static dielectric constant tensor:
#      x y z
#    x 4.109000 -0.111750 0.032920 
#    y -0.111750 4.208950 -0.149970 
#    z 0.032920 -0.149970 4.200910 
# 
# 
# High freq. dielectric constant tensor:
#      x y z
#    x 1.889570 -0.001810 0.003120 
#    y -0.001810 1.905250 -0.003120 
#    z 0.003120 -0.003120 1.895660 
# 
# From -- ./inp_files/209190.got.cif
#   From: 2010.06.25/outbox.cif.g09.slc.cpg/sg2_105_cif.got.tgz:209190.got - 2010.06.27 13:26:56.
