data_PCOD8034914
_publ_section_title
;
Structure prediction by ZEFSAII (Michael W. Deem and Ramdas Pophale) SiO2 
 PCOD8034914
Probable space group: P -1
;
_chemical_formula_sum "Si O2"
_cell_formula_units_Z 16
_cell_length_a 11.047825
_cell_length_b 8.800789
_cell_length_c 11.197286
_cell_angle_alpha 128.886265
_cell_angle_beta 64.756423
_cell_angle_gamma 87.761196
_cell_volume 689.916750
_symmetry_space_group_name_H-M "P -1"
_symmetry_group_IT_number 2
_symmetry_cell_setting 'triclinic'
loop_
_space_group_symop_operation_xyz
x,y,z
-x,-y,-z
loop_
_atom_site_type_symbol
_atom_site_label
_atom_site_fract_x
_atom_site_fract_y
_atom_site_fract_z
Si Si1 0.407879 0.866312 0.964818
Si Si2 0.990631 0.298071 0.103982
Si Si3 0.749888 0.756846 0.396033
Si Si4 0.129562 0.893663 0.487130
Si Si5 0.699789 0.830298 0.193002
Si Si6 0.078978 0.030383 0.164516
Si Si7 0.482749 0.740607 0.616411
Si Si8 0.611538 0.557358 0.909993
O O1 0.387838 0.843463 0.823380
O O2 0.516188 0.644202 0.872617
O O3 0.500000 0.000000 0.000000
O O4 0.236228 0.979251 0.140716
O O5 0.033958 0.230953 0.190505
O O6 0.905176 0.556190 0.259995
O O7 0.128862 0.236316 0.929228
O O8 0.895472 0.182362 0.029229
O O9 0.683847 0.737457 0.283807
O O10 0.641355 0.748897 0.542671
O O11 0.768240 0.978334 0.496758
O O12 0.232013 0.643898 0.286062
O O13 0.054058 0.905905 0.653328
O O14 0.000000 0.000000 0.500000
O O15 0.617462 0.094982 0.363572
O O16 0.638004 0.736509 0.064580
O O17 0.500000 0.500000 0.500000
O O18 0.500000 0.500000 0.000000
#
# Coordination Sequence:
#
# PCOD8034914 Si02
#       8
#     2   2   2   2   2   2   2   2
#     4  12  26  49  73 105 150 196 240 302 371 444
#     4  11  24  46  75 106 144 194 247 305 369 432
#     4  12  28  45  76 109 149 191 250 306 362 445
#     4  12  28  47  75 113 151 192 246 308 373 438
#     4  12  25  52  71 110 146 195 248 297 378 442
#     4  11  25  47  76 106 147 192 250 305 368 441
#     4  12  28  46  74 109 147 190 250 301 364 436
#     4  12  28  47  76 105 152 197 240 302 376 440
#
# _framework density 23.191205
#
# number of rings (size 3 to 8) (size 9 to 14) (size 15 to 20)
#    0.000    0.250    3.750    3.750   12.250    0.000 
#    0.000    1.875    0.000    0.000    0.000    0.000 
#    0.000    0.000    0.000    0.000    0.000    0.000 
#
# Total GULP energy -198301.289541 kJ/mol
# GULP energy per Si atom -12393.830596 kJ/mol
# Density = 2.313842 g / cm^3
# Si number density = 23.191205 Si / 1000 Ang^3
#
#
#
# Elastic Constant Matrix: (Units=GPa)
#
#
# Indices 1 2 3 4 5 6 
#
# 1 99.6512 33.5862 23.2240 3.9696 -22.7833 -0.4804
# 2 33.5862 133.5016 44.9191 8.6873 -15.8940 -7.4485
# 3 23.2240 44.9191 91.8957 7.7230 -24.3201 -1.2139
# 4 3.9696 8.6873 7.7230 45.9749 -4.2725 -9.2430
# 5 -22.7833 -15.8940 -24.3201 -4.2725 40.1715 -0.8155
# 6 -0.4804 -7.4485 -1.2139 -9.2430 -0.8155 52.1879
#
#
#
# Elastic Compliance Matrix: (Units=1/GPa)
#
#
# Indices 1 2 3 4 5 6 
#
# 1 0.012214 -0.002234 -0.000471 -0.000046 0.005750 -0.000136
# 2 -0.002234 0.009511 -0.004005 -0.000705 0.000019 0.001119
# 3 -0.000471 -0.004005 0.014915 -0.001116 0.007053 -0.000317
# 4 -0.000046 -0.000705 -0.001116 0.023018 0.001548 0.003974
# 5 0.005750 0.000019 0.007053 0.001548 0.032617 0.001004
# 6 -0.000136 0.001119 -0.000317 0.003974 0.001004 0.020032
#
#
# Mechanical properties :
#
#
# Convention : Reuss Voigt Hill
#
# Bulk Modulus (GPa) = 43.06848 58.72300 50.89574
# Shear Modulus (GPa) = 37.46249 42.55480 40.00865
#
# Velocity S-wave (km/s) = 4.02353 4.28828 4.15802
# Velocity P-wave (km/s) = 6.34007 7.06367 6.71163
#
# Compressibility (1/GPa) = 0.02321884
#
# Stress axis : x y z
#
# Youngs Moduli (GPa) = 81.87579 105.14304 67.04749
#
# Poissons Ratio (x) = 0.23492 0.03155
# Poissons Ratio (y) = 0.18294 0.26855
# Poissons Ratio (z) = 0.03853 0.42113
#
# Static dielectric constant tensor:
#      x y z
#    x 3.881540 -0.174390 -0.441670 
#    y -0.174390 3.975240 -0.504440 
#    z -0.441670 -0.504440 3.706240 
# 
# 
# High freq. dielectric constant tensor:
#      x y z
#    x 1.920420 -0.001350 -0.017230 
#    y -0.001350 1.939820 -0.005300 
#    z -0.017230 -0.005300 1.913400 
# 
# From -- ./inp_files/190685.got.cif
#   From: 2010.06.25/outbox.cif.g09.slc.cpg/sg2_96_cif.got.tgz:190685.got - 2010.06.27 13:26:56.
