data_PCOD8034146
_publ_section_title
;
Structure prediction by ZEFSAII (Michael W. Deem and Ramdas Pophale) SiO2 
 PCOD8034146
Probable space group: P -1
;
_chemical_formula_sum "Si O2"
_cell_formula_units_Z 14
_cell_length_a 25.464036
_cell_length_b 14.601104
_cell_length_c 5.483903
_cell_angle_alpha 122.665509
_cell_angle_beta 56.593690
_cell_angle_gamma 158.850853
_cell_volume 611.767257
_symmetry_space_group_name_H-M "P -1"
_symmetry_group_IT_number 2
_symmetry_cell_setting 'triclinic'
loop_
_space_group_symop_operation_xyz
x,y,z
-x,-y,-z
loop_
_atom_site_type_symbol
_atom_site_label
_atom_site_fract_x
_atom_site_fract_y
_atom_site_fract_z
Si Si1 0.245359 0.118970 0.584103
Si Si2 0.789279 0.563532 0.393226
Si Si3 0.910821 0.340418 0.753498
Si Si4 0.670142 0.146653 0.131466
Si Si5 0.488275 0.146608 0.383893
Si Si6 0.082060 0.068659 0.104801
Si Si7 0.494270 0.402187 0.672127
O O1 0.366720 0.237912 0.581922
O O2 0.337781 0.338374 0.478285
O O3 0.133900 0.855606 0.382932
O O4 0.148688 0.053561 0.880256
O O5 0.773350 0.412648 0.287355
O O6 0.663329 0.398907 0.284449
O O7 0.956510 0.843883 0.294623
O O8 0.782875 0.640171 0.743124
O O9 0.000000 0.500000 0.500000
O O10 0.767688 0.192192 0.917806
O O11 0.000000 0.500000 0.000000
O O12 0.569498 0.991742 0.409516
O O13 0.577005 0.010306 0.920865
O O14 0.450363 0.214159 0.600811
O O15 0.000000 0.000000 0.000000
O O16 0.500000 0.500000 0.000000
#
# Coordination Sequence:
#
# PCOD8034146 Si02
#       7
#     2   2   2   2   2   2   2
#     4  11  25  45  71 107 140 191 237 298 361 425
#     4  11  27  46  70 105 142 194 240 297 358 428
#     4  12  27  46  73 105 148 189 234 292 361 436
#     4  12  27  48  75 108 143 190 242 301 361 426
#     4  12  26  47  76 107 143 186 248 299 360 422
#     4  11  26  45  72 102 148 190 243 292 358 435
#     4  11  24  43  75 102 145 183 242 302 356 428
#
# _framework density 22.884520999999999
#
# number of rings (size 3 to 8) (size 9 to 14) (size 15 to 20)
#    0.000    0.571    1.429    5.143   12.000    1.143 
#    0.000    0.000    0.000    0.000    0.000    0.000 
#    0.000    0.000    0.000    0.000    0.000    0.000 
#
# Total GULP energy -173454.361148 kJ/mol
# GULP energy per Si atom -12389.597225 kJ/mol
# Density = 2.283243 g / cm^3
# Si number density = 22.884521 Si / 1000 Ang^3
#
#
#
# Elastic Constant Matrix: (Units=GPa)
#
#
# Indices 1 2 3 4 5 6 
#
# 1 77.3058 46.3207 43.6165 9.7537 -0.1176 -10.8181
# 2 46.3207 122.8606 63.8657 25.9477 1.4626 -2.3532
# 3 43.6165 63.8657 132.8642 28.7407 2.9408 -4.3957
# 4 9.7537 25.9477 28.7407 50.3864 -4.3871 -10.7790
# 5 -0.1176 1.4626 2.9408 -4.3871 54.7899 4.4732
# 6 -10.8181 -2.3532 -4.3957 -10.7790 4.4732 42.9914
#
#
#
# Elastic Compliance Matrix: (Units=1/GPa)
#
#
# Indices 1 2 3 4 5 6 
#
# 1 0.018753 -0.005465 -0.003904 0.002414 0.000213 0.004604
# 2 -0.005465 0.012873 -0.003592 -0.003978 -0.000318 -0.002002
# 3 -0.003904 -0.003592 0.011426 -0.004189 -0.000781 -0.000980
# 4 0.002414 -0.003978 -0.004189 0.025286 0.001862 0.006108
# 5 0.000213 -0.000318 -0.000781 0.001862 0.018575 -0.001509
# 6 0.004604 -0.002002 -0.000980 0.006108 -0.001509 0.025898
#
#
# Mechanical properties :
#
#
# Convention : Reuss Voigt Hill
#
# Bulk Modulus (GPa) = 58.38103 71.18183 64.78143
# Shear Modulus (GPa) = 34.61596 41.58205 38.09901
#
# Velocity S-wave (km/s) = 3.89348 4.26730 4.08467
# Velocity P-wave (km/s) = 6.76600 7.44662 7.11445
#
# Compressibility (1/GPa) = 0.01712885
#
# Stress axis : x y z
#
# Youngs Moduli (GPa) = 53.32541 77.68373 87.52052
#
# Poissons Ratio (x) = 0.42455 0.34167
# Poissons Ratio (y) = 0.29143 0.31440
# Poissons Ratio (z) = 0.20817 0.27906
#
# Static dielectric constant tensor:
#      x y z
#    x 4.134480 -0.141800 -0.022170 
#    y -0.141800 4.780640 -0.000640 
#    z -0.022170 -0.000640 4.339010 
# 
# 
# High freq. dielectric constant tensor:
#      x y z
#    x 1.909750 0.000620 -0.015460 
#    y 0.000620 1.921690 0.011100 
#    z -0.015460 0.011100 1.918170 
# 
# From -- ./inp_files/106673.got.cif
#   From: 2010.06.25/outbox.cif.g09.slc.cpg/sg2_54_cif.got.tgz:106673.got - 2010.06.27 13:26:56.
