data_PCOD8034177
_publ_section_title
;
Structure prediction by ZEFSAII (Michael W. Deem and Ramdas Pophale) SiO2 
 PCOD8034177
Probable space group: P -1
;
_chemical_formula_sum "Si O2"
_cell_formula_units_Z 16
_cell_length_a 15.195198
_cell_length_b 14.192211
_cell_length_c 6.323547
_cell_angle_alpha 123.158985
_cell_angle_beta 57.022907
_cell_angle_gamma 142.640669
_cell_volume 676.451088
_symmetry_space_group_name_H-M "P -1"
_symmetry_group_IT_number 2
_symmetry_cell_setting 'triclinic'
loop_
_space_group_symop_operation_xyz
x,y,z
-x,-y,-z
loop_
_atom_site_type_symbol
_atom_site_label
_atom_site_fract_x
_atom_site_fract_y
_atom_site_fract_z
Si Si1 0.969460 0.871050 0.535648
Si Si2 0.720423 0.709864 0.987621
Si Si3 0.527676 0.433771 0.193982
Si Si4 0.492629 0.836407 0.960369
Si Si5 0.275718 0.058338 0.539622
Si Si6 0.994738 0.323996 0.899589
Si Si7 0.728542 0.103715 0.276690
Si Si8 0.178809 0.668724 0.203703
O O1 0.885529 0.833038 0.819843
O O2 0.897706 0.705392 0.313113
O O3 0.000000 0.000000 0.500000
O O4 0.124654 0.928308 0.451783
O O5 0.619403 0.657774 0.858051
O O6 0.670868 0.564043 0.012328
O O7 0.701635 0.791555 0.288336
O O8 0.500000 0.500000 0.500000
O O9 0.536579 0.311462 0.099033
O O10 0.593180 0.906311 0.707416
O O11 0.336853 0.771047 0.003597
O O12 0.568807 0.976734 0.208821
O O13 0.265101 0.000209 0.713328
O O14 0.931075 0.329843 0.771628
O O15 0.855026 0.178425 0.035252
O O16 0.093959 0.485701 0.104648
O O17 0.769148 0.248541 0.530415
#
# Coordination Sequence:
#
# PCOD8034177 Si02
#       8
#     2   2   2   2   2   2   2   2
#     4  12  25  45  75 106 144 192 232 293 363 431
#     4  11  25  42  70 103 142 192 231 285 367 425
#     4  11  24  44  66 104 146 181 236 299 351 434
#     4  12  25  44  75 104 142 193 237 298 364 418
#     4  12  24  45  70 106 144 176 240 300 345 432
#     4  11  26  50  70 106 149 181 242 301 356 418
#     4  12  23  48  71 100 140 185 241 300 352 416
#     4  11  27  47  73 102 140 194 240 300 352 426
#
# _framework density 23.652856
#
# number of rings (size 3 to 8) (size 9 to 14) (size 15 to 20)
#    0.000    0.500    5.000    2.625    1.750    4.000 
#    4.500    0.000    0.000    0.000    0.000    0.000 
#    0.000    0.000    0.000    0.000    0.000    0.000 
#
# Total GULP energy -198256.760549 kJ/mol
# GULP energy per Si atom -12391.047534 kJ/mol
# Density = 2.359902 g / cm^3
# Si number density = 23.652856 Si / 1000 Ang^3
#
#
#
# Elastic Constant Matrix: (Units=GPa)
#
#
# Indices 1 2 3 4 5 6 
#
# 1 53.9576 31.6097 15.8133 9.2792 -9.4824 -6.6039
# 2 31.6097 110.6798 40.0915 11.6709 -1.7484 -6.9678
# 3 15.8133 40.0915 105.5223 19.4213 -12.8619 -3.5594
# 4 9.2792 11.6709 19.4213 53.9407 -5.0494 -5.0457
# 5 -9.4824 -1.7484 -12.8619 -5.0494 24.2411 -2.6903
# 6 -6.6039 -6.9678 -3.5594 -5.0457 -2.6903 37.2788
#
#
#
# Elastic Compliance Matrix: (Units=1/GPa)
#
#
# Indices 1 2 3 4 5 6 
#
# 1 0.024707 -0.006646 0.000416 -0.001739 0.009446 0.003621
# 2 -0.006646 0.012431 -0.004119 -0.000392 -0.003924 0.000417
# 3 0.000416 -0.004119 0.012255 -0.003005 0.005796 0.000486
# 4 -0.001739 -0.000392 -0.003005 0.020422 0.002201 0.002255
# 5 0.009446 -0.003924 0.005796 0.002201 0.048787 0.005312
# 6 0.003621 0.000417 0.000486 0.002255 0.005312 0.028279
#
#
# Mechanical properties :
#
#
# Convention : Reuss Voigt Hill
#
# Bulk Modulus (GPa) = 34.85012 49.46541 42.15776
# Shear Modulus (GPa) = 28.22558 35.26846 31.74702
#
# Velocity S-wave (km/s) = 3.45820 3.86565 3.66759
# Velocity P-wave (km/s) = 5.54180 6.39397 5.98307
#
# Compressibility (1/GPa) = 0.02869430
#
# Stress axis : x y z
#
# Youngs Moduli (GPa) = 40.47457 80.44513 81.59829
#
# Poissons Ratio (x) = 0.53467 -0.03396
# Poissons Ratio (y) = 0.26901 0.33611
# Poissons Ratio (z) = -0.01685 0.33136
#
# Static dielectric constant tensor:
#      x y z
#    x 4.068320 0.116540 0.102960 
#    y 0.116540 4.290660 -0.089820 
#    z 0.102960 -0.089820 4.054780 
# 
# 
# High freq. dielectric constant tensor:
#      x y z
#    x 1.925090 -0.003550 -0.000580 
#    y -0.003550 1.957210 0.013510 
#    z -0.000580 0.013510 1.948410 
# 
# From -- ./inp_files/98570.got.cif
#   From: 2010.06.25/outbox.cif.g09.slc.cpg/sg2_50_cif.got.tgz:98570.got - 2010.06.27 13:26:56.
