data_PCOD8034565
_publ_section_title
;
Structure prediction by ZEFSAII (Michael W. Deem and Ramdas Pophale) SiO2 
 PCOD8034565
Probable space group: P -1
;
_chemical_formula_sum "Si O2"
_cell_formula_units_Z 16
_cell_length_a 8.926960
_cell_length_b 16.469149
_cell_length_c 12.653451
_cell_angle_alpha 33.727681
_cell_angle_beta 43.908166
_cell_angle_gamma 43.776869
_cell_volume 678.905345
_symmetry_space_group_name_H-M "P -1"
_symmetry_group_IT_number 2
_symmetry_cell_setting 'triclinic'
loop_
_space_group_symop_operation_xyz
x,y,z
-x,-y,-z
loop_
_atom_site_type_symbol
_atom_site_label
_atom_site_fract_x
_atom_site_fract_y
_atom_site_fract_z
Si Si1 0.554213 0.571744 0.001756
Si Si2 0.377652 0.874423 0.190750
Si Si3 0.937755 0.274306 0.864569
Si Si4 0.343788 0.401635 0.539786
Si Si5 0.871614 0.246815 0.703807
Si Si6 0.162904 0.213766 0.389421
Si Si7 0.061638 0.933654 0.705803
Si Si8 0.199278 0.698892 0.702861
O O1 0.616384 0.729505 0.785106
O O2 0.500000 0.500000 0.000000
O O3 0.319494 0.610850 0.144005
O O4 0.772697 0.452588 0.075845
O O5 0.554007 0.703207 0.296300
O O6 0.257503 0.872484 0.141009
O O7 0.180363 0.923062 0.330250
O O8 0.500000 0.000000 0.000000
O O9 0.983762 0.180818 0.831291
O O10 0.101844 0.378276 0.665443
O O11 0.957200 0.171162 0.070851
O O12 0.306699 0.579837 0.386539
O O13 0.538830 0.324229 0.437741
O O14 0.060203 0.252360 0.516787
O O15 0.975722 0.301503 0.301214
O O16 0.243071 0.026778 0.530798
O O17 0.101768 0.846707 0.668996
#
# Coordination Sequence:
#
# PCOD8034565 Si02
#       8
#     2   2   2   2   2   2   2   2
#     4  12  26  48  69 107 143 188 234 288 352 416
#     4  11  24  45  71 102 142 186 233 293 346 413
#     4  12  26  44  73 106 143 184 229 291 356 418
#     4  12  24  45  75 105 138 183 237 293 348 407
#     4  11  25  44  72 106 140 179 242 286 352 414
#     4  11  27  46  73 105 140 187 237 287 350 416
#     4  11  25  48  70 105 143 184 235 282 358 420
#     4  12  25  47  76 103 142 183 239 290 345 415
#
# _framework density 23.567350000000001
#
# number of rings (size 3 to 8) (size 9 to 14) (size 15 to 20)
#    0.000    0.500    6.250    2.250    1.750    3.500 
#    0.000    0.000    0.000    0.000    0.000    0.000 
#    0.000    0.000    0.000    0.000    0.000    0.000 
#
# Total GULP energy -198234.297253 kJ/mol
# GULP energy per Si atom -12389.643578 kJ/mol
# Density = 2.351371 g / cm^3
# Si number density = 23.567350 Si / 1000 Ang^3
#
#
#
# Elastic Constant Matrix: (Units=GPa)
#
#
# Indices 1 2 3 4 5 6 
#
# 1 94.1848 28.7163 41.3603 19.4206 -26.0393 18.5863
# 2 28.7163 103.8850 20.8798 13.5519 -18.9729 10.5255
# 3 41.3603 20.8798 78.5255 1.5109 -26.3089 17.2445
# 4 19.4206 13.5519 1.5109 36.1366 6.8773 8.9519
# 5 -26.0393 -18.9729 -26.3089 6.8773 49.4122 -7.6483
# 6 18.5863 10.5255 17.2445 8.9519 -7.6483 37.5310
#
#
#
# Elastic Compliance Matrix: (Units=1/GPa)
#
#
# Indices 1 2 3 4 5 6 
#
# 1 0.017990 -0.000976 -0.006306 -0.009838 0.006807 -0.002004
# 2 -0.000976 0.011420 -0.001059 -0.004344 0.003847 -0.000413
# 3 -0.006306 -0.001059 0.019142 0.003252 0.005222 -0.005087
# 4 -0.009838 -0.004344 0.003252 0.038356 -0.011528 -0.006902
# 5 0.006807 0.003847 0.005222 -0.011528 0.029999 0.002013
# 6 -0.002004 -0.000413 -0.005087 -0.006902 0.002013 0.032147
#
#
# Mechanical properties :
#
#
# Convention : Reuss Voigt Hill
#
# Bulk Modulus (GPa) = 31.37806 50.94535 41.16170
# Shear Modulus (GPa) = 28.35116 36.99190 32.67153
#
# Velocity S-wave (km/s) = 3.47217 3.96615 3.72735
# Velocity P-wave (km/s) = 5.42381 6.52975 6.00231
#
# Compressibility (1/GPa) = 0.03186941
#
# Stress axis : x y z
#
# Youngs Moduli (GPa) = 55.58580 87.56714 52.24150
#
# Poissons Ratio (x) = 0.08545 0.32944
# Poissons Ratio (y) = 0.05424 0.05534
# Poissons Ratio (z) = 0.35053 0.09277
#
# Static dielectric constant tensor:
#      x y z
#    x 4.521090 -0.338920 -0.060210 
#    y -0.338920 4.730620 0.075960 
#    z -0.060210 0.075960 4.759860 
# 
# 
# High freq. dielectric constant tensor:
#      x y z
#    x 1.932910 0.002440 0.008790 
#    y 0.002440 1.934160 -0.006540 
#    z 0.008790 -0.006540 1.945120 
# 
# From -- ./inp_files/398349.got.cif
#   From: 2010.06.25/outbox.cif.g09.slc.cpg/sg2_200_cif.got.tgz:398349.got - 2010.06.27 13:26:56.
