data_PCOD8034005
_publ_section_title
;
Structure prediction by ZEFSAII (Michael W. Deem and Ramdas Pophale) SiO2 
 PCOD8034005
Probable space group: P -1
;
_chemical_formula_sum "Si O2"
_cell_formula_units_Z 14
_cell_length_a 9.506705
_cell_length_b 8.482481
_cell_length_c 12.082639
_cell_angle_alpha 126.507050
_cell_angle_beta 126.683205
_cell_angle_gamma 59.151211
_cell_volume 609.054985
_symmetry_space_group_name_H-M "P -1"
_symmetry_group_IT_number 2
_symmetry_cell_setting 'triclinic'
loop_
_space_group_symop_operation_xyz
x,y,z
-x,-y,-z
loop_
_atom_site_type_symbol
_atom_site_label
_atom_site_fract_x
_atom_site_fract_y
_atom_site_fract_z
Si Si1 0.381529 0.033141 0.127328
Si Si2 0.200473 0.506796 0.566640
Si Si3 0.203693 0.440976 0.111958
Si Si4 0.231900 0.919193 0.656385
Si Si5 0.669515 0.926467 0.627240
Si Si6 0.460812 0.601078 0.905074
Si Si7 0.863460 0.140184 0.650464
O O1 0.230789 0.231338 0.103876
O O2 0.576160 0.069255 0.201179
O O3 0.369031 0.988373 0.232284
O O4 0.357780 0.837442 0.967946
O O5 0.193573 0.703938 0.574157
O O6 0.281694 0.315897 0.447181
O O7 0.326514 0.496923 0.730227
O O8 0.000000 0.500000 0.500000
O O9 0.346314 0.422300 0.072319
O O10 0.226874 0.621659 0.279070
O O11 0.000000 0.500000 0.000000
O O12 0.228277 0.943655 0.532220
O O13 0.079699 0.098567 0.715715
O O14 0.500000 0.000000 0.500000
O O15 0.831740 0.014505 0.691118
O O16 0.500000 0.500000 0.000000
#
# Coordination Sequence:
#
# PCOD8034005 Si02
#       7
#     2   2   2   2   2   2   2
#     4  12  26  46  75 106 145 194 240 299 367 432
#     4  12  26  46  73 106 144 191 243 296 359 436
#     4  12  27  46  71 103 147 191 252 297 363 430
#     4  11  24  44  74 101 146 185 245 291 368 429
#     4  12  24  43  71 107 143 182 240 297 361 431
#     4  12  28  48  75 107 149 192 241 301 375 436
#     4  11  24  43  69 107 140 188 238 302 354 438
#
# _framework density 22.986431
#
# number of rings (size 3 to 8) (size 9 to 14) (size 15 to 20)
#    0.000    0.286    4.286    4.714    2.000    3.429 
#    0.000    2.143    0.000    0.000    0.000    0.000 
#    0.000    0.000    0.000    0.000    0.000    0.000 
#
# Total GULP energy -173695.058320 kJ/mol
# GULP energy per Si atom -12406.789880 kJ/mol
# Density = 2.293411 g / cm^3
# Si number density = 22.986431 Si / 1000 Ang^3
#
#
#
# Elastic Constant Matrix: (Units=GPa)
#
#
# Indices 1 2 3 4 5 6 
#
# 1 114.3082 32.1061 44.5911 -6.4260 -8.6830 0.3240
# 2 32.1061 125.0710 23.2093 13.9427 -9.9100 -7.7801
# 3 44.5911 23.2093 83.7084 8.3837 -2.4059 -11.9448
# 4 -6.4260 13.9427 8.3837 55.1053 -8.2028 -0.7185
# 5 -8.6830 -9.9100 -2.4059 -8.2028 42.3524 -0.5822
# 6 0.3240 -7.7801 -11.9448 -0.7185 -0.5822 39.3446
#
#
#
# Elastic Compliance Matrix: (Units=1/GPa)
#
#
# Indices 1 2 3 4 5 6 
#
# 1 0.012302 -0.002290 -0.006535 0.003307 0.002222 -0.002445
# 2 -0.002290 0.009185 -0.000843 -0.002262 0.001215 0.001556
# 3 -0.006535 -0.000843 0.016641 -0.003187 -0.001142 0.004864
# 4 0.003307 -0.002262 -0.003187 0.020151 0.003857 -0.001017
# 5 0.002222 0.001215 -0.001142 0.003857 0.025038 0.000316
# 6 -0.002445 0.001556 0.004864 -0.001017 0.000316 0.027207
#
#
# Mechanical properties :
#
#
# Convention : Reuss Voigt Hill
#
# Bulk Modulus (GPa) = 53.21208 58.10004 55.65606
# Shear Modulus (GPa) = 36.73109 42.23919 39.48514
#
# Velocity S-wave (km/s) = 4.00177 4.29134 4.14908
# Velocity P-wave (km/s) = 6.67471 7.06292 6.87156
#
# Compressibility (1/GPa) = 0.01879273
#
# Stress axis : x y z
#
# Youngs Moduli (GPa) = 81.28589 108.87314 60.09077
#
# Poissons Ratio (x) = 0.24933 0.39267
# Poissons Ratio (y) = 0.18615 0.05068
# Poissons Ratio (z) = 0.53117 0.09181
#
# Static dielectric constant tensor:
#      x y z
#    x 4.296670 -0.104180 -0.102680 
#    y -0.104180 2.937910 0.019970 
#    z -0.102680 0.019970 4.131460 
# 
# 
# High freq. dielectric constant tensor:
#      x y z
#    x 1.916060 -0.003860 -0.008700 
#    y -0.003860 1.920810 0.009030 
#    z -0.008700 0.009030 1.909900 
# 
# From -- ./inp_files/190626.got.cif
#   From: 2010.06.25/outbox.cif.g09.slc.cpg/sg2_96_cif.got.tgz:190626.got - 2010.06.27 13:26:56.
