data_PCOD8034238
_publ_section_title
;
Structure prediction by ZEFSAII (Michael W. Deem and Ramdas Pophale) SiO2 
 PCOD8034238
Probable space group: P -1
;
_chemical_formula_sum "Si O2"
_cell_formula_units_Z 14
_cell_length_a 18.853596
_cell_length_b 8.196371
_cell_length_c 11.195611
_cell_angle_alpha 116.752699
_cell_angle_beta 33.467985
_cell_angle_gamma 137.413395
_cell_volume 579.912282
_symmetry_space_group_name_H-M "P -1"
_symmetry_group_IT_number 2
_symmetry_cell_setting 'triclinic'
loop_
_space_group_symop_operation_xyz
x,y,z
-x,-y,-z
loop_
_atom_site_type_symbol
_atom_site_label
_atom_site_fract_x
_atom_site_fract_y
_atom_site_fract_z
Si Si1 0.027104 0.586151 0.842230
Si Si2 0.236874 0.152918 0.792715
Si Si3 0.930393 0.670868 0.787098
Si Si4 0.386407 0.694242 0.068793
Si Si5 0.683272 0.745791 0.557085
Si Si6 0.650920 0.016560 0.247773
Si Si7 0.355641 0.647868 0.370984
O O1 0.938988 0.501613 0.804978
O O2 0.229204 0.694581 0.594180
O O3 0.867285 0.315280 0.056683
O O4 0.058894 0.830763 0.915746
O O5 0.339567 0.294611 0.568255
O O6 0.373326 0.194942 0.711580
O O7 0.167506 0.267012 0.983387
O O8 0.816528 0.495442 0.771596
O O9 0.143362 0.945660 0.544961
O O10 0.346340 0.592863 0.226989
O O11 0.493748 0.641422 0.836526
O O12 0.500000 0.000000 0.000000
O O13 0.724666 0.597496 0.514858
O O14 0.500000 0.000000 0.500000
O O15 0.578345 0.907020 0.177980
#
# Coordination Sequence:
#
# PCOD8034238 Si02
#       7
#     2   2   2   2   2   2   2
#     4  11  24  44  69 105 141 177 226 283 341 410
#     4  11  24  45  70 104 141 179 226 283 347 406
#     4  11  26  44  73 101 137 188 221 284 350 399
#     4  12  27  48  71 100 137 181 239 281 337 409
#     4  11  26  46  73 102 140 178 231 288 338 407
#     4  12  26  40  72 104 138 180 222 280 349 399
#     4  12  27  46  70 103 140 183 232 281 335 411
#
# _framework density 24.141582
#
# number of rings (size 3 to 8) (size 9 to 14) (size 15 to 20)
#    0.000    0.571    1.429    6.857    6.000    5.143 
#    0.000    0.000    0.000    0.000    0.000    0.000 
#    0.000    0.000    0.000    0.000    0.000    0.000 
#
# Total GULP energy -173605.114683 kJ/mol
# GULP energy per Si atom -12400.365335 kJ/mol
# Density = 2.408663 g / cm^3
# Si number density = 24.141582 Si / 1000 Ang^3
#
#
#
# Elastic Constant Matrix: (Units=GPa)
#
#
# Indices 1 2 3 4 5 6 
#
# 1 194.2085 33.4353 36.6464 1.1966 2.8630 7.2117
# 2 33.4353 68.0035 8.9175 -6.9083 2.9198 -2.7627
# 3 36.6464 8.9175 82.9820 -8.1403 -0.0834 2.5403
# 4 1.1966 -6.9083 -8.1403 25.7859 1.1320 -1.6135
# 5 2.8630 2.9198 -0.0834 1.1320 47.3807 -4.2375
# 6 7.2117 -2.7627 2.5403 -1.6135 -4.2375 53.0515
#
#
#
# Elastic Compliance Matrix: (Units=1/GPa)
#
#
# Indices 1 2 3 4 5 6 
#
# 1 0.006191 -0.002931 -0.002580 -0.001936 -0.000237 -0.000948
# 2 -0.002931 0.016727 -0.000083 0.004713 -0.000846 0.001349
# 3 -0.002580 -0.000083 0.013635 0.004389 0.000065 -0.000168
# 4 -0.001936 0.004713 0.004389 0.041657 -0.001028 0.001483
# 5 -0.000237 -0.000846 0.000065 -0.001028 0.021345 0.001659
# 6 -0.000948 0.001349 -0.000168 0.001483 0.001659 0.019234
#
#
# Mechanical properties :
#
#
# Convention : Reuss Voigt Hill
#
# Bulk Modulus (GPa) = 39.42487 55.91026 47.66756
# Shear Modulus (GPa) = 36.11872 42.98994 39.55433
#
# Velocity S-wave (km/s) = 3.87217 4.22446 4.05215
# Velocity P-wave (km/s) = 6.02974 6.85597 6.45609
#
# Compressibility (1/GPa) = 0.02536470
#
# Stress axis : x y z
#
# Youngs Moduli (GPa) = 161.51962 59.78420 73.34082
#
# Poissons Ratio (x) = 0.17521 0.18924
# Poissons Ratio (y) = 0.47337 0.00610
# Poissons Ratio (z) = 0.41677 0.00497
#
# Static dielectric constant tensor:
#      x y z
#    x 5.507930 0.372050 -0.303010 
#    y 0.372050 4.508640 -0.216260 
#    z -0.303010 -0.216260 4.169290 
# 
# 
# High freq. dielectric constant tensor:
#      x y z
#    x 1.998380 0.002700 -0.011710 
#    y 0.002700 1.958560 -0.008140 
#    z -0.011710 -0.008140 1.943670 
# 
# From -- ./inp_files/470083.got.cif
#   From: 2010.06.25/outbox.cif.g09.slc.cpg/sg2_236_cif.got.tgz:470083.got - 2010.06.27 13:26:56.
