data_PCOD8034568
_publ_section_title
;
Structure prediction by ZEFSAII (Michael W. Deem and Ramdas Pophale) SiO2 
 PCOD8034568
Probable space group: P -1
;
_chemical_formula_sum "Si O2"
_cell_formula_units_Z 16
_cell_length_a 11.635795
_cell_length_b 14.906601
_cell_length_c 14.363426
_cell_angle_alpha 143.419362
_cell_angle_beta 147.027286
_cell_angle_gamma 58.547623
_cell_volume 713.966468
_symmetry_space_group_name_H-M "P -1"
_symmetry_group_IT_number 2
_symmetry_cell_setting 'triclinic'
loop_
_space_group_symop_operation_xyz
x,y,z
-x,-y,-z
loop_
_atom_site_type_symbol
_atom_site_label
_atom_site_fract_x
_atom_site_fract_y
_atom_site_fract_z
Si Si1 0.372240 0.587724 0.686733
Si Si2 0.114077 0.115190 0.762069
Si Si3 0.141121 0.195967 0.563778
Si Si4 0.130625 0.663127 0.159885
Si Si5 0.665751 0.771132 0.637962
Si Si6 0.024971 0.871955 0.805027
Si Si7 0.659687 0.291042 0.038227
Si Si8 0.083121 0.501566 0.796920
O O1 0.364855 0.411460 0.503669
O O2 0.304787 0.580153 0.744229
O O3 0.187537 0.611829 0.515282
O O4 0.618852 0.750521 0.968083
O O5 0.970255 0.208780 0.778928
O O6 0.000000 0.000000 0.500000
O O7 0.092545 0.976688 0.709072
O O8 0.174963 0.367952 0.782865
O O9 0.093681 0.229749 0.453861
O O10 0.377543 0.175253 0.728250
O O11 0.409354 0.762072 0.453192
O O12 0.094630 0.617051 0.987972
O O13 0.000000 0.500000 0.000000
O O14 0.793252 0.826169 0.671222
O O15 0.832471 0.924080 0.948776
O O16 0.211313 0.820601 0.938341
O O17 0.768493 0.386854 0.096351
#
# Coordination Sequence:
#
# PCOD8034568 Si02
#       8
#     2   2   2   2   2   2   2   2
#     4  12  24  46  73 102 150 196 238 303 358 434
#     4  12  27  48  73 103 144 195 247 298 362 437
#     4  12  25  44  73 108 145 194 247 294 366 430
#     4  12  26  47  73 105 148 193 245 300 362 439
#     4  11  24  45  71 103 149 183 236 302 368 417
#     4  11  25  45  73 112 145 191 240 307 361 434
#     4  12  23  48  77 106 152 187 246 306 364 431
#     4  12  26  44  75 111 142 195 247 297 373 434
#
# _framework density 22.410017
#
# number of rings (size 3 to 8) (size 9 to 14) (size 15 to 20)
#    0.000    0.250    5.000    4.500    1.750    2.000 
#    0.000    3.125    0.000    0.000    0.000    0.000 
#    0.000    0.000    0.000    0.000    0.000    0.000 
#
# Total GULP energy -198381.087754 kJ/mol
# GULP energy per Si atom -12398.817985 kJ/mol
# Density = 2.235901 g / cm^3
# Si number density = 22.410017 Si / 1000 Ang^3
#
#
#
# Elastic Constant Matrix: (Units=GPa)
#
#
# Indices 1 2 3 4 5 6 
#
# 1 108.7067 25.7261 20.8303 -1.6682 -1.2965 -12.7003
# 2 25.7261 66.7868 0.4863 13.3585 -1.4578 -0.2263
# 3 20.8303 0.4863 83.6467 4.8151 12.4300 -2.9985
# 4 -1.6682 13.3585 4.8151 41.7830 -2.0370 -3.2472
# 5 -1.2965 -1.4578 12.4300 -2.0370 37.4235 4.5369
# 6 -12.7003 -0.2263 -2.9985 -3.2472 4.5369 29.6881
#
#
#
# Elastic Compliance Matrix: (Units=1/GPa)
#
#
# Indices 1 2 3 4 5 6 
#
# 1 0.011548 -0.004953 -0.002949 0.002794 0.000757 0.004795
# 2 -0.004953 0.018133 0.001398 -0.006352 0.000033 -0.002539
# 3 -0.002949 0.001398 0.013540 -0.002310 -0.004742 0.000589
# 4 0.002794 -0.006352 -0.002310 0.026700 0.001636 0.003584
# 5 0.000757 0.000033 -0.004742 0.001636 0.028946 -0.004399
# 6 0.004795 -0.002539 0.000589 0.003584 -0.004399 0.036839
#
#
# Mechanical properties :
#
#
# Convention : Reuss Voigt Hill
#
# Bulk Modulus (GPa) = 33.09708 39.24730 36.17219
# Shear Modulus (GPa) = 31.48904 35.91875 33.70389
#
# Velocity S-wave (km/s) = 3.75258 4.00784 3.88231
# Velocity P-wave (km/s) = 5.79454 6.24246 6.02267
#
# Compressibility (1/GPa) = 0.03021414
#
# Stress axis : x y z
#
# Youngs Moduli (GPa) = 86.59306 55.14709 73.85550
#
# Poissons Ratio (x) = 0.27314 0.21776
# Poissons Ratio (y) = 0.42889 -0.10323
# Poissons Ratio (z) = 0.25532 -0.07708
#
# Static dielectric constant tensor:
#      x y z
#    x 4.218530 -0.167580 0.086820 
#    y -0.167580 4.026010 0.035690 
#    z 0.086820 0.035690 4.335590 
# 
# 
# High freq. dielectric constant tensor:
#      x y z
#    x 1.891200 -0.008750 0.004530 
#    y -0.008750 1.884800 0.006650 
#    z 0.004530 0.006650 1.896940 
# 
# From -- ./inp_files/243432.got.cif
#   From: 2010.06.25/outbox.cif.g09.slc.cpg/sg2_122_cif.got.tgz:243432.got - 2010.06.27 13:26:56.
