data_PCOD8034499
_publ_section_title
;
Structure prediction by ZEFSAII (Michael W. Deem and Ramdas Pophale) SiO2 
 PCOD8034499
Probable space group: P -1
;
_chemical_formula_sum "Si O2"
_cell_formula_units_Z 16
_cell_length_a 11.479311
_cell_length_b 15.318575
_cell_length_c 8.591171
_cell_angle_alpha 49.043596
_cell_angle_beta 109.960551
_cell_angle_gamma 140.035634
_cell_volume 691.270784
_symmetry_space_group_name_H-M "P -1"
_symmetry_group_IT_number 2
_symmetry_cell_setting 'triclinic'
loop_
_space_group_symop_operation_xyz
x,y,z
-x,-y,-z
loop_
_atom_site_type_symbol
_atom_site_label
_atom_site_fract_x
_atom_site_fract_y
_atom_site_fract_z
Si Si1 0.919515 0.775993 0.776103
Si Si2 0.677933 0.693265 0.282069
Si Si3 0.511503 0.256000 0.066703
Si Si4 0.268371 0.169235 0.537194
Si Si5 0.920340 0.693627 0.204882
Si Si6 0.760821 0.152519 0.627627
Si Si7 0.629103 0.313646 0.400211
Si Si8 0.927041 0.565095 0.819554
O O1 0.735536 0.706572 0.691855
O O2 0.950996 0.673254 0.841145
O O3 0.898495 0.759988 0.969515
O O4 0.112991 0.985065 0.586222
O O5 0.500000 0.500000 0.500000
O O6 0.773557 0.842578 0.284124
O O7 0.826662 0.699618 0.295200
O O8 0.622547 0.734641 0.062204
O O9 0.589519 0.335401 0.183856
O O10 0.391993 0.051550 0.259695
O O11 0.699016 0.384719 0.887049
O O12 0.468089 0.246061 0.521973
O O13 0.823666 0.502254 0.342323
O O14 0.141996 0.822514 0.197134
O O15 0.639467 0.182537 0.560606
O O16 0.942841 0.303989 0.419533
O O17 0.000000 0.500000 0.000000
#
# Coordination Sequence:
#
# PCOD8034499 Si02
#       8
#     2   2   2   2   2   2   2   2
#     4  11  24  45  69 105 139 179 242 293 357 420
#     4  12  25  45  73 105 141 182 244 293 357 420
#     4  12  26  46  75 107 139 194 235 290 360 421
#     4  11  25  43  71 102 138 187 233 300 352 417
#     4  12  25  45  73  99 144 184 230 299 357 413
#     4  12  27  48  70 107 149 187 237 290 352 430
#     4  12  25  45  72 102 143 187 237 287 354 423
#     4  12  25  45  74 104 144 188 237 290 355 425
#
# _framework density 23.145778
#
# number of rings (size 3 to 8) (size 9 to 14) (size 15 to 20)
#    0.000    0.250    3.750    5.250    1.750    5.000 
#    0.000    1.250    0.000    0.000    0.000    0.000 
#    0.000    0.000    0.000    0.000    0.000    0.000 
#
# Total GULP energy -198397.046776 kJ/mol
# GULP energy per Si atom -12399.815424 kJ/mol
# Density = 2.309310 g / cm^3
# Si number density = 23.145778 Si / 1000 Ang^3
#
#
#
# Elastic Constant Matrix: (Units=GPa)
#
#
# Indices 1 2 3 4 5 6 
#
# 1 117.9013 45.3842 38.9728 10.2457 20.2590 -14.2300
# 2 45.3842 115.7016 24.1084 0.5969 7.3331 -6.7338
# 3 38.9728 24.1084 79.2044 2.0139 12.1618 -7.4705
# 4 10.2457 0.5969 2.0139 45.7816 4.0090 4.2819
# 5 20.2590 7.3331 12.1618 4.0090 36.9468 1.9017
# 6 -14.2300 -6.7338 -7.4705 4.2819 1.9017 32.4468
#
#
#
# Elastic Compliance Matrix: (Units=1/GPa)
#
#
# Indices 1 2 3 4 5 6 
#
# 1 0.012811 -0.003608 -0.003943 -0.002643 -0.004961 0.004602
# 2 -0.003608 0.010339 -0.001426 0.000696 0.000314 0.000125
# 3 -0.003943 -0.001426 0.015581 0.000303 -0.002804 0.001687
# 4 -0.002643 0.000696 0.000303 0.022870 -0.001070 -0.003900
# 5 -0.004961 0.000314 -0.002804 -0.001070 0.030991 -0.004431
# 6 0.004602 0.000125 0.001687 -0.003900 -0.004431 0.034026
#
#
# Mechanical properties :
#
#
# Convention : Reuss Voigt Hill
#
# Bulk Modulus (GPa) = 48.12556 58.85978 53.49267
# Shear Modulus (GPa) = 33.00367 36.65784 34.83076
#
# Velocity S-wave (km/s) = 3.78021 3.98399 3.88344
# Velocity P-wave (km/s) = 6.31592 6.82995 6.57796
#
# Compressibility (1/GPa) = 0.02077898
#
# Stress axis : x y z
#
# Youngs Moduli (GPa) = 78.05695 96.72111 64.17881
#
# Poissons Ratio (x) = 0.34895 0.25304
# Poissons Ratio (y) = 0.28162 0.09151
# Poissons Ratio (z) = 0.30775 0.13791
#
# Static dielectric constant tensor:
#      x y z
#    x 4.164540 0.011710 0.030330 
#    y 0.011710 4.527480 -0.018210 
#    z 0.030330 -0.018210 4.276990 
# 
# 
# High freq. dielectric constant tensor:
#      x y z
#    x 1.915600 -0.000130 0.014820 
#    y -0.000130 1.927240 -0.002750 
#    z 0.014820 -0.002750 1.917760 
# 
# From -- ./inp_files/271877.got.cif
#   From: 2010.06.25/outbox.cif.g09.slc.cpg/sg2_136_cif.got.tgz:271877.got - 2010.06.27 13:26:56.
