data_PCOD8034807
_publ_section_title
;
Structure prediction by ZEFSAII (Michael W. Deem and Ramdas Pophale) SiO2 
 PCOD8034807
Probable space group: P -1
;
_chemical_formula_sum "Si O2"
_cell_formula_units_Z 16
_cell_length_a 7.710803
_cell_length_b 19.913282
_cell_length_c 6.514837
_cell_angle_alpha 60.429406
_cell_angle_beta 117.752358
_cell_angle_gamma 126.714679
_cell_volume 676.236863
_symmetry_space_group_name_H-M "P -1"
_symmetry_group_IT_number 2
_symmetry_cell_setting 'triclinic'
loop_
_space_group_symop_operation_xyz
x,y,z
-x,-y,-z
loop_
_atom_site_type_symbol
_atom_site_label
_atom_site_fract_x
_atom_site_fract_y
_atom_site_fract_z
Si Si1 0.923080 0.400113 0.084619
Si Si2 0.515186 0.315703 0.682232
Si Si3 0.056304 0.054836 0.245403
Si Si4 0.381955 0.010278 0.113051
Si Si5 0.240048 0.726177 0.462712
Si Si6 0.448254 0.883806 0.618365
Si Si7 0.350171 0.399939 0.141726
Si Si8 0.832420 0.751684 0.059891
O O1 0.875615 0.367085 0.345096
O O2 0.106376 0.380941 0.106653
O O3 0.711950 0.363326 0.877785
O O4 0.000000 0.500000 0.000000
O O5 0.583084 0.262938 0.632628
O O6 0.472867 0.386452 0.426528
O O7 0.295527 0.253180 0.788546
O O8 0.283075 0.056199 0.305271
O O9 0.099159 0.154953 0.149861
O O10 0.000000 0.000000 0.500000
O O11 0.857578 0.998613 0.061171
O O12 0.333155 0.928827 0.357991
O O13 0.577456 0.105667 0.167003
O O14 0.500000 0.000000 0.000000
O O15 0.373759 0.787762 0.638131
O O16 0.057958 0.748623 0.236910
O O17 0.500000 0.500000 0.000000
O O18 0.321692 0.329952 0.052584
#
# Coordination Sequence:
#
# PCOD8034807 Si02
#       8
#     2   2   2   2   2   2   2   2
#     4  12  27  47  77 117 156 204 257 315 388 461
#     4  12  26  50  80 109 159 207 249 327 381 460
#     4  12  25  49  76 107 148 199 252 320 385 459
#     4  11  24  46  71 105 141 188 241 311 376 453
#     4  12  26  51  78 112 153 203 259 320 386 459
#     4  11  25  46  72 105 144 188 250 308 378 456
#     4  12  27  48  79 120 158 203 259 318 383 467
#     4  12  27  51  78 114 153 206 265 314 395 465
#
# _framework density 23.660350999999999
#
# number of rings (size 3 to 8) (size 9 to 14) (size 15 to 20)
#    0.000    0.250    5.000    4.125    1.750    5.000 
#   11.250    0.000    0.000    0.000    0.000    0.000 
#    0.000    0.000    0.000    0.000    0.000    0.000 
#
# Total GULP energy -198272.033433 kJ/mol
# GULP energy per Si atom -12392.002090 kJ/mol
# Density = 2.360650 g / cm^3
# Si number density = 23.660351 Si / 1000 Ang^3
#
#
#
# Elastic Constant Matrix: (Units=GPa)
#
#
# Indices 1 2 3 4 5 6 
#
# 1 133.2137 18.0680 53.3436 -3.9219 -3.1480 -5.2603
# 2 18.0680 119.1567 52.9240 -6.6087 -9.8268 -18.4652
# 3 53.3436 52.9240 159.6927 -12.9397 12.1378 1.7661
# 4 -3.9219 -6.6087 -12.9397 43.5164 0.4173 -0.2618
# 5 -3.1480 -9.8268 12.1378 0.4173 49.7963 10.0128
# 6 -5.2603 -18.4652 1.7661 -0.2618 10.0128 36.2807
#
#
#
# Elastic Compliance Matrix: (Units=1/GPa)
#
#
# Indices 1 2 3 4 5 6 
#
# 1 0.008802 0.000363 -0.003169 -0.000097 0.001140 0.001300
# 2 0.000363 0.011141 -0.003989 0.000550 0.002116 0.005337
# 3 -0.003169 -0.003989 0.009023 0.001805 -0.002769 -0.002152
# 4 -0.000097 0.000550 0.001805 0.023601 -0.000641 0.000525
# 5 0.001140 0.002116 -0.002769 -0.000641 0.022208 -0.004757
# 6 0.001300 0.005337 -0.002152 0.000525 -0.004757 0.031889
#
#
# Mechanical properties :
#
#
# Convention : Reuss Voigt Hill
#
# Bulk Modulus (GPa) = 65.03628 73.41492 69.22560
# Shear Modulus (GPa) = 39.87874 45.10051 42.48962
#
# Velocity S-wave (km/s) = 4.10990 4.37070 4.24230
# Velocity P-wave (km/s) = 7.07593 7.52109 7.30190
#
# Compressibility (1/GPa) = 0.01537603
#
# Stress axis : x y z
#
# Youngs Moduli (GPa) = 113.60954 89.75850 110.82444
#
# Poissons Ratio (x) = -0.03260 0.35126
# Poissons Ratio (y) = -0.04126 0.44206
# Poissons Ratio (z) = 0.36009 0.35803
#
# Static dielectric constant tensor:
#      x y z
#    x 5.828980 -0.657860 -0.835520 
#    y -0.657860 4.456150 0.446070 
#    z -0.835520 0.446070 4.940290 
# 
# 
# High freq. dielectric constant tensor:
#      x y z
#    x 1.959100 -0.007090 0.010160 
#    y -0.007090 1.931160 0.009660 
#    z 0.010160 0.009660 1.961100 
# 
# From -- ./inp_files/52587.got.cif
#   From: 2010.06.25/outbox.cif.g09.slc.cpg/sg2_27_cif.got.tgz:52587.got - 2010.06.27 13:26:56.
