data_PCOD8034425
_publ_section_title
;
Structure prediction by ZEFSAII (Michael W. Deem and Ramdas Pophale) SiO2 
 PCOD8034425
Probable space group: P -1
;
_chemical_formula_sum "Si O2"
_cell_formula_units_Z 14
_cell_length_a 9.765718
_cell_length_b 29.694844
_cell_length_c 5.388711
_cell_angle_alpha 57.768682
_cell_angle_beta 65.188993
_cell_angle_gamma 27.982013
_cell_volume 615.000432
_symmetry_space_group_name_H-M "P -1"
_symmetry_group_IT_number 2
_symmetry_cell_setting 'triclinic'
loop_
_space_group_symop_operation_xyz
x,y,z
-x,-y,-z
loop_
_atom_site_type_symbol
_atom_site_label
_atom_site_fract_x
_atom_site_fract_y
_atom_site_fract_z
Si Si1 0.969032 0.236262 0.726096
Si Si2 0.234882 0.223466 0.944915
Si Si3 0.612080 0.407345 0.143971
Si Si4 0.470812 0.058612 0.530578
Si Si5 0.188756 0.445675 0.264856
Si Si6 0.583549 0.223629 0.671597
Si Si7 0.089443 0.857750 0.825301
O O1 0.687535 0.354450 0.499328
O O2 0.151010 0.148936 0.633917
O O3 0.855420 0.222575 0.026999
O O4 0.203500 0.206793 0.746975
O O5 0.470732 0.116131 0.227407
O O6 0.905283 0.319896 0.016643
O O7 0.335290 0.253544 0.773217
O O8 0.351173 0.453008 0.084295
O O9 0.500000 0.500000 0.000000
O O10 0.500000 0.000000 0.500000
O O11 0.741393 0.976158 0.760599
O O12 0.427636 0.326984 0.450751
O O13 0.000000 0.500000 0.500000
O O14 0.000000 0.500000 0.000000
O O15 0.788782 0.150352 0.491495
O O16 0.757646 0.168153 0.962702
#
# Coordination Sequence:
#
# PCOD8034425 Si02
#       7
#     2   2   2   2   2   2   2
#     4  11  24  45  74 104 143 190 249 294 357 441
#     4  11  27  45  72 106 146 189 246 299 356 438
#     4  11  26  47  75 106 144 193 243 300 361 432
#     4  11  24  44  75 107 140 194 246 297 359 430
#     4  12  27  47  74 104 143 188 239 297 368 429
#     4  12  28  47  70 107 151 188 239 304 365 426
#     4  12  25  46  74 102 149 190 240 296 361 429
#
# _framework density 22.764211
#
# number of rings (size 3 to 8) (size 9 to 14) (size 15 to 20)
#    0.000    0.571    2.857    3.857   10.000    1.714 
#    0.000    0.000    0.000    0.000    0.000    0.000 
#    0.000    0.000    0.000    0.000    0.000    0.000 
#
# Total GULP energy -173583.044491 kJ/mol
# GULP energy per Si atom -12398.788892 kJ/mol
# Density = 2.271240 g / cm^3
# Si number density = 22.764211 Si / 1000 Ang^3
#
#
#
# Elastic Constant Matrix: (Units=GPa)
#
#
# Indices 1 2 3 4 5 6 
#
# 1 178.6493 40.1690 59.7881 -1.4251 -1.7491 -8.5281
# 2 40.1690 97.2790 50.6514 -11.1709 -2.0440 0.7022
# 3 59.7881 50.6514 121.8380 -7.9109 15.8581 -2.5833
# 4 -1.4251 -11.1709 -7.9109 39.3985 0.8126 -1.0357
# 5 -1.7491 -2.0440 15.8581 0.8126 55.0189 -3.3496
# 6 -8.5281 0.7022 -2.5833 -1.0357 -3.3496 35.8187
#
#
#
# Elastic Compliance Matrix: (Units=1/GPa)
#
#
# Indices 1 2 3 4 5 6 
#
# 1 0.007001 -0.001388 -0.003022 -0.000730 0.001148 0.001562
# 2 -0.001388 0.013918 -0.005183 0.002797 0.001882 -0.000720
# 3 -0.003022 -0.005183 0.012414 0.000992 -0.003885 -0.000057
# 4 -0.000730 0.002797 0.000992 0.026374 -0.000561 0.000553
# 5 0.001148 0.001882 -0.003885 -0.000561 0.019518 0.001765
# 6 0.001562 -0.000720 -0.000057 0.000553 0.001765 0.028481
#
#
# Mechanical properties :
#
#
# Convention : Reuss Voigt Hill
#
# Bulk Modulus (GPa) = 70.69222 77.66479 74.17851
# Shear Modulus (GPa) = 37.99141 42.52440 40.25790
#
# Velocity S-wave (km/s) = 4.08966 4.32677 4.20988
# Velocity P-wave (km/s) = 7.30903 7.69106 7.50248
#
# Compressibility (1/GPa) = 0.01414583
#
# Stress axis : x y z
#
# Youngs Moduli (GPa) = 142.83428 71.85029 80.55229
#
# Poissons Ratio (x) = 0.09976 0.24343
# Poissons Ratio (y) = 0.19831 0.41752
# Poissons Ratio (z) = 0.43165 0.37242
#
# Static dielectric constant tensor:
#      x y z
#    x 4.871370 0.287410 0.037840 
#    y 0.287410 4.424440 -0.068630 
#    z 0.037840 -0.068630 4.397000 
# 
# 
# High freq. dielectric constant tensor:
#      x y z
#    x 1.902960 -0.002830 0.002190 
#    y -0.002830 1.901080 -0.004870 
#    z 0.002190 -0.004870 1.911040 
# 
# From -- ./inp_files/28504.got.cif
#   From: 2010.06.25/outbox.cif.g09.slc.cpg/sg2_15_cif.got.tgz:28504.got - 2010.06.27 13:26:56.
