data_PCOD8034478
_publ_section_title
;
Structure prediction by ZEFSAII (Michael W. Deem and Ramdas Pophale) SiO2 
 PCOD8034478
Probable space group: P -1
;
_chemical_formula_sum "Si O2"
_cell_formula_units_Z 16
_cell_length_a 21.658706
_cell_length_b 27.127119
_cell_length_c 6.598530
_cell_angle_alpha 80.846830
_cell_angle_beta 81.110418
_cell_angle_gamma 10.754700
_cell_volume 714.201320
_symmetry_space_group_name_H-M "P -1"
_symmetry_group_IT_number 2
_symmetry_cell_setting 'triclinic'
loop_
_space_group_symop_operation_xyz
x,y,z
-x,-y,-z
loop_
_atom_site_type_symbol
_atom_site_label
_atom_site_fract_x
_atom_site_fract_y
_atom_site_fract_z
Si Si1 0.240789 0.839539 0.832628
Si Si2 0.282313 0.237556 0.507430
Si Si3 0.268962 0.475884 0.960185
Si Si4 0.339531 0.099860 0.822594
Si Si5 0.887740 0.195460 0.533032
Si Si6 0.247149 0.976455 0.176285
Si Si7 0.153914 0.139131 0.386788
Si Si8 0.122398 0.708019 0.235463
O O1 0.480195 0.610503 0.760275
O O2 0.463314 0.706366 0.918734
O O3 0.024669 0.034247 0.636467
O O4 0.000000 0.000000 0.000000
O O5 0.172390 0.272519 0.648179
O O6 0.000000 0.500000 0.500000
O O7 0.375545 0.153623 0.280464
O O8 0.601572 0.006409 0.619191
O O9 0.421041 0.305072 0.908626
O O10 0.168294 0.590691 0.750603
O O11 0.944571 0.716441 0.095694
O O12 0.500000 0.000000 0.000000
O O13 0.500000 0.500000 0.500000
O O14 0.975912 0.163774 0.690740
O O15 0.058363 0.078915 0.314620
O O16 0.339796 0.947318 0.306289
O O17 0.007926 0.189374 0.993831
O O18 0.038084 0.212856 0.618918
#
# Coordination Sequence:
#
# PCOD8034478 Si02
#       8
#     2   2   2   2   2   2   2   2
#     4  12  26  43  73 102 135 187 231 288 354 413
#     4  11  27  44  73 106 146 183 237 291 349 426
#     4  12  25  46  72  98 147 183 232 292 353 417
#     4  11  26  48  70 108 144 188 231 291 357 420
#     4  11  26  44  67  99 139 180 234 293 351 418
#     4  11  25  43  71 102 132 190 233 285 358 417
#     4  11  25  44  69 104 136 188 233 284 350 419
#     4  11  24  45  68  97 139 175 237 288 345 422
#
# _framework density 22.402650000000001
#
# number of rings (size 3 to 8) (size 9 to 14) (size 15 to 20)
#    0.000    0.750    3.750    2.250    7.000    2.000 
#    0.000    0.000    0.000    0.000    0.000    0.000 
#    0.000    0.000    0.000    0.000    0.000    0.000 
#
# Total GULP energy -198490.953778 kJ/mol
# GULP energy per Si atom -12405.684611 kJ/mol
# Density = 2.235166 g / cm^3
# Si number density = 22.402650 Si / 1000 Ang^3
#
#
#
# Elastic Constant Matrix: (Units=GPa)
#
#
# Indices 1 2 3 4 5 6 
#
# 1 73.3973 31.6198 38.4985 6.8477 -11.0526 1.2992
# 2 31.6198 108.4486 50.1746 6.3797 -4.8074 20.4755
# 3 38.4985 50.1746 139.4557 5.0244 -20.8268 3.6547
# 4 6.8477 6.3797 5.0244 38.4481 3.3687 -0.2597
# 5 -11.0526 -4.8074 -20.8268 3.3687 46.3691 0.5152
# 6 1.2992 20.4755 3.6547 -0.2597 0.5152 50.8760
#
#
#
# Elastic Compliance Matrix: (Units=1/GPa)
#
#
# Indices 1 2 3 4 5 6 
#
# 1 0.017368 -0.003627 -0.003058 -0.002307 0.002545 0.001198
# 2 -0.003627 0.012877 -0.003625 -0.000959 -0.001035 -0.004824
# 3 -0.003058 -0.003625 0.009810 -0.000422 0.003323 0.000797
# 4 -0.002307 -0.000959 -0.000422 0.026884 -0.002799 0.000641
# 5 0.002545 -0.001035 0.003323 -0.002799 0.023763 -0.000142
# 6 0.001198 -0.004824 0.000797 0.000641 -0.000142 0.021514
#
#
# Mechanical properties :
#
#
# Convention : Reuss Voigt Hill
#
# Bulk Modulus (GPa) = 51.45456 62.43193 56.94325
# Shear Modulus (GPa) = 35.89010 40.53921 38.21465
#
# Velocity S-wave (km/s) = 4.00690 4.25852 4.13463
# Velocity P-wave (km/s) = 6.66520 7.21863 6.94743
#
# Compressibility (1/GPa) = 0.01943462
#
# Stress axis : x y z
#
# Youngs Moduli (GPa) = 57.57664 77.65780 101.93786
#
# Poissons Ratio (x) = 0.28165 0.31173
# Poissons Ratio (y) = 0.20882 0.36956
# Poissons Ratio (z) = 0.17607 0.28153
#
# Static dielectric constant tensor:
#      x y z
#    x 4.087850 0.157700 -0.011150 
#    y 0.157700 4.005970 0.141920 
#    z -0.011150 0.141920 4.134320 
# 
# 
# High freq. dielectric constant tensor:
#      x y z
#    x 1.890810 0.010900 -0.002210 
#    y 0.010900 1.879300 0.005530 
#    z -0.002210 0.005530 1.895440 
# 
# From -- ./inp_files/46975.got.cif
#   From: 2010.06.25/outbox.cif.g09.slc.cpg/sg2_24_cif.got.tgz:46975.got - 2010.06.27 13:26:56.
