data_PCOD8034027
_publ_section_title
;
Structure prediction by ZEFSAII (Michael W. Deem and Ramdas Pophale) SiO2 
 PCOD8034027
Probable space group: P -1
;
_chemical_formula_sum "Si O2"
_cell_formula_units_Z 16
_cell_length_a 5.271613
_cell_length_b 12.403461
_cell_length_c 15.260284
_cell_angle_alpha 48.740459
_cell_angle_beta 87.872111
_cell_angle_gamma 71.025881
_cell_volume 686.916771
_symmetry_space_group_name_H-M "P -1"
_symmetry_group_IT_number 2
_symmetry_cell_setting 'triclinic'
loop_
_space_group_symop_operation_xyz
x,y,z
-x,-y,-z
loop_
_atom_site_type_symbol
_atom_site_label
_atom_site_fract_x
_atom_site_fract_y
_atom_site_fract_z
Si Si1 0.307918 0.566815 0.144940
Si Si2 0.494263 0.021495 0.798871
Si Si3 0.074408 0.560883 0.874333
Si Si4 0.058284 0.930781 0.940969
Si Si5 0.437043 0.559722 0.616752
Si Si6 0.285915 0.863799 0.551010
Si Si7 0.711504 0.625572 0.410875
Si Si8 0.366354 0.117649 0.309958
O O1 0.097104 0.489388 0.166252
O O2 0.330741 0.536946 0.264859
O O3 0.598764 0.504707 0.119020
O O4 0.142706 0.747857 0.032484
O O5 0.300273 0.201632 0.686163
O O6 0.327456 0.962224 0.899006
O O7 0.514147 0.914182 0.771833
O O8 0.791054 0.008912 0.838930
O O9 0.950448 0.751872 0.766097
O O10 0.000000 0.500000 0.000000
O O11 0.000000 0.000000 0.000000
O O12 0.239696 0.716028 0.588975
O O13 0.506577 0.623145 0.491522
O O14 0.326114 0.430843 0.656217
O O15 0.467538 0.811143 0.665805
O O16 0.418140 0.944107 0.436760
O O17 0.000000 0.000000 0.500000
O O18 0.000000 0.500000 0.500000
#
# Coordination Sequence:
#
# PCOD8034027 Si02
#       8
#     2   2   2   2   2   2   2   2
#     4  12  26  47  75 104 147 190 245 301 361 439
#     4  12  28  49  77 110 150 191 251 302 370 441
#     4  12  26  46  71 107 144 193 243 297 367 429
#     4  12  28  50  76 107 145 198 249 308 364 430
#     4  11  25  47  70 110 144 193 246 302 369 443
#     4  11  24  43  70 103 149 190 243 295 370 440
#     4  11  28  44  76 106 148 195 241 310 365 437
#     4  11  25  42  70 109 146 194 236 304 365 441
#
# _framework density 23.292486
#
# number of rings (size 3 to 8) (size 9 to 14) (size 15 to 20)
#    0.000    0.500    2.500    4.500   10.500    0.000 
#    0.000    0.000    0.000    0.000    0.000    0.000 
#    0.000    0.000    0.000    0.000    0.000    0.000 
#
# Total GULP energy -198211.128447 kJ/mol
# GULP energy per Si atom -12388.195528 kJ/mol
# Density = 2.323947 g / cm^3
# Si number density = 23.292486 Si / 1000 Ang^3
#
#
#
# Elastic Constant Matrix: (Units=GPa)
#
#
# Indices 1 2 3 4 5 6 
#
# 1 66.5859 28.2171 -3.9417 0.8700 5.7641 -1.6852
# 2 28.2171 153.6714 37.9930 1.1404 8.8982 -3.6043
# 3 -3.9417 37.9930 90.2031 -6.6832 17.8954 5.8386
# 4 0.8700 1.1404 -6.6832 57.0463 -2.4049 8.1191
# 5 5.7641 8.8982 17.8954 -2.4049 37.0147 -3.9872
# 6 -1.6852 -3.6043 5.8386 8.1191 -3.9872 32.2934
#
#
#
# Elastic Compliance Matrix: (Units=1/GPa)
#
#
# Indices 1 2 3 4 5 6 
#
# 1 0.017025 -0.003687 0.002981 0.000096 -0.003252 -0.000488
# 2 -0.003687 0.008155 -0.003887 -0.000777 0.000625 0.001693
# 3 0.002981 -0.003887 0.014664 0.002070 -0.006949 -0.004308
# 4 0.000096 -0.000777 0.002070 0.018509 -0.000179 -0.005132
# 5 -0.003252 0.000625 -0.006949 -0.000179 0.031266 0.005062
# 6 -0.000488 0.001693 -0.004308 -0.005132 0.005062 0.033824
#
#
# Mechanical properties :
#
#
# Convention : Reuss Voigt Hill
#
# Bulk Modulus (GPa) = 32.61807 48.33300 40.47553
# Shear Modulus (GPa) = 35.00226 41.81700 38.40963
#
# Velocity S-wave (km/s) = 3.88071 4.24169 4.06521
# Velocity P-wave (km/s) = 5.84071 6.69215 6.28087
#
# Compressibility (1/GPa) = 0.03065785
#
# Stress axis : x y z
#
# Youngs Moduli (GPa) = 58.73724 122.62957 68.19253
#
# Poissons Ratio (x) = 0.45212 -0.20326
# Poissons Ratio (y) = 0.21656 0.26506
# Poissons Ratio (z) = -0.17508 0.47665
#
# Static dielectric constant tensor:
#      x y z
#    x 3.719580 -0.107470 0.639810 
#    y -0.107470 4.539960 0.052700 
#    z 0.639810 0.052700 3.574920 
# 
# 
# High freq. dielectric constant tensor:
#      x y z
#    x 1.905300 0.003910 0.004630 
#    y 0.003910 1.944820 -0.002610 
#    z 0.004630 -0.002610 1.942090 
# 
# From -- ./inp_files/364728.got.cif
#   From: 2010.06.25/outbox.cif.g09.slc.cpg/sg2_183_cif.got.tgz:364728.got - 2010.06.27 13:26:56.
