data_PCOD8034941
_publ_section_title
;
Structure prediction by ZEFSAII (Michael W. Deem and Ramdas Pophale) SiO2 
 PCOD8034941
Probable space group: P -1
;
_chemical_formula_sum "Si O2"
_cell_formula_units_Z 14
_cell_length_a 14.468548
_cell_length_b 13.517084
_cell_length_c 16.738578
_cell_angle_alpha 23.896657
_cell_angle_beta 152.916003
_cell_angle_gamma 139.701099
_cell_volume 579.907431
_symmetry_space_group_name_H-M "P -1"
_symmetry_group_IT_number 2
_symmetry_cell_setting 'triclinic'
loop_
_space_group_symop_operation_xyz
x,y,z
-x,-y,-z
loop_
_atom_site_type_symbol
_atom_site_label
_atom_site_fract_x
_atom_site_fract_y
_atom_site_fract_z
Si Si1 0.877295 0.803451 0.737892
Si Si2 0.059094 0.398505 0.903548
Si Si3 0.359660 0.271108 0.719624
Si Si4 0.338735 0.632061 0.846730
Si Si5 0.705355 0.650907 0.208515
Si Si6 0.996885 0.899517 0.160712
Si Si7 0.345203 0.506170 0.299153
O O1 0.737233 0.743814 0.599273
O O2 0.811901 0.097993 0.495988
O O3 0.838502 0.621152 0.914989
O O4 0.129941 0.738543 0.965080
O O5 0.842021 0.626334 0.569478
O O6 0.206235 0.440690 0.913375
O O7 0.017106 0.125405 0.065369
O O8 0.266503 0.272181 0.735908
O O9 0.511688 0.456091 0.693498
O O10 0.500000 0.000000 0.000000
O O11 0.500000 0.500000 0.000000
O O12 0.459709 0.691787 0.973156
O O13 0.783509 0.830717 0.073379
O O14 0.815974 0.355337 0.493949
O O15 0.000000 0.000000 0.000000
O O16 0.500000 0.500000 0.500000
#
# Coordination Sequence:
#
# PCOD8034941 Si02
#       7
#     2   2   2   2   2   2   2
#     4  11  27  48  77 109 153 194 265 316 378 467
#     4  12  26  46  74 107 152 197 255 314 382 465
#     4  12  27  43  75 110 151 199 255 313 384 447
#     4  12  28  46  72 111 154 197 247 326 390 450
#     4  11  27  46  73 111 153 198 258 319 381 459
#     4  11  24  46  78 109 148 202 262 312 384 462
#     4  11  25  49  75 109 143 206 256 316 384 448
#
# _framework density 24.141784999999999
#
# number of rings (size 3 to 8) (size 9 to 14) (size 15 to 20)
#    0.000    0.571    2.857    3.429   10.000    4.571 
#    0.000    3.571    0.000    0.000    0.000    0.000 
#    0.000    0.000    0.000    0.000    0.000    0.000 
#
# Total GULP energy -173505.095182 kJ/mol
# GULP energy per Si atom -12393.221084 kJ/mol
# Density = 2.408684 g / cm^3
# Si number density = 24.141785 Si / 1000 Ang^3
#
#
#
# Elastic Constant Matrix: (Units=GPa)
#
#
# Indices 1 2 3 4 5 6 
#
# 1 123.8073 32.5749 44.4775 -6.2490 -4.0305 20.0952
# 2 32.5749 104.1286 56.9168 8.5552 -6.6183 7.9633
# 3 44.4775 56.9168 123.5882 -13.6363 2.6312 4.1509
# 4 -6.2490 8.5552 -13.6363 41.4545 -4.6985 -0.7126
# 5 -4.0305 -6.6183 2.6312 -4.6985 44.7267 -2.6262
# 6 20.0952 7.9633 4.1509 -0.7126 -2.6262 46.9313
#
#
#
# Elastic Compliance Matrix: (Units=1/GPa)
#
#
# Indices 1 2 3 4 5 6 
#
# 1 0.010132 -0.001375 -0.002801 0.000909 0.000747 -0.003802
# 2 -0.001375 0.014306 -0.006660 -0.005171 0.001769 -0.001229
# 3 -0.002801 -0.006660 0.012707 0.004995 -0.001390 0.001204
# 4 0.000909 -0.005171 0.004995 0.027197 0.001913 0.000566
# 5 0.000747 0.001769 -0.001390 0.001913 0.023018 0.000820
# 6 -0.003802 -0.001229 0.001204 0.000566 0.000820 0.023092
#
#
# Mechanical properties :
#
#
# Convention : Reuss Voigt Hill
#
# Bulk Modulus (GPa) = 64.63287 68.82919 66.73103
# Shear Modulus (GPa) = 36.42125 41.12615 38.77370
#
# Velocity S-wave (km/s) = 3.88833 4.13186 4.01194
# Velocity P-wave (km/s) = 6.85487 7.16486 7.01158
#
# Compressibility (1/GPa) = 0.01547200
#
# Stress axis : x y z
#
# Youngs Moduli (GPa) = 98.69281 69.90316 78.69623
#
# Poissons Ratio (x) = 0.09613 0.22044
# Poissons Ratio (y) = 0.13572 0.52414
# Poissons Ratio (z) = 0.27645 0.46557
#
# Static dielectric constant tensor:
#      x y z
#    x 4.586240 -0.022150 0.031970 
#    y -0.022150 4.255890 0.263450 
#    z 0.031970 0.263450 4.306170 
# 
# 
# High freq. dielectric constant tensor:
#      x y z
#    x 1.968330 0.004290 0.000940 
#    y 0.004290 1.958200 0.004070 
#    z 0.000940 0.004070 1.966310 
# 
# From -- ./inp_files/573795.got.cif
#   From: 2010.06.25/outbox.cif.g09.slc.cpg/sg2_287_cif.got.tgz:573795.got - 2010.06.27 13:26:56.
