data_PCOD8034280
_publ_section_title
;
Structure prediction by ZEFSAII (Michael W. Deem and Ramdas Pophale) SiO2 
 PCOD8034280
Probable space group: P -1
;
_chemical_formula_sum "Si O2"
_cell_formula_units_Z 16
_cell_length_a 6.511091
_cell_length_b 14.432126
_cell_length_c 22.390592
_cell_angle_alpha 159.496329
_cell_angle_beta 108.703992
_cell_angle_gamma 67.145062
_cell_volume 673.024544
_symmetry_space_group_name_H-M "P -1"
_symmetry_group_IT_number 2
_symmetry_cell_setting 'triclinic'
loop_
_space_group_symop_operation_xyz
x,y,z
-x,-y,-z
loop_
_atom_site_type_symbol
_atom_site_label
_atom_site_fract_x
_atom_site_fract_y
_atom_site_fract_z
Si Si1 0.291685 0.083527 0.573578
Si Si2 0.853199 0.301831 0.848626
Si Si3 0.036195 0.348183 0.264111
Si Si4 0.356798 0.841231 0.930773
Si Si5 0.909568 0.140424 0.484806
Si Si6 0.579955 0.395042 0.083853
Si Si7 0.245481 0.531143 0.510964
Si Si8 0.836605 0.972465 0.759865
O O1 0.098609 0.019900 0.477770
O O2 0.257007 0.402228 0.779564
O O3 0.500000 0.000000 0.500000
O O4 0.313497 0.905189 0.530055
O O5 0.649747 0.464865 0.887394
O O6 0.027152 0.040380 0.677605
O O7 0.754841 0.187375 0.828713
O O8 0.000000 0.500000 0.000000
O O9 0.100233 0.443340 0.391528
O O10 0.772346 0.340476 0.231150
O O11 0.105788 0.545554 0.340667
O O12 0.176209 0.048276 0.079268
O O13 0.496628 0.653793 0.884452
O O14 0.500000 0.000000 0.000000
O O15 0.731294 0.120167 0.900355
O O16 0.500000 0.500000 0.500000
O O17 0.254583 0.298855 0.422191
O O18 0.113222 0.841148 0.707546
#
# Coordination Sequence:
#
# PCOD8034280 Si02
#       8
#     2   2   2   2   2   2   2   2
#     4  11  24  44  70 106 140 191 241 299 371 438
#     4  12  27  45  73 109 149 199 244 302 373 445
#     4  11  24  48  71 109 144 187 257 307 369 452
#     4  11  27  46  76 107 143 197 248 316 378 437
#     4  11  24  44  72 102 143 187 242 304 360 437
#     4  12  25  48  73 106 149 193 247 311 375 438
#     4  11  26  48  77 109 149 200 246 305 373 445
#     4  11  26  48  72 108 148 194 252 308 361 450
#
# _framework density 23.773277
#
# number of rings (size 3 to 8) (size 9 to 14) (size 15 to 20)
#    0.000    0.750    5.000    1.125    3.500    4.000 
#    0.000    0.000    0.000    0.000    0.000    0.000 
#    0.000    0.000    0.000    0.000    0.000    0.000 
#
# Total GULP energy -198210.592017 kJ/mol
# GULP energy per Si atom -12388.162001 kJ/mol
# Density = 2.371917 g / cm^3
# Si number density = 23.773277 Si / 1000 Ang^3
#
#
#
# Elastic Constant Matrix: (Units=GPa)
#
#
# Indices 1 2 3 4 5 6 
#
# 1 120.6864 51.0015 27.1716 4.3736 10.1404 13.0868
# 2 51.0015 136.6809 35.7515 13.4265 31.5250 12.8106
# 3 27.1716 35.7515 95.8540 1.3581 12.5060 -0.0819
# 4 4.3736 13.4265 1.3581 42.3080 8.6450 8.4439
# 5 10.1404 31.5250 12.5060 8.6450 44.7112 10.6805
# 6 13.0868 12.8106 -0.0819 8.4439 10.6805 39.0227
#
#
#
# Elastic Compliance Matrix: (Units=1/GPa)
#
#
# Indices 1 2 3 4 5 6 
#
# 1 0.010328 -0.003430 -0.001808 0.000389 0.001162 -0.002744
# 2 -0.003430 0.010712 -0.002254 -0.001719 -0.005708 -0.000437
# 3 -0.001808 -0.002254 0.012027 0.000550 -0.001894 0.001771
# 4 0.000389 -0.001719 0.000550 0.025584 -0.002951 -0.004293
# 5 0.001162 -0.005708 -0.001894 -0.002951 0.028590 -0.005706
# 6 -0.002744 -0.000437 0.001771 -0.004293 -0.005706 0.029184
#
#
# Mechanical properties :
#
#
# Convention : Reuss Voigt Hill
#
# Bulk Modulus (GPa) = 55.30242 64.56336 59.93289
# Shear Modulus (GPa) = 36.38022 41.16149 38.77086
#
# Velocity S-wave (km/s) = 3.91615 4.16555 4.04277
# Velocity P-wave (km/s) = 6.61523 7.09596 6.85980
#
# Compressibility (1/GPa) = 0.01808239
#
# Stress axis : x y z
#
# Youngs Moduli (GPa) = 96.82138 93.35144 83.14867
#
# Poissons Ratio (x) = 0.32021 0.15032
# Poissons Ratio (y) = 0.33211 0.18745
# Poissons Ratio (z) = 0.17504 0.21045
#
# Static dielectric constant tensor:
#      x y z
#    x 3.812300 0.034670 -0.135260 
#    y 0.034670 4.495580 0.006060 
#    z -0.135260 0.006060 4.553410 
# 
# 
# High freq. dielectric constant tensor:
#      x y z
#    x 1.931950 0.020770 -0.000550 
#    y 0.020770 1.953060 0.011170 
#    z -0.000550 0.011170 1.952920 
# 
# From -- ./inp_files/604796.got.cif
#   From: 2010.06.25/outbox.cif.g09.slc.cpg/sg2_303_cif.got.tgz:604796.got - 2010.06.27 13:26:56.
