data_PCOD8034878
_publ_section_title
;
Structure prediction by ZEFSAII (Michael W. Deem and Ramdas Pophale) SiO2 
 PCOD8034878
Probable space group: P -1
;
_chemical_formula_sum "Si O2"
_cell_formula_units_Z 16
_cell_length_a 18.775472
_cell_length_b 11.782938
_cell_length_c 8.978758
_cell_angle_alpha 105.014901
_cell_angle_beta 132.288837
_cell_angle_gamma 36.930965
_cell_volume 687.650576
_symmetry_space_group_name_H-M "P -1"
_symmetry_group_IT_number 2
_symmetry_cell_setting 'triclinic'
loop_
_space_group_symop_operation_xyz
x,y,z
-x,-y,-z
loop_
_atom_site_type_symbol
_atom_site_label
_atom_site_fract_x
_atom_site_fract_y
_atom_site_fract_z
Si Si1 0.572022 0.794556 0.567348
Si Si2 0.794233 0.717515 0.368259
Si Si3 0.074688 0.521393 0.221475
Si Si4 0.707270 0.070775 0.956488
Si Si5 0.362024 0.859328 0.777959
Si Si6 0.283535 0.754132 0.203378
Si Si7 0.679761 0.630710 0.987124
Si Si8 0.032023 0.117234 0.221514
O O1 0.784091 0.547114 0.703333
O O2 0.429223 0.850526 0.322424
O O3 0.500000 0.000000 0.500000
O O4 0.564582 0.786555 0.729415
O O5 0.812663 0.662708 0.548152
O O6 0.659285 0.762843 0.113820
O O7 0.000000 0.500000 0.500000
O O8 0.699606 0.946293 0.300570
O O9 0.000000 0.500000 0.000000
O O10 0.914911 0.780149 0.156789
O O11 0.707541 0.202403 0.935575
O O12 0.612960 0.177210 0.023181
O O13 0.204690 0.926165 0.527569
O O14 0.579729 0.620262 0.921983
O O15 0.500000 0.500000 0.500000
O O16 0.157849 0.983854 0.201154
O O17 0.144313 0.789292 0.004483
O O18 0.910747 0.364736 0.174925
#
# Coordination Sequence:
#
# PCOD8034878 Si02
#       8
#     2   2   2   2   2   2   2   2
#     4  12  23  37  62  96 133 177 221 268 325 395
#     4  12  22  42  64  98 148 181 221 267 333 406
#     4  12  24  40  64  98 137 176 222 273 324 399
#     4  12  25  43  66 100 135 173 227 276 335 401
#     4  12  25  42  68 101 139 185 218 273 340 403
#     4  11  26  49  72  99 129 172 230 293 340 394
#     4  12  24  43  68  98 138 183 224 273 337 403
#     4  11  24  46  73  96 126 173 230 280 348 395
#
# _framework density 23.267631000000002
#
# number of rings (size 3 to 8) (size 9 to 14) (size 15 to 20)
#    0.000    0.250    3.750    6.375    1.750    1.500 
#    0.000    2.500    0.000    0.000    0.000    0.000 
#    0.000    0.000    0.000    0.000    0.000    0.000 
#
# Total GULP energy -198292.336277 kJ/mol
# GULP energy per Si atom -12393.271017 kJ/mol
# Density = 2.321467 g / cm^3
# Si number density = 23.267631 Si / 1000 Ang^3
#
#
#
# Elastic Constant Matrix: (Units=GPa)
#
#
# Indices 1 2 3 4 5 6 
#
# 1 139.2856 21.9944 52.6500 1.4598 -21.7059 -24.6022
# 2 21.9944 69.8112 19.9022 -7.7786 -6.4745 -24.0700
# 3 52.6500 19.9022 129.3564 22.6121 -6.4247 -13.2963
# 4 1.4598 -7.7786 22.6121 42.4781 -8.6234 1.3696
# 5 -21.7059 -6.4745 -6.4247 -8.6234 53.1618 4.8416
# 6 -24.6022 -24.0700 -13.2963 1.3696 4.8416 34.3454
#
#
#
# Elastic Compliance Matrix: (Units=1/GPa)
#
#
# Indices 1 2 3 4 5 6 
#
# 1 0.010048 0.000366 -0.003819 0.002306 0.003569 0.005380
# 2 0.000366 0.020172 -0.002727 0.005111 0.001934 0.012867
# 3 -0.003819 -0.002727 0.010745 -0.006420 -0.001634 0.000000
# 4 0.002306 0.005111 -0.006420 0.028884 0.005397 0.000835
# 5 0.003569 0.001934 -0.001634 0.005397 0.021174 0.000079
# 6 0.005380 0.012867 0.000000 0.000835 0.000079 0.041943
#
#
# Mechanical properties :
#
#
# Convention : Reuss Voigt Hill
#
# Bulk Modulus (GPa) = 34.95876 58.61625 46.78751
# Shear Modulus (GPa) = 32.28712 42.25750 37.27231
#
# Velocity S-wave (km/s) = 3.72915 4.26625 4.00671
# Velocity P-wave (km/s) = 5.79649 7.03667 6.44647
#
# Compressibility (1/GPa) = 0.02860513
#
# Stress axis : x y z
#
# Youngs Moduli (GPa) = 99.52697 49.57458 93.06269
#
# Poissons Ratio (x) = -0.01815 0.35536
# Poissons Ratio (y) = -0.03644 0.25381
# Poissons Ratio (z) = 0.38005 0.13521
#
# Static dielectric constant tensor:
#      x y z
#    x 4.081690 -0.136050 -0.209860 
#    y -0.136050 4.210140 0.288610 
#    z -0.209860 0.288610 4.299190 
# 
# 
# High freq. dielectric constant tensor:
#      x y z
#    x 1.918940 -0.025300 0.015300 
#    y -0.025300 1.926360 0.002350 
#    z 0.015300 0.002350 1.935830 
# 
# From -- ./inp_files/333423.got.cif
#   From: 2010.06.25/outbox.cif.g09.slc.cpg/sg2_167_cif.got.tgz:333423.got - 2010.06.27 13:26:56.
