data_PCOD8034078
_publ_section_title
;
Structure prediction by ZEFSAII (Michael W. Deem and Ramdas Pophale) SiO2 
 PCOD8034078
Probable space group: P -1
;
_chemical_formula_sum "Si O2"
_cell_formula_units_Z 16
_cell_length_a 11.154650
_cell_length_b 13.825563
_cell_length_c 17.739909
_cell_angle_alpha 33.031509
_cell_angle_beta 125.924589
_cell_angle_gamma 148.260898
_cell_volume 704.343516
_symmetry_space_group_name_H-M "P -1"
_symmetry_group_IT_number 2
_symmetry_cell_setting 'triclinic'
loop_
_space_group_symop_operation_xyz
x,y,z
-x,-y,-z
loop_
_atom_site_type_symbol
_atom_site_label
_atom_site_fract_x
_atom_site_fract_y
_atom_site_fract_z
Si Si1 0.188045 0.512289 0.674590
Si Si2 0.716738 0.750370 0.191569
Si Si3 0.411228 0.060434 0.326809
Si Si4 0.265135 0.870169 0.144020
Si Si5 0.145295 0.203242 0.347326
Si Si6 0.705920 0.370064 0.077482
Si Si7 0.796896 0.345470 0.882881
Si Si8 0.916620 0.932691 0.752153
O O1 0.143103 0.271540 0.785157
O O2 0.374566 0.688048 0.698583
O O3 0.910065 0.302508 0.734552
O O4 0.291774 0.748387 0.495640
O O5 0.429229 0.406416 0.320788
O O6 0.831555 0.880016 0.232777
O O7 0.757221 0.971132 0.016892
O O8 0.544565 0.194800 0.207985
O O9 0.186569 0.983058 0.307645
O O10 0.163145 0.611313 0.221552
O O11 0.553957 0.122280 0.115431
O O12 0.157028 0.427148 0.206112
O O13 0.015521 0.999667 0.356430
O O14 0.000000 0.000000 0.500000
O O15 0.994920 0.582707 0.050233
O O16 0.702759 0.574456 0.920796
O O17 0.500000 0.000000 0.000000
#
# Coordination Sequence:
#
# PCOD8034078 Si02
#       8
#     2   2   2   2   2   2   2   2
#     4  11  24  43  72 102 148 178 224 291 356 423
#     4  12  24  47  71 101 140 181 233 289 353 416
#     4  11  24  43  72 106 141 183 224 285 363 426
#     4  12  24  44  72 105 136 186 232 291 347 416
#     4  12  29  47  70 102 141 187 236 293 349 406
#     4  12  24  43  75 105 136 183 232 290 349 419
#     4  12  25  48  71 101 138 186 246 283 339 413
#     4  12  24  46  72 100 140 181 234 286 351 419
#
# _framework density 22.716189
#
# number of rings (size 3 to 8) (size 9 to 14) (size 15 to 20)
#    0.000    0.250    6.250    1.500    3.500    5.500 
#    0.000    0.000    0.000    0.000    0.000    0.000 
#    0.000    0.000    0.000    0.000    0.000    0.000 
#
# Total GULP energy -198344.589620 kJ/mol
# GULP energy per Si atom -12396.536851 kJ/mol
# Density = 2.266449 g / cm^3
# Si number density = 22.716189 Si / 1000 Ang^3
#
#
#
# Elastic Constant Matrix: (Units=GPa)
#
#
# Indices 1 2 3 4 5 6 
#
# 1 97.2617 23.7636 10.8581 6.0344 0.0558 8.1116
# 2 23.7636 131.7932 16.2962 8.0065 -3.5640 -2.4273
# 3 10.8581 16.2962 73.5182 12.3792 -18.1596 3.0237
# 4 6.0344 8.0065 12.3792 25.1364 -1.2495 -1.2314
# 5 0.0558 -3.5640 -18.1596 -1.2495 36.8637 -5.1457
# 6 8.1116 -2.4273 3.0237 -1.2314 -5.1457 21.9281
#
#
#
# Elastic Compliance Matrix: (Units=1/GPa)
#
#
# Indices 1 2 3 4 5 6 
#
# 1 0.011388 -0.001929 -0.001107 -0.001879 -0.001472 -0.004724
# 2 -0.001929 0.008223 -0.001282 -0.001418 0.000371 0.001808
# 3 -0.001107 -0.001282 0.017332 -0.007492 0.008071 -0.000649
# 4 -0.001879 -0.001418 -0.007492 0.044464 -0.001809 0.003644
# 5 -0.001472 0.000371 0.008071 -0.001809 0.032041 0.006890
# 6 -0.004724 0.001808 -0.000649 0.003644 0.006890 0.049462
#
#
# Mechanical properties :
#
#
# Convention : Reuss Voigt Hill
#
# Bulk Modulus (GPa) = 35.32803 44.93432 40.13118
# Shear Modulus (GPa) = 27.62699 33.56266 30.59482
#
# Velocity S-wave (km/s) = 3.49116 3.84797 3.67390
# Velocity P-wave (km/s) = 5.64240 6.29016 5.97506
#
# Compressibility (1/GPa) = 0.02830614
#
# Stress axis : x y z
#
# Youngs Moduli (GPa) = 87.81235 121.60332 57.69815
#
# Poissons Ratio (x) = 0.23459 0.06389
# Poissons Ratio (y) = 0.16940 0.07397
# Poissons Ratio (z) = 0.09724 0.15589
#
# Static dielectric constant tensor:
#      x y z
#    x 3.985710 0.129530 -0.760000 
#    y 0.129530 4.258730 0.460290 
#    z -0.760000 0.460290 2.704740 
# 
# 
# High freq. dielectric constant tensor:
#      x y z
#    x 1.903930 -0.010310 -0.004090 
#    y -0.010310 1.918220 0.000240 
#    z -0.004090 0.000240 1.879890 
# 
# From -- ./inp_files/398205.got.cif
#   From: 2010.06.25/outbox.cif.g09.slc.cpg/sg2_200_cif.got.tgz:398205.got - 2010.06.27 13:26:56.
