data_PCOD8034235
_publ_section_title
;
Structure prediction by ZEFSAII (Michael W. Deem and Ramdas Pophale) SiO2 
 PCOD8034235
Probable space group: P -1
;
_chemical_formula_sum "Si O2"
_cell_formula_units_Z 16
_cell_length_a 6.212923
_cell_length_b 5.593710
_cell_length_c 27.035993
_cell_angle_alpha 132.181316
_cell_angle_beta 104.628869
_cell_angle_gamma 77.258119
_cell_volume 671.982315
_symmetry_space_group_name_H-M "P -1"
_symmetry_group_IT_number 2
_symmetry_cell_setting 'triclinic'
loop_
_space_group_symop_operation_xyz
x,y,z
-x,-y,-z
loop_
_atom_site_type_symbol
_atom_site_label
_atom_site_fract_x
_atom_site_fract_y
_atom_site_fract_z
Si Si1 0.499524 0.401460 0.654906
Si Si2 0.123690 0.220496 0.251960
Si Si3 0.795594 0.710008 0.178835
Si Si4 0.667825 0.183782 0.877930
Si Si5 0.136071 0.572659 0.587928
Si Si6 0.302281 0.275662 0.458373
Si Si7 0.875962 0.793900 0.925181
Si Si8 0.740460 0.735647 0.288630
O O1 0.650569 0.704050 0.694195
O O2 0.245427 0.422904 0.623071
O O3 0.463207 0.406063 0.712650
O O4 0.623041 0.094858 0.594222
O O5 0.985997 0.560404 0.283113
O O6 0.191095 0.072985 0.182738
O O7 0.967610 0.984019 0.238408
O O8 0.601258 0.817974 0.143272
O O9 0.668298 0.689960 0.221101
O O10 0.935774 0.389525 0.124072
O O11 0.736239 0.542328 0.914240
O O12 0.724854 0.057330 0.919720
O O13 0.186507 0.325035 0.511533
O O14 0.868664 0.624760 0.582619
O O15 0.248154 0.912436 0.637068
O O16 0.500000 0.500000 0.500000
O O17 0.000000 0.000000 0.000000
#
# Coordination Sequence:
#
# PCOD8034235 Si02
#       8
#     2   2   2   2   2   2   2   2
#     4  12  26  44  72 101 135 183 234 295 370 432
#     4  11  24  44  69 103 143 184 240 296 365 429
#     4  11  27  46  73 107 149 189 242 298 365 441
#     4  11  25  46  77 107 153 196 247 306 367 430
#     4  11  25  44  67  97 131 179 234 290 358 438
#     4  11  24  47  66  95 135 179 234 295 361 436
#     4  11  26  48  76 113 153 199 251 303 361 434
#     4  12  23  44  69 101 140 177 238 293 363 437
#
# _framework density 23.810148999999999
#
# number of rings (size 3 to 8) (size 9 to 14) (size 15 to 20)
#    0.000    0.750    3.750    3.000    3.500    4.500 
#    2.250    0.000    0.000    0.000    0.000    0.000 
#    0.000    0.000    0.000    0.000    0.000    0.000 
#
# Total GULP energy -198270.865496 kJ/mol
# GULP energy per Si atom -12391.929093 kJ/mol
# Density = 2.375596 g / cm^3
# Si number density = 23.810149 Si / 1000 Ang^3
#
#
#
# Elastic Constant Matrix: (Units=GPa)
#
#
# Indices 1 2 3 4 5 6 
#
# 1 101.0452 51.7888 46.6799 3.1945 27.6340 -1.8828
# 2 51.7888 127.2334 54.3164 -9.9902 14.4499 -7.0904
# 3 46.6799 54.3164 123.0559 3.5287 20.7948 0.0221
# 4 3.1945 -9.9902 3.5287 33.2852 -4.4190 4.3132
# 5 27.6340 14.4499 20.7948 -4.4190 31.0007 -4.2347
# 6 -1.8828 -7.0904 0.0221 4.3132 -4.2347 36.7930
#
#
#
# Elastic Compliance Matrix: (Units=1/GPa)
#
#
# Indices 1 2 3 4 5 6 
#
# 1 0.016811 -0.005019 -0.001997 -0.004383 -0.012065 -0.000981
# 2 -0.005019 0.011698 -0.003803 0.004494 0.002453 0.001755
# 3 -0.001997 -0.003803 0.011421 -0.002637 -0.004629 -0.001066
# 4 -0.004383 0.004494 -0.002637 0.033464 0.008029 -0.002355
# 5 -0.012065 0.002453 -0.004629 0.008029 0.046705 0.004292
# 6 -0.000981 0.001755 -0.001066 -0.002355 0.004292 0.028238
#
#
# Mechanical properties :
#
#
# Convention : Reuss Voigt Hill
#
# Bulk Modulus (GPa) = 54.66933 72.98941 63.82937
# Shear Modulus (GPa) = 28.39725 33.45241 30.92483
#
# Velocity S-wave (km/s) = 3.45723 3.75235 3.60781
# Velocity P-wave (km/s) = 6.24075 7.03526 6.64988
#
# Compressibility (1/GPa) = 0.01829179
#
# Stress axis : x y z
#
# Youngs Moduli (GPa) = 59.48339 85.48311 87.55866
#
# Poissons Ratio (x) = 0.42902 0.17488
# Poissons Ratio (y) = 0.29853 0.33302
# Poissons Ratio (z) = 0.11880 0.32512
#
# Static dielectric constant tensor:
#      x y z
#    x 2.880000 0.211370 3.544950 
#    y 0.211370 4.242180 -0.830190 
#    z 3.544950 -0.830190 -3.286100 
# 
# 
# High freq. dielectric constant tensor:
#      x y z
#    x 1.952550 -0.015700 0.001050 
#    y -0.015700 1.935790 0.008130 
#    z 0.001050 0.008130 1.949210 
# 
# From -- ./inp_files/10614.got.cif
#   From: 2010.06.25/outbox.cif.g09.slc.cpg/sg2_6_cif.got.tgz:10614.got - 2010.06.27 13:26:56.
