data_PCOD8034643
_publ_section_title
;
Structure prediction by ZEFSAII (Michael W. Deem and Ramdas Pophale) SiO2 
 PCOD8034643
Probable space group: P -1
;
_chemical_formula_sum "Si O2"
_cell_formula_units_Z 14
_cell_length_a 13.245470
_cell_length_b 11.169274
_cell_length_c 18.366066
_cell_angle_alpha 25.576089
_cell_angle_beta 146.337023
_cell_angle_gamma 131.771778
_cell_volume 608.224948
_symmetry_space_group_name_H-M "P -1"
_symmetry_group_IT_number 2
_symmetry_cell_setting 'triclinic'
loop_
_space_group_symop_operation_xyz
x,y,z
-x,-y,-z
loop_
_atom_site_type_symbol
_atom_site_label
_atom_site_fract_x
_atom_site_fract_y
_atom_site_fract_z
Si Si1 0.615023 0.178726 0.434405
Si Si2 0.063799 0.211903 0.506753
Si Si3 0.617718 0.194439 0.990534
Si Si4 0.129502 0.230523 0.373655
Si Si5 0.903772 0.853490 0.081698
Si Si6 0.512957 0.804235 0.815283
Si Si7 0.935045 0.173527 0.069995
O O1 0.544955 0.495917 0.256951
O O2 0.534886 0.192763 0.298769
O O3 0.500000 0.000000 0.500000
O O4 0.849275 0.029833 0.663446
O O5 0.025007 0.314459 0.342882
O O6 0.035605 0.514161 0.368263
O O7 0.914168 0.052939 0.529999
O O8 0.274852 0.965922 0.783489
O O9 0.776921 0.214231 0.016267
O O10 0.500000 0.000000 0.000000
O O11 0.360759 0.104844 0.594395
O O12 0.058631 0.504521 0.124881
O O13 0.864135 0.038495 0.030972
O O14 0.715740 0.832291 0.941290
O O15 0.000000 0.000000 0.000000
O O16 0.500000 0.500000 0.000000
#
# Coordination Sequence:
#
# PCOD8034643 Si02
#       7
#     2   2   2   2   2   2   2
#     4  12  27  50  77 106 152 194 250 309 374 451
#     4  11  24  45  73 107 147 193 247 306 367 452
#     4  12  29  47  73 110 152 198 252 311 378 446
#     4  11  24  45  76 105 146 193 253 302 370 449
#     4  12  26  48  75 111 154 191 245 317 381 441
#     4  12  26  45  75 110 141 194 254 302 362 447
#     4  12  28  49  76 112 154 200 247 316 382 444
#
# _framework density 23.017797999999999
#
# number of rings (size 3 to 8) (size 9 to 14) (size 15 to 20)
#    0.000    0.286    2.857    5.143    6.000    4.571 
#    0.000    0.000    0.000    0.000    0.000    0.000 
#    0.000    0.000    0.000    0.000    0.000    0.000 
#
# Total GULP energy -173522.997802 kJ/mol
# GULP energy per Si atom -12394.499843 kJ/mol
# Density = 2.296541 g / cm^3
# Si number density = 23.017798 Si / 1000 Ang^3
#
#
#
# Elastic Constant Matrix: (Units=GPa)
#
#
# Indices 1 2 3 4 5 6 
#
# 1 85.8372 36.8358 36.9413 14.0775 -12.6939 9.1652
# 2 36.8358 129.7405 43.9154 4.1853 -11.4796 14.8487
# 3 36.9413 43.9154 152.3282 -3.5914 -4.0457 11.3031
# 4 14.0775 4.1853 -3.5914 47.8230 -1.1452 -2.2879
# 5 -12.6939 -11.4796 -4.0457 -1.1452 44.3858 0.4870
# 6 9.1652 14.8487 11.3031 -2.2879 0.4870 38.0662
#
#
#
# Elastic Compliance Matrix: (Units=1/GPa)
#
#
# Indices 1 2 3 4 5 6 
#
# 1 0.015528 -0.002760 -0.002829 -0.004563 0.003375 -0.002139
# 2 -0.002760 0.009557 -0.001862 -0.000249 0.001534 -0.002545
# 3 -0.002829 -0.001862 0.007872 0.001535 -0.000524 -0.000831
# 4 -0.004563 -0.000249 0.001535 0.022475 -0.000673 0.002099
# 5 0.003375 0.001534 -0.000524 -0.000673 0.023844 -0.001601
# 6 -0.002139 -0.002545 -0.000831 0.002099 -0.001601 0.028171
#
#
# Mechanical properties :
#
#
# Convention : Reuss Voigt Hill
#
# Bulk Modulus (GPa) = 55.39185 67.03233 61.21209
# Shear Modulus (GPa) = 38.95070 42.73588 40.84329
#
# Velocity S-wave (km/s) = 4.11810 4.31356 4.21696
# Velocity P-wave (km/s) = 6.83584 7.34807 7.09658
#
# Compressibility (1/GPa) = 0.01805320
#
# Stress axis : x y z
#
# Youngs Moduli (GPa) = 64.39979 104.63858 127.03930
#
# Poissons Ratio (x) = 0.28885 0.35941
# Poissons Ratio (y) = 0.17777 0.23655
# Poissons Ratio (z) = 0.18219 0.19484
#
# Static dielectric constant tensor:
#      x y z
#    x 4.238030 0.046300 -0.124990 
#    y 0.046300 4.229100 -0.106600 
#    z -0.124990 -0.106600 4.105700 
# 
# 
# High freq. dielectric constant tensor:
#      x y z
#    x 1.918810 0.001830 -0.004420 
#    y 0.001830 1.919090 -0.003140 
#    z -0.004420 -0.003140 1.931570 
# 
# From -- ./inp_files/461841.got.cif
#   From: 2010.06.25/outbox.cif.g09.slc.cpg/sg2_231_cif.got.tgz:461841.got - 2010.06.27 13:26:56.
