data_PCOD8034495
_publ_section_title
;
Structure prediction by ZEFSAII (Michael W. Deem and Ramdas Pophale) SiO2 
 PCOD8034495
Probable space group: P -1
;
_chemical_formula_sum "Si O2"
_cell_formula_units_Z 16
_cell_length_a 13.764551
_cell_length_b 11.232790
_cell_length_c 9.044184
_cell_angle_alpha 49.064027
_cell_angle_beta 109.201719
_cell_angle_gamma 71.201180
_cell_volume 655.579396
_symmetry_space_group_name_H-M "P -1"
_symmetry_group_IT_number 2
_symmetry_cell_setting 'triclinic'
loop_
_space_group_symop_operation_xyz
x,y,z
-x,-y,-z
loop_
_atom_site_type_symbol
_atom_site_label
_atom_site_fract_x
_atom_site_fract_y
_atom_site_fract_z
Si Si1 0.063560 0.752305 0.232328
Si Si2 0.537503 0.957319 0.724884
Si Si3 0.258419 0.858352 0.680506
Si Si4 0.038877 0.629267 0.862464
Si Si5 0.249270 0.004770 0.246594
Si Si6 0.716820 0.564967 0.647479
Si Si7 0.777652 0.445917 0.231564
Si Si8 0.484000 0.486831 0.330339
O O1 0.236571 0.528085 0.423190
O O2 0.089548 0.690728 0.467420
O O3 0.000000 0.000000 0.000000
O O4 0.930500 0.791707 0.063913
O O5 0.500000 0.000000 0.500000
O O6 0.668262 0.941431 0.832193
O O7 0.388098 0.156252 0.599906
O O8 0.611760 0.699852 0.007271
O O9 0.271691 0.974253 0.461378
O O10 0.240451 0.706420 0.723129
O O11 0.398245 0.708182 0.994413
O O12 0.102207 0.097952 0.490609
O O13 0.172041 0.480309 0.924778
O O14 0.109105 0.630871 0.040591
O O15 0.000000 0.500000 0.000000
O O16 0.340087 0.741582 0.452899
O O17 0.623692 0.542328 0.711804
O O18 0.500000 0.500000 0.500000
#
# Coordination Sequence:
#
# PCOD8034495 Si02
#       8
#     2   2   2   2   2   2   2   2
#     4  12  25  44  74 107 148 185 245 304 362 419
#     4  11  24  47  72  99 148 194 242 296 361 425
#     4  12  24  44  75 106 138 188 249 291 362 435
#     4  12  25  46  74 109 140 186 243 302 361 432
#     4  11  24  45  69 103 147 188 237 299 353 438
#     4  11  24  46  69 101 148 188 235 303 351 429
#     4  12  25  44  77 102 141 196 239 295 369 423
#     4  11  25  42  69 104 147 184 237 297 360 420
#
# _framework density 24.405892000000001
#
# number of rings (size 3 to 8) (size 9 to 14) (size 15 to 20)
#    0.000    0.500    5.000    3.000    3.500    1.000 
#    0.000    0.000    0.000    0.000    0.000    0.000 
#    0.000    0.000    0.000    0.000    0.000    0.000 
#
# Total GULP energy -198218.324597 kJ/mol
# GULP energy per Si atom -12388.645287 kJ/mol
# Density = 2.435034 g / cm^3
# Si number density = 24.405892 Si / 1000 Ang^3
#
#
#
# Elastic Constant Matrix: (Units=GPa)
#
#
# Indices 1 2 3 4 5 6 
#
# 1 65.7326 15.8491 10.2593 -3.7234 0.3467 -8.9361
# 2 15.8491 127.4362 53.2936 -19.1165 6.1823 -14.1719
# 3 10.2593 53.2936 139.0534 -3.8045 5.3234 5.0124
# 4 -3.7234 -19.1165 -3.8045 60.8414 -6.2372 1.4810
# 5 0.3467 6.1823 5.3234 -6.2372 27.8606 -5.4073
# 6 -8.9361 -14.1719 5.0124 1.4810 -5.4073 27.3738
#
#
#
# Elastic Compliance Matrix: (Units=1/GPa)
#
#
# Indices 1 2 3 4 5 6 
#
# 1 0.016359 -0.000977 -0.001057 0.000641 0.001381 0.005266
# 2 -0.000977 0.010827 -0.004220 0.002957 0.000232 0.005944
# 3 -0.001057 -0.004220 0.009096 -0.000903 -0.001867 -0.004515
# 4 0.000641 0.002957 -0.000903 0.017696 0.003800 0.001699
# 5 0.001381 0.000232 -0.001867 0.003800 0.038651 0.008342
# 6 0.005266 0.005944 -0.004515 0.001699 0.008342 0.043711
#
#
# Mechanical properties :
#
#
# Convention : Reuss Voigt Hill
#
# Bulk Modulus (GPa) = 42.06502 54.55845 48.31174
# Shear Modulus (GPa) = 31.89331 40.06984 35.98158
#
# Velocity S-wave (km/s) = 3.61887 4.05632 3.84383
# Velocity P-wave (km/s) = 5.89361 6.65894 6.28793
#
# Compressibility (1/GPa) = 0.02377272
#
# Stress axis : x y z
#
# Youngs Moduli (GPa) = 61.12912 92.36445 109.93580
#
# Poissons Ratio (x) = 0.09028 0.11625
# Poissons Ratio (y) = 0.05975 0.46388
# Poissons Ratio (z) = 0.06464 0.38974
#
# Static dielectric constant tensor:
#      x y z
#    x -45.092800 -15.683900 -13.885940 
#    y -15.683900 -0.478450 -4.926860 
#    z -13.885940 -4.926860 -0.443540 
# 
# 
# High freq. dielectric constant tensor:
#      x y z
#    x 1.959790 -0.008490 0.014650 
#    y -0.008490 1.977560 -0.009640 
#    z 0.014650 -0.009640 1.971280 
# 
# From -- ./inp_files/283436.got.cif
#   From: 2010.06.25/outbox.cif.g09.slc.cpg/sg2_142_cif.got.tgz:283436.got - 2010.06.27 13:26:56.
