data_PCOD8034667
_publ_section_title
;
Structure prediction by ZEFSAII (Michael W. Deem and Ramdas Pophale) SiO2 
 PCOD8034667
Probable space group: P -1
;
_chemical_formula_sum "Si O2"
_cell_formula_units_Z 16
_cell_length_a 15.363141
_cell_length_b 8.011520
_cell_length_c 9.681120
_cell_angle_alpha 65.437457
_cell_angle_beta 51.621862
_cell_angle_gamma 99.695409
_cell_volume 680.828800
_symmetry_space_group_name_H-M "P -1"
_symmetry_group_IT_number 2
_symmetry_cell_setting 'triclinic'
loop_
_space_group_symop_operation_xyz
x,y,z
-x,-y,-z
loop_
_atom_site_type_symbol
_atom_site_label
_atom_site_fract_x
_atom_site_fract_y
_atom_site_fract_z
Si Si1 0.799295 0.709277 0.676994
Si Si2 0.794519 0.103764 0.162589
Si Si3 0.107819 0.819299 0.655450
Si Si4 0.413201 0.654675 0.186805
Si Si5 0.705305 0.075062 0.779940
Si Si6 0.058810 0.748439 0.309124
Si Si7 0.212883 0.497318 0.953232
Si Si8 0.643354 0.592384 0.393287
O O1 0.664151 0.562530 0.763706
O O2 0.759389 0.575724 0.905607
O O3 0.940413 0.778232 0.444095
O O4 0.839791 0.960477 0.569908
O O5 0.862123 0.120792 0.235791
O O6 0.694268 0.839309 0.312943
O O7 0.915593 0.230212 0.886687
O O8 0.718028 0.229235 0.206105
O O9 0.203681 0.766363 0.498796
O O10 0.948492 0.616289 0.865727
O O11 0.362266 0.805319 0.137596
O O12 0.373166 0.567914 0.412465
O O13 0.580543 0.810729 0.953198
O O14 0.797285 0.073856 0.812133
O O15 0.000000 0.500000 0.500000
O O16 0.259169 0.410009 0.814566
O O17 0.500000 0.500000 0.500000
#
# Coordination Sequence:
#
# PCOD8034667 Si02
#       8
#     2   2   2   2   2   2   2   2
#     4  12  25  44  72 108 144 190 243 304 362 440
#     4  12  26  46  74 109 146 195 239 310 369 433
#     4  12  26  44  73 110 144 185 246 311 367 429
#     4  11  25  46  70 106 144 199 242 300 365 446
#     4  11  24  45  74 103 148 192 247 298 369 438
#     4  12  22  43  74 104 145 190 243 297 368 436
#     4  12  27  47  75 109 146 190 250 303 371 440
#     4  12  29  49  73 106 152 196 246 304 372 439
#
# _framework density 23.500768000000001
#
# number of rings (size 3 to 8) (size 9 to 14) (size 15 to 20)
#    0.000    0.250    5.000    3.000    5.250    4.000 
#    0.000    0.000    0.000    0.000    0.000    0.000 
#    0.000    0.000    0.000    0.000    0.000    0.000 
#
# Total GULP energy -198357.214432 kJ/mol
# GULP energy per Si atom -12397.325902 kJ/mol
# Density = 2.344728 g / cm^3
# Si number density = 23.500768 Si / 1000 Ang^3
#
#
#
# Elastic Constant Matrix: (Units=GPa)
#
#
# Indices 1 2 3 4 5 6 
#
# 1 99.4158 27.7996 43.1878 2.7210 1.1609 20.0150
# 2 27.7996 88.1844 23.1212 -0.0738 -1.3660 8.5906
# 3 43.1878 23.1212 112.7510 15.6736 3.2429 12.7393
# 4 2.7210 -0.0738 15.6736 41.1352 7.2921 11.4132
# 5 1.1609 -1.3660 3.2429 7.2921 49.3622 -3.2889
# 6 20.0150 8.5906 12.7393 11.4132 -3.2889 33.7967
#
#
#
# Elastic Compliance Matrix: (Units=1/GPa)
#
#
# Indices 1 2 3 4 5 6 
#
# 1 0.014066 -0.002597 -0.004429 0.002895 -0.001011 -0.007077
# 2 -0.002597 0.012731 -0.001621 0.001173 0.000249 -0.001459
# 3 -0.004429 -0.001621 0.011459 -0.004085 -0.000084 0.000087
# 4 0.002895 0.001173 -0.004085 0.029573 -0.004864 -0.010933
# 5 -0.001011 0.000249 -0.000084 -0.004864 0.021299 0.004282
# 6 -0.007077 -0.001459 0.000087 -0.010933 0.004282 0.038226
#
#
# Mechanical properties :
#
#
# Convention : Reuss Voigt Hill
#
# Bulk Modulus (GPa) = 47.70830 54.28539 50.99685
# Shear Modulus (GPa) = 32.97389 38.60830 35.79109
#
# Velocity S-wave (km/s) = 3.74986 4.05761 3.90677
# Velocity P-wave (km/s) = 6.25247 6.71579 6.48827
#
# Compressibility (1/GPa) = 0.02096071
#
# Stress axis : x y z
#
# Youngs Moduli (GPa) = 71.09159 78.55112 87.27092
#
# Poissons Ratio (x) = 0.20399 0.38654
# Poissons Ratio (y) = 0.18462 0.14149
# Poissons Ratio (z) = 0.31488 0.12735
#
# Static dielectric constant tensor:
#      x y z
#    x 4.287260 0.173660 0.148030 
#    y 0.173660 2.601840 -0.278370 
#    z 0.148030 -0.278370 4.300200 
# 
# 
# High freq. dielectric constant tensor:
#      x y z
#    x 1.931370 0.003110 0.005570 
#    y 0.003110 1.949200 0.002220 
#    z 0.005570 0.002220 1.936190 
# 
# From -- ./inp_files/256786.got.cif
#   From: 2010.06.25/outbox.cif.g09.slc.cpg/sg2_129_cif.got.tgz:256786.got - 2010.06.27 13:26:56.
