data_PCOD8034873
_publ_section_title
;
Structure prediction by ZEFSAII (Michael W. Deem and Ramdas Pophale) SiO2 
 PCOD8034873
Probable space group: P -1
;
_chemical_formula_sum "Si O2"
_cell_formula_units_Z 16
_cell_length_a 11.812796
_cell_length_b 9.061517
_cell_length_c 14.206716
_cell_angle_alpha 73.027101
_cell_angle_beta 70.264353
_cell_angle_gamma 132.713025
_cell_volume 691.706596
_symmetry_space_group_name_H-M "P -1"
_symmetry_group_IT_number 2
_symmetry_cell_setting 'triclinic'
loop_
_space_group_symop_operation_xyz
x,y,z
-x,-y,-z
loop_
_atom_site_type_symbol
_atom_site_label
_atom_site_fract_x
_atom_site_fract_y
_atom_site_fract_z
Si Si1 0.847044 0.453178 0.745031
Si Si2 0.698289 0.129762 0.365600
Si Si3 0.496791 0.680614 0.828178
Si Si4 0.982819 0.823398 0.480248
Si Si5 0.541520 0.829588 0.981220
Si Si6 0.446534 0.581942 0.430354
Si Si7 0.689784 0.813459 0.124180
Si Si8 0.884424 0.517716 0.081180
O O1 0.716368 0.381791 0.886157
O O2 0.128021 0.762145 0.630464
O O3 0.830334 0.531981 0.638810
O O4 0.729493 0.155501 0.819886
O O5 0.850665 0.427656 0.214233
O O6 0.500000 0.000000 0.500000
O O7 0.587935 0.887062 0.368718
O O8 0.317311 0.361393 0.889397
O O9 0.373150 0.713004 0.844218
O O10 0.758097 0.957352 0.657947
O O11 0.510817 0.665161 0.939961
O O12 0.836268 0.692474 0.448183
O O13 0.000000 0.000000 0.500000
O O14 0.622570 0.861730 0.054117
O O15 0.500000 0.500000 0.500000
O O16 0.512738 0.613255 0.299132
O O17 0.946304 0.144883 0.030684
O O18 0.000000 0.500000 0.000000
#
# Coordination Sequence:
#
# PCOD8034873 Si02
#       8
#     2   2   2   2   2   2   2   2
#     4  11  24  46  73 105 150 200 247 310 375 450
#     4  12  27  45  72 109 148 190 254 306 369 442
#     4  12  28  46  77 112 151 198 256 310 376 448
#     4  12  25  49  75 108 157 198 249 310 378 451
#     4  11  25  45  76 108 147 195 254 308 376 440
#     4  12  28  48  78 106 152 203 244 305 388 449
#     4  12  25  52  73 111 150 197 253 311 378 459
#     4  12  26  49  76 109 153 201 247 314 375 447
#
# _framework density 23.131197
#
# number of rings (size 3 to 8) (size 9 to 14) (size 15 to 20)
#    0.000    0.250    5.000    3.000    7.000    0.500 
#    2.250    0.000    0.000    0.000    0.000    0.000 
#    0.000    0.000    0.000    0.000    0.000    0.000 
#
# Total GULP energy -198360.305631 kJ/mol
# GULP energy per Si atom -12397.519102 kJ/mol
# Density = 2.307855 g / cm^3
# Si number density = 23.131197 Si / 1000 Ang^3
#
#
#
# Elastic Constant Matrix: (Units=GPa)
#
#
# Indices 1 2 3 4 5 6 
#
# 1 149.1211 47.1849 66.0524 -1.4183 -9.9545 12.3257
# 2 47.1849 123.9111 48.4716 6.2827 -10.1835 1.9345
# 3 66.0524 48.4716 117.7279 7.5341 -4.1705 -3.6213
# 4 -1.4183 6.2827 7.5341 40.0042 2.3836 -4.0032
# 5 -9.9545 -10.1835 -4.1705 2.3836 51.5144 0.3282
# 6 12.3257 1.9345 -3.6213 -4.0032 0.3282 36.8812
#
#
#
# Elastic Compliance Matrix: (Units=1/GPa)
#
#
# Indices 1 2 3 4 5 6 
#
# 1 0.009819 -0.001713 -0.004946 0.001125 0.001129 -0.003565
# 2 -0.001713 0.010119 -0.003089 -0.001197 0.001477 -0.000405
# 3 -0.004946 -0.003089 0.012726 -0.001771 -0.000472 0.002876
# 4 0.001125 -0.001197 -0.001771 0.025874 -0.001375 0.002334
# 5 0.001129 0.001477 -0.000472 -0.001375 0.019953 -0.000828
# 6 -0.003565 -0.000405 0.002876 0.002334 -0.000828 0.028870
#
#
# Mechanical properties :
#
#
# Convention : Reuss Voigt Hill
#
# Bulk Modulus (GPa) = 75.93273 79.35309 77.64291
# Shear Modulus (GPa) = 38.09633 40.95004 39.52319
#
# Velocity S-wave (km/s) = 4.06269 4.21210 4.13807
# Velocity P-wave (km/s) = 7.40982 7.61813 7.51470
#
# Compressibility (1/GPa) = 0.01316955
#
# Stress axis : x y z
#
# Youngs Moduli (GPa) = 101.83911 98.82088 78.58112
#
# Poissons Ratio (x) = 0.16929 0.38863
# Poissons Ratio (y) = 0.17446 0.24272
# Poissons Ratio (z) = 0.50365 0.30523
#
# Static dielectric constant tensor:
#      x y z
#    x 4.219390 -0.216770 -0.130520 
#    y -0.216770 2.737650 -0.189010 
#    z -0.130520 -0.189010 4.015060 
# 
# 
# High freq. dielectric constant tensor:
#      x y z
#    x 1.923130 0.006230 -0.005220 
#    y 0.006230 1.917770 -0.001870 
#    z -0.005220 -0.001870 1.918360 
# 
# From -- ./inp_files/515367.got.cif
#   From: 2010.06.25/outbox.cif.g09.slc.cpg/sg2_258_cif.got.tgz:515367.got - 2010.06.27 13:26:56.
