data_PCOD8034204
_publ_section_title
;
Structure prediction by ZEFSAII (Michael W. Deem and Ramdas Pophale) SiO2 
 PCOD8034204
Probable space group: P -1
;
_chemical_formula_sum "Si O2"
_cell_formula_units_Z 16
_cell_length_a 6.372850
_cell_length_b 14.461049
_cell_length_c 11.499253
_cell_angle_alpha 124.220910
_cell_angle_beta 58.628596
_cell_angle_gamma 123.090633
_cell_volume 698.406579
_symmetry_space_group_name_H-M "P -1"
_symmetry_group_IT_number 2
_symmetry_cell_setting 'triclinic'
loop_
_space_group_symop_operation_xyz
x,y,z
-x,-y,-z
loop_
_atom_site_type_symbol
_atom_site_label
_atom_site_fract_x
_atom_site_fract_y
_atom_site_fract_z
Si Si1 0.453718 0.037777 0.168624
Si Si2 0.052238 0.733772 0.826448
Si Si3 0.629698 0.691936 0.085022
Si Si4 0.429274 0.895998 0.292760
Si Si5 0.925783 0.090390 0.402410
Si Si6 0.265643 0.475323 0.891271
Si Si7 0.266742 0.545793 0.688601
Si Si8 0.143708 0.344371 0.419931
O O1 0.703757 0.154485 0.211803
O O2 0.194391 0.068122 0.287778
O O3 0.429238 0.924903 0.176932
O O4 0.500000 0.000000 0.000000
O O5 0.127294 0.640927 0.821770
O O6 0.896108 0.657359 0.707869
O O7 0.870926 0.778535 0.996827
O O8 0.433699 0.762796 0.217716
O O9 0.734809 0.651224 0.145384
O O10 0.496120 0.578074 0.962064
O O11 0.167038 0.907115 0.434840
O O12 0.694594 0.987980 0.333797
O O13 0.953845 0.218119 0.433340
O O14 0.310972 0.476154 0.740413
O O15 0.000000 0.500000 0.000000
O O16 0.084978 0.451744 0.579102
O O17 0.551526 0.627446 0.613852
#
# Coordination Sequence:
#
# PCOD8034204 Si02
#       8
#     2   2   2   2   2   2   2   2
#     4  12  27  44  76 105 137 185 237 289 353 420
#     4  12  23  44  71 103 142 177 237 294 349 414
#     4  11  26  43  71 104 138 188 229 289 355 417
#     4  11  27  48  71  99 146 185 233 292 350 420
#     4  11  25  50  69 102 139 189 236 288 351 419
#     4  11  24  44  68 101 142 179 235 286 346 422
#     4  11  24  44  70 101 138 186 229 294 350 413
#     4  11  24  44  69 101 139 183 236 289 350 417
#
# _framework density 22.909292000000001
#
# number of rings (size 3 to 8) (size 9 to 14) (size 15 to 20)
#    0.000    0.750    5.000    1.500    5.250    2.000 
#    9.000    0.000    0.000    0.000    0.000    0.000 
#    0.000    0.000    0.000    0.000    0.000    0.000 
#
# Total GULP energy -198337.065461 kJ/mol
# GULP energy per Si atom -12396.066591 kJ/mol
# Density = 2.285715 g / cm^3
# Si number density = 22.909292 Si / 1000 Ang^3
#
#
#
# Elastic Constant Matrix: (Units=GPa)
#
#
# Indices 1 2 3 4 5 6 
#
# 1 70.8517 28.7288 40.7882 -7.4799 -1.5620 -13.1314
# 2 28.7288 87.9413 40.9377 -6.4250 2.8806 -16.0654
# 3 40.7882 40.9377 135.9632 -11.0612 -1.3249 -10.0599
# 4 -7.4799 -6.4250 -11.0612 38.0998 -1.2988 2.1541
# 5 -1.5620 2.8806 -1.3249 -1.2988 46.9323 -4.9046
# 6 -13.1314 -16.0654 -10.0599 2.1541 -4.9046 40.6996
#
#
#
# Elastic Compliance Matrix: (Units=1/GPa)
#
#
# Indices 1 2 3 4 5 6 
#
# 1 0.018812 -0.003428 -0.004183 0.001729 0.001156 0.003730
# 2 -0.003428 0.014686 -0.003063 0.000675 -0.000685 0.003816
# 3 -0.004183 -0.003063 0.009640 0.001485 0.000340 -0.000213
# 4 0.001729 0.000675 0.001485 0.027167 0.000794 -0.000151
# 5 0.001156 -0.000685 0.000340 0.000794 0.021708 0.002761
# 6 0.003730 0.003816 -0.000213 -0.000151 0.002761 0.027568
#
#
# Mechanical properties :
#
#
# Convention : Reuss Voigt Hill
#
# Bulk Modulus (GPa) = 45.89413 57.29616 51.59514
# Shear Modulus (GPa) = 33.74011 37.43309 35.58660
#
# Velocity S-wave (km/s) = 3.84183 4.04662 3.94556
# Velocity P-wave (km/s) = 6.30524 6.84820 6.58232
#
# Compressibility (1/GPa) = 0.02178928
#
# Stress axis : x y z
#
# Youngs Moduli (GPa) = 53.15865 68.09348 103.73052
#
# Poissons Ratio (x) = 0.23344 0.43393
# Poissons Ratio (y) = 0.18224 0.31770
# Poissons Ratio (z) = 0.22238 0.20855
#
# Static dielectric constant tensor:
#      x y z
#    x 4.158000 -0.003250 -0.000310 
#    y -0.003250 4.296110 -0.155260 
#    z -0.000310 -0.155260 4.183810 
# 
# 
# High freq. dielectric constant tensor:
#      x y z
#    x 1.900950 0.004970 -0.001340 
#    y 0.004970 1.911740 -0.010520 
#    z -0.001340 -0.010520 1.908040 
# 
# From -- ./inp_files/367915.got.cif
#   From: 2010.06.25/outbox.cif.g09.slc.cpg/sg2_184_cif.got.tgz:367915.got - 2010.06.27 13:26:56.
