data_PCOD8034540
_publ_section_title
;
Structure prediction by ZEFSAII (Michael W. Deem and Ramdas Pophale) SiO2 
 PCOD8034540
Probable space group: P -1
;
_chemical_formula_sum "Si O2"
_cell_formula_units_Z 10
_cell_length_a 12.107513
_cell_length_b 23.882211
_cell_length_c 9.204612
_cell_angle_alpha 27.375903
_cell_angle_beta 34.619362
_cell_angle_gamma 19.057481
_cell_volume 397.218555
_symmetry_space_group_name_H-M "P -1"
_symmetry_group_IT_number 2
_symmetry_cell_setting 'triclinic'
loop_
_space_group_symop_operation_xyz
x,y,z
-x,-y,-z
loop_
_atom_site_type_symbol
_atom_site_label
_atom_site_fract_x
_atom_site_fract_y
_atom_site_fract_z
Si Si1 0.802660 0.149502 0.233422
Si Si2 0.862894 0.704855 0.707386
Si Si3 0.243226 0.628915 0.724216
Si Si4 0.436621 0.981794 0.272675
Si Si5 0.724027 0.116655 0.911205
O O1 0.586736 0.151975 0.392045
O O2 0.545565 0.387722 0.007779
O O3 0.000000 0.000000 0.500000
O O4 0.102170 0.036929 0.060709
O O5 0.752076 0.835967 0.379608
O O6 0.136168 0.648086 0.629696
O O7 0.540110 0.849021 0.829978
O O8 0.000000 0.500000 0.000000
O O9 0.415733 0.674333 0.447946
O O10 0.917149 0.779587 0.835277
O O11 0.500000 0.000000 0.000000
O O12 0.000000 0.000000 0.000000
#
# Coordination Sequence:
#
# PCOD8034540 Si02
#       5
#     2   2   2   2   2
#     4  11  26  46  68 105 144 187 235 290 360 415
#     4  12  24  47  75 107 138 186 241 286 350 426
#     4  11  25  48  74 101 143 190 231 298 350 408
#     4  11  26  45  69 109 141 181 239 286 355 422
#     4  11  24  45  70 107 139 180 244 284 346 432
#
# _framework density 25.175056000000001
#
# number of rings (size 3 to 8) (size 9 to 14) (size 15 to 20)
#    0.000    0.800    6.000    0.600    2.800   10.400 
#    0.000    0.000    0.000    0.000    0.000    0.000 
#    0.000    0.000    0.000    0.000    0.000    0.000 
#
# Total GULP energy -123953.277616 kJ/mol
# GULP energy per Si atom -12395.327762 kJ/mol
# Density = 2.511776 g / cm^3
# Si number density = 25.175056 Si / 1000 Ang^3
#
#
#
# Elastic Constant Matrix: (Units=GPa)
#
#
# Indices 1 2 3 4 5 6 
#
# 1 82.8568 38.0121 51.3925 -1.3888 8.6188 10.3757
# 2 38.0121 92.8214 74.6969 -15.9314 11.0336 18.3559
# 3 51.3925 74.6969 154.1776 -22.8941 18.6183 14.9964
# 4 -1.3888 -15.9314 -22.8941 54.4485 2.9870 -4.3950
# 5 8.6188 11.0336 18.6183 2.9870 61.2464 3.0816
# 6 10.3757 18.3559 14.9964 -4.3950 3.0816 42.6467
#
#
#
# Elastic Compliance Matrix: (Units=1/GPa)
#
#
# Indices 1 2 3 4 5 6 
#
# 1 0.016294 -0.003722 -0.003825 -0.002366 -0.000282 -0.001241
# 2 -0.003722 0.019644 -0.007421 0.002190 -0.000631 -0.004669
# 3 -0.003825 -0.007421 0.011986 0.002905 -0.001928 0.000348
# 4 -0.002366 0.002190 0.002905 0.020345 -0.001980 0.000851
# 5 -0.000282 -0.000631 -0.001928 -0.001980 0.017185 -0.000428
# 6 -0.001241 -0.004669 0.000348 0.000851 -0.000428 0.025756
#
#
# Mechanical properties :
#
#
# Convention : Reuss Voigt Hill
#
# Bulk Modulus (GPa) = 55.58983 73.11763 64.35373
# Shear Modulus (GPa) = 33.98086 42.71860 38.34973
#
# Velocity S-wave (km/s) = 3.67792 4.12377 3.90721
# Velocity P-wave (km/s) = 6.33762 7.19588 6.78034
#
# Compressibility (1/GPa) = 0.01798890
#
# Stress axis : x y z
#
# Youngs Moduli (GPa) = 61.37266 50.90705 83.42720
#
# Poissons Ratio (x) = 0.18948 0.31908
# Poissons Ratio (y) = 0.22844 0.61910
# Poissons Ratio (z) = 0.23473 0.37777
#
# Static dielectric constant tensor:
#      x y z
#    x 7.345750 -0.304260 -2.106500 
#    y -0.304260 4.322170 -0.128070 
#    z -2.106500 -0.128070 5.507750 
# 
# 
# High freq. dielectric constant tensor:
#      x y z
#    x 2.017140 0.007820 -0.017910 
#    y 0.007820 2.001700 -0.004150 
#    z -0.017910 -0.004150 2.016070 
# 
# From -- ./inp_files/144094.got.cif
#   From: 2010.06.25/outbox.cif.g09.slc.cpg/sg2_73_cif.got.tgz:144094.got - 2010.06.27 13:26:56.
