data_PCOD8034236
_publ_section_title
;
Structure prediction by ZEFSAII (Michael W. Deem and Ramdas Pophale) SiO2 
 PCOD8034236
Probable space group: P -1
;
_chemical_formula_sum "Si O2"
_cell_formula_units_Z 16
_cell_length_a 14.607508
_cell_length_b 24.273482
_cell_length_c 5.131260
_cell_angle_alpha 104.785339
_cell_angle_beta 61.801029
_cell_angle_gamma 154.946093
_cell_volume 601.783261
_symmetry_space_group_name_H-M "P -1"
_symmetry_group_IT_number 2
_symmetry_cell_setting 'triclinic'
loop_
_space_group_symop_operation_xyz
x,y,z
-x,-y,-z
loop_
_atom_site_type_symbol
_atom_site_label
_atom_site_fract_x
_atom_site_fract_y
_atom_site_fract_z
Si Si1 0.062941 0.979625 0.209661
Si Si2 0.456326 0.649225 0.578574
Si Si3 0.035968 0.218928 0.386385
Si Si4 0.423799 0.740938 0.447423
Si Si5 0.587520 0.919704 0.807697
Si Si6 0.050590 0.426948 0.253855
Si Si7 0.644111 0.629152 0.379355
Si Si8 0.952182 0.306744 0.723228
O O1 0.774896 0.812522 0.302206
O O2 0.208402 0.997698 0.147587
O O3 0.000000 0.000000 0.500000
O O4 0.267415 0.107240 0.875364
O O5 0.325974 0.627176 0.519170
O O6 0.415504 0.559068 0.501783
O O7 0.319833 0.595369 0.979902
O O8 0.214644 0.275794 0.431855
O O9 0.016158 0.272649 0.591215
O O10 0.153984 0.281830 0.016981
O O11 0.756427 0.043473 0.524238
O O12 0.446714 0.791799 0.732151
O O13 0.195756 0.652812 0.462104
O O14 0.355228 0.842072 0.144459
O O15 0.121914 0.431098 0.434155
O O16 0.963646 0.337864 0.038406
O O17 0.500000 0.500000 0.500000
#
# Coordination Sequence:
#
# PCOD8034236 Si02
#       8
#     2   2   2   2   2   2   2   2
#     4  12  24  43  71 102 144 181 233 290 356 414
#     4  12  25  44  72 104 140 187 234 288 355 422
#     4  12  25  44  71 102 138 185 241 289 348 412
#     4  11  25  47  68 102 144 184 235 290 351 420
#     4  11  24  44  69 104 138 186 233 294 346 420
#     4  11  26  48  72 105 140 188 234 291 347 422
#     4  12  27  45  68 102 145 184 232 290 352 419
#     4  11  24  48  73 100 145 185 236 290 350 412
#
# _framework density 26.587641999999999
#
# number of rings (size 3 to 8) (size 9 to 14) (size 15 to 20)
#    0.000    0.500    3.750    4.500    1.750    2.000 
#    0.000    5.625    0.000    0.000    0.000    0.000 
#    0.000    0.000    0.000    0.000    0.000    0.000 
#
# Total GULP energy -198249.864605 kJ/mol
# GULP energy per Si atom -12390.616538 kJ/mol
# Density = 2.652713 g / cm^3
# Si number density = 26.587642 Si / 1000 Ang^3
#
#
#
# Elastic Constant Matrix: (Units=GPa)
#
#
# Indices 1 2 3 4 5 6 
#
# 1 157.7651 30.0764 28.7314 -6.5291 1.1816 -14.1102
# 2 30.0764 58.9781 -2.5714 -15.0954 3.0311 -24.1813
# 3 28.7314 -2.5714 122.5353 -20.2079 4.9428 -7.2534
# 4 -6.5291 -15.0954 -20.2079 41.8061 1.2638 0.3514
# 5 1.1816 3.0311 4.9428 1.2638 51.0644 -7.7124
# 6 -14.1102 -24.1813 -7.2534 0.3514 -7.7124 47.3216
#
#
#
# Elastic Compliance Matrix: (Units=1/GPa)
#
#
# Indices 1 2 3 4 5 6 
#
# 1 0.007476 -0.004411 -0.002114 -0.001453 0.000285 -0.000291
# 2 -0.004411 0.027807 0.004288 0.011318 -0.000215 0.013432
# 3 -0.002114 0.004288 0.009948 0.006029 -0.000880 0.002897
# 4 -0.001453 0.011318 0.006029 0.030678 -0.001095 0.005868
# 5 0.000285 -0.000215 -0.000880 -0.001095 0.020175 0.003137
# 6 -0.000291 0.013432 0.002897 0.005868 0.003137 0.028821
#
#
# Mechanical properties :
#
#
# Convention : Reuss Voigt Hill
#
# Bulk Modulus (GPa) = 24.53524 50.19457 37.36490
# Shear Modulus (GPa) = 34.97396 46.90790 40.94093
#
# Velocity S-wave (km/s) = 3.63081 4.20488 3.92835
# Velocity P-wave (km/s) = 5.17930 6.51879 5.88726
#
# Compressibility (1/GPa) = 0.04075771
#
# Stress axis : x y z
#
# Youngs Moduli (GPa) = 133.76099 35.96231 100.52452
#
# Poissons Ratio (x) = 0.15862 0.21250
# Poissons Ratio (y) = 0.58997 -0.43105
# Poissons Ratio (z) = 0.28275 -0.15421
#
# Static dielectric constant tensor:
#      x y z
#    x 5.910510 -0.218850 -0.442270 
#    y -0.218850 5.052210 -0.142230 
#    z -0.442270 -0.142230 4.655880 
# 
# 
# High freq. dielectric constant tensor:
#      x y z
#    x 2.090000 -0.003600 -0.008870 
#    y -0.003600 2.068950 -0.025480 
#    z -0.008870 -0.025480 2.075380 
# 
# From -- ./inp_files/77095.got.cif
#   From: 2010.06.25/outbox.cif.g09.slc.cpg/sg2_39_cif.got.tgz:77095.got - 2010.06.27 13:26:56.
