data_PCOD8034288
_publ_section_title
;
Structure prediction by ZEFSAII (Michael W. Deem and Ramdas Pophale) SiO2 
 PCOD8034288
Probable space group: P -1
;
_chemical_formula_sum "Si O2"
_cell_formula_units_Z 16
_cell_length_a 14.614858
_cell_length_b 14.185265
_cell_length_c 6.666357
_cell_angle_alpha 68.042245
_cell_angle_beta 55.927791
_cell_angle_gamma 40.130248
_cell_volume 734.003544
_symmetry_space_group_name_H-M "P -1"
_symmetry_group_IT_number 2
_symmetry_cell_setting 'triclinic'
loop_
_space_group_symop_operation_xyz
x,y,z
-x,-y,-z
loop_
_atom_site_type_symbol
_atom_site_label
_atom_site_fract_x
_atom_site_fract_y
_atom_site_fract_z
Si Si1 0.134178 0.186840 0.708135
Si Si2 0.405362 0.332631 0.408855
Si Si3 0.201238 0.639546 0.213239
Si Si4 0.162112 0.339263 0.868994
Si Si5 0.832852 0.166050 0.593452
Si Si6 0.315934 0.921114 0.975856
Si Si7 0.677807 0.920623 0.834715
Si Si8 0.381236 0.647019 0.655891
O O1 0.140441 0.290249 0.730837
O O2 0.267198 0.100630 0.441934
O O3 0.956887 0.287910 0.766060
O O4 0.179015 0.063473 0.895143
O O5 0.293728 0.477467 0.294647
O O6 0.298046 0.333588 0.681183
O O7 0.510187 0.188873 0.253013
O O8 0.524493 0.316784 0.415675
O O9 0.151764 0.734953 0.397239
O O10 0.317157 0.627219 0.939492
O O11 0.205358 0.236902 0.079098
O O12 0.000000 0.500000 0.000000
O O13 0.765261 0.222454 0.407909
O O14 0.721052 0.172595 0.868707
O O15 0.000000 0.000000 0.500000
O O16 0.317267 0.974242 0.146443
O O17 0.500000 0.000000 0.000000
O O18 0.500000 0.500000 0.500000
#
# Coordination Sequence:
#
# PCOD8034288 Si02
#       8
#     2   2   2   2   2   2   2   2
#     4  11  26  47  69 101 139 178 225 285 337 400
#     4  12  25  46  71  99 139 178 229 282 338 406
#     4  12  26  46  68 101 141 177 227 282 335 407
#     4  11  27  46  68 103 136 178 232 278 337 404
#     4  12  26  43  68 104 137 180 229 271 340 410
#     4  11  25  43  68 101 135 174 228 278 336 404
#     4  11  24  44  70  98 135 178 226 280 339 397
#     4  12  26  45  70 100 139 181 223 283 342 396
#
# _framework density 21.798261
#
# number of rings (size 3 to 8) (size 9 to 14) (size 15 to 20)
#    0.000    0.500    2.500    4.875    7.000    8.000 
#    0.000    0.000    0.000    0.000    0.000    0.000 
#    0.000    0.000    0.000    0.000    0.000    0.000 
#
# Total GULP energy -198526.625185 kJ/mol
# GULP energy per Si atom -12407.914074 kJ/mol
# Density = 2.174865 g / cm^3
# Si number density = 21.798261 Si / 1000 Ang^3
#
#
#
# Elastic Constant Matrix: (Units=GPa)
#
#
# Indices 1 2 3 4 5 6 
#
# 1 102.6370 20.9304 14.2948 -1.3138 10.4518 1.8661
# 2 20.9304 115.6922 0.9604 10.7747 17.8643 0.7357
# 3 14.2948 0.9604 70.7600 12.6056 8.0126 14.5833
# 4 -1.3138 10.7747 12.6056 42.6851 -0.5022 -0.3711
# 5 10.4518 17.8643 8.0126 -0.5022 40.2870 -0.3407
# 6 1.8661 0.7357 14.5833 -0.3711 -0.3407 35.5868
#
#
#
# Elastic Compliance Matrix: (Units=1/GPa)
#
#
# Indices 1 2 3 4 5 6 
#
# 1 0.010592 -0.001808 -0.002294 0.001446 -0.001468 0.000423
# 2 -0.001808 0.009901 0.001407 -0.003027 -0.004246 -0.000759
# 3 -0.002294 0.001407 0.017479 -0.005693 -0.003637 -0.007166
# 4 0.001446 -0.003027 -0.005693 0.025969 0.002445 0.002614
# 5 -0.001468 -0.004246 -0.003637 0.002445 0.027856 0.001947
# 6 0.000423 -0.000759 -0.007166 0.002614 0.001947 0.031076
#
#
# Mechanical properties :
#
#
# Convention : Reuss Voigt Hill
#
# Bulk Modulus (GPa) = 30.69002 40.16226 35.42614
# Shear Modulus (GPa) = 35.93950 40.57201 38.25575
#
# Velocity S-wave (km/s) = 4.06486 4.31890 4.19381
# Velocity P-wave (km/s) = 6.01170 6.58294 6.30379
#
# Compressibility (1/GPa) = 0.03258388
#
# Stress axis : x y z
#
# Youngs Moduli (GPa) = 94.41512 100.99684 57.21008
#
# Poissons Ratio (x) = 0.18258 0.13122
# Poissons Ratio (y) = 0.17068 -0.08051
# Poissons Ratio (z) = 0.21656 -0.14212
#
# Static dielectric constant tensor:
#      x y z
#    x 4.105400 -0.005030 0.179960 
#    y -0.005030 4.071640 -0.051420 
#    z 0.179960 -0.051420 4.270910 
# 
# 
# High freq. dielectric constant tensor:
#      x y z
#    x 1.866470 -0.001410 0.001360 
#    y -0.001410 1.876040 0.002950 
#    z 0.001360 0.002950 1.867820 
# 
# From -- ./inp_files/97657.got.cif
#   From: 2010.06.25/outbox.cif.g09.slc.cpg/sg2_49_cif.got.tgz:97657.got - 2010.06.27 13:26:56.
