data_PCOD8034054
_publ_section_title
;
Structure prediction by ZEFSAII (Michael W. Deem and Ramdas Pophale) SiO2 
 PCOD8034054
Probable space group: P -1
;
_chemical_formula_sum "Si O2"
_cell_formula_units_Z 14
_cell_length_a 12.356970
_cell_length_b 12.306508
_cell_length_c 6.620177
_cell_angle_alpha 124.690603
_cell_angle_beta 108.374859
_cell_angle_gamma 48.225378
_cell_volume 613.968172
_symmetry_space_group_name_H-M "P -1"
_symmetry_group_IT_number 2
_symmetry_cell_setting 'triclinic'
loop_
_space_group_symop_operation_xyz
x,y,z
-x,-y,-z
loop_
_atom_site_type_symbol
_atom_site_label
_atom_site_fract_x
_atom_site_fract_y
_atom_site_fract_z
Si Si1 0.519333 0.633172 0.730826
Si Si2 0.495536 0.897745 0.707892
Si Si3 0.025421 0.929102 0.654355
Si Si4 0.231639 0.915649 0.045145
Si Si5 0.149970 0.571536 0.206596
Si Si6 0.715594 0.858889 0.497300
Si Si7 0.019909 0.502093 0.748712
O O1 0.500000 0.500000 0.500000
O O2 0.499046 0.749786 0.654414
O O3 0.676735 0.534231 0.825099
O O4 0.399492 0.743897 0.954716
O O5 0.622613 0.822344 0.536213
O O6 0.354162 0.020931 0.613597
O O7 0.500000 0.000000 0.000000
O O8 0.076477 0.739966 0.475701
O O9 0.156348 0.925849 0.805695
O O10 0.000000 0.000000 0.500000
O O11 0.871931 0.067591 0.822676
O O12 0.234192 0.070859 0.232295
O O13 0.125857 0.449756 0.181525
O O14 0.069125 0.611753 0.980504
O O15 0.850955 0.686442 0.300346
O O16 0.000000 0.500000 0.500000
#
# Coordination Sequence:
#
# PCOD8034054 Si02
#       7
#     2   2   2   2   2   2   2
#     4  12  25  48  73 109 150 192 240 307 372 431
#     4  11  24  43  71 102 147 186 237 305 353 435
#     4  11  26  47  71 100 142 192 239 291 361 442
#     4  11  25  45  73  99 144 187 242 297 356 448
#     4  11  25  46  68 104 143 180 242 293 360 431
#     4  11  24  43  71 107 135 190 254 281 365 438
#     4  11  25  44  71 100 143 186 234 304 361 422
#
# _framework density 22.802482999999999
#
# number of rings (size 3 to 8) (size 9 to 14) (size 15 to 20)
#    0.000    0.857    4.286    1.714    6.000    1.143 
#    2.571    1.429    0.000    0.000    0.000    0.000 
#    0.000    0.000    0.000    0.000    0.000    0.000 
#
# Total GULP energy -173452.037361 kJ/mol
# GULP energy per Si atom -12389.431240 kJ/mol
# Density = 2.275058 g / cm^3
# Si number density = 22.802483 Si / 1000 Ang^3
#
#
#
# Elastic Constant Matrix: (Units=GPa)
#
#
# Indices 1 2 3 4 5 6 
#
# 1 130.2636 40.4337 47.1828 -3.0821 12.6697 -18.1900
# 2 40.4337 76.5786 39.3763 -8.7343 3.8600 8.0739
# 3 47.1828 39.3763 144.4633 -12.3412 20.5796 -6.3702
# 4 -3.0821 -8.7343 -12.3412 44.6855 -2.6115 -1.5482
# 5 12.6697 3.8600 20.5796 -2.6115 46.0573 6.8377
# 6 -18.1900 8.0739 -6.3702 -1.5482 6.8377 37.6254
#
#
#
# Elastic Compliance Matrix: (Units=1/GPa)
#
#
# Indices 1 2 3 4 5 6 
#
# 1 0.011272 -0.005903 -0.001386 -0.000695 -0.003067 0.007010
# 2 -0.005903 0.019121 -0.003896 0.002154 0.003085 -0.008088
# 3 -0.001386 -0.003896 0.009202 0.001554 -0.003681 0.002457
# 4 -0.000695 0.002154 0.001554 0.023226 0.000587 0.000314
# 5 -0.003067 0.003085 -0.003681 0.000587 0.025058 -0.007298
# 6 0.007010 -0.008088 0.002457 0.000314 -0.007298 0.033457
#
#
# Mechanical properties :
#
#
# Convention : Reuss Voigt Hill
#
# Bulk Modulus (GPa) = 58.05228 67.25457 62.65342
# Shear Modulus (GPa) = 33.45624 40.62782 37.04203
#
# Velocity S-wave (km/s) = 3.83459 4.22563 4.03485
# Velocity P-wave (km/s) = 6.71710 7.30523 7.01733
#
# Compressibility (1/GPa) = 0.01722585
#
# Stress axis : x y z
#
# Youngs Moduli (GPa) = 88.71843 52.29719 108.66888
#
# Poissons Ratio (x) = 0.30869 0.15061
# Poissons Ratio (y) = 0.52367 0.42340
# Poissons Ratio (z) = 0.12296 0.20376
#
# Static dielectric constant tensor:
#      x y z
#    x 4.480390 -0.285560 0.098220 
#    y -0.285560 4.002490 0.121460 
#    z 0.098220 0.121460 4.471780 
# 
# 
# High freq. dielectric constant tensor:
#      x y z
#    x 1.918340 -0.016350 0.005550 
#    y -0.016350 1.872890 0.006970 
#    z 0.005550 0.006970 1.923290 
# 
# From -- ./inp_files/72352.got.cif
#   From: 2010.06.25/outbox.cif.g09.slc.cpg/sg2_37_cif.got.tgz:72352.got - 2010.06.27 13:26:56.
