data_PCOD8034369
_publ_section_title
;
Structure prediction by ZEFSAII (Michael W. Deem and Ramdas Pophale) SiO2 
 PCOD8034369
Probable space group: P -1
;
_chemical_formula_sum "Si O2"
_cell_formula_units_Z 16
_cell_length_a 5.913676
_cell_length_b 16.362680
_cell_length_c 18.999671
_cell_angle_alpha 22.464027
_cell_angle_beta 79.504028
_cell_angle_gamma 78.239065
_cell_volume 687.645930
_symmetry_space_group_name_H-M "P -1"
_symmetry_group_IT_number 2
_symmetry_cell_setting 'triclinic'
loop_
_space_group_symop_operation_xyz
x,y,z
-x,-y,-z
loop_
_atom_site_type_symbol
_atom_site_label
_atom_site_fract_x
_atom_site_fract_y
_atom_site_fract_z
Si Si1 0.983262 0.455123 0.152586
Si Si2 0.209033 0.834979 0.394925
Si Si3 0.808590 0.850461 0.509372
Si Si4 0.604580 0.520906 0.681331
Si Si5 0.026431 0.505873 0.576206
Si Si6 0.716360 0.780843 0.004312
Si Si7 0.771491 0.904545 0.053898
Si Si8 0.709580 0.329693 0.141407
O O1 0.885619 0.577426 0.130608
O O2 0.783861 0.363331 0.190779
O O3 0.150623 0.250680 0.334117
O O4 0.098242 0.625876 0.962008
O O5 0.398914 0.643212 0.552630
O O6 0.061468 0.745417 0.410378
O O7 0.052644 0.892038 0.426711
O O8 0.322590 0.045821 0.194132
O O9 0.678656 0.683376 0.605983
O O10 0.655172 0.080728 0.337458
O O11 0.528449 0.306520 0.893602
O O12 0.798286 0.433676 0.684467
O O13 0.237169 0.332004 0.724051
O O14 0.000000 0.500000 0.500000
O O15 0.827969 0.884940 0.983081
O O16 0.500000 0.000000 0.000000
O O17 0.000000 0.000000 0.000000
O O18 0.500000 0.500000 0.000000
#
# Coordination Sequence:
#
# PCOD8034369 Si02
#       8
#     2   2   2   2   2   2   2   2
#     4  11  25  46  73 103 145 188 243 313 367 450
#     4  11  24  44  73 103 136 194 240 312 367 451
#     4  11  24  46  73 103 143 185 249 301 376 449
#     4  11  25  44  74 107 140 193 252 307 377 455
#     4  11  25  48  69 106 152 191 251 311 380 455
#     4  12  24  48  76 105 149 191 254 308 383 445
#     4  12  27  48  75 115 154 203 256 318 387 461
#     4  11  27  46  69 108 144 192 245 302 379 457
#
# _framework density 23.267789
#
# number of rings (size 3 to 8) (size 9 to 14) (size 15 to 20)
#    0.000    0.750    3.750    2.625    5.250    1.000 
#    4.500    0.000    0.000    0.000    0.000    0.000 
#    0.000    0.000    0.000    0.000    0.000    0.000 
#
# Total GULP energy -198328.793625 kJ/mol
# GULP energy per Si atom -12395.549602 kJ/mol
# Density = 2.321483 g / cm^3
# Si number density = 23.267789 Si / 1000 Ang^3
#
#
#
# Elastic Constant Matrix: (Units=GPa)
#
#
# Indices 1 2 3 4 5 6 
#
# 1 100.8947 37.9327 31.3825 -8.0584 -3.3125 2.8756
# 2 37.9327 112.0561 25.1445 -2.0188 3.5542 12.0707
# 3 31.3825 25.1445 138.4698 3.3078 -1.8785 -0.4821
# 4 -8.0584 -2.0188 3.3078 31.1909 -3.4129 6.0629
# 5 -3.3125 3.5542 -1.8785 -3.4129 42.5244 -1.4650
# 6 2.8756 12.0707 -0.4821 6.0629 -1.4650 34.8497
#
#
#
# Elastic Compliance Matrix: (Units=1/GPa)
#
#
# Indices 1 2 3 4 5 6 
#
# 1 0.012278 -0.003614 -0.002189 0.003388 0.001423 -0.000321
# 2 -0.003614 0.010855 -0.001193 0.000452 -0.001330 -0.003613
# 3 -0.002189 -0.001193 0.007980 -0.001664 0.000183 0.001002
# 4 0.003388 0.000452 -0.001664 0.034679 0.002716 -0.006378
# 5 0.001423 -0.001330 0.000183 0.002716 0.023994 0.000882
# 6 -0.000321 -0.003613 0.001002 -0.006378 0.000882 0.031133
#
#
# Mechanical properties :
#
#
# Convention : Reuss Voigt Hill
#
# Bulk Modulus (GPa) = 58.41398 60.03778 59.22588
# Shear Modulus (GPa) = 35.55712 38.84371 37.20041
#
# Velocity S-wave (km/s) = 3.91342 4.09029 4.00283
# Velocity P-wave (km/s) = 6.75125 6.94019 6.84637
#
# Compressibility (1/GPa) = 0.01711919
#
# Stress axis : x y z
#
# Youngs Moduli (GPa) = 81.44937 92.12437 125.30841
#
# Poissons Ratio (x) = 0.33298 0.27430
# Poissons Ratio (y) = 0.29439 0.14954
# Poissons Ratio (z) = 0.17829 0.10994
#
# Static dielectric constant tensor:
#      x y z
#    x 4.330380 0.015500 -0.066980 
#    y 0.015500 4.277210 0.039330 
#    z -0.066980 0.039330 4.442860 
# 
# 
# High freq. dielectric constant tensor:
#      x y z
#    x 1.909670 0.005880 0.001710 
#    y 0.005880 1.927750 -0.002300 
#    z 0.001710 -0.002300 1.935440 
# 
# From -- ./inp_files/122844.got.cif
#   From: 2010.06.25/outbox.cif.g09.slc.cpg/sg2_62_cif.got.tgz:122844.got - 2010.06.27 13:26:56.
