data_PCOD8034535
_publ_section_title
;
Structure prediction by ZEFSAII (Michael W. Deem and Ramdas Pophale) SiO2 
 PCOD8034535
Probable space group: P -1
;
_chemical_formula_sum "Si O2"
_cell_formula_units_Z 14
_cell_length_a 6.221284
_cell_length_b 12.524189
_cell_length_c 17.165900
_cell_angle_alpha 148.690151
_cell_angle_beta 117.929603
_cell_angle_gamma 53.512563
_cell_volume 556.293535
_symmetry_space_group_name_H-M "P -1"
_symmetry_group_IT_number 2
_symmetry_cell_setting 'triclinic'
loop_
_space_group_symop_operation_xyz
x,y,z
-x,-y,-z
loop_
_atom_site_type_symbol
_atom_site_label
_atom_site_fract_x
_atom_site_fract_y
_atom_site_fract_z
Si Si1 0.661289 0.171842 0.862247
Si Si2 0.157390 0.896260 0.873827
Si Si3 0.410775 0.943072 0.580917
Si Si4 0.278713 0.260886 0.186174
Si Si5 0.079840 0.477089 0.589218
Si Si6 0.782353 0.404503 0.886649
Si Si7 0.909567 0.313669 0.675814
O O1 0.796061 0.215459 0.833859
O O2 0.441106 0.072957 0.744048
O O3 0.516876 0.394424 0.029277
O O4 0.890551 0.982082 0.831908
O O5 0.404007 0.887286 0.856145
O O6 0.227899 0.634635 0.742004
O O7 0.144189 0.076881 0.053251
O O8 0.720955 0.776538 0.507112
O O9 0.254152 0.784193 0.469370
O O10 0.230163 0.145658 0.616662
O O11 0.154782 0.426544 0.193620
O O12 0.199440 0.428187 0.351337
O O13 0.000000 0.500000 0.500000
O O14 0.820632 0.301286 0.742252
O O15 0.000000 0.500000 0.000000
#
# Coordination Sequence:
#
# PCOD8034535 Si02
#       7
#     2   2   2   2   2   2   2
#     4  11  25  43  73 104 136 186 232 284 347 409
#     4  11  25  48  70 103 135 185 236 288 336 417
#     4  11  25  46  67 107 139 183 230 282 356 411
#     4  11  27  47  72 101 137 185 234 286 353 398
#     4  12  26  48  70 101 142 182 232 285 346 422
#     4  11  24  45  70 105 142 179 235 287 342 406
#     4  11  25  46  72 101 144 181 230 291 345 415
#
# _framework density 25.166568999999999
#
# number of rings (size 3 to 8) (size 9 to 14) (size 15 to 20)
#    0.000    0.857    4.286    1.286    4.000    8.571 
#    0.000    0.000    0.000    0.000    0.000    0.000 
#    0.000    0.000    0.000    0.000    0.000    0.000 
#
# Total GULP energy -173485.669108 kJ/mol
# GULP energy per Si atom -12391.833508 kJ/mol
# Density = 2.510929 g / cm^3
# Si number density = 25.166569 Si / 1000 Ang^3
#
#
#
# Elastic Constant Matrix: (Units=GPa)
#
#
# Indices 1 2 3 4 5 6 
#
# 1 48.7253 24.5204 28.7337 -9.5788 0.7570 4.4197
# 2 24.5204 111.9032 38.6749 6.5393 -3.1440 -13.9317
# 3 28.7337 38.6749 129.2843 3.4055 -3.9752 -2.0590
# 4 -9.5788 6.5393 3.4055 39.7881 -0.5524 0.8306
# 5 0.7570 -3.1440 -3.9752 -0.5524 46.3817 -3.4627
# 6 4.4197 -13.9317 -2.0590 0.8306 -3.4627 40.0625
#
#
#
# Elastic Compliance Matrix: (Units=1/GPa)
#
#
# Indices 1 2 3 4 5 6 
#
# 1 0.028554 -0.005783 -0.004977 0.008348 -0.001613 -0.005730
# 2 -0.005783 0.011715 -0.002026 -0.003229 0.001032 0.004764
# 3 -0.004977 -0.002026 0.009522 -0.001679 0.000772 0.000435
# 4 0.008348 -0.003229 -0.001679 0.027869 -0.000372 -0.002740
# 5 -0.001613 0.001032 0.000772 -0.000372 0.021903 0.002477
# 6 -0.005730 0.004764 0.000435 -0.002740 0.002477 0.027543
#
#
# Mechanical properties :
#
#
# Convention : Reuss Voigt Hill
#
# Bulk Modulus (GPa) = 41.29170 52.64121 46.96646
# Shear Modulus (GPa) = 31.10369 38.44541 34.77455
#
# Velocity S-wave (km/s) = 3.51937 3.91274 3.72126
# Velocity P-wave (km/s) = 5.74087 6.43236 6.09643
#
# Compressibility (1/GPa) = 0.02421794
#
# Stress axis : x y z
#
# Youngs Moduli (GPa) = 35.02084 85.36315 105.01861
#
# Poissons Ratio (x) = 0.49368 0.52268
# Poissons Ratio (y) = 0.20253 0.21281
# Poissons Ratio (z) = 0.17430 0.17298
#
# Static dielectric constant tensor:
#      x y z
#    x 4.485060 -0.207900 -0.027080 
#    y -0.207900 4.354710 0.311390 
#    z -0.027080 0.311390 4.848110 
# 
# 
# High freq. dielectric constant tensor:
#      x y z
#    x 1.993050 -0.019290 0.004060 
#    y -0.019290 1.995360 0.025280 
#    z 0.004060 0.025280 2.026060 
# 
# From -- ./inp_files/117022.got.cif
#   From: 2010.06.25/outbox.cif.g09.slc.cpg/sg2_59_cif.got.tgz:117022.got - 2010.06.27 13:26:56.
