data_PCOD8034214
_publ_section_title
;
Structure prediction by ZEFSAII (Michael W. Deem and Ramdas Pophale) SiO2 
 PCOD8034214
Probable space group: P -1
;
_chemical_formula_sum "Si O2"
_cell_formula_units_Z 16
_cell_length_a 18.143170
_cell_length_b 16.256020
_cell_length_c 5.821119
_cell_angle_alpha 131.534828
_cell_angle_beta 134.564729
_cell_angle_gamma 35.112704
_cell_volume 686.746566
_symmetry_space_group_name_H-M "P -1"
_symmetry_group_IT_number 2
_symmetry_cell_setting 'triclinic'
loop_
_space_group_symop_operation_xyz
x,y,z
-x,-y,-z
loop_
_atom_site_type_symbol
_atom_site_label
_atom_site_fract_x
_atom_site_fract_y
_atom_site_fract_z
Si Si1 0.077259 0.671954 0.098309
Si Si2 0.694076 0.600654 0.209772
Si Si3 0.575111 0.471743 0.865379
Si Si4 0.909205 0.951544 0.964593
Si Si5 0.543553 0.887070 0.185959
Si Si6 0.146730 0.781119 0.812389
Si Si7 0.892097 0.645319 0.895464
Si Si8 0.283975 0.089225 0.686191
O O1 0.158193 0.655884 0.472345
O O2 0.189863 0.553749 0.944690
O O3 0.994046 0.839674 0.152365
O O4 0.971912 0.643965 0.851818
O O5 0.578227 0.737391 0.050173
O O6 0.763030 0.657823 0.585446
O O7 0.610229 0.577293 0.147757
O O8 0.500000 0.500000 0.500000
O O9 0.500000 0.500000 0.000000
O O10 0.720128 0.302506 0.882174
O O11 0.769199 0.981141 0.687426
O O12 0.003185 0.879041 0.811388
O O13 0.859188 0.112523 0.184624
O O14 0.682309 0.839053 0.289198
O O15 0.500000 0.000000 0.500000
O O16 0.422106 0.958307 0.873242
O O17 0.837748 0.785107 0.182756
O O18 0.000000 0.500000 0.000000
#
# Coordination Sequence:
#
# PCOD8034214 Si02
#       8
#     2   2   2   2   2   2   2   2
#     4  12  23  46  74 109 150 190 246 314 384 453
#     4  12  25  46  74 103 147 193 250 305 379 449
#     4  12  29  52  75 108 151 202 260 315 378 456
#     4  11  24  44  74 103 143 190 244 314 376 444
#     4  11  25  46  68 102 146 197 242 305 367 459
#     4  11  25  48  72 105 144 191 250 310 378 443
#     4  12  23  41  72 109 144 186 236 314 389 451
#     4  11  24  44  68 105 148 185 252 301 378 451
#
# _framework density 23.298262000000001
#
# number of rings (size 3 to 8) (size 9 to 14) (size 15 to 20)
#    0.000    0.500    3.750    4.500    1.750    2.000 
#    0.000    0.000    0.000    0.000    0.000    0.000 
#    0.000    0.000    0.000    0.000    0.000    0.000 
#
# Total GULP energy -198285.151013 kJ/mol
# GULP energy per Si atom -12392.821938 kJ/mol
# Density = 2.324523 g / cm^3
# Si number density = 23.298262 Si / 1000 Ang^3
#
#
#
# Elastic Constant Matrix: (Units=GPa)
#
#
# Indices 1 2 3 4 5 6 
#
# 1 140.6430 43.6681 31.1947 -0.4789 16.4140 16.5284
# 2 43.6681 125.0145 18.9086 -5.3794 22.1729 21.0533
# 3 31.1947 18.9086 100.2933 -7.1483 15.2108 1.8923
# 4 -0.4789 -5.3794 -7.1483 27.6920 2.8122 4.0444
# 5 16.4140 22.1729 15.2108 2.8122 34.5947 3.7095
# 6 16.5284 21.0533 1.8923 4.0444 3.7095 40.0395
#
#
#
# Elastic Compliance Matrix: (Units=1/GPa)
#
#
# Indices 1 2 3 4 5 6 
#
# 1 0.008651 -0.002066 -0.002034 -0.000289 -0.001626 -0.002209
# 2 -0.002066 0.010633 -0.000212 0.003198 -0.005515 -0.004540
# 3 -0.002034 -0.000212 0.011516 0.003262 -0.004278 0.000474
# 4 -0.000289 0.003198 0.003262 0.038919 -0.005964 -0.005095
# 5 -0.001626 -0.005515 -0.004278 -0.005964 0.035461 0.001090
# 6 -0.002209 -0.004540 0.000474 -0.005095 0.001090 0.028666
#
#
# Mechanical properties :
#
#
# Convention : Reuss Voigt Hill
#
# Bulk Modulus (GPa) = 45.09358 61.49927 53.29643
# Shear Modulus (GPa) = 33.36389 38.61054 35.98722
#
# Velocity S-wave (km/s) = 3.78833 4.07532 3.93444
# Velocity P-wave (km/s) = 6.20743 6.97124 6.60039
#
# Compressibility (1/GPa) = 0.02217610
#
# Stress axis : x y z
#
# Youngs Moduli (GPa) = 115.59117 94.04424 86.83838
#
# Poissons Ratio (x) = 0.19434 0.17659
# Poissons Ratio (y) = 0.23886 0.01841
# Poissons Ratio (z) = 0.23506 0.01994
#
# Static dielectric constant tensor:
#      x y z
#    x 4.362810 0.334600 0.143050 
#    y 0.334600 4.174500 0.129910 
#    z 0.143050 0.129910 3.837050 
# 
# 
# High freq. dielectric constant tensor:
#      x y z
#    x 1.929310 0.009530 0.017210 
#    y 0.009530 1.937940 -0.009000 
#    z 0.017210 -0.009000 1.912260 
# 
# From -- ./inp_files/111078.got.cif
#   From: 2010.06.25/outbox.cif.g09.slc.cpg/sg2_56_cif.got.tgz:111078.got - 2010.06.27 13:26:56.
