data_PCOD8034464
_publ_section_title
;
Structure prediction by ZEFSAII (Michael W. Deem and Ramdas Pophale) SiO2 
 PCOD8034464
Probable space group: P -1
;
_chemical_formula_sum "Si O2"
_cell_formula_units_Z 14
_cell_length_a 10.676217
_cell_length_b 8.895301
_cell_length_c 8.736189
_cell_angle_alpha 121.168892
_cell_angle_beta 101.226712
_cell_angle_gamma 54.706728
_cell_volume 572.917188
_symmetry_space_group_name_H-M "P -1"
_symmetry_group_IT_number 2
_symmetry_cell_setting 'triclinic'
loop_
_space_group_symop_operation_xyz
x,y,z
-x,-y,-z
loop_
_atom_site_type_symbol
_atom_site_label
_atom_site_fract_x
_atom_site_fract_y
_atom_site_fract_z
Si Si1 0.031923 0.043743 0.711552
Si Si2 0.181617 0.629823 0.392186
Si Si3 0.818588 0.537754 0.373454
Si Si4 0.546733 0.640289 0.170046
Si Si5 0.118301 0.191259 0.085125
Si Si6 0.634725 0.762422 0.956935
Si Si7 0.767858 0.968581 0.655948
O O1 0.958186 0.262889 0.712922
O O2 0.909208 0.979689 0.645090
O O3 0.185847 0.831740 0.559255
O O4 0.067745 0.065216 0.904735
O O5 0.144861 0.533656 0.477929
O O6 0.341573 0.432807 0.247143
O O7 0.683047 0.516953 0.263684
O O8 0.774120 0.775442 0.474938
O O9 0.971668 0.391465 0.235461
O O10 0.396289 0.822186 0.322385
O O11 0.500000 0.500000 0.000000
O O12 0.608049 0.732317 0.109226
O O13 0.200608 0.266714 0.032945
O O14 0.238037 0.036020 0.162107
O O15 0.500000 0.000000 0.000000
#
# Coordination Sequence:
#
# PCOD8034464 Si02
#       7
#     2   2   2   2   2   2   2
#     4  11  26  44  75 110 144 185 242 301 356 417
#     4  11  24  45  67 106 145 181 240 297 351 423
#     4  12  25  46  77 104 142 191 240 292 360 427
#     4  12  28  47  73 106 147 187 237 295 363 429
#     4  12  24  45  77 102 140 190 239 293 352 426
#     4  12  25  48  72 102 148 191 239 293 358 431
#     4  12  23  47  73 105 146 187 238 295 355 432
#
# _framework density 24.436340999999999
#
# number of rings (size 3 to 8) (size 9 to 14) (size 15 to 20)
#    0.000    0.286    4.286    4.714    2.000    4.571 
#    0.000    6.429    0.000    0.000    0.000    0.000 
#    0.000    0.000    0.000    0.000    0.000    0.000 
#
# Total GULP energy -173519.207313 kJ/mol
# GULP energy per Si atom -12394.229094 kJ/mol
# Density = 2.438072 g / cm^3
# Si number density = 24.436341 Si / 1000 Ang^3
#
#
#
# Elastic Constant Matrix: (Units=GPa)
#
#
# Indices 1 2 3 4 5 6 
#
# 1 80.4276 23.2161 10.6984 -5.3829 11.6746 -11.1729
# 2 23.2161 112.3337 37.7701 20.8955 1.7612 -10.5334
# 3 10.6984 37.7701 125.3921 14.3233 -0.8105 -13.8195
# 4 -5.3829 20.8955 14.3233 46.5963 -11.0410 -4.9973
# 5 11.6746 1.7612 -0.8105 -11.0410 32.7021 3.1389
# 6 -11.1729 -10.5334 -13.8195 -4.9973 3.1389 33.3841
#
#
#
# Elastic Compliance Matrix: (Units=1/GPa)
#
#
# Indices 1 2 3 4 5 6 
#
# 1 0.014827 -0.002945 -0.000163 0.002468 -0.004764 0.004783
# 2 -0.002945 0.011379 -0.002521 -0.004889 -0.001367 0.000958
# 3 -0.000163 -0.002521 0.009224 -0.001510 -0.000353 0.002776
# 4 0.002468 -0.004889 -0.001510 0.026527 0.008122 0.001865
# 5 -0.004764 -0.001367 -0.000353 0.008122 0.035499 -0.004294
# 6 0.004783 0.000958 0.002776 0.001865 -0.004294 0.033689
#
#
# Mechanical properties :
#
#
# Convention : Reuss Voigt Hill
#
# Bulk Modulus (GPa) = 41.37248 51.28028 46.32638
# Shear Modulus (GPa) = 33.23105 38.96775 36.09940
#
# Velocity S-wave (km/s) = 3.69169 3.99766 3.84771
# Velocity P-wave (km/s) = 5.92781 6.50685 6.22407
#
# Compressibility (1/GPa) = 0.02417066
#
# Stress axis : x y z
#
# Youngs Moduli (GPa) = 67.44646 87.88082 108.40807
#
# Poissons Ratio (x) = 0.25882 0.01772
# Poissons Ratio (y) = 0.19864 0.27331
# Poissons Ratio (z) = 0.01103 0.22155
#
# Static dielectric constant tensor:
#      x y z
#    x 4.256550 0.046460 -0.146830 
#    y 0.046460 4.749740 0.081420 
#    z -0.146830 0.081420 4.769190 
# 
# 
# High freq. dielectric constant tensor:
#      x y z
#    x 1.948920 0.008930 -0.014930 
#    y 0.008930 1.980300 0.011230 
#    z -0.014930 0.011230 1.988750 
# 
# From -- ./inp_files/156614.got.cif
#   From: 2010.06.25/outbox.cif.g09.slc.cpg/sg2_79_cif.got.tgz:156614.got - 2010.06.27 13:26:56.
