data_PCOD8034404
_publ_section_title
;
Structure prediction by ZEFSAII (Michael W. Deem and Ramdas Pophale) SiO2 
 PCOD8034404
Probable space group: P -1
;
_chemical_formula_sum "Si O2"
_cell_formula_units_Z 16
_cell_length_a 18.368962
_cell_length_b 9.503460
_cell_length_c 11.279360
_cell_angle_alpha 100.769701
_cell_angle_beta 47.916180
_cell_angle_gamma 139.832994
_cell_volume 691.531656
_symmetry_space_group_name_H-M "P -1"
_symmetry_group_IT_number 2
_symmetry_cell_setting 'triclinic'
loop_
_space_group_symop_operation_xyz
x,y,z
-x,-y,-z
loop_
_atom_site_type_symbol
_atom_site_label
_atom_site_fract_x
_atom_site_fract_y
_atom_site_fract_z
Si Si1 0.207157 0.737629 0.672933
Si Si2 0.983198 0.241706 0.990177
Si Si3 0.845826 0.672849 0.624891
Si Si4 0.295582 0.712864 0.110682
Si Si5 0.411585 0.418991 0.718139
Si Si6 0.928311 0.312630 0.712180
Si Si7 0.522457 0.636407 0.112521
Si Si8 0.366072 0.680083 0.789105
O O1 0.159775 0.811254 0.819444
O O2 0.082832 0.605479 0.667916
O O3 0.450516 0.029092 0.447729
O O4 0.120120 0.474313 0.770485
O O5 0.144637 0.381573 0.926247
O O6 0.829283 0.920745 0.069297
O O7 0.790627 0.556158 0.801520
O O8 0.648606 0.460647 0.730262
O O9 0.937423 0.639757 0.480985
O O10 0.000000 0.000000 0.500000
O O11 0.155686 0.673816 0.284812
O O12 0.341953 0.767908 0.930082
O O13 0.500000 0.000000 0.000000
O O14 0.500000 0.500000 0.500000
O O15 0.514745 0.478025 0.732323
O O16 0.441493 0.623599 0.744810
O O17 0.740576 0.993314 0.933328
O O18 0.500000 0.500000 0.000000
#
# Coordination Sequence:
#
# PCOD8034404 Si02
#       8
#     2   2   2   2   2   2   2   2
#     4  11  24  44  74 105 140 197 251 310 381 454
#     4  11  24  48  69 104 150 192 255 312 376 457
#     4  12  27  45  75 108 145 203 251 311 387 457
#     4  12  26  47  73 110 154 195 257 319 385 454
#     4  12  27  49  76 113 155 202 256 317 385 462
#     4  12  25  47  76 108 150 198 256 317 381 462
#     4  12  26  51  76 110 155 199 256 320 380 463
#     4  12  26  45  75 106 149 203 252 319 388 455
#
# _framework density 23.137048
#
# number of rings (size 3 to 8) (size 9 to 14) (size 15 to 20)
#    0.000    0.250    6.250    2.625    0.000    3.000 
#    0.000    0.000    0.000    0.000    0.000    0.000 
#    0.000    0.000    0.000    0.000    0.000    0.000 
#
# Total GULP energy -198217.312365 kJ/mol
# GULP energy per Si atom -12388.582023 kJ/mol
# Density = 2.308439 g / cm^3
# Si number density = 23.137048 Si / 1000 Ang^3
#
#
#
# Elastic Constant Matrix: (Units=GPa)
#
#
# Indices 1 2 3 4 5 6 
#
# 1 150.6368 27.6583 47.3212 13.8661 -4.0504 -3.6679
# 2 27.6583 86.7455 32.1224 -6.3306 -1.1823 -0.9189
# 3 47.3212 32.1224 114.3758 -4.1749 -4.4339 -2.9624
# 4 13.8661 -6.3306 -4.1749 34.2875 -8.0360 4.0898
# 5 -4.0504 -1.1823 -4.4339 -8.0360 38.5696 -3.9050
# 6 -3.6679 -0.9189 -2.9624 4.0898 -3.9050 39.2644
#
#
#
# Elastic Compliance Matrix: (Units=1/GPa)
#
#
# Indices 1 2 3 4 5 6 
#
# 1 0.008351 -0.001826 -0.003087 -0.004277 -0.000332 0.000917
# 2 -0.001826 0.013403 -0.002889 0.003015 0.000481 -0.000341
# 3 -0.003087 -0.002889 0.010979 0.002330 0.001372 0.000366
# 4 -0.004277 0.003015 0.002330 0.033644 0.006617 -0.003000
# 5 -0.000332 0.000481 0.001372 0.006617 0.027661 0.002145
# 6 0.000917 -0.000341 0.000366 -0.003000 0.002145 0.026099
#
#
# Mechanical properties :
#
#
# Convention : Reuss Voigt Hill
#
# Bulk Modulus (GPa) = 58.38276 62.88466 60.63371
# Shear Modulus (GPa) = 35.34776 38.73471 37.04123
#
# Velocity S-wave (km/s) = 3.91289 4.09607 4.00553
# Velocity P-wave (km/s) = 6.76036 7.04333 6.90330
#
# Compressibility (1/GPa) = 0.01712835
#
# Stress axis : x y z
#
# Youngs Moduli (GPa) = 119.74883 74.61035 91.07905
#
# Poissons Ratio (x) = 0.13626 0.28119
# Poissons Ratio (y) = 0.21870 0.26311
# Poissons Ratio (z) = 0.36971 0.21553
#
# Static dielectric constant tensor:
#      x y z
#    x 3.881430 -0.495260 -0.309470 
#    y -0.495260 3.780610 -0.424210 
#    z -0.309470 -0.424210 4.252560 
# 
# 
# High freq. dielectric constant tensor:
#      x y z
#    x 1.927200 -0.007720 -0.003850 
#    y -0.007720 1.910690 -0.012500 
#    z -0.003850 -0.012500 1.925030 
# 
# From -- ./inp_files/462216.got.cif
#   From: 2010.06.25/outbox.cif.g09.slc.cpg/sg2_232_cif.got.tgz:462216.got - 2010.06.27 13:26:56.
