data_PCOD8034516
_publ_section_title
;
Structure prediction by ZEFSAII (Michael W. Deem and Ramdas Pophale) SiO2 
 PCOD8034516
Probable space group: P -1
;
_chemical_formula_sum "Si O2"
_cell_formula_units_Z 16
_cell_length_a 6.090482
_cell_length_b 26.761739
_cell_length_c 12.713233
_cell_angle_alpha 27.771584
_cell_angle_beta 46.406114
_cell_angle_gamma 56.177660
_cell_volume 690.428087
_symmetry_space_group_name_H-M "P -1"
_symmetry_group_IT_number 2
_symmetry_cell_setting 'triclinic'
loop_
_space_group_symop_operation_xyz
x,y,z
-x,-y,-z
loop_
_atom_site_type_symbol
_atom_site_label
_atom_site_fract_x
_atom_site_fract_y
_atom_site_fract_z
Si Si1 0.260941 0.656505 0.408239
Si Si2 0.617128 0.563966 0.738675
Si Si3 0.650227 0.867424 0.798998
Si Si4 0.359368 0.516036 0.340775
Si Si5 0.328814 0.251716 0.194873
Si Si6 0.655806 0.022734 0.023968
Si Si7 0.221822 0.731284 0.503503
Si Si8 0.675398 0.083334 0.478171
O O1 0.525961 0.581746 0.451911
O O2 0.117711 0.661301 0.563940
O O3 0.982381 0.595772 0.545329
O O4 0.388706 0.776334 0.101559
O O5 0.520608 0.486965 0.813765
O O6 0.491782 0.678102 0.566747
O O7 0.500000 0.500000 0.000000
O O8 0.746121 0.834744 0.712527
O O9 0.965949 0.882532 0.732753
O O10 0.534547 0.985345 0.626338
O O11 0.000000 0.500000 0.500000
O O12 0.500180 0.634069 0.120216
O O13 0.538577 0.194518 0.309661
O O14 0.031781 0.271803 0.317945
O O15 0.658350 0.149514 0.800466
O O16 0.500000 0.000000 0.000000
O O17 0.392406 0.958761 0.302786
O O18 0.000000 0.000000 0.000000
#
# Coordination Sequence:
#
# PCOD8034516 Si02
#       8
#     2   2   2   2   2   2   2   2
#     4  11  24  45  69  99 143 186 238 299 378 443
#     4  11  25  44  70 102 137 186 239 308 374 446
#     4  11  25  44  67 100 137 193 237 298 368 446
#     4  11  25  43  66 103 137 179 237 298 369 447
#     4  12  24  43  70  99 140 183 240 302 368 441
#     4  12  26  46  75 112 150 196 257 311 373 447
#     4  11  25  43  68 103 139 186 243 304 374 437
#     4  11  25  45  68 101 145 187 246 299 367 446
#
# _framework density 23.174028
#
# number of rings (size 3 to 8) (size 9 to 14) (size 15 to 20)
#    0.000    0.750    2.500    4.125    1.750   10.000 
#    0.000    0.000    0.000    0.000    0.000    0.000 
#    0.000    0.000    0.000    0.000    0.000    0.000 
#
# Total GULP energy -198219.528913 kJ/mol
# GULP energy per Si atom -12388.720557 kJ/mol
# Density = 2.312128 g / cm^3
# Si number density = 23.174028 Si / 1000 Ang^3
#
#
#
# Elastic Constant Matrix: (Units=GPa)
#
#
# Indices 1 2 3 4 5 6 
#
# 1 84.4409 22.1429 6.9301 -5.5477 -1.6682 -8.9779
# 2 22.1429 108.3443 6.0261 -6.8458 2.6929 -6.6077
# 3 6.9301 6.0261 80.0916 -7.7052 -7.3313 -5.0811
# 4 -5.5477 -6.8458 -7.7052 45.2517 -3.2457 1.1897
# 5 -1.6682 2.6929 -7.3313 -3.2457 35.1095 -1.1609
# 6 -8.9779 -6.6077 -5.0811 1.1897 -1.1609 42.3825
#
#
#
# Elastic Compliance Matrix: (Units=1/GPa)
#
#
# Indices 1 2 3 4 5 6 
#
# 1 0.012854 -0.002406 -0.000603 0.001110 0.000847 0.002267
# 2 -0.002406 0.009890 -0.000454 0.001039 -0.000841 0.000926
# 3 -0.000603 -0.000454 0.013155 0.002276 0.003010 0.001397
# 4 0.001110 0.001039 0.002276 0.022962 0.002574 0.000096
# 5 0.000847 -0.000841 0.003010 0.002574 0.029491 0.001145
# 6 0.002267 0.000926 0.001397 0.000096 0.001145 0.024415
#
#
# Mechanical properties :
#
#
# Convention : Reuss Voigt Hill
#
# Bulk Modulus (GPa) = 34.51571 38.11944 36.31757
# Shear Modulus (GPa) = 38.65442 40.40058 39.52750
#
# Velocity S-wave (km/s) = 4.08855 4.17988 4.13447
# Velocity P-wave (km/s) = 6.10040 6.30715 6.20463
#
# Compressibility (1/GPa) = 0.02897232
#
# Stress axis : x y z
#
# Youngs Moduli (GPa) = 77.79804 101.11372 76.01557
#
# Poissons Ratio (x) = 0.24329 0.04584
# Poissons Ratio (y) = 0.18719 0.03453
# Poissons Ratio (z) = 0.04691 0.04593
#
# Static dielectric constant tensor:
#      x y z
#    x 4.545920 0.054560 0.078340 
#    y 0.054560 4.654320 -0.386560 
#    z 0.078340 -0.386560 4.333890 
# 
# 
# High freq. dielectric constant tensor:
#      x y z
#    x 1.909470 0.002410 0.002930 
#    y 0.002410 1.937290 -0.004830 
#    z 0.002930 -0.004830 1.923410 
# 
# From -- ./inp_files/371395.got.cif
#   From: 2010.06.25/outbox.cif.g09.slc.cpg/sg2_186_cif.got.tgz:371395.got - 2010.06.27 13:26:56.
