data_PCOD8034467
_publ_section_title
;
Structure prediction by ZEFSAII (Michael W. Deem and Ramdas Pophale) SiO2 
 PCOD8034467
Probable space group: P -1
;
_chemical_formula_sum "Si O2"
_cell_formula_units_Z 16
_cell_length_a 14.966057
_cell_length_b 14.447858
_cell_length_c 9.940715
_cell_angle_alpha 96.710186
_cell_angle_beta 117.727612
_cell_angle_gamma 30.374528
_cell_volume 742.605620
_symmetry_space_group_name_H-M "P -1"
_symmetry_group_IT_number 2
_symmetry_cell_setting 'triclinic'
loop_
_space_group_symop_operation_xyz
x,y,z
-x,-y,-z
loop_
_atom_site_type_symbol
_atom_site_label
_atom_site_fract_x
_atom_site_fract_y
_atom_site_fract_z
Si Si1 0.484642 0.817838 0.680591
Si Si2 0.844545 0.501263 0.637821
Si Si3 0.069328 0.125067 0.844860
Si Si4 0.289067 0.558726 0.113101
Si Si5 0.622728 0.682144 0.224887
Si Si6 0.795382 0.174696 0.271717
Si Si7 0.301473 0.244202 0.948434
Si Si8 0.924436 0.260985 0.274576
O O1 0.593894 0.722440 0.591206
O O2 0.560089 0.662648 0.787367
O O3 0.594070 0.809812 0.843485
O O4 0.178171 0.081550 0.496952
O O5 0.762868 0.594262 0.444688
O O6 0.968981 0.292001 0.703395
O O7 0.030563 0.423854 0.809366
O O8 0.844339 0.286444 0.819721
O O9 0.169257 0.951967 0.803740
O O10 0.315611 0.955853 0.069516
O O11 0.510758 0.434374 0.179208
O O12 0.063969 0.729886 0.876262
O O13 0.729962 0.649538 0.168167
O O14 0.686913 0.519131 0.216072
O O15 0.866151 0.201142 0.232362
O O16 0.000000 0.000000 0.500000
O O17 0.500000 0.000000 0.000000
#
# Coordination Sequence:
#
# PCOD8034467 Si02
#       8
#     2   2   2   2   2   2   2   2
#     4  11  24  46  65 101 140 174 224 283 339 401
#     4  11  25  44  69 101 136 179 223 284 338 400
#     4  11  25  46  68 100 142 175 228 281 335 401
#     4  11  24  45  67  99 137 180 225 283 334 397
#     4  12  24  44  70 100 136 177 231 276 334 410
#     4  12  24  44  68  99 137 182 226 275 339 403
#     4  12  23  44  72  97 133 178 226 277 345 404
#     4  12  24  43  72  96 138 181 226 277 338 400
#
# _framework density 21.545755
#
# number of rings (size 3 to 8) (size 9 to 14) (size 15 to 20)
#    0.000    0.500    5.000    3.375    0.000    1.000 
#    2.250    1.250    0.000    0.000    0.000    0.000 
#    0.000    0.000    0.000    0.000    0.000    0.000 
#
# Total GULP energy -198372.629615 kJ/mol
# GULP energy per Si atom -12398.289351 kJ/mol
# Density = 2.149672 g / cm^3
# Si number density = 21.545755 Si / 1000 Ang^3
#
#
#
# Elastic Constant Matrix: (Units=GPa)
#
#
# Indices 1 2 3 4 5 6 
#
# 1 -33.7470 61.0479 130.0295 5.6746 12.5328 4.0745
# 2 61.0479 84.2330 11.4660 -8.3021 -2.2902 -5.6258
# 3 130.0295 11.4660 62.7085 -3.4753 -10.6937 -12.4995
# 4 5.6746 -8.3021 -3.4753 31.1758 -1.7280 1.6198
# 5 12.5328 -2.2902 -10.6937 -1.7280 34.8138 -1.1175
# 6 4.0745 -5.6258 -12.4995 1.6198 -1.1175 26.8488
#
#
#
# Elastic Compliance Matrix: (Units=1/GPa)
#
#
# Indices 1 2 3 4 5 6 
#
# 1 -0.002385 0.001370 0.005971 0.001449 0.002966 0.003465
# 2 0.001370 0.011746 -0.005132 0.002257 -0.001195 -0.000322
# 3 0.005971 -0.005132 0.004174 -0.002062 -0.001306 0.000032
# 4 0.001449 0.002257 -0.002062 0.032349 0.000514 -0.002637
# 5 0.002966 -0.001195 -0.001306 0.000514 0.027196 -0.000208
# 6 0.003465 -0.000322 0.000032 -0.002637 -0.000208 0.036818
#
#
# Mechanical properties :
#
#
# Convention : Reuss Voigt Hill
#
# Bulk Modulus (GPa) = 55.70113 57.58680 56.64397
# Shear Modulus (GPa) = 44.85760 12.61108 28.73434
#
# Velocity S-wave (km/s) = 4.56781 2.42196 3.65587
# Velocity P-wave (km/s) = 7.32997 5.88276 6.64588
#
# Compressibility (1/GPa) = 0.01795296
#
# Stress axis : x y z
#
# Youngs Moduli (GPa) = -419.35885 85.13753 239.58065
#
# Poissons Ratio (x) = -0.11667 -1.43046
# Poissons Ratio (y) = 0.57466 1.22954
# Poissons Ratio (z) = 2.50385 0.43693
#
# Static dielectric constant tensor:
#      x y z
#    x 5.305720 0.097210 1.179110 
#    y 0.097210 3.885470 -0.005140 
#    z 1.179110 -0.005140 5.414050 
# 
# 
# High freq. dielectric constant tensor:
#      x y z
#    x 1.842320 -0.003100 -0.006250 
#    y -0.003100 1.843700 -0.006220 
#    z -0.006250 -0.006220 1.866720 
# 
# From -- ./inp_files/315282.got.cif
#   From: 2010.06.25/outbox.cif.g09.slc.cpg/sg2_158_cif.got.tgz:315282.got - 2010.06.27 13:26:56.
