data_PCOD8034152
_publ_section_title
;
Structure prediction by ZEFSAII (Michael W. Deem and Ramdas Pophale) SiO2 
 PCOD8034152
Probable space group: P -1
;
_chemical_formula_sum "Si O2"
_cell_formula_units_Z 12
_cell_length_a 9.926011
_cell_length_b 9.926011
_cell_length_c 10.706114
_cell_angle_alpha 102.585753
_cell_angle_beta 77.414246
_cell_angle_gamma 151.241991
_cell_volume 494.482888
_symmetry_space_group_name_H-M "P -1"
_symmetry_group_IT_number 2
_symmetry_cell_setting 'triclinic'
loop_
_space_group_symop_operation_xyz
x,y,z
-x,-y,-z
loop_
_atom_site_type_symbol
_atom_site_label
_atom_site_fract_x
_atom_site_fract_y
_atom_site_fract_z
Si Si1 0.493909 0.406688 0.609687
Si Si2 0.796211 0.070993 0.947751
Si Si3 0.593312 0.506092 0.109687
Si Si4 0.531642 0.057328 0.827361
Si Si5 0.070994 0.796211 0.552248
Si Si6 0.057327 0.531642 0.672639
O O1 0.500000 0.500000 0.500000
O O2 0.352490 0.352490 0.750000
O O3 0.812082 0.652262 0.636285
O O4 0.333291 0.125463 0.552080
O O5 0.125463 0.333290 0.947920
O O6 0.652261 0.812081 0.863714
O O7 0.741308 0.164284 0.902752
O O8 0.646766 0.967399 0.091120
O O9 0.500000 0.500000 0.000000
O O10 0.306779 0.746216 0.766413
O O11 0.746215 0.306780 0.733587
O O12 0.967401 0.646768 0.408878
O O13 0.164283 0.741307 0.597247
#
# Coordination Sequence:
#
# PCOD8034152 Si02
#       6
#     2   2   2   2   2   2
#     4  12  28  47  74 105 145 197 239 296 358 431
#     4  11  26  46  70 107 142 185 247 297 365 429
#     4  12  28  47  74 105 145 197 239 296 358 431
#     4  11  24  43  76 104 141 187 234 312 364 425
#     4  11  26  46  70 107 142 185 247 297 365 429
#     4  11  24  43  76 104 141 187 234 312 364 425
#
# _framework density 24.267778
#
# number of rings (size 3 to 8) (size 9 to 14) (size 15 to 20)
#    0.000    0.667    0.000    6.000   14.000    5.333 
#    0.000    0.000    0.000    0.000    0.000    0.000 
#    0.000    0.000    0.000    0.000    0.000    0.000 
#
# Total GULP energy -148783.999754 kJ/mol
# GULP energy per Si atom -12398.666646 kJ/mol
# Density = 2.421254 g / cm^3
# Si number density = 24.267778 Si / 1000 Ang^3
#
#
#
# Elastic Constant Matrix: (Units=GPa)
#
#
# Indices 1 2 3 4 5 6 
#
# 1 104.6158 24.1053 32.4365 -4.3893 -0.0703 10.5146
# 2 24.1053 134.8559 26.9210 2.7125 6.3298 -1.7848
# 3 32.4365 26.9210 122.0527 0.3795 -1.4164 -1.5920
# 4 -4.3893 2.7125 0.3795 39.3469 4.8573 -7.4486
# 5 -0.0703 6.3298 -1.4164 4.8573 22.5207 -0.6978
# 6 10.5146 -1.7848 -1.5920 -7.4486 -0.6978 54.9162
#
#
#
# Elastic Compliance Matrix: (Units=1/GPa)
#
#
# Indices 1 2 3 4 5 6 
#
# 1 0.010962 -0.001485 -0.002616 0.000952 0.000017 -0.002094
# 2 -0.001485 0.008081 -0.001408 -0.000347 -0.002276 0.000430
# 3 -0.002616 -0.001408 0.009221 -0.000281 0.001050 0.000698
# 4 0.000952 -0.000347 -0.000281 0.026879 -0.005610 0.003373
# 5 0.000017 -0.002276 0.001050 -0.005610 0.046313 -0.000219
# 6 -0.002094 0.000430 0.000698 0.003373 -0.000219 0.019099
#
#
# Mechanical properties :
#
#
# Convention : Reuss Voigt Hill
#
# Bulk Modulus (GPa) = 57.97827 58.71667 58.34747
# Shear Modulus (GPa) = 36.41092 41.89421 39.15257
#
# Velocity S-wave (km/s) = 3.87768 4.15942 4.02102
# Velocity P-wave (km/s) = 6.63260 6.87863 6.75674
#
# Compressibility (1/GPa) = 0.01724784
#
# Stress axis : x y z
#
# Youngs Moduli (GPa) = 91.22091 123.74304 108.44813
#
# Poissons Ratio (x) = 0.18375 0.28369
# Poissons Ratio (y) = 0.13546 0.15265
# Poissons Ratio (z) = 0.23862 0.17418
#
# Static dielectric constant tensor:
#      x y z
#    x 4.120620 0.079200 -0.083370 
#    y 0.079200 4.394960 0.022340 
#    z -0.083370 0.022340 4.556230 
# 
# 
# High freq. dielectric constant tensor:
#      x y z
#    x 1.957420 0.006910 -0.007020 
#    y 0.006910 1.981350 0.001880 
#    z -0.007020 0.001880 1.966410 
# 
# From -- ./inp_files/214031.got.cif
#   From: 2010.06.25/outbox.cif.g09.slc.cpg/sg2_108_cif.got.tgz:214031.got - 2010.06.27 13:26:56.
