data_PCOD8034407
_publ_section_title
;
Structure prediction by ZEFSAII (Michael W. Deem and Ramdas Pophale) SiO2 
 PCOD8034407
Probable space group: P -1
;
_chemical_formula_sum "Si O2"
_cell_formula_units_Z 12
_cell_length_a 8.951302
_cell_length_b 9.043588
_cell_length_c 9.741834
_cell_angle_alpha 95.567874
_cell_angle_beta 44.629095
_cell_angle_gamma 104.847132
_cell_volume 531.274695
_symmetry_space_group_name_H-M "P -1"
_symmetry_group_IT_number 2
_symmetry_cell_setting 'triclinic'
loop_
_space_group_symop_operation_xyz
x,y,z
-x,-y,-z
loop_
_atom_site_type_symbol
_atom_site_label
_atom_site_fract_x
_atom_site_fract_y
_atom_site_fract_z
Si Si1 0.195504 0.653165 0.900479
Si Si2 0.417173 0.644283 0.025767
Si Si3 0.944177 0.891992 0.156831
Si Si4 0.188706 0.805789 0.381523
Si Si5 0.187666 0.093272 0.251840
Si Si6 0.451080 0.819967 0.486516
O O1 0.311567 0.711389 0.685771
O O2 0.373291 0.625229 0.890160
O O3 0.000000 0.500000 0.000000
O O4 0.101782 0.781650 0.044148
O O5 0.208205 0.669644 0.250877
O O6 0.500000 0.500000 0.000000
O O7 0.608327 0.798227 0.952069
O O8 0.690914 0.788378 0.312976
O O9 0.998113 0.998133 0.265649
O O10 0.000000 0.000000 0.000000
O O11 0.316089 0.778999 0.431600
O O12 0.929778 0.794484 0.576037
O O13 0.284392 0.979428 0.273790
O O14 0.500000 0.000000 0.500000
#
# Coordination Sequence:
#
# PCOD8034407 Si02
#       6
#     2   2   2   2   2   2
#     4  12  30  50  67 108 154 188 236 301 363 430
#     4  12  29  46  71 102 147 195 233 291 369 428
#     4  12  24  44  79 107 141 187 242 301 358 426
#     4  11  24  45  73 102 140 179 244 299 347 422
#     4  11  24  44  74 107 137 181 246 301 355 417
#     4  12  24  44  77 108 137 188 242 291 358 428
#
# _framework density 22.587185000000002
#
# number of rings (size 3 to 8) (size 9 to 14) (size 15 to 20)
#    0.000    0.333    5.000    2.500    9.333    1.333 
#    0.000    0.000    0.000    0.000    0.000    0.000 
#    0.000    0.000    0.000    0.000    0.000    0.000 
#
# Total GULP energy -148802.252383 kJ/mol
# GULP energy per Si atom -12400.187699 kJ/mol
# Density = 2.253578 g / cm^3
# Si number density = 22.587185 Si / 1000 Ang^3
#
#
#
# Elastic Constant Matrix: (Units=GPa)
#
#
# Indices 1 2 3 4 5 6 
#
# 1 146.4441 47.8316 54.7071 -9.6973 19.7998 -17.6009
# 2 47.8316 88.2666 50.2458 -7.2630 2.9481 -12.7560
# 3 54.7071 50.2458 135.0345 -9.3341 7.4160 -12.6420
# 4 -9.6973 -7.2630 -9.3341 42.5429 -4.8150 -7.1713
# 5 19.7998 2.9481 7.4160 -4.8150 43.8220 1.0341
# 6 -17.6009 -12.7560 -12.6420 -7.1713 1.0341 37.9420
#
#
#
# Elastic Compliance Matrix: (Units=1/GPa)
#
#
# Indices 1 2 3 4 5 6 
#
# 1 0.009657 -0.003390 -0.002081 0.001248 -0.003716 0.002984
# 2 -0.003390 0.016107 -0.004329 0.001624 0.001296 0.002672
# 3 -0.002081 -0.004329 0.010068 0.001149 -0.000373 0.001161
# 4 0.001248 0.001624 0.001149 0.025584 0.001795 0.006295
# 5 -0.003716 0.001296 -0.000373 0.001795 0.024713 -0.001747
# 6 0.002984 0.002672 0.001161 0.006295 -0.001747 0.030263
#
#
# Mechanical properties :
#
#
# Convention : Reuss Voigt Hill
#
# Bulk Modulus (GPa) = 61.60727 75.03491 68.32109
# Shear Modulus (GPa) = 35.36003 39.32544 37.34273
#
# Velocity S-wave (km/s) = 3.96092 4.17712 4.07045
# Velocity P-wave (km/s) = 6.94644 7.52042 7.23912
#
# Compressibility (1/GPa) = 0.01623185
#
# Stress axis : x y z
#
# Youngs Moduli (GPa) = 103.55078 62.08433 99.32511
#
# Poissons Ratio (x) = 0.21049 0.20671
# Poissons Ratio (y) = 0.35108 0.42994
# Poissons Ratio (z) = 0.21550 0.26874
#
# Static dielectric constant tensor:
#      x y z
#    x 4.365290 -0.204930 -0.072600 
#    y -0.204930 3.901680 -0.046600 
#    z -0.072600 -0.046600 4.389470 
# 
# 
# High freq. dielectric constant tensor:
#      x y z
#    x 1.905760 -0.015720 0.001690 
#    y -0.015720 1.869810 0.005770 
#    z 0.001690 0.005770 1.906130 
# 
# From -- ./inp_files/152496.got.cif
#   From: 2010.06.25/outbox.cif.g09.slc.cpg/sg2_77_cif.got.tgz:152496.got - 2010.06.27 13:26:56.
