data_PCOD8034217
_publ_section_title
;
Structure prediction by ZEFSAII (Michael W. Deem and Ramdas Pophale) SiO2 
 PCOD8034217
Probable space group: P -1
;
_chemical_formula_sum "Si O2"
_cell_formula_units_Z 12
_cell_length_a 9.507066
_cell_length_b 11.753197
_cell_length_c 9.297552
_cell_angle_alpha 141.558968
_cell_angle_beta 132.163908
_cell_angle_gamma 63.973096
_cell_volume 470.148785
_symmetry_space_group_name_H-M "P -1"
_symmetry_group_IT_number 2
_symmetry_cell_setting 'triclinic'
loop_
_space_group_symop_operation_xyz
x,y,z
-x,-y,-z
loop_
_atom_site_type_symbol
_atom_site_label
_atom_site_fract_x
_atom_site_fract_y
_atom_site_fract_z
Si Si1 0.326436 0.401990 0.685254
Si Si2 0.937826 0.591059 0.238076
Si Si3 0.245096 0.154986 0.851303
Si Si4 0.217825 0.985193 0.165259
Si Si5 0.669214 0.305015 0.261893
Si Si6 0.872770 0.170241 0.745920
O O1 0.321988 0.506489 0.635547
O O2 0.126869 0.404017 0.634831
O O3 0.350797 0.190453 0.462283
O O4 0.500000 0.500000 0.000000
O O5 0.170081 0.655820 0.464162
O O6 0.834745 0.729777 0.215909
O O7 0.876365 0.386063 0.924842
O O8 0.097869 0.139466 0.869976
O O9 0.460130 0.249817 0.140598
O O10 0.244333 0.950783 0.581941
O O11 0.227360 0.884511 0.225177
O O12 0.304331 0.866496 0.989472
O O13 0.000000 0.000000 0.000000
#
# Coordination Sequence:
#
# PCOD8034217 Si02
#       6
#     2   2   2   2   2   2
#     4  12  23  39  67 100 131 165 220 269 323 383
#     4  12  23  44  67  98 131 172 218 272 322 385
#     4  11  26  46  65  97 133 176 218 264 326 395
#     4  12  23  42  68 100 132 169 215 275 324 383
#     4  12  25  42  71  99 130 171 220 270 328 382
#     4  11  24  44  68  93 137 174 214 270 327 384
#
# _framework density 25.523834999999998
#
# number of rings (size 3 to 8) (size 9 to 14) (size 15 to 20)
#    0.000    0.333    6.667    2.000    2.333    2.000 
#    0.000    7.500    0.000    0.000    0.000    0.000 
#    0.000    0.000    0.000    0.000    0.000    0.000 
#
# Total GULP energy -148866.990061 kJ/mol
# GULP energy per Si atom -12405.582505 kJ/mol
# Density = 2.546574 g / cm^3
# Si number density = 25.523835 Si / 1000 Ang^3
#
#
#
# Elastic Constant Matrix: (Units=GPa)
#
#
# Indices 1 2 3 4 5 6 
#
# 1 42.2022 6.1334 8.7226 7.6045 15.1130 -8.8855
# 2 6.1334 83.8136 58.2826 16.9133 8.5556 -1.0993
# 3 8.7226 58.2826 149.9245 31.0542 20.9690 5.1172
# 4 7.6045 16.9133 31.0542 49.0274 -14.7311 5.5299
# 5 15.1130 8.5556 20.9690 -14.7311 41.5094 -3.4370
# 6 -8.8855 -1.0993 5.1172 5.5299 -3.4370 18.3918
#
#
#
# Elastic Compliance Matrix: (Units=1/GPa)
#
#
# Indices 1 2 3 4 5 6 
#
# 1 0.036203 0.000605 0.002811 -0.015220 -0.018650 0.017835
# 2 0.000605 0.016754 -0.005829 -0.003036 -0.001513 0.003546
# 3 0.002811 -0.005829 0.011807 -0.008416 -0.008890 -0.001406
# 4 -0.015220 -0.003036 -0.008416 0.037316 0.022653 -0.012179
# 5 -0.018650 -0.001513 -0.008890 0.022653 0.043280 -0.005350
# 6 0.017835 0.003546 -0.001406 -0.012179 -0.005350 0.066254
#
#
# Mechanical properties :
#
#
# Convention : Reuss Voigt Hill
#
# Bulk Modulus (GPa) = 16.68385 46.91305 31.79845
# Shear Modulus (GPa) = 21.14891 35.30584 28.22738
#
# Velocity S-wave (km/s) = 2.88165 3.72324 3.32915
# Velocity P-wave (km/s) = 4.19794 6.07481 5.22140
#
# Compressibility (1/GPa) = 0.05993820
#
# Stress axis : x y z
#
# Youngs Moduli (GPa) = 27.62201 59.68818 84.69549
#
# Poissons Ratio (x) = -0.03613 -0.23805
# Poissons Ratio (y) = -0.01672 0.49366
# Poissons Ratio (z) = -0.07764 0.34790
#
# Static dielectric constant tensor:
#      x y z
#    x 4.882610 -0.165710 0.278080 
#    y -0.165710 4.575630 0.309570 
#    z 0.278080 0.309570 4.864370 
# 
# 
# High freq. dielectric constant tensor:
#      x y z
#    x 2.016950 -0.006110 0.012010 
#    y -0.006110 2.013920 0.020050 
#    z 0.012010 0.020050 2.032110 
# 
# From -- ./inp_files/183811.got.cif
#   From: 2010.06.25/outbox.cif.g09.slc.cpg/sg2_92_cif.got.tgz:183811.got - 2010.06.27 13:26:56.
