data_PCOD8034008
_publ_section_title
;
Structure prediction by ZEFSAII (Michael W. Deem and Ramdas Pophale) SiO2 
 PCOD8034008
Probable space group: P -1
;
_chemical_formula_sum "Si O2"
_cell_formula_units_Z 14
_cell_length_a 15.426059
_cell_length_b 5.044494
_cell_length_c 24.036299
_cell_angle_alpha 66.672943
_cell_angle_beta 19.817557
_cell_angle_gamma 75.895394
_cell_volume 530.086204
_symmetry_space_group_name_H-M "P -1"
_symmetry_group_IT_number 2
_symmetry_cell_setting 'triclinic'
loop_
_space_group_symop_operation_xyz
x,y,z
-x,-y,-z
loop_
_atom_site_type_symbol
_atom_site_label
_atom_site_fract_x
_atom_site_fract_y
_atom_site_fract_z
Si Si1 0.897274 0.475611 0.644024
Si Si2 0.746100 0.079983 0.419320
Si Si3 0.912156 0.824943 0.001109
Si Si4 0.552007 0.973648 0.290111
Si Si5 0.674020 0.480569 0.343530
Si Si6 0.210027 0.214598 0.212456
Si Si7 0.602765 0.557103 0.713946
O O1 0.936539 0.641607 0.666162
O O2 0.703713 0.599369 0.713285
O O3 0.210612 0.591258 0.419812
O O4 0.745382 0.091193 0.767373
O O5 0.597770 0.214601 0.546706
O O6 0.526638 0.719396 0.569221
O O7 0.828753 0.274485 0.295562
O O8 0.029046 0.094561 0.275417
O O9 0.084258 0.197024 0.851723
O O10 0.659965 0.769152 0.202081
O O11 0.156030 0.730584 0.888580
O O12 0.737009 0.646998 0.067143
O O13 0.345065 0.105270 0.373993
O O14 0.500000 0.500000 0.500000
O O15 0.500000 0.500000 0.000000
#
# Coordination Sequence:
#
# PCOD8034008 Si02
#       7
#     2   2   2   2   2   2   2
#     4  11  28  49  75 113 150 201 253 309 389 425
#     4  11  26  46  72 100 152 191 245 310 378 451
#     4  11  26  41  75 109 147 195 249 312 375 459
#     4  11  24  43  69 108 143 192 246 302 381 438
#     4  11  26  44  68 104 143 193 237 304 383 442
#     4  12  28  50  79 109 148 203 257 307 372 458
#     4  11  26  44  75 104 155 189 251 321 372 451
#
# _framework density 26.410799999999998
#
# number of rings (size 3 to 8) (size 9 to 14) (size 15 to 20)
#    0.000    0.857    2.857    1.714   12.000    2.286 
#    0.000    0.000    0.000    0.000    0.000    0.000 
#    0.000    0.000    0.000    0.000    0.000    0.000 
#
# Total GULP energy -173441.194241 kJ/mol
# GULP energy per Si atom -12388.656732 kJ/mol
# Density = 2.635069 g / cm^3
# Si number density = 26.410800 Si / 1000 Ang^3
#
#
#
# Elastic Constant Matrix: (Units=GPa)
#
#
# Indices 1 2 3 4 5 6 
#
# 1 157.5369 31.1762 46.7983 4.9223 -29.4580 -10.6572
# 2 31.1762 63.0206 0.9626 8.6382 1.8971 9.3540
# 3 46.7983 0.9626 77.1684 -8.1395 -15.2683 1.4649
# 4 4.9223 8.6382 -8.1395 43.6438 -4.2503 -4.8521
# 5 -29.4580 1.8971 -15.2683 -4.2503 49.3731 7.7596
# 6 -10.6572 9.3540 1.4649 -4.8521 7.7596 39.8059
#
#
#
# Elastic Compliance Matrix: (Units=1/GPa)
#
#
# Indices 1 2 3 4 5 6 
#
# 1 0.009968 -0.005426 -0.005284 -0.000278 0.003975 0.003330
# 2 -0.005426 0.020053 0.002217 -0.003894 -0.002684 -0.006198
# 3 -0.005284 0.002217 0.017080 0.003311 0.002753 -0.002697
# 4 -0.000278 -0.003894 0.003311 0.024951 0.002645 0.003244
# 5 0.003975 -0.002684 0.002753 0.002645 0.024250 -0.002811
# 6 0.003330 -0.006198 -0.002697 0.003244 -0.002811 0.028513
#
#
# Mechanical properties :
#
#
# Convention : Reuss Voigt Hill
#
# Bulk Modulus (GPa) = 33.20627 50.62223 41.91425
# Shear Modulus (GPa) = 32.92946 41.15047 37.03996
#
# Velocity S-wave (km/s) = 3.53486 3.95155 3.74900
# Velocity P-wave (km/s) = 5.40931 6.32681 5.88596
#
# Compressibility (1/GPa) = 0.03011480
#
# Stress axis : x y z
#
# Youngs Moduli (GPa) = 100.31742 49.86818 58.54633
#
# Poissons Ratio (x) = 0.27060 0.30934
# Poissons Ratio (y) = 0.54435 -0.12977
# Poissons Ratio (z) = 0.53005 -0.11054
#
# Static dielectric constant tensor:
#      x y z
#    x 5.479660 -0.388160 -0.063400 
#    y -0.388160 4.709840 -0.062810 
#    z -0.063400 -0.062810 4.757360 
# 
# 
# High freq. dielectric constant tensor:
#      x y z
#    x 2.077680 -0.006940 -0.012670 
#    y -0.006940 2.060550 -0.010280 
#    z -0.012670 -0.010280 2.058630 
# 
# From -- ./inp_files/611235.got.cif
#   From: 2010.06.25/outbox.cif.g09.slc.cpg/sg2_306_cif.got.tgz:611235.got - 2010.06.27 13:26:56.
