data_PCOD8034959
_publ_section_title
;
Structure prediction by ZEFSAII (Michael W. Deem and Ramdas Pophale) SiO2 
 PCOD8034959
Probable space group: P -1
;
_chemical_formula_sum "Si O2"
_cell_formula_units_Z 16
_cell_length_a 9.425371
_cell_length_b 18.253487
_cell_length_c 5.540547
_cell_angle_alpha 107.602953
_cell_angle_beta 72.786594
_cell_angle_gamma 134.244960
_cell_volume 645.829148
_symmetry_space_group_name_H-M "P -1"
_symmetry_group_IT_number 2
_symmetry_cell_setting 'triclinic'
loop_
_space_group_symop_operation_xyz
x,y,z
-x,-y,-z
loop_
_atom_site_type_symbol
_atom_site_label
_atom_site_fract_x
_atom_site_fract_y
_atom_site_fract_z
Si Si1 0.450651 0.276882 0.196834
Si Si2 0.224937 0.848841 0.041523
Si Si3 0.990565 0.585872 0.636603
Si Si4 0.222701 0.275720 0.930199
Si Si5 0.551908 0.451105 0.612253
Si Si6 0.780932 0.890194 0.477586
Si Si7 0.208217 0.697220 0.146343
Si Si8 0.545777 0.950392 0.615238
O O1 0.575377 0.372849 0.414110
O O2 0.326944 0.163821 0.265366
O O3 0.296323 0.285930 0.174083
O O4 0.601420 0.294247 0.937888
O O5 0.274947 0.809444 0.201816
O O6 0.994039 0.761905 0.998955
O O7 0.293265 0.958529 0.183246
O O8 0.342564 0.857771 0.759562
O O9 0.095691 0.656417 0.415272
O O10 0.000000 0.500000 0.500000
O O11 0.765734 0.542363 0.717500
O O12 0.085649 0.637740 0.900888
O O13 0.375821 0.386804 0.834823
O O14 0.212702 0.187623 0.736691
O O15 0.500000 0.500000 0.500000
O O16 0.645725 0.906772 0.419201
O O17 0.000000 0.000000 0.500000
O O18 0.500000 0.000000 0.500000
#
# Coordination Sequence:
#
# PCOD8034959 Si02
#       8
#     2   2   2   2   2   2   2   2
#     4  11  26  43  71 104 138 191 242 297 369 444
#     4  11  26  45  66 110 137 190 244 301 370 433
#     4  12  26  47  75 105 142 194 246 306 370 440
#     4  11  26  44  72 100 143 188 242 297 373 439
#     4  11  26  46  68 101 144 188 243 303 365 438
#     4  11  24  47  68 101 144 186 237 298 369 441
#     4  12  27  46  76 106 150 190 248 308 369 442
#     4  11  26  44  72  99 146 186 242 302 367 442
#
# _framework density 24.774353999999999
#
# number of rings (size 3 to 8) (size 9 to 14) (size 15 to 20)
#    0.000    0.750    3.750    1.875   10.500    1.000 
#    0.000    0.000    0.000    0.000    0.000    0.000 
#    0.000    0.000    0.000    0.000    0.000    0.000 
#
# Total GULP energy -198349.983278 kJ/mol
# GULP energy per Si atom -12396.873955 kJ/mol
# Density = 2.471797 g / cm^3
# Si number density = 24.774354 Si / 1000 Ang^3
#
#
#
# Elastic Constant Matrix: (Units=GPa)
#
#
# Indices 1 2 3 4 5 6 
#
# 1 120.9961 18.0077 9.3054 -31.3842 -2.6754 0.3172
# 2 18.0077 110.0658 33.0137 -33.1336 -4.2606 0.5817
# 3 9.3054 33.0137 75.6883 -22.7639 6.8752 9.7798
# 4 -31.3842 -33.1336 -22.7639 43.4612 -3.5631 -0.2713
# 5 -2.6754 -4.2606 6.8752 -3.5631 40.4388 -11.8905
# 6 0.3172 0.5817 9.7798 -0.2713 -11.8905 44.6562
#
#
#
# Elastic Compliance Matrix: (Units=1/GPa)
#
#
# Indices 1 2 3 4 5 6 
#
# 1 0.010348 0.000680 0.000856 0.008555 0.001411 0.000158
# 2 0.000680 0.012747 -0.003533 0.008630 0.003191 0.001505
# 3 0.000856 -0.003533 0.017715 0.006831 -0.004169 -0.004908
# 4 0.008555 0.008630 0.006831 0.039642 0.003674 -0.000450
# 5 0.001411 0.003191 -0.004169 0.003674 0.028697 0.008525
# 6 0.000158 0.001505 -0.004908 -0.000450 0.008525 0.025715
#
#
# Mechanical properties :
#
#
# Convention : Reuss Voigt Hill
#
# Bulk Modulus (GPa) = 27.16230 47.48934 37.32582
# Shear Modulus (GPa) = 33.08395 42.13945 37.61170
#
# Velocity S-wave (km/s) = 3.65829 4.12871 3.90060
# Velocity P-wave (km/s) = 5.36953 6.47601 5.94855
#
# Compressibility (1/GPa) = 0.03681573
#
# Stress axis : x y z
#
# Youngs Moduli (GPa) = 96.64050 78.44810 56.44902
#
# Poissons Ratio (x) = -0.05331 -0.04832
# Poissons Ratio (y) = -0.06567 0.19941
# Poissons Ratio (z) = -0.08272 0.27712
#
# Static dielectric constant tensor:
#      x y z
#    x 4.759520 0.056010 0.101870 
#    y 0.056010 4.858240 0.203850 
#    z 0.101870 0.203850 4.254210 
# 
# 
# High freq. dielectric constant tensor:
#      x y z
#    x 2.001380 -0.007040 -0.002590 
#    y -0.007040 2.012210 0.002300 
#    z -0.002590 0.002300 1.975310 
# 
# From -- ./inp_files/46319.got.cif
#   From: 2010.06.25/outbox.cif.g09.slc.cpg/sg2_24_cif.got.tgz:46319.got - 2010.06.27 13:26:56.
