data_PCOD8034872
_publ_section_title
;
Structure prediction by ZEFSAII (Michael W. Deem and Ramdas Pophale) SiO2 
 PCOD8034872
Probable space group: P -1
;
_chemical_formula_sum "Si O2"
_cell_formula_units_Z 14
_cell_length_a 11.372711
_cell_length_b 14.195362
_cell_length_c 8.795792
_cell_angle_alpha 147.998808
_cell_angle_beta 52.217911
_cell_angle_gamma 118.679796
_cell_volume 592.069787
_symmetry_space_group_name_H-M "P -1"
_symmetry_group_IT_number 2
_symmetry_cell_setting 'triclinic'
loop_
_space_group_symop_operation_xyz
x,y,z
-x,-y,-z
loop_
_atom_site_type_symbol
_atom_site_label
_atom_site_fract_x
_atom_site_fract_y
_atom_site_fract_z
Si Si1 0.578533 0.925040 0.580348
Si Si2 0.164980 0.978179 0.273925
Si Si3 0.109095 0.255660 0.437932
Si Si4 0.524271 0.566257 0.238577
Si Si5 0.242980 0.699707 0.196497
Si Si6 0.731992 0.396466 0.282349
Si Si7 0.310533 0.059502 0.792736
O O1 0.516095 0.780368 0.542803
O O2 0.436934 0.063818 0.831219
O O3 0.712798 0.008669 0.672810
O O4 0.643110 0.831231 0.243194
O O5 0.183864 0.130024 0.341047
O O6 0.187532 0.770813 0.911121
O O7 0.000000 0.000000 0.500000
O O8 0.165529 0.450975 0.644601
O O9 0.934327 0.284841 0.640809
O O10 0.152350 0.148273 0.101060
O O11 0.405643 0.510851 0.383240
O O12 0.500000 0.500000 0.000000
O O13 0.691899 0.487170 0.038301
O O14 0.301693 0.858474 0.464933
O O15 0.310613 0.698261 0.970579
#
# Coordination Sequence:
#
# PCOD8034872 Si02
#       7
#     2   2   2   2   2   2   2
#     4  11  24  46  73 104 148 191 245 302 368 427
#     4  12  26  47  75 110 146 188 250 304 362 439
#     4  12  27  48  76 108 151 197 239 307 374 428
#     4  12  26  46  72 111 145 189 253 305 357 445
#     4  12  25  48  73 106 151 192 244 303 371 436
#     4  12  27  48  74 108 147 196 247 302 363 439
#     4  11  24  47  74 106 150 192 245 299 374 436
#
# _framework density 23.645862000000001
#
# number of rings (size 3 to 8) (size 9 to 14) (size 15 to 20)
#    0.000    0.286    4.286    3.857    4.000    3.429 
#    0.000    1.429    0.000    0.000    0.000    0.000 
#    0.000    0.000    0.000    0.000    0.000    0.000 
#
# Total GULP energy -173456.186395 kJ/mol
# GULP energy per Si atom -12389.727600 kJ/mol
# Density = 2.359204 g / cm^3
# Si number density = 23.645862 Si / 1000 Ang^3
#
#
#
# Elastic Constant Matrix: (Units=GPa)
#
#
# Indices 1 2 3 4 5 6 
#
# 1 120.1007 55.8265 42.7781 -1.1752 -11.8519 -0.6046
# 2 55.8265 125.9725 45.3424 5.8815 -7.1221 -7.8108
# 3 42.7781 45.3424 122.8367 -14.1800 -10.6726 -4.5248
# 4 -1.1752 5.8815 -14.1800 52.7249 -4.4519 -0.3982
# 5 -11.8519 -7.1221 -10.6726 -4.4519 24.1817 10.7109
# 6 -0.6046 -7.8108 -4.5248 -0.3982 10.7109 27.8518
#
#
#
# Elastic Compliance Matrix: (Units=1/GPa)
#
#
# Indices 1 2 3 4 5 6 
#
# 1 0.011549 -0.004328 -0.002039 0.000591 0.005019 -0.003216
# 2 -0.004328 0.011097 -0.002903 -0.002260 -0.002005 0.003285
# 3 -0.002039 -0.002903 0.010622 0.003443 0.003690 -0.000503
# 4 0.000591 -0.002260 0.003443 0.020635 0.005833 -0.002010
# 5 0.005019 -0.002005 0.003690 0.005833 0.055232 -0.021011
# 6 -0.003216 0.003285 -0.000503 -0.002010 -0.021011 0.044725
#
#
# Mechanical properties :
#
#
# Convention : Reuss Voigt Hill
#
# Bulk Modulus (GPa) = 67.89206 72.97823 70.43515
# Shear Modulus (GPa) = 28.19945 35.94922 32.07433
#
# Velocity S-wave (km/s) = 3.45711 3.90335 3.68699
# Velocity P-wave (km/s) = 6.68654 7.15855 6.92657
#
# Compressibility (1/GPa) = 0.01472926
#
# Stress axis : x y z
#
# Youngs Moduli (GPa) = 86.58770 90.11589 94.14405
#
# Poissons Ratio (x) = 0.38998 0.19192
# Poissons Ratio (y) = 0.37471 0.27331
# Poissons Ratio (z) = 0.17652 0.26162
#
# Static dielectric constant tensor:
#      x y z
#    x 4.246960 -0.455350 -0.258740 
#    y -0.455350 5.131610 0.340810 
#    z -0.258740 0.340810 4.562440 
# 
# 
# High freq. dielectric constant tensor:
#      x y z
#    x 1.922160 -0.006640 -0.008780 
#    y -0.006640 1.959990 0.002780 
#    z -0.008780 0.002780 1.944280 
# 
# From -- ./inp_files/274799.got.cif
#   From: 2010.06.25/outbox.cif.g09.slc.cpg/sg2_138_cif.got.tgz:274799.got - 2010.06.27 13:26:56.
