data_PCOD8034629
_publ_section_title
;
Structure prediction by ZEFSAII (Michael W. Deem and Ramdas Pophale) SiO2 
 PCOD8034629
Probable space group: P -1
;
_chemical_formula_sum "Si O2"
_cell_formula_units_Z 16
_cell_length_a 14.617589
_cell_length_b 13.724783
_cell_length_c 11.677016
_cell_angle_alpha 63.676333
_cell_angle_beta 40.730497
_cell_angle_gamma 32.496496
_cell_volume 681.364392
_symmetry_space_group_name_H-M "P -1"
_symmetry_group_IT_number 2
_symmetry_cell_setting 'triclinic'
loop_
_space_group_symop_operation_xyz
x,y,z
-x,-y,-z
loop_
_atom_site_type_symbol
_atom_site_label
_atom_site_fract_x
_atom_site_fract_y
_atom_site_fract_z
Si Si1 0.825481 0.788135 0.573087
Si Si2 0.751498 0.165448 0.243081
Si Si3 0.231280 0.116988 0.058861
Si Si4 0.843246 0.339103 0.098685
Si Si5 0.979679 0.925685 0.387395
Si Si6 0.178415 0.223601 0.679704
Si Si7 0.627112 0.205469 0.788115
Si Si8 0.871001 0.508459 0.365024
O O1 0.941267 0.824134 0.493277
O O2 0.913111 0.714674 0.397261
O O3 0.015781 0.573600 0.570122
O O4 0.491273 0.999641 0.807264
O O5 0.666073 0.347485 0.259191
O O6 0.457081 0.306256 0.419619
O O7 0.881795 0.021488 0.304707
O O8 0.000000 0.000000 0.000000
O O9 0.982141 0.255419 0.135303
O O10 0.085115 0.298136 0.190865
O O11 0.350668 0.931205 0.109956
O O12 0.678818 0.556960 0.094226
O O13 0.083191 0.176228 0.857913
O O14 0.293928 0.760080 0.203857
O O15 0.804653 0.105633 0.556823
O O16 0.096882 0.385763 0.746726
O O17 0.500000 0.000000 0.500000
#
# Coordination Sequence:
#
# PCOD8034629 Si02
#       8
#     2   2   2   2   2   2   2   2
#     4  12  25  46  75 106 149 190 242 304 361 440
#     4  12  27  47  73 103 151 194 247 301 359 440
#     4  12  26  48  77 110 152 186 244 308 361 437
#     4  12  26  45  76 106 144 198 244 296 376 423
#     4  11  24  45  73 103 148 181 237 304 362 413
#     4  12  26  48  68 104 148 190 243 296 359 438
#     4  11  25  46  75 109 147 184 246 308 358 437
#     4  12  27  46  75 109 141 198 243 296 376 429
#
# _framework density 23.482295000000001
#
# number of rings (size 3 to 8) (size 9 to 14) (size 15 to 20)
#    0.000    0.250    3.750    5.250    3.500    2.500 
#    0.000    2.500    0.000    0.000    0.000    0.000 
#    0.000    0.000    0.000    0.000    0.000    0.000 
#
# Total GULP energy -198229.066148 kJ/mol
# GULP energy per Si atom -12389.316634 kJ/mol
# Density = 2.342885 g / cm^3
# Si number density = 23.482295 Si / 1000 Ang^3
#
#
#
# Elastic Constant Matrix: (Units=GPa)
#
#
# Indices 1 2 3 4 5 6 
#
# 1 94.8859 12.6380 7.7293 -4.3071 -8.8204 -6.3547
# 2 12.6380 98.0269 -3.6042 -2.5729 -3.9803 -9.6375
# 3 7.7293 -3.6042 62.5931 -11.6946 -6.8583 1.3731
# 4 -4.3071 -2.5729 -11.6946 31.3370 -4.2123 -3.1221
# 5 -8.8204 -3.9803 -6.8583 -4.2123 31.3839 -9.8507
# 6 -6.3547 -9.6375 1.3731 -3.1221 -9.8507 47.9701
#
#
#
# Elastic Compliance Matrix: (Units=1/GPa)
#
#
# Indices 1 2 3 4 5 6 
#
# 1 0.011335 -0.001062 -0.000725 0.001940 0.003851 0.002226
# 2 -0.001062 0.010787 0.001297 0.001807 0.002413 0.002602
# 3 -0.000725 0.001297 0.018119 0.007608 0.005329 0.001235
# 4 0.001940 0.001807 0.007608 0.036811 0.008825 0.004610
# 5 0.003851 0.002413 0.005329 0.008825 0.038529 0.009329
# 6 0.002226 0.002602 0.001235 0.004610 0.009329 0.023844
#
#
# Mechanical properties :
#
#
# Convention : Reuss Voigt Hill
#
# Bulk Modulus (GPa) = 25.47076 32.11466 28.79271
# Shear Modulus (GPa) = 32.57513 38.05438 35.31475
#
# Velocity S-wave (km/s) = 3.72858 4.02998 3.88221
# Velocity P-wave (km/s) = 5.42280 5.94644 5.69065
#
# Compressibility (1/GPa) = 0.03926071
#
# Stress axis : x y z
#
# Youngs Moduli (GPa) = 88.22524 92.70304 55.19165
#
# Poissons Ratio (x) = 0.09843 0.04003
# Poissons Ratio (y) = 0.09368 -0.07159
# Poissons Ratio (z) = 0.06399 -0.12025
#
# Static dielectric constant tensor:
#      x y z
#    x 4.328660 -0.245180 -0.217210 
#    y -0.245180 4.127520 0.082250 
#    z -0.217210 0.082250 4.232130 
# 
# 
# High freq. dielectric constant tensor:
#      x y z
#    x 1.942620 -0.006480 -0.011110 
#    y -0.006480 1.939820 -0.010260 
#    z -0.011110 -0.010260 1.939140 
# 
# From -- ./inp_files/455630.got.cif
#   From: 2010.06.25/outbox.cif.g09.slc.cpg/sg2_228_cif.got.tgz:455630.got - 2010.06.27 13:26:56.
