data_PCOD8034346
_publ_section_title
;
Structure prediction by ZEFSAII (Michael W. Deem and Ramdas Pophale) SiO2 
 PCOD8034346
Probable space group: P -1
;
_chemical_formula_sum "Si O2"
_cell_formula_units_Z 16
_cell_length_a 14.675856
_cell_length_b 8.499671
_cell_length_c 10.388665
_cell_angle_alpha 96.309688
_cell_angle_beta 146.223691
_cell_angle_gamma 74.655757
_cell_volume 679.971703
_symmetry_space_group_name_H-M "P -1"
_symmetry_group_IT_number 2
_symmetry_cell_setting 'triclinic'
loop_
_space_group_symop_operation_xyz
x,y,z
-x,-y,-z
loop_
_atom_site_type_symbol
_atom_site_label
_atom_site_fract_x
_atom_site_fract_y
_atom_site_fract_z
Si Si1 0.945678 0.055172 0.586413
Si Si2 0.271605 0.472558 0.858175
Si Si3 0.603815 0.210811 0.316979
Si Si4 0.037478 0.587998 0.364585
Si Si5 0.759296 0.217909 0.980126
Si Si6 0.482107 0.043562 0.631674
Si Si7 0.844329 0.662485 0.749160
Si Si8 0.797683 0.356700 0.767385
O O1 0.741341 0.085071 0.371687
O O2 0.987413 0.223035 0.688733
O O3 0.000000 0.000000 0.500000
O O4 0.046140 0.906648 0.787963
O O5 0.213543 0.516531 0.647154
O O6 0.279089 0.639595 0.947491
O O7 0.133081 0.402170 0.756555
O O8 0.461464 0.339325 0.073433
O O9 0.709461 0.303700 0.536232
O O10 0.504309 0.117662 0.282275
O O11 0.054912 0.464714 0.254614
O O12 0.633426 0.113142 0.857534
O O13 0.724234 0.298900 0.804707
O O14 0.297225 0.176770 0.456808
O O15 0.500000 0.000000 0.500000
O O16 0.755235 0.559105 0.730369
O O17 0.992547 0.721329 0.999655
#
# Coordination Sequence:
#
# PCOD8034346 Si02
#       8
#     2   2   2   2   2   2   2   2
#     4  12  27  49  75 105 144 191 243 301 364 426
#     4  11  26  46  78 104 142 193 245 302 358 431
#     4  12  27  46  73 110 147 190 242 303 361 433
#     4  11  24  50  74 103 141 190 247 300 361 431
#     4  12  25  45  73 107 148 191 238 297 368 432
#     4  12  28  43  69 107 153 190 241 292 359 430
#     4  11  25  45  70 107 145 197 239 298 360 436
#     4  11  24  44  72 104 146 191 235 294 365 437
#
# _framework density 23.530391999999999
#
# number of rings (size 3 to 8) (size 9 to 14) (size 15 to 20)
#    0.000    0.500    5.000    2.250    3.500    3.500 
#    0.000    1.875    0.000    0.000    0.000    0.000 
#    0.000    0.000    0.000    0.000    0.000    0.000 
#
# Total GULP energy -198439.075593 kJ/mol
# GULP energy per Si atom -12402.442225 kJ/mol
# Density = 2.347684 g / cm^3
# Si number density = 23.530392 Si / 1000 Ang^3
#
#
#
# Elastic Constant Matrix: (Units=GPa)
#
#
# Indices 1 2 3 4 5 6 
#
# 1 69.9497 11.0420 18.9427 4.5666 0.2523 -3.3254
# 2 11.0420 68.2735 25.7346 -9.6056 4.0329 1.7606
# 3 18.9427 25.7346 130.7535 -13.9205 1.4238 -10.8499
# 4 4.5666 -9.6056 -13.9205 45.8265 3.5457 6.7633
# 5 0.2523 4.0329 1.4238 3.5457 37.7653 1.7659
# 6 -3.3254 1.7606 -10.8499 6.7633 1.7659 35.4345
#
#
#
# Elastic Compliance Matrix: (Units=1/GPa)
#
#
# Indices 1 2 3 4 5 6 
#
# 1 0.015438 -0.002211 -0.001987 -0.002855 0.000407 0.001475
# 2 -0.002211 0.016705 -0.002790 0.003379 -0.001867 -0.002444
# 3 -0.001987 -0.002790 0.008893 0.001998 -0.000320 0.002310
# 4 -0.002855 0.003379 0.001998 0.024253 -0.002492 -0.004329
# 5 0.000407 -0.001867 -0.000320 -0.002492 0.026961 -0.000835
# 6 0.001475 -0.002444 0.002310 -0.004329 -0.000835 0.030056
#
#
# Mechanical properties :
#
#
# Convention : Reuss Voigt Hill
#
# Bulk Modulus (GPa) = 36.95710 42.26836 39.61273
# Shear Modulus (GPa) = 34.41067 38.02240 36.21654
#
# Velocity S-wave (km/s) = 3.82827 4.02417 3.92744
# Velocity P-wave (km/s) = 5.93979 6.29239 6.11863
#
# Compressibility (1/GPa) = 0.02705840
#
# Stress axis : x y z
#
# Youngs Moduli (GPa) = 64.77403 59.86193 112.44887
#
# Poissons Ratio (x) = 0.13238 0.22347
# Poissons Ratio (y) = 0.14325 0.31375
# Poissons Ratio (z) = 0.12873 0.16702
#
# Static dielectric constant tensor:
#      x y z
#    x 4.275050 0.177370 0.111830 
#    y 0.177370 4.481730 -0.236670 
#    z 0.111830 -0.236670 5.079820 
# 
# 
# High freq. dielectric constant tensor:
#      x y z
#    x 1.933500 0.015410 -0.000800 
#    y 0.015410 1.935090 0.002010 
#    z -0.000800 0.002010 1.940990 
# 
# From -- ./inp_files/447692.got.cif
#   From: 2010.06.25/outbox.cif.g09.slc.cpg/sg2_224_cif.got.tgz:447692.got - 2010.06.27 13:26:56.
