data_PCOD8034475
_publ_section_title
;
Structure prediction by ZEFSAII (Michael W. Deem and Ramdas Pophale) SiO2 
 PCOD8034475
Probable space group: P -1
;
_chemical_formula_sum "Si O2"
_cell_formula_units_Z 16
_cell_length_a 9.275933
_cell_length_b 24.346681
_cell_length_c 9.268581
_cell_angle_alpha 42.276758
_cell_angle_beta 82.352485
_cell_angle_gamma 47.896284
_cell_volume 717.001517
_symmetry_space_group_name_H-M "P -1"
_symmetry_group_IT_number 2
_symmetry_cell_setting 'triclinic'
loop_
_space_group_symop_operation_xyz
x,y,z
-x,-y,-z
loop_
_atom_site_type_symbol
_atom_site_label
_atom_site_fract_x
_atom_site_fract_y
_atom_site_fract_z
Si Si1 0.269178 0.861125 0.338050
Si Si2 0.176192 0.844907 0.706069
Si Si3 0.646002 0.589478 0.369534
Si Si4 0.247106 0.287009 0.784869
Si Si5 0.391787 0.145794 0.733651
Si Si6 0.042054 0.716336 0.657494
Si Si7 0.458654 0.621246 0.618363
Si Si8 0.707906 0.960637 0.470491
O O1 0.208259 0.849650 0.523231
O O2 0.388712 0.894533 0.283571
O O3 0.487595 0.695507 0.548486
O O4 0.000000 0.000000 0.000000
O O5 0.990897 0.850778 0.733166
O O6 0.474425 0.689261 0.050733
O O7 0.000000 0.000000 0.500000
O O8 0.744849 0.619511 0.392784
O O9 0.453321 0.630514 0.426660
O O10 0.939489 0.402448 0.654483
O O11 0.298060 0.221983 0.752001
O O12 0.512478 0.134452 0.144292
O O13 0.110661 0.283870 0.404829
O O14 0.500000 0.000000 0.000000
O O15 0.168950 0.719243 0.519623
O O16 0.802720 0.878875 0.463582
O O17 0.279597 0.563577 0.023367
O O18 0.500000 0.000000 0.500000
#
# Coordination Sequence:
#
# PCOD8034475 Si02
#       8
#     2   2   2   2   2   2   2   2
#     4  12  25  46  74  99 144 190 238 301 352 423
#     4  12  26  44  72 108 137 191 250 287 356 442
#     4  11  25  46  74 104 144 190 241 298 359 430
#     4  11  24  45  68 106 147 183 237 298 362 432
#     4  12  25  43  72 107 138 185 241 294 357 431
#     4  11  26  44  71 106 143 184 246 295 361 430
#     4  11  24  48  72 100 143 193 236 301 358 421
#     4  12  25  46  67 102 150 189 232 301 367 423
#
# _framework density 22.315155000000001
#
# number of rings (size 3 to 8) (size 9 to 14) (size 15 to 20)
#    0.000    0.500    5.000    3.000    3.500    3.500 
#    0.000    1.875    0.000    0.000    0.000    0.000 
#    0.000    0.000    0.000    0.000    0.000    0.000 
#
# Total GULP energy -198325.675342 kJ/mol
# GULP energy per Si atom -12395.354709 kJ/mol
# Density = 2.226436 g / cm^3
# Si number density = 22.315155 Si / 1000 Ang^3
#
#
#
# Elastic Constant Matrix: (Units=GPa)
#
#
# Indices 1 2 3 4 5 6 
#
# 1 149.4852 47.0071 29.9396 6.5754 10.5192 -10.6277
# 2 47.0071 143.1447 56.4062 7.1733 8.1314 -18.8531
# 3 29.9396 56.4062 95.5052 -0.3222 8.7267 -6.1421
# 4 6.5754 7.1733 -0.3222 41.4391 2.7101 -2.1987
# 5 10.5192 8.1314 8.7267 2.7101 35.0977 3.1300
# 6 -10.6277 -18.8531 -6.1421 -2.1987 3.1300 39.6836
#
#
#
# Elastic Compliance Matrix: (Units=1/GPa)
#
#
# Indices 1 2 3 4 5 6 
#
# 1 0.007714 -0.001809 -0.001129 -0.000752 -0.001654 0.001120
# 2 -0.001809 0.010186 -0.005156 -0.001279 -0.000753 0.003545
# 3 -0.001129 -0.005156 0.014037 0.001295 -0.002026 -0.000348
# 4 -0.000752 -0.001279 0.001295 0.024647 -0.001784 0.000898
# 5 -0.001654 -0.000753 -0.002026 -0.001784 0.030124 -0.003589
# 6 0.001120 0.003545 -0.000348 0.000898 -0.003589 0.027463
#
#
# Mechanical properties :
#
#
# Convention : Reuss Voigt Hill
#
# Bulk Modulus (GPa) = 63.50066 72.76010 68.13038
# Shear Modulus (GPa) = 36.87129 40.22957 38.55043
#
# Velocity S-wave (km/s) = 4.06926 4.25054 4.16088
# Velocity P-wave (km/s) = 7.11312 7.53431 7.32675
#
# Compressibility (1/GPa) = 0.01574787
#
# Stress axis : x y z
#
# Youngs Moduli (GPa) = 129.63876 98.17877 71.24044
#
# Poissons Ratio (x) = 0.17760 0.08044
# Poissons Ratio (y) = 0.23451 0.36732
# Poissons Ratio (z) = 0.14638 0.50622
#
# Static dielectric constant tensor:
#      x y z
#    x 4.333040 0.006100 0.018600 
#    y 0.006100 4.108400 0.079620 
#    z 0.018600 0.079620 4.012350 
# 
# 
# High freq. dielectric constant tensor:
#      x y z
#    x 1.883340 -0.000400 0.002420 
#    y -0.000400 1.891730 -0.008470 
#    z 0.002420 -0.008470 1.877650 
# 
# From -- ./inp_files/225962.got.cif
#   From: 2010.06.25/outbox.cif.g09.slc.cpg/sg2_113_cif.got.tgz:225962.got - 2010.06.27 13:26:56.
