data_PCOD8034317
_publ_section_title
;
Structure prediction by ZEFSAII (Michael W. Deem and Ramdas Pophale) SiO2 
 PCOD8034317
Probable space group: P -1
;
_chemical_formula_sum "Si O2"
_cell_formula_units_Z 16
_cell_length_a 13.883919
_cell_length_b 6.489642
_cell_length_c 15.394540
_cell_angle_alpha 134.290364
_cell_angle_beta 46.974168
_cell_angle_gamma 106.870926
_cell_volume 678.311383
_symmetry_space_group_name_H-M "P -1"
_symmetry_group_IT_number 2
_symmetry_cell_setting 'triclinic'
loop_
_space_group_symop_operation_xyz
x,y,z
-x,-y,-z
loop_
_atom_site_type_symbol
_atom_site_label
_atom_site_fract_x
_atom_site_fract_y
_atom_site_fract_z
Si Si1 0.863854 0.086801 0.835657
Si Si2 0.023133 0.833742 0.819730
Si Si3 0.434725 0.344476 0.245691
Si Si4 0.668867 0.764390 0.901287
Si Si5 0.830101 0.781286 0.068743
Si Si6 0.157351 0.877637 0.335624
Si Si7 0.287478 0.271369 0.476745
Si Si8 0.522244 0.911579 0.359339
O O1 0.864703 0.986767 0.706847
O O2 0.724774 0.046526 0.946082
O O3 0.868852 0.419691 0.946780
O O4 0.994584 0.845428 0.737269
O O5 0.143219 0.510259 0.675576
O O6 0.076529 0.113714 0.889444
O O7 0.877601 0.869944 0.971360
O O8 0.338003 0.391171 0.233130
O O9 0.345320 0.446521 0.419326
O O10 0.526907 0.562803 0.242375
O O11 0.515911 0.969047 0.094447
O O12 0.766203 0.494464 0.825014
O O13 0.663674 0.944463 0.240744
O O14 0.257064 0.993573 0.367370
O O15 0.000000 0.000000 0.500000
O O16 0.393203 0.149887 0.455660
O O17 0.500000 0.000000 0.500000
#
# Coordination Sequence:
#
# PCOD8034317 Si02
#       8
#     2   2   2   2   2   2   2   2
#     4  12  24  45  74 106 145 194 244 295 367 430
#     4  11  28  48  75 108 147 196 246 301 372 436
#     4  11  25  45  75 104 148 194 242 303 361 440
#     4  11  24  44  71 108 142 193 246 287 370 431
#     4  11  26  50  76 106 143 195 247 310 357 449
#     4  12  27  43  72 109 152 194 242 299 360 443
#     4  12  27  48  72 107 153 188 245 306 362 437
#     4  12  28  49  78 108 146 194 249 305 371 428
#
# _framework density 23.587985
#
# number of rings (size 3 to 8) (size 9 to 14) (size 15 to 20)
#    0.000    0.500    3.750    3.375    5.250    8.500 
#    0.000    0.000    0.000    0.000    0.000    0.000 
#    0.000    0.000    0.000    0.000    0.000    0.000 
#
# Total GULP energy -198309.882686 kJ/mol
# GULP energy per Si atom -12394.367668 kJ/mol
# Density = 2.353430 g / cm^3
# Si number density = 23.587985 Si / 1000 Ang^3
#
#
#
# Elastic Constant Matrix: (Units=GPa)
#
#
# Indices 1 2 3 4 5 6 
#
# 1 144.4126 69.4807 44.5064 -9.5872 -0.6501 -10.7726
# 2 69.4807 105.0381 36.0732 -7.6637 -3.1366 11.0030
# 3 44.5064 36.0732 92.4124 -7.4590 -14.2876 -6.4465
# 4 -9.5872 -7.6637 -7.4590 34.1930 4.3670 6.6130
# 5 -0.6501 -3.1366 -14.2876 4.3670 39.2212 4.6711
# 6 -10.7726 11.0030 -6.4465 6.6130 4.6711 53.6795
#
#
#
# Elastic Compliance Matrix: (Units=1/GPa)
#
#
# Indices 1 2 3 4 5 6 
#
# 1 0.011432 -0.006985 -0.002776 0.000599 -0.001861 0.003481
# 2 -0.006985 0.015869 -0.002969 0.001911 0.000489 -0.005289
# 3 -0.002776 -0.002969 0.014188 0.000816 0.004645 0.001251
# 4 0.000599 0.001911 0.000816 0.031077 -0.002550 -0.003780
# 5 -0.001861 0.000489 0.004645 -0.002550 0.027721 -0.002014
# 6 0.003481 -0.005289 0.001251 -0.003780 -0.002014 0.021203
#
#
# Mechanical properties :
#
#
# Convention : Reuss Voigt Hill
#
# Bulk Modulus (GPa) = 62.38952 71.33153 66.86052
# Shear Modulus (GPa) = 32.83161 38.20559 35.51860
#
# Velocity S-wave (km/s) = 3.73484 4.02892 3.88466
# Velocity P-wave (km/s) = 6.71608 7.20758 6.96617
#
# Compressibility (1/GPa) = 0.01602833
#
# Stress axis : x y z
#
# Youngs Moduli (GPa) = 87.47504 63.01677 70.48108
#
# Poissons Ratio (x) = 0.44019 0.19563
# Poissons Ratio (y) = 0.61103 0.20929
# Poissons Ratio (z) = 0.24280 0.18712
#
# Static dielectric constant tensor:
#      x y z
#    x 4.375070 0.157660 0.023030 
#    y 0.157660 4.399420 -0.168450 
#    z 0.023030 -0.168450 4.014740 
# 
# 
# High freq. dielectric constant tensor:
#      x y z
#    x 1.952260 0.009580 0.004590 
#    y 0.009580 1.937140 0.000230 
#    z 0.004590 0.000230 1.926490 
# 
# From -- ./inp_files/68671.got.cif
#   From: 2010.06.25/outbox.cif.g09.slc.cpg/sg2_35_cif.got.tgz:68671.got - 2010.06.27 13:26:56.
