data_PCOD8034482
_publ_section_title
;
Structure prediction by ZEFSAII (Michael W. Deem and Ramdas Pophale) SiO2 
 PCOD8034482
Probable space group: P -1
;
_chemical_formula_sum "Si O2"
_cell_formula_units_Z 14
_cell_length_a 14.199666
_cell_length_b 28.817872
_cell_length_c 11.882754
_cell_angle_alpha 157.538309
_cell_angle_beta 30.575603
_cell_angle_gamma 160.709157
_cell_volume 611.283940
_symmetry_space_group_name_H-M "P -1"
_symmetry_group_IT_number 2
_symmetry_cell_setting 'triclinic'
loop_
_space_group_symop_operation_xyz
x,y,z
-x,-y,-z
loop_
_atom_site_type_symbol
_atom_site_label
_atom_site_fract_x
_atom_site_fract_y
_atom_site_fract_z
Si Si1 0.367473 0.855097 0.212294
Si Si2 0.876321 0.123898 0.684677
Si Si3 0.122697 0.438647 0.788377
Si Si4 0.237747 0.517896 0.293873
Si Si5 0.320604 0.369636 0.255862
Si Si6 0.581395 0.705351 0.590304
Si Si7 0.732748 0.842258 0.344886
O O1 0.347464 0.915402 0.250113
O O2 0.042774 0.664643 0.156377
O O3 0.500000 0.000000 0.500000
O O4 0.545691 0.822492 0.937185
O O5 0.082662 0.140547 0.436215
O O6 0.086202 0.314267 0.968715
O O7 0.674150 0.939684 0.558680
O O8 0.082008 0.307418 0.446036
O O9 0.459794 0.609485 0.855564
O O10 0.000000 0.500000 0.000000
O O11 0.391888 0.586024 0.407241
O O12 0.455812 0.660997 0.290934
O O13 0.000000 0.500000 0.500000
O O14 0.495041 0.569090 0.470828
O O15 0.168685 0.214075 0.968501
O O16 0.000000 0.000000 0.500000
#
# Coordination Sequence:
#
# PCOD8034482 Si02
#       7
#     2   2   2   2   2   2   2
#     4  12  28  44  67 108 145 185 241 301 356 419
#     4  12  26  49  73 105 149 187 243 296 365 433
#     4  11  24  45  69 100 135 187 242 288 352 422
#     4  12  25  48  76 105 146 192 237 299 367 432
#     4  11  25  44  74 101 136 191 240 288 358 429
#     4  12  23  47  74 100 144 192 234 296 362 431
#     4  12  26  45  75 111 143 187 241 296 364 436
#
# _framework density 22.902614
#
# number of rings (size 3 to 8) (size 9 to 14) (size 15 to 20)
#    0.000    0.286    7.143    1.286    4.000    1.143 
#    0.000    0.000    0.000    0.000    0.000    0.000 
#    0.000    0.000    0.000    0.000    0.000    0.000 
#
# Total GULP energy -173632.794698 kJ/mol
# GULP energy per Si atom -12402.342478 kJ/mol
# Density = 2.285049 g / cm^3
# Si number density = 22.902614 Si / 1000 Ang^3
#
#
#
# Elastic Constant Matrix: (Units=GPa)
#
#
# Indices 1 2 3 4 5 6 
#
# 1 117.9549 -3.3336 41.1934 -1.1321 -11.0486 2.7106
# 2 -3.3336 36.2467 27.4660 -18.7864 -8.9629 -2.5882
# 3 41.1934 27.4660 164.4293 -15.6737 5.8054 6.2561
# 4 -1.1321 -18.7864 -15.6737 39.9906 3.2070 -6.8885
# 5 -11.0486 -8.9629 5.8054 3.2070 46.5041 -0.8535
# 6 2.7106 -2.5882 6.2561 -6.8885 -0.8535 40.7486
#
#
#
# Elastic Compliance Matrix: (Units=1/GPa)
#
#
# Indices 1 2 3 4 5 6 
#
# 1 0.010175 0.005072 -0.003441 0.001096 0.003757 0.000438
# 2 0.005072 0.047321 -0.007933 0.019736 0.010091 0.007434
# 3 -0.003441 -0.007933 0.008401 -0.000558 -0.003389 -0.001730
# 4 0.001096 0.019736 -0.000558 0.035192 0.001840 0.007254
# 5 0.003757 0.010091 -0.003389 0.001840 0.024669 0.001739
# 6 0.000438 0.007434 -0.001730 0.007254 0.001739 0.026512
#
#
# Mechanical properties :
#
#
# Convention : Reuss Voigt Hill
#
# Bulk Modulus (GPa) = 18.76424 49.92029 34.34227
# Shear Modulus (GPa) = 27.37630 42.33564 34.85597
#
# Velocity S-wave (km/s) = 3.46111 4.30409 3.90541
# Velocity P-wave (km/s) = 4.91765 6.82234 5.94675
#
# Compressibility (1/GPa) = 0.05329285
#
# Stress axis : x y z
#
# Youngs Moduli (GPa) = 98.27751 21.13213 119.03159
#
# Poissons Ratio (x) = -0.10717 0.40960
# Poissons Ratio (y) = -0.49842 0.94426
# Poissons Ratio (z) = 0.33818 0.16764
#
# Static dielectric constant tensor:
#      x y z
#    x 4.528070 -0.343090 -0.134260 
#    y -0.343090 4.300890 -0.103340 
#    z -0.134260 -0.103340 4.501210 
# 
# 
# High freq. dielectric constant tensor:
#      x y z
#    x 1.921290 -0.008200 -0.002480 
#    y -0.008200 1.893920 -0.012620 
#    z -0.002480 -0.012620 1.916930 
# 
# From -- ./inp_files/306975.got.cif
#   From: 2010.06.25/outbox.cif.g09.slc.cpg/sg2_154_cif.got.tgz:306975.got - 2010.06.27 13:26:56.
