data_PCOD8034084
_publ_section_title
;
Structure prediction by ZEFSAII (Michael W. Deem and Ramdas Pophale) SiO2 
 PCOD8034084
Probable space group: P -1
;
_chemical_formula_sum "Si O2"
_cell_formula_units_Z 16
_cell_length_a 9.537933
_cell_length_b 11.089428
_cell_length_c 9.545342
_cell_angle_alpha 89.049767
_cell_angle_beta 43.717438
_cell_angle_gamma 86.040985
_cell_volume 695.267673
_symmetry_space_group_name_H-M "P -1"
_symmetry_group_IT_number 2
_symmetry_cell_setting 'triclinic'
loop_
_space_group_symop_operation_xyz
x,y,z
-x,-y,-z
loop_
_atom_site_type_symbol
_atom_site_label
_atom_site_fract_x
_atom_site_fract_y
_atom_site_fract_z
Si Si1 0.241190 0.171850 0.978119
Si Si2 0.197472 0.529483 0.944632
Si Si3 0.269785 0.022912 0.211993
Si Si4 0.104170 0.594500 0.326149
Si Si5 0.268017 0.006114 0.709549
Si Si6 0.571304 0.339919 0.694581
Si Si7 0.066240 0.141969 0.605079
Si Si8 0.175070 0.731685 0.758864
O O1 0.467510 0.216227 0.805969
O O2 0.237688 0.052910 0.887610
O O3 0.173792 0.130327 0.180745
O O4 0.070038 0.281177 0.065331
O O5 0.393494 0.438660 0.775659
O O6 0.261957 0.658175 0.833623
O O7 0.155565 0.535022 0.140067
O O8 0.000000 0.500000 0.000000
O O9 0.247906 0.074414 0.383436
O O10 0.150725 0.902901 0.283463
O O11 0.500000 0.000000 0.000000
O O12 0.312037 0.624061 0.251151
O O13 0.000000 0.500000 0.500000
O O14 0.950323 0.713775 0.408352
O O15 0.196374 0.873142 0.755080
O O16 0.500000 0.000000 0.500000
O O17 0.128588 0.105005 0.718100
O O18 0.724817 0.321582 0.454519
#
# Coordination Sequence:
#
# PCOD8034084 Si02
#       8
#     2   2   2   2   2   2   2   2
#     4  12  24  44  75 103 152 190 241 301 369 435
#     4  12  27  50  79 107 144 198 252 304 371 435
#     4  11  24  43  72 104 144 190 237 297 365 439
#     4  12  29  51  78 107 150 195 249 310 365 436
#     4  12  25  45  72 113 150 193 238 299 371 440
#     4  12  27  50  77 108 148 194 252 304 369 438
#     4  11  26  46  71 105 147 187 243 296 367 434
#     4  12  25  47  77 105 152 196 243 308 364 437
#
# _framework density 23.012720000000002
#
# number of rings (size 3 to 8) (size 9 to 14) (size 15 to 20)
#    0.000    0.250    3.750    4.875    5.250    1.000 
#    4.500    0.000    0.000    0.000    0.000    0.000 
#    0.000    0.000    0.000    0.000    0.000    0.000 
#
# Total GULP energy -198433.080355 kJ/mol
# GULP energy per Si atom -12402.067522 kJ/mol
# Density = 2.296034 g / cm^3
# Si number density = 23.012720 Si / 1000 Ang^3
#
#
#
# Elastic Constant Matrix: (Units=GPa)
#
#
# Indices 1 2 3 4 5 6 
#
# 1 118.9236 41.9528 43.2797 7.1955 3.9278 6.8208
# 2 41.9528 127.4848 29.5504 -5.2945 4.4953 -10.8707
# 3 43.2797 29.5504 138.0162 2.7777 -1.5942 10.6960
# 4 7.1955 -5.2945 2.7777 37.8785 -12.2100 3.8644
# 5 3.9278 4.4953 -1.5942 -12.2100 42.2943 1.7275
# 6 6.8208 -10.8707 10.6960 3.8644 1.7275 26.2509
#
#
#
# Elastic Compliance Matrix: (Units=1/GPa)
#
#
# Indices 1 2 3 4 5 6 
#
# 1 0.010804 -0.003277 -0.002442 -0.002492 -0.001356 -0.002713
# 2 -0.003277 0.009813 -0.001525 0.001356 -0.000624 0.005378
# 3 -0.002442 -0.001525 0.008623 0.000292 0.000946 -0.003616
# 4 -0.002492 0.001356 0.000292 0.030356 0.009024 -0.003973
# 5 -0.001356 -0.000624 0.000946 0.009024 0.026615 -0.003372
# 6 -0.002713 0.005378 -0.003616 -0.003973 -0.003372 0.043306
#
#
# Mechanical properties :
#
#
# Convention : Reuss Voigt Hill
#
# Bulk Modulus (GPa) = 67.77918 68.22116 68.00017
# Shear Modulus (GPa) = 33.57505 39.26086 36.41796
#
# Velocity S-wave (km/s) = 3.82380 4.13492 3.98240
# Velocity P-wave (km/s) = 7.00087 7.24611 7.12454
#
# Compressibility (1/GPa) = 0.01475379
#
# Stress axis : x y z
#
# Youngs Moduli (GPa) = 92.55475 101.90953 115.96959
#
# Poissons Ratio (x) = 0.33391 0.28317
# Poissons Ratio (y) = 0.30326 0.17682
# Poissons Ratio (z) = 0.22600 0.15539
#
# Static dielectric constant tensor:
#      x y z
#    x 4.873260 -0.109480 -0.296530 
#    y -0.109480 4.429110 -0.253080 
#    z -0.296530 -0.253080 4.527980 
# 
# 
# High freq. dielectric constant tensor:
#      x y z
#    x 1.913320 -0.010340 -0.000610 
#    y -0.010340 1.922600 -0.003990 
#    z -0.000610 -0.003990 1.923540 
# 
# From -- ./inp_files/187255.got.cif
#   From: 2010.06.25/outbox.cif.g09.slc.cpg/sg2_94_cif.got.tgz:187255.got - 2010.06.27 13:26:56.
