data_PCOD8034316
_publ_section_title
;
Structure prediction by ZEFSAII (Michael W. Deem and Ramdas Pophale) SiO2 
 PCOD8034316
Probable space group: P -1
;
_chemical_formula_sum "Si O2"
_cell_formula_units_Z 16
_cell_length_a 11.744134
_cell_length_b 8.599656
_cell_length_c 9.535892
_cell_angle_alpha 83.351857
_cell_angle_beta 99.599304
_cell_angle_gamma 46.065751
_cell_volume 646.482766
_symmetry_space_group_name_H-M "P -1"
_symmetry_group_IT_number 2
_symmetry_cell_setting 'triclinic'
loop_
_space_group_symop_operation_xyz
x,y,z
-x,-y,-z
loop_
_atom_site_type_symbol
_atom_site_label
_atom_site_fract_x
_atom_site_fract_y
_atom_site_fract_z
Si Si1 0.594042 0.772478 0.962390
Si Si2 0.564139 0.757417 0.442575
Si Si3 0.298233 0.556096 0.749919
Si Si4 0.838608 0.104472 0.866850
Si Si5 0.063793 0.050446 0.391660
Si Si6 0.780031 0.814058 0.826033
Si Si7 0.141542 0.301536 0.439276
Si Si8 0.486607 0.369711 0.267512
O O1 0.602689 0.618889 0.084563
O O2 0.766061 0.683823 0.946820
O O3 0.492712 0.805149 0.805385
O O4 0.500000 0.000000 0.000000
O O5 0.679167 0.548597 0.382334
O O6 0.675588 0.799916 0.498257
O O7 0.528897 0.674522 0.572368
O O8 0.397861 0.977474 0.307718
O O9 0.106381 0.717875 0.739830
O O10 0.348596 0.686891 0.718553
O O11 0.674027 0.367176 0.847847
O O12 0.827312 0.927385 0.905573
O O13 0.841656 0.130636 0.696182
O O14 0.000000 0.000000 0.000000
O O15 0.168929 0.086834 0.484004
O O16 0.000000 0.000000 0.500000
O O17 0.908871 0.633746 0.745196
O O18 0.000000 0.500000 0.500000
#
# Coordination Sequence:
#
# PCOD8034316 Si02
#       8
#     2   2   2   2   2   2   2   2
#     4  12  25  45  69 108 148 188 242 298 363 435
#     4  12  23  45  76 107 144 182 251 302 363 419
#     4  12  25  45  73 109 148 190 247 299 357 446
#     4  11  25  49  69 100 145 193 241 292 367 433
#     4  11  26  45  70 106 146 188 242 302 364 429
#     4  11  25  46  73 107 145 193 246 300 361 433
#     4  11  24  44  71 106 147 186 240 301 365 430
#     4  12  26  45  78 106 141 194 247 303 365 427
#
# _framework density 24.749305
#
# number of rings (size 3 to 8) (size 9 to 14) (size 15 to 20)
#    0.000    0.500    5.000    2.625    3.500    1.000 
#    4.500    1.875    0.000    0.000    0.000    0.000 
#    0.000    0.000    0.000    0.000    0.000    0.000 
#
# Total GULP energy -198213.792077 kJ/mol
# GULP energy per Si atom -12388.362005 kJ/mol
# Density = 2.469297 g / cm^3
# Si number density = 24.749305 Si / 1000 Ang^3
#
#
#
# Elastic Constant Matrix: (Units=GPa)
#
#
# Indices 1 2 3 4 5 6 
#
# 1 182.9385 10.6373 48.7996 7.2471 -7.2051 32.0435
# 2 10.6373 68.7663 19.0692 25.4768 8.5805 6.3069
# 3 48.7996 19.0692 85.7576 16.2971 -9.5630 22.6970
# 4 7.2471 25.4768 16.2971 47.3230 5.3183 5.8314
# 5 -7.2051 8.5805 -9.5630 5.3183 59.3048 0.6325
# 6 32.0435 6.3069 22.6970 5.8314 0.6325 38.1292
#
#
#
# Elastic Compliance Matrix: (Units=1/GPa)
#
#
# Indices 1 2 3 4 5 6 
#
# 1 0.006974 -0.000116 -0.002870 0.000456 0.000405 -0.004210
# 2 -0.000116 0.018933 -0.002700 -0.008975 -0.002384 -0.000014
# 3 -0.002870 -0.002700 0.016618 -0.003368 0.003094 -0.006570
# 4 0.000456 -0.008975 -0.003368 0.027366 -0.001632 -0.001052
# 5 0.000405 -0.002384 0.003094 -0.001632 0.017921 -0.001836
# 6 -0.004210 -0.000014 -0.006570 -0.001052 -0.001836 0.033869
#
#
# Mechanical properties :
#
#
# Convention : Reuss Voigt Hill
#
# Bulk Modulus (GPa) = 32.10066 54.94160 43.52113
# Shear Modulus (GPa) = 34.85829 46.21515 40.53672
#
# Velocity S-wave (km/s) = 3.75701 4.32595 4.05148
# Velocity P-wave (km/s) = 5.64080 6.87017 6.28561
#
# Compressibility (1/GPa) = 0.03115201
#
# Stress axis : x y z
#
# Youngs Moduli (GPa) = 143.39158 52.81871 60.17530
#
# Poissons Ratio (x) = 0.00615 0.17270
# Poissons Ratio (y) = 0.01670 0.16247
# Poissons Ratio (z) = 0.41152 0.14261
#
# Static dielectric constant tensor:
#      x y z
#    x 5.048920 0.096740 -0.364780 
#    y 0.096740 4.317160 0.984410 
#    z -0.364780 0.984410 4.104650 
# 
# 
# High freq. dielectric constant tensor:
#      x y z
#    x 2.010530 0.007300 -0.007080 
#    y 0.007300 1.977630 0.023150 
#    z -0.007080 0.023150 1.987480 
# 
# From -- ./inp_files/244116.got.cif
#   From: 2010.06.25/outbox.cif.g09.slc.cpg/sg2_123_cif.got.tgz:244116.got - 2010.06.27 13:26:56.
