data_PCOD8034808
_publ_section_title
;
Structure prediction by ZEFSAII (Michael W. Deem and Ramdas Pophale) SiO2 
 PCOD8034808
Probable space group: P -1
;
_chemical_formula_sum "Si O2"
_cell_formula_units_Z 14
_cell_length_a 24.788853
_cell_length_b 16.153427
_cell_length_c 15.791954
_cell_angle_alpha 28.532590
_cell_angle_beta 17.975556
_cell_angle_gamma 18.877782
_cell_volume 616.627471
_symmetry_space_group_name_H-M "P -1"
_symmetry_group_IT_number 2
_symmetry_cell_setting 'triclinic'
loop_
_space_group_symop_operation_xyz
x,y,z
-x,-y,-z
loop_
_atom_site_type_symbol
_atom_site_label
_atom_site_fract_x
_atom_site_fract_y
_atom_site_fract_z
Si Si1 0.119733 0.748158 0.403005
Si Si2 0.296240 0.762927 0.800911
Si Si3 0.386651 0.700097 0.386515
Si Si4 0.371942 0.068483 0.485495
Si Si5 0.374134 0.450419 0.121077
Si Si6 0.152833 0.576494 0.943931
Si Si7 0.088019 0.438954 0.827130
O O1 0.173845 0.622317 0.344097
O O2 0.156236 0.585000 0.570572
O O3 0.326046 0.748317 0.114317
O O4 0.816386 0.035754 0.602335
O O5 0.473857 0.543530 0.661969
O O6 0.404337 0.878172 0.547066
O O7 0.299954 0.641919 0.987863
O O8 0.000000 0.000000 0.000000
O O9 0.213020 0.729661 0.689817
O O10 0.608016 0.657255 0.139824
O O11 0.341284 0.275159 0.295987
O O12 0.647003 0.872786 0.302859
O O13 0.126156 0.217780 0.778518
O O14 0.140674 0.461701 0.983200
O O15 0.000000 0.500000 0.000000
#
# Coordination Sequence:
#
# PCOD8034808 Si02
#       7
#     2   2   2   2   2   2   2
#     4  11  25  47  72 108 148 192 250 304 369 437
#     4  12  26  48  74 107 150 191 245 303 366 431
#     4  11  26  45  73 104 151 194 244 306 367 438
#     4  12  24  48  75 105 147 197 246 296 369 435
#     4  11  26  46  77 108 145 197 247 305 363 443
#     4  11  24  46  71 105 143 199 238 299 373 435
#     4  12  26  45  75 110 147 191 248 309 363 440
#
# _framework density 22.704146000000001
#
# number of rings (size 3 to 8) (size 9 to 14) (size 15 to 20)
#    0.000    0.571    4.286    3.000    6.000    1.714 
#    0.000    0.000    0.000    0.000    0.000    0.000 
#    0.000    0.000    0.000    0.000    0.000    0.000 
#
# Total GULP energy -173608.311347 kJ/mol
# GULP energy per Si atom -12400.593668 kJ/mol
# Density = 2.265247 g / cm^3
# Si number density = 22.704146 Si / 1000 Ang^3
#
#
#
# Elastic Constant Matrix: (Units=GPa)
#
#
# Indices 1 2 3 4 5 6 
#
# 1 127.6077 58.3589 55.7715 3.8252 -10.3259 5.3066
# 2 58.3589 142.2313 63.3017 1.0501 -12.1051 -8.0321
# 3 55.7715 63.3017 117.7778 3.1328 -2.6709 3.0540
# 4 3.8252 1.0501 3.1328 48.3618 -0.2311 -7.3680
# 5 -10.3259 -12.1051 -2.6709 -0.2311 33.6523 -5.5935
# 6 5.3066 -8.0321 3.0540 -7.3680 -5.5935 33.3414
#
#
#
# Elastic Compliance Matrix: (Units=1/GPa)
#
#
# Indices 1 2 3 4 5 6 
#
# 1 0.010941 -0.002889 -0.003514 -0.000875 0.001697 -0.002024
# 2 -0.002889 0.010708 -0.004447 0.000942 0.003319 0.004212
# 3 -0.003514 -0.004447 0.012575 -0.000782 -0.002047 -0.002180
# 4 -0.000875 0.000942 -0.000782 0.021603 0.001052 0.005388
# 5 0.001697 0.003319 -0.002047 0.001052 0.032334 0.006374
# 6 -0.002024 0.004212 -0.002180 0.005388 0.006374 0.033789
#
#
# Mechanical properties :
#
#
# Convention : Reuss Voigt Hill
#
# Bulk Modulus (GPa) = 79.83242 82.49787 81.16514
# Shear Modulus (GPa) = 33.82362 37.08342 35.45352
#
# Velocity S-wave (km/s) = 3.86392 4.04584 3.95592
# Velocity P-wave (km/s) = 7.42596 7.63151 7.52944
#
# Compressibility (1/GPa) = 0.01252624
#
# Stress axis : x y z
#
# Youngs Moduli (GPa) = 91.39758 93.38456 79.52047
#
# Poissons Ratio (x) = 0.26976 0.27945
# Poissons Ratio (y) = 0.26402 0.35359
# Poissons Ratio (z) = 0.32119 0.41523
#
# Static dielectric constant tensor:
#      x y z
#    x 4.280660 -0.033400 -0.263180 
#    y -0.033400 4.092470 0.041390 
#    z -0.263180 0.041390 4.305170 
# 
# 
# High freq. dielectric constant tensor:
#      x y z
#    x 1.893480 -0.004610 -0.008200 
#    y -0.004610 1.891860 0.007430 
#    z -0.008200 0.007430 1.909870 
# 
# From -- ./inp_files/262875.got.cif
#   From: 2010.06.25/outbox.cif.g09.slc.cpg/sg2_132_cif.got.tgz:262875.got - 2010.06.27 13:26:56.
