data_PCOD8034373
_publ_section_title
;
Structure prediction by ZEFSAII (Michael W. Deem and Ramdas Pophale) SiO2 
 PCOD8034373
Probable space group: P -1
;
_chemical_formula_sum "Si O2"
_cell_formula_units_Z 16
_cell_length_a 19.139140
_cell_length_b 9.742884
_cell_length_c 17.800621
_cell_angle_alpha 38.262985
_cell_angle_beta 149.503943
_cell_angle_gamma 153.943755
_cell_volume 738.992717
_symmetry_space_group_name_H-M "P -1"
_symmetry_group_IT_number 2
_symmetry_cell_setting 'triclinic'
loop_
_space_group_symop_operation_xyz
x,y,z
-x,-y,-z
loop_
_atom_site_type_symbol
_atom_site_label
_atom_site_fract_x
_atom_site_fract_y
_atom_site_fract_z
Si Si1 0.549692 0.830954 0.081455
Si Si2 0.511112 0.248553 0.105479
Si Si3 0.736107 0.818576 0.661430
Si Si4 0.062266 0.820202 0.628092
Si Si5 0.918783 0.491238 0.351133
Si Si6 0.775414 0.816718 0.869368
Si Si7 0.294484 0.778429 0.362009
Si Si8 0.392457 0.716358 0.325957
O O1 0.355595 0.470824 0.071282
O O2 0.744861 0.953223 0.242092
O O3 0.599740 0.921498 0.001691
O O4 0.500000 0.000000 0.000000
O O5 0.727487 0.410920 0.224512
O O6 0.417822 0.990721 0.195685
O O7 0.500000 0.500000 0.000000
O O8 0.681572 0.704641 0.746488
O O9 0.597799 0.832718 0.482969
O O10 0.737432 0.586080 0.718438
O O11 0.944457 0.171706 0.706150
O O12 0.114294 0.768545 0.618095
O O13 0.880386 0.474114 0.636347
O O14 0.000000 0.000000 0.500000
O O15 0.000000 0.500000 0.500000
O O16 0.751197 0.029236 0.791287
O O17 0.000000 0.000000 0.000000
O O18 0.286909 0.614566 0.352242
O O19 0.500000 0.000000 0.500000
#
# Coordination Sequence:
#
# PCOD8034373 Si02
#       8
#     2   2   2   2   2   2   2   2
#     4  12  25  46  70 103 148 185 241 295 355 436
#     4  12  27  47  73 105 148 193 236 299 372 429
#     4  11  24  44  73 104 144 187 238 294 363 429
#     4  12  28  44  73 109 140 191 244 298 361 431
#     4  12  25  46  72 104 147 187 241 296 366 438
#     4  12  24  44  72 102 142 188 235 291 359 424
#     4  12  24  46  70 103 143 181 243 291 352 430
#     4  11  25  44  71 107 140 190 237 297 359 429
#
# _framework density 21.651091999999998
#
# number of rings (size 3 to 8) (size 9 to 14) (size 15 to 20)
#    0.000    0.250    5.000    3.750    3.500    0.000 
#    0.000    1.875    0.000    0.000    0.000    0.000 
#    0.000    0.000    0.000    0.000    0.000    0.000 
#
# Total GULP energy -198324.614581 kJ/mol
# GULP energy per Si atom -12395.288411 kJ/mol
# Density = 2.160181 g / cm^3
# Si number density = 21.651092 Si / 1000 Ang^3
#
#
#
# Elastic Constant Matrix: (Units=GPa)
#
#
# Indices 1 2 3 4 5 6 
#
# 1 115.2354 15.8433 41.1935 -0.0536 1.5524 -24.1639
# 2 15.8433 85.9231 39.7718 -3.3179 11.2960 -4.0809
# 3 41.1935 39.7718 139.1702 -0.3517 15.3308 -10.9421
# 4 -0.0536 -3.3179 -0.3517 48.1225 -3.9368 6.9997
# 5 1.5524 11.2960 15.3308 -3.9368 48.7239 -2.6791
# 6 -24.1639 -4.0809 -10.9421 6.9997 -2.6791 45.8300
#
#
#
# Elastic Compliance Matrix: (Units=1/GPa)
#
#
# Indices 1 2 3 4 5 6 
#
# 1 0.010803 -0.000637 -0.002709 -0.000729 0.000880 0.005155
# 2 -0.000637 0.013663 -0.003510 0.000781 -0.001990 -0.000193
# 3 -0.002709 -0.003510 0.009244 -0.000402 -0.002018 0.000410
# 4 -0.000729 0.000781 -0.000402 0.021478 0.001506 -0.003603
# 5 0.000880 -0.001990 -0.002018 0.001506 0.021761 0.000847
# 6 0.005155 -0.000193 0.000410 -0.003603 0.000847 0.025218
#
#
# Mechanical properties :
#
#
# Convention : Reuss Voigt Hill
#
# Bulk Modulus (GPa) = 50.00586 59.32732 54.66659
# Shear Modulus (GPa) = 40.80161 44.76994 42.78578
#
# Velocity S-wave (km/s) = 4.34580 4.55223 4.45021
# Velocity P-wave (km/s) = 6.95181 7.42236 7.19094
#
# Compressibility (1/GPa) = 0.01999765
#
# Stress axis : x y z
#
# Youngs Moduli (GPa) = 92.57007 73.18961 108.17940
#
# Poissons Ratio (x) = 0.04663 0.29305
# Poissons Ratio (y) = 0.05897 0.37971
# Poissons Ratio (z) = 0.25077 0.25690
#
# Static dielectric constant tensor:
#      x y z
#    x 4.438060 -0.133190 0.193320 
#    y -0.133190 3.992110 -0.187170 
#    z 0.193320 -0.187170 3.724470 
# 
# 
# High freq. dielectric constant tensor:
#      x y z
#    x 1.864530 -0.007000 0.001200 
#    y -0.007000 1.854040 -0.005930 
#    z 0.001200 -0.005930 1.863700 
# 
# From -- ./inp_files/209193.got.cif
#   From: 2010.06.25/outbox.cif.g09.slc.cpg/sg2_105_cif.got.tgz:209193.got - 2010.06.27 13:26:56.
