data_PCOD8034128
_publ_section_title
;
Structure prediction by ZEFSAII (Michael W. Deem and Ramdas Pophale) SiO2 
 PCOD8034128
Probable space group: P -1
;
_chemical_formula_sum "Si O2"
_cell_formula_units_Z 16
_cell_length_a 13.996527
_cell_length_b 8.987779
_cell_length_c 20.920952
_cell_angle_alpha 128.880827
_cell_angle_beta 23.472254
_cell_angle_gamma 135.341640
_cell_volume 733.915462
_symmetry_space_group_name_H-M "P -1"
_symmetry_group_IT_number 2
_symmetry_cell_setting 'triclinic'
loop_
_space_group_symop_operation_xyz
x,y,z
-x,-y,-z
loop_
_atom_site_type_symbol
_atom_site_label
_atom_site_fract_x
_atom_site_fract_y
_atom_site_fract_z
Si Si1 0.812277 0.611256 0.349052
Si Si2 0.654344 0.784891 0.176560
Si Si3 0.725893 0.094425 0.938679
Si Si4 0.868218 0.444990 0.633889
Si Si5 0.838038 0.757044 0.514988
Si Si6 0.916854 0.209169 0.181680
Si Si7 0.243474 0.296127 0.127801
Si Si8 0.702522 0.430391 0.135882
O O1 0.500000 0.500000 0.500000
O O2 0.883946 0.723041 0.403789
O O3 0.898400 0.424071 0.236052
O O4 0.977344 0.790345 0.243444
O O5 0.426483 0.727940 0.247728
O O6 0.643437 0.615794 0.191195
O O7 0.654483 0.986532 0.270596
O O8 0.899547 0.825180 0.992121
O O9 0.694090 0.903461 0.953323
O O10 0.652707 0.256970 0.066075
O O11 0.500000 0.000000 0.000000
O O12 0.855409 0.647765 0.729861
O O13 0.000000 0.500000 0.500000
O O14 0.036179 0.368469 0.555487
O O15 0.521123 0.672420 0.699346
O O16 0.000000 0.000000 0.500000
O O17 0.006435 0.219297 0.202059
O O18 0.500000 0.500000 0.000000
O O19 0.000000 0.500000 0.000000
#
# Coordination Sequence:
#
# PCOD8034128 Si02
#       8
#     2   2   2   2   2   2   2   2
#     4  12  27  49  70 108 148 188 237 300 365 429
#     4  11  24  43  74 103 140 189 237 294 361 421
#     4  12  26  45  75 101 140 187 238 292 353 427
#     4  12  26  46  70 103 147 184 240 297 362 430
#     4  12  29  45  74 107 146 189 236 303 366 424
#     4  11  24  45  71 105 139 186 239 293 358 429
#     4  12  25  46  73 105 139 187 245 296 354 430
#     4  12  25  47  71 105 142 187 241 290 357 432
#
# _framework density 21.800875000000001
#
# number of rings (size 3 to 8) (size 9 to 14) (size 15 to 20)
#    0.000    0.250    5.000    3.750    5.250    1.000 
#    0.000    1.875    0.000    0.000    0.000    0.000 
#    0.000    0.000    0.000    0.000    0.000    0.000 
#
# Total GULP energy -198337.838874 kJ/mol
# GULP energy per Si atom -12396.114930 kJ/mol
# Density = 2.175126 g / cm^3
# Si number density = 21.800875 Si / 1000 Ang^3
#
#
#
# Elastic Constant Matrix: (Units=GPa)
#
#
# Indices 1 2 3 4 5 6 
#
# 1 94.5576 38.7917 15.7329 0.0243 -3.8401 11.4399
# 2 38.7917 126.5949 33.6551 -1.6972 8.0335 23.5515
# 3 15.7329 33.6551 93.8409 -1.5939 5.8832 4.9505
# 4 0.0243 -1.6972 -1.5939 27.2852 8.6618 12.6245
# 5 -3.8401 8.0335 5.8832 8.6618 48.2821 0.1591
# 6 11.4399 23.5515 4.9505 12.6245 0.1591 43.2066
#
#
#
# Elastic Compliance Matrix: (Units=1/GPa)
#
#
# Indices 1 2 3 4 5 6 
#
# 1 0.012349 -0.003431 -0.000886 -0.000249 0.001710 -0.001231
# 2 -0.003431 0.011024 -0.002841 0.004061 -0.002470 -0.005953
# 3 -0.000886 -0.002841 0.011903 0.000812 -0.001195 0.000186
# 4 -0.000249 0.004061 0.000812 0.047294 -0.009226 -0.016026
# 5 0.001710 -0.002470 -0.001195 -0.009226 0.023047 0.003642
# 6 -0.001231 -0.005953 0.000186 -0.016026 0.003642 0.031363
#
#
# Mechanical properties :
#
#
# Convention : Reuss Voigt Hill
#
# Bulk Modulus (GPa) = 47.71043 54.59476 51.15259
# Shear Modulus (GPa) = 31.58879 38.87569 35.23224
#
# Velocity S-wave (km/s) = 3.81066 4.22740 4.02443
# Velocity P-wave (km/s) = 6.42602 6.99462 6.71634
#
# Compressibility (1/GPa) = 0.02095978
#
# Stress axis : x y z
#
# Youngs Moduli (GPa) = 80.97728 90.70718 84.01548
#
# Poissons Ratio (x) = 0.31124 0.07446
# Poissons Ratio (y) = 0.27785 0.23866
# Poissons Ratio (z) = 0.07177 0.25767
#
# Static dielectric constant tensor:
#      x y z
#    x 3.839180 0.289790 0.132140 
#    y 0.289790 4.412480 -0.114770 
#    z 0.132140 -0.114770 4.157060 
# 
# 
# High freq. dielectric constant tensor:
#      x y z
#    x 1.869880 0.013110 0.003300 
#    y 0.013110 1.874310 0.004230 
#    z 0.003300 0.004230 1.861330 
# 
# From -- ./inp_files/403336.got.cif
#   From: 2010.06.25/outbox.cif.g09.slc.cpg/sg2_202_cif.got.tgz:403336.got - 2010.06.27 13:26:56.
