data_PCOD8034157
_publ_section_title
;
Structure prediction by ZEFSAII (Michael W. Deem and Ramdas Pophale) SiO2 
 PCOD8034157
Probable space group: P -1
;
_chemical_formula_sum "Si O2"
_cell_formula_units_Z 16
_cell_length_a 24.735084
_cell_length_b 5.737228
_cell_length_c 23.888391
_cell_angle_alpha 99.650548
_cell_angle_beta 168.125631
_cell_angle_gamma 78.127662
_cell_volume 673.008421
_symmetry_space_group_name_H-M "P -1"
_symmetry_group_IT_number 2
_symmetry_cell_setting 'triclinic'
loop_
_space_group_symop_operation_xyz
x,y,z
-x,-y,-z
loop_
_atom_site_type_symbol
_atom_site_label
_atom_site_fract_x
_atom_site_fract_y
_atom_site_fract_z
Si Si1 0.749782 0.048678 0.146366
Si Si2 0.996496 0.840748 0.760691
Si Si3 0.979203 0.387086 0.808126
Si Si4 0.511263 0.565614 0.609458
Si Si5 0.714001 0.222600 0.342240
Si Si6 0.470809 0.304470 0.775027
Si Si7 0.289378 0.841909 0.289165
Si Si8 0.211937 0.649053 0.701320
O O1 0.820644 0.109056 0.284066
O O2 0.570304 0.267820 0.938749
O O3 0.022410 0.978172 0.382193
O O4 0.570508 0.846688 0.959582
O O5 0.749367 0.855489 0.467596
O O6 0.981514 0.615626 0.778417
O O7 0.957903 0.117859 0.754186
O O8 0.289215 0.761185 0.027785
O O9 0.709256 0.494563 0.573674
O O10 0.259893 0.323592 0.123654
O O11 0.332371 0.734905 0.390058
O O12 0.683174 0.340346 0.741764
O O13 0.673722 0.413792 0.360150
O O14 0.828276 0.306496 0.403186
O O15 0.500000 0.000000 0.500000
O O16 0.000000 0.000000 0.000000
O O17 0.000000 0.500000 0.500000
O O18 0.500000 0.500000 0.000000
#
# Coordination Sequence:
#
# PCOD8034157 Si02
#       8
#     2   2   2   2   2   2   2   2
#     4  12  26  45  74 100 139 185 231 295 370 457
#     4  12  30  50  78 108 148 198 258 326 370 438
#     4  12  28  51  78 108 152 201 260 312 374 436
#     4  11  26  46  76 114 150 206 250 305 374 440
#     4  12  26  45  74 100 139 185 231 295 370 457
#     4  12  28  49  74 104 142 183 246 314 378 436
#     4  11  24  43  76 113 161 196 248 305 364 451
#     4  12  24  44  68 103 143 178 230 285 368 453
#
# _framework density 23.773848000000001
#
# number of rings (size 3 to 8) (size 9 to 14) (size 15 to 20)
#    0.000    0.250    1.250    6.750   12.250    2.000 
#    0.000    0.000    0.000    0.000    0.000    0.000 
#    0.000    0.000    0.000    0.000    0.000    0.000 
#
# Total GULP energy -198269.735622 kJ/mol
# GULP energy per Si atom -12391.858476 kJ/mol
# Density = 2.371974 g / cm^3
# Si number density = 23.773848 Si / 1000 Ang^3
#
#
#
# Elastic Constant Matrix: (Units=GPa)
#
#
# Indices 1 2 3 4 5 6 
#
# 1 77.6352 52.5828 39.3038 2.0163 24.0094 -29.3519
# 2 52.5828 164.4187 54.4846 5.3786 34.2621 -56.6928
# 3 39.3038 54.4846 187.1251 3.6398 21.7076 -31.5974
# 4 2.0163 5.3786 3.6398 53.7321 -4.4140 3.9789
# 5 24.0094 34.2621 21.7076 -4.4140 71.2232 -35.4157
# 6 -29.3519 -56.6928 -31.5974 3.9789 -35.4157 87.8874
#
#
#
# Elastic Compliance Matrix: (Units=1/GPa)
#
#
# Indices 1 2 3 4 5 6 
#
# 1 0.018083 -0.003936 -0.002038 -0.000499 -0.002782 0.001669
# 2 -0.003936 0.009294 -0.001082 -0.001078 -0.000904 0.003976
# 3 -0.002038 -0.001082 0.006260 -0.000323 -0.000350 0.000746
# 4 -0.000499 -0.001078 -0.000323 0.018964 0.001310 -0.001309
# 5 -0.002782 -0.000904 -0.000350 0.001310 0.018455 0.005739
# 6 0.001669 0.003976 0.000746 -0.001309 0.005739 0.017141
#
#
# Mechanical properties :
#
#
# Convention : Reuss Voigt Hill
#
# Bulk Modulus (GPa) = 51.21795 80.21348 65.71571
# Shear Modulus (GPa) = 45.94894 61.42240 53.68567
#
# Velocity S-wave (km/s) = 4.40108 5.08844 4.75719
# Velocity P-wave (km/s) = 6.88597 8.26658 7.60766
#
# Compressibility (1/GPa) = 0.01952441
#
# Stress axis : x y z
#
# Youngs Moduli (GPa) = 55.30129 107.59470 159.74772
#
# Poissons Ratio (x) = 0.42353 0.32553
# Poissons Ratio (y) = 0.21768 0.17287
# Poissons Ratio (z) = 0.11269 0.11643
#
# Static dielectric constant tensor:
#      x y z
#    x 4.452990 -0.094970 -0.103490 
#    y -0.094970 4.403550 -0.025520 
#    z -0.103490 -0.025520 4.661020 
# 
# 
# High freq. dielectric constant tensor:
#      x y z
#    x 1.949930 -0.001450 0.003000 
#    y -0.001450 1.948190 -0.005100 
#    z 0.003000 -0.005100 1.976140 
# 
# From -- ./inp_files/621084.got.cif
#   From: 2010.06.25/outbox.cif.g09.slc.cpg/sg2_311_cif.got.tgz:621084.got - 2010.06.27 13:26:56.
