data_PCOD8034175
_publ_section_title
;
Structure prediction by ZEFSAII (Michael W. Deem and Ramdas Pophale) SiO2 
 PCOD8034175
Probable space group: P -1
;
_chemical_formula_sum "Si O2"
_cell_formula_units_Z 16
_cell_length_a 6.593003
_cell_length_b 21.714979
_cell_length_c 11.606922
_cell_angle_alpha 28.769565
_cell_angle_beta 60.748754
_cell_angle_gamma 66.789344
_cell_volume 695.467673
_symmetry_space_group_name_H-M "P -1"
_symmetry_group_IT_number 2
_symmetry_cell_setting 'triclinic'
loop_
_space_group_symop_operation_xyz
x,y,z
-x,-y,-z
loop_
_atom_site_type_symbol
_atom_site_label
_atom_site_fract_x
_atom_site_fract_y
_atom_site_fract_z
Si Si1 0.418391 0.706244 0.232267
Si Si2 0.017195 0.209088 0.669538
Si Si3 0.089537 0.869891 0.562686
Si Si4 0.224020 0.001509 0.081949
Si Si5 0.087955 0.407392 0.967728
Si Si6 0.373386 0.044168 0.351348
Si Si7 0.781786 0.529369 0.435372
Si Si8 0.286887 0.421411 0.124353
O O1 0.180159 0.698264 0.385802
O O2 0.635445 0.644459 0.340712
O O3 0.375207 0.606724 0.300249
O O4 0.468180 0.853056 0.937139
O O5 0.882959 0.101178 0.808605
O O6 0.234573 0.279031 0.424488
O O7 0.143154 0.142837 0.848859
O O8 0.118435 0.969403 0.288011
O O9 0.084715 0.723705 0.761620
O O10 0.850420 0.882878 0.674691
O O11 0.306654 0.912009 0.517341
O O12 0.500000 0.000000 0.000000
O O13 0.304005 0.408015 0.000854
O O14 0.945252 0.517872 0.874038
O O15 0.158071 0.429018 0.780911
O O16 0.500000 0.000000 0.500000
O O17 0.000000 0.500000 0.500000
O O18 0.500000 0.500000 0.000000
#
# Coordination Sequence:
#
# PCOD8034175 Si02
#       8
#     2   2   2   2   2   2   2   2
#     4  11  24  46  67 104 142 180 241 298 352 437
#     4  11  24  46  68 105 139 178 241 290 356 439
#     4  11  24  44  66 100 139 175 235 287 338 427
#     4  11  25  43  72 100 140 187 228 294 361 421
#     4  11  24  49  69 105 140 175 249 293 351 445
#     4  11  25  42  70  98 137 188 225 286 357 417
#     4  11  26  45  74 103 142 194 233 298 363 420
#     4  11  26  45  76 101 140 191 230 303 366 423
#
# _framework density 23.006104000000001
#
# number of rings (size 3 to 8) (size 9 to 14) (size 15 to 20)
#    0.000    1.000    3.750    1.500    3.500    6.000 
#    2.250    0.000    0.000    0.000    0.000    0.000 
#    0.000    0.000    0.000    0.000    0.000    0.000 
#
# Total GULP energy -198254.832749 kJ/mol
# GULP energy per Si atom -12390.927047 kJ/mol
# Density = 2.295374 g / cm^3
# Si number density = 23.006104 Si / 1000 Ang^3
#
#
#
# Elastic Constant Matrix: (Units=GPa)
#
#
# Indices 1 2 3 4 5 6 
#
# 1 157.6684 31.8922 64.5619 -2.1984 8.7326 15.0433
# 2 31.8922 62.9113 17.6659 3.4168 9.1229 3.2381
# 3 64.5619 17.6659 120.3588 1.7164 -4.6065 16.7624
# 4 -2.1984 3.4168 1.7164 41.8090 6.1299 -3.5415
# 5 8.7326 9.1229 -4.6065 6.1299 37.3290 -1.4222
# 6 15.0433 3.2381 16.7624 -3.5415 -1.4222 40.9979
#
#
#
# Elastic Compliance Matrix: (Units=1/GPa)
#
#
# Indices 1 2 3 4 5 6 
#
# 1 0.008962 -0.003028 -0.004282 0.001096 -0.002114 -0.001277
# 2 -0.003028 0.018371 -0.001190 -0.001068 -0.003756 -0.000076
# 3 -0.004282 -0.001190 0.011318 -0.001252 0.002782 -0.002974
# 4 0.001096 -0.001068 -0.001252 0.024911 -0.004157 0.002202
# 5 -0.002114 -0.003756 0.002782 -0.004157 0.029250 0.000591
# 6 -0.001277 -0.000076 -0.002974 0.002202 0.000591 0.026293
#
#
# Mechanical properties :
#
#
# Convention : Reuss Voigt Hill
#
# Bulk Modulus (GPa) = 46.18503 63.24208 54.71355
# Shear Modulus (GPa) = 34.88630 39.14842 37.01736
#
# Velocity S-wave (km/s) = 3.89831 4.12959 4.01562
# Velocity P-wave (km/s) = 6.35462 7.09133 6.73306
#
# Compressibility (1/GPa) = 0.02165204
#
# Stress axis : x y z
#
# Youngs Moduli (GPa) = 111.57610 54.43281 88.35126
#
# Poissons Ratio (x) = 0.16484 0.37829
# Poissons Ratio (y) = 0.33790 0.10514
# Poissons Ratio (z) = 0.47774 0.06477
#
# Static dielectric constant tensor:
#      x y z
#    x 4.446870 0.029890 0.149040 
#    y 0.029890 4.140390 -0.104740 
#    z 0.149040 -0.104740 4.454240 
# 
# 
# High freq. dielectric constant tensor:
#      x y z
#    x 1.907700 0.003190 -0.003280 
#    y 0.003190 1.905440 -0.008540 
#    z -0.003280 -0.008540 1.925120 
# 
# From -- ./inp_files/370956.got.cif
#   From: 2010.06.25/outbox.cif.g09.slc.cpg/sg2_186_cif.got.tgz:370956.got - 2010.06.27 13:26:56.
