data_PCOD8034083
_publ_section_title
;
Structure prediction by ZEFSAII (Michael W. Deem and Ramdas Pophale) SiO2 
 PCOD8034083
Probable space group: P -1
;
_chemical_formula_sum "Si O2"
_cell_formula_units_Z 16
_cell_length_a 9.346865
_cell_length_b 14.007700
_cell_length_c 10.323882
_cell_angle_alpha 71.351752
_cell_angle_beta 136.227151
_cell_angle_gamma 81.891696
_cell_volume 729.557345
_symmetry_space_group_name_H-M "P -1"
_symmetry_group_IT_number 2
_symmetry_cell_setting 'triclinic'
loop_
_space_group_symop_operation_xyz
x,y,z
-x,-y,-z
loop_
_atom_site_type_symbol
_atom_site_label
_atom_site_fract_x
_atom_site_fract_y
_atom_site_fract_z
Si Si1 0.330032 0.496735 0.662711
Si Si2 0.434889 0.076599 0.796477
Si Si3 0.910726 0.637258 0.517847
Si Si4 0.016251 0.046559 0.854031
Si Si5 0.848165 0.289319 0.028931
Si Si6 0.166389 0.378893 0.240113
Si Si7 0.720494 0.307123 0.638472
Si Si8 0.096253 0.038818 0.426017
O O1 0.248012 0.402501 0.645138
O O2 0.632193 0.412125 0.911097
O O3 0.270196 0.581605 0.459143
O O4 0.183057 0.582648 0.653415
O O5 0.227766 0.217645 0.630045
O O6 0.344153 0.027981 0.642480
O O7 0.500000 0.000000 0.000000
O O8 0.693500 0.055254 0.937006
O O9 0.936127 0.582541 0.698848
O O10 0.935544 0.185367 0.756081
O O11 0.848511 0.045522 0.627825
O O12 0.000000 0.000000 0.000000
O O13 0.761100 0.293991 0.823883
O O14 0.108232 0.280542 0.198762
O O15 0.886421 0.176400 0.182547
O O16 0.457311 0.323378 0.434348
O O17 0.000000 0.500000 0.000000
O O18 0.000000 0.000000 0.500000
#
# Coordination Sequence:
#
# PCOD8034083 Si02
#       8
#     2   2   2   2   2   2   2   2
#     4  11  24  43  72 104 140 188 236 288 362 428
#     4  12  25  48  75 101 147 190 239 303 363 419
#     4  11  24  45  70 103 142 186 238 293 356 430
#     4  12  26  46  75 106 142 188 239 301 359 420
#     4  12  24  45  75 101 147 190 233 301 356 431
#     4  12  24  44  71 102 141 191 233 285 363 428
#     4  12  25  47  73 106 148 183 239 298 363 425
#     4  12  27  47  75 107 141 195 248 290 365 434
#
# _framework density 21.931106
#
# number of rings (size 3 to 8) (size 9 to 14) (size 15 to 20)
#    0.000    0.250    6.250    3.375    0.000    2.000 
#    2.250    0.000    0.000    0.000    0.000    0.000 
#    0.000    0.000    0.000    0.000    0.000    0.000 
#
# Total GULP energy -198316.488930 kJ/mol
# GULP energy per Si atom -12394.780558 kJ/mol
# Density = 2.188119 g / cm^3
# Si number density = 21.931106 Si / 1000 Ang^3
#
#
#
# Elastic Constant Matrix: (Units=GPa)
#
#
# Indices 1 2 3 4 5 6 
#
# 1 110.8894 37.8689 38.3023 -6.3710 -12.5544 -7.8860
# 2 37.8689 100.1705 22.7571 4.3238 6.7121 -4.1143
# 3 38.3023 22.7571 73.4813 6.4497 -11.9469 -9.3523
# 4 -6.3710 4.3238 6.4497 37.9446 9.8425 -0.2875
# 5 -12.5544 6.7121 -11.9469 9.8425 47.7137 -2.2936
# 6 -7.8860 -4.1143 -9.3523 -0.2875 -2.2936 39.1963
#
#
#
# Elastic Compliance Matrix: (Units=1/GPa)
#
#
# Indices 1 2 3 4 5 6 
#
# 1 0.012567 -0.003792 -0.005177 0.002913 0.001993 0.001033
# 2 -0.003792 0.012163 -0.002250 -0.000835 -0.003110 -0.000211
# 3 -0.005177 -0.002250 0.018664 -0.005011 0.004826 0.003421
# 4 0.002913 -0.000835 -0.005011 0.029467 -0.006491 -0.000861
# 5 0.001993 -0.003110 0.004826 -0.006491 0.024593 0.002617
# 6 0.001033 -0.000211 0.003421 -0.000861 0.002617 0.026661
#
#
# Mechanical properties :
#
#
# Convention : Reuss Voigt Hill
#
# Bulk Modulus (GPa) = 47.71381 53.59975 50.65678
# Shear Modulus (GPa) = 32.56501 37.34511 34.95506
#
# Velocity S-wave (km/s) = 3.85759 4.13102 3.99665
# Velocity P-wave (km/s) = 6.45328 6.87364 6.66677
#
# Compressibility (1/GPa) = 0.02095829
#
# Stress axis : x y z
#
# Youngs Moduli (GPa) = 79.57067 82.21449 53.57957
#
# Poissons Ratio (x) = 0.31174 0.27736
# Poissons Ratio (y) = 0.30172 0.12053
# Poissons Ratio (z) = 0.41191 0.18495
#
# Static dielectric constant tensor:
#      x y z
#    x 3.023650 1.732460 -0.877810 
#    y 1.732460 1.816300 1.384300 
#    z -0.877810 1.384300 3.451690 
# 
# 
# High freq. dielectric constant tensor:
#      x y z
#    x 1.868490 0.010290 -0.010850 
#    y 0.010290 1.868080 -0.002150 
#    z -0.010850 -0.002150 1.870090 
# 
# From -- ./inp_files/206539.got.cif
#   From: 2010.06.25/outbox.cif.g09.slc.cpg/sg2_104_cif.got.tgz:206539.got - 2010.06.27 13:26:56.
