data_PCOD8034982
_publ_section_title
;
Structure prediction by ZEFSAII (Michael W. Deem and Ramdas Pophale) SiO2 
 PCOD8034982
Probable space group: P -1
;
_chemical_formula_sum "Si O2"
_cell_formula_units_Z 16
_cell_length_a 23.648639
_cell_length_b 9.275135
_cell_length_c 8.479526
_cell_angle_alpha 82.242474
_cell_angle_beta 126.321133
_cell_angle_gamma 140.589645
_cell_volume 738.259716
_symmetry_space_group_name_H-M "P -1"
_symmetry_group_IT_number 2
_symmetry_cell_setting 'triclinic'
loop_
_space_group_symop_operation_xyz
x,y,z
-x,-y,-z
loop_
_atom_site_type_symbol
_atom_site_label
_atom_site_fract_x
_atom_site_fract_y
_atom_site_fract_z
Si Si1 0.770464 0.737107 0.452082
Si Si2 0.227672 0.675245 0.192506
Si Si3 0.764152 0.650348 0.800325
Si Si4 0.176906 0.673983 0.462269
Si Si5 0.507918 0.349324 0.586848
Si Si6 0.960931 0.848009 0.614418
Si Si7 0.974286 0.352270 0.632175
Si Si8 0.487678 0.321497 0.926018
O O1 0.784066 0.780618 0.655774
O O2 0.834660 0.698373 0.519416
O O3 0.853812 0.013260 0.452753
O O4 0.604821 0.430944 0.183995
O O5 0.262253 0.567209 0.245468
O O6 0.171998 0.607068 0.285921
O O7 0.368993 0.019076 0.344239
O O8 0.115133 0.524627 0.897995
O O9 0.638509 0.494527 0.714339
O O10 0.905739 0.926576 0.088268
O O11 0.098918 0.418892 0.486275
O O12 0.087291 0.660567 0.325646
O O13 0.332654 0.977230 0.746454
O O14 0.500000 0.500000 0.500000
O O15 0.522543 0.384592 0.791647
O O16 0.000000 0.000000 0.500000
O O17 0.000000 0.500000 0.500000
O O18 0.500000 0.500000 0.000000
#
# Coordination Sequence:
#
# PCOD8034982 Si02
#       8
#     2   2   2   2   2   2   2   2
#     4  12  24  45  73  99 140 187 229 283 357 414
#     4  11  25  48  70 101 143 186 231 283 353 421
#     4  12  25  48  72 100 144 186 228 289 352 424
#     4  11  25  45  71 103 137 184 236 281 348 415
#     4  11  27  44  73 106 136 185 236 289 347 415
#     4  12  25  45  70 104 139 179 236 289 346 414
#     4  12  26  42  72 105 138 183 235 291 345 410
#     4  11  24  47  70 100 142 180 231 288 347 412
#
# _framework density 21.672588999999999
#
# number of rings (size 3 to 8) (size 9 to 14) (size 15 to 20)
#    0.000    0.500    3.750    4.125    5.250    1.500 
#    2.250    0.000    0.000    0.000    0.000    0.000 
#    0.000    0.000    0.000    0.000    0.000    0.000 
#
# Total GULP energy -198434.143498 kJ/mol
# GULP energy per Si atom -12402.133969 kJ/mol
# Density = 2.162326 g / cm^3
# Si number density = 21.672589 Si / 1000 Ang^3
#
#
#
# Elastic Constant Matrix: (Units=GPa)
#
#
# Indices 1 2 3 4 5 6 
#
# 1 122.9832 18.2083 42.1143 6.5182 18.3499 -12.2885
# 2 18.2083 113.2336 47.7635 1.0942 -3.4969 -19.3889
# 3 42.1143 47.7635 139.3744 -2.5714 5.7291 -3.3684
# 4 6.5182 1.0942 -2.5714 31.2776 -1.3150 -7.6428
# 5 18.3499 -3.4969 5.7291 -1.3150 39.1969 -2.8423
# 6 -12.2885 -19.3889 -3.3684 -7.6428 -2.8423 30.2163
#
#
#
# Elastic Compliance Matrix: (Units=1/GPa)
#
#
# Indices 1 2 3 4 5 6 
#
# 1 0.010118 -0.000043 -0.002834 -0.001801 -0.004175 0.002923
# 2 -0.000043 0.011875 -0.003940 0.001243 0.002255 0.007689
# 3 -0.002834 -0.003940 0.009360 0.000872 -0.000543 -0.002468
# 4 -0.001801 0.001243 0.000872 0.034735 0.002659 0.009198
# 5 -0.004175 0.002255 -0.000543 0.002659 0.028054 0.003000
# 6 0.002923 0.007689 -0.002468 0.009198 0.003000 0.041551
#
#
# Mechanical properties :
#
#
# Convention : Reuss Voigt Hill
#
# Bulk Modulus (GPa) = 56.43490 65.75148 61.09319
# Shear Modulus (GPa) = 32.20953 37.97184 35.09069
#
# Velocity S-wave (km/s) = 3.85929 4.19031 4.02820
# Velocity P-wave (km/s) = 6.77902 7.33594 7.06297
#
# Compressibility (1/GPa) = 0.01771953
#
# Stress axis : x y z
#
# Youngs Moduli (GPa) = 98.82967 84.21374 106.83404
#
# Poissons Ratio (x) = 0.00360 0.30274
# Poissons Ratio (y) = 0.00422 0.42097
# Poissons Ratio (z) = 0.28006 0.33184
#
# Static dielectric constant tensor:
#      x y z
#    x 4.226850 0.034680 0.171120 
#    y 0.034680 4.123660 0.039360 
#    z 0.171120 0.039360 3.881720 
# 
# 
# High freq. dielectric constant tensor:
#      x y z
#    x 1.872780 -0.002490 0.005610 
#    y -0.002490 1.859410 0.003960 
#    z 0.005610 0.003960 1.859600 
# 
# From -- ./inp_files/244984.got.cif
#   From: 2010.06.25/outbox.cif.g09.slc.cpg/sg2_123_cif.got.tgz:244984.got - 2010.06.27 13:26:56.
