data_PCOD8034167
_publ_section_title
;
Structure prediction by ZEFSAII (Michael W. Deem and Ramdas Pophale) SiO2 
 PCOD8034167
Probable space group: P -1
;
_chemical_formula_sum "Si O2"
_cell_formula_units_Z 16
_cell_length_a 7.962317
_cell_length_b 13.733556
_cell_length_c 11.068591
_cell_angle_alpha 134.107339
_cell_angle_beta 62.299265
_cell_angle_gamma 93.378018
_cell_volume 699.652200
_symmetry_space_group_name_H-M "P -1"
_symmetry_group_IT_number 2
_symmetry_cell_setting 'triclinic'
loop_
_space_group_symop_operation_xyz
x,y,z
-x,-y,-z
loop_
_atom_site_type_symbol
_atom_site_label
_atom_site_fract_x
_atom_site_fract_y
_atom_site_fract_z
Si Si1 0.117659 0.522081 0.146170
Si Si2 0.936556 0.216139 0.212735
Si Si3 0.706794 0.289996 0.591943
Si Si4 0.248451 0.509881 0.639195
Si Si5 0.568048 0.931041 0.091636
Si Si6 0.500673 0.232957 0.822197
Si Si7 0.575811 0.194135 0.190596
Si Si8 0.672195 0.422382 0.086753
O O1 0.199158 0.618162 0.283525
O O2 0.888003 0.559298 0.302309
O O3 0.267237 0.346922 0.962172
O O4 0.126752 0.574767 0.049964
O O5 0.864744 0.195998 0.354250
O O6 0.865974 0.391253 0.353246
O O7 0.821937 0.145190 0.097403
O O8 0.182929 0.139673 0.061980
O O9 0.649023 0.183056 0.610815
O O10 0.495698 0.406692 0.703875
O O11 0.459252 0.372367 0.407251
O O12 0.281280 0.620672 0.824296
O O13 0.503761 0.911199 0.233178
O O14 0.485368 0.104887 0.235122
O O15 0.465980 0.847940 0.966172
O O16 0.590680 0.312986 0.956870
#
# Coordination Sequence:
#
# PCOD8034167 Si02
#       8
#     2   2   2   2   2   2   2   2
#     4   9  18  32  56  90 117 153 190 241 301 348
#     4  12  23  39  65  92 119 152 202 252 295 347
#     4   9  19  34  57  88 120 150 189 253 295 340
#     4  12  21  34  60  94 119 148 201 254 293 343
#     4  11  24  44  63  82 122 165 200 237 294 370
#     4   9  18  38  60  84 115 159 197 232 299 357
#     4  11  26  40  59  90 123 158 194 250 303 343
#     4   9  18  33  56  87 125 147 187 254 298 340
#
# _framework density 22.868507999999999
#
# number of rings (size 3 to 8) (size 9 to 14) (size 15 to 20)
#    0.000    1.750    2.500    4.125    3.500    1.000 
#    0.000    0.625    0.000   13.500    0.000    0.000 
#    0.000    0.000    0.000    0.000    0.000    0.000 
#
# Total GULP energy -198283.268093 kJ/mol
# GULP energy per Si atom -12392.704256 kJ/mol
# Density = 2.281646 g / cm^3
# Si number density = 22.868508 Si / 1000 Ang^3
#
#
#
# Elastic Constant Matrix: (Units=GPa)
#
#
# Indices 1 2 3 4 5 6 
#
# 1 39.9087 10.7201 9.3316 -12.4654 -0.9477 2.2253
# 2 10.7201 113.4277 35.0893 -34.6682 2.4092 -13.0996
# 3 9.3316 35.0893 44.1875 -13.2689 2.6759 -4.7997
# 4 -12.4654 -34.6682 -13.2689 41.1247 8.3098 -2.3883
# 5 -0.9477 2.4092 2.6759 8.3098 20.0061 -6.8278
# 6 2.2253 -13.0996 -4.7997 -2.3883 -6.8278 29.2223
#
#
#
# Elastic Compliance Matrix: (Units=1/GPa)
#
#
# Indices 1 2 3 4 5 6 
#
# 1 0.028524 0.001042 -0.004408 0.008472 -0.002495 -0.002320
# 2 0.001042 0.015645 -0.008212 0.011945 -0.003758 0.005683
# 3 -0.004408 -0.008212 0.031271 0.002736 -0.004185 0.001036
# 4 0.008472 0.011945 0.002736 0.041558 -0.017109 0.004558
# 5 -0.002495 -0.003758 -0.004185 -0.017109 0.061682 0.010832
# 6 -0.002320 0.005683 0.001036 0.004558 0.010832 0.040018
#
#
# Mechanical properties :
#
#
# Convention : Reuss Voigt Hill
#
# Bulk Modulus (GPa) = 19.12644 34.20066 26.66355
# Shear Modulus (GPa) = 19.28395 27.56281 23.42338
#
# Velocity S-wave (km/s) = 2.90703 3.47547 3.20388
# Velocity P-wave (km/s) = 4.43279 5.57611 5.03699
#
# Compressibility (1/GPa) = 0.05228365
#
# Stress axis : x y z
#
# Youngs Moduli (GPa) = 35.05793 63.91802 31.97875
#
# Poissons Ratio (x) = -0.06663 0.14098
# Poissons Ratio (y) = -0.03654 0.26262
# Poissons Ratio (z) = 0.15455 0.52491
#
# Static dielectric constant tensor:
#      x y z
#    x 4.775580 0.160580 -0.183210 
#    y 0.160580 4.610110 -0.329510 
#    z -0.183210 -0.329510 3.751080 
# 
# 
# High freq. dielectric constant tensor:
#      x y z
#    x 1.907600 0.007260 0.009530 
#    y 0.007260 1.926380 -0.025300 
#    z 0.009530 -0.025300 1.854600 
# 
# From -- ./inp_files/272162.got.cif
#   From: 2010.06.25/outbox.cif.g09.slc.cpg/sg2_137_cif.got.tgz:272162.got - 2010.06.27 13:26:56.
