data_PCOD8034704
_publ_section_title
;
Structure prediction by ZEFSAII (Michael W. Deem and Ramdas Pophale) SiO2 
 PCOD8034704
Probable space group: P -1
;
_chemical_formula_sum "Si O2"
_cell_formula_units_Z 16
_cell_length_a 15.120967
_cell_length_b 12.379737
_cell_length_c 18.555387
_cell_angle_alpha 27.781946
_cell_angle_beta 27.911004
_cell_angle_gamma 28.033354
_cell_volume 672.016796
_symmetry_space_group_name_H-M "P -1"
_symmetry_group_IT_number 2
_symmetry_cell_setting 'triclinic'
loop_
_space_group_symop_operation_xyz
x,y,z
-x,-y,-z
loop_
_atom_site_type_symbol
_atom_site_label
_atom_site_fract_x
_atom_site_fract_y
_atom_site_fract_z
Si Si1 0.931216 0.307142 0.627996
Si Si2 0.522977 0.268876 0.331374
Si Si3 0.814198 0.133020 0.954018
Si Si4 0.434830 0.109533 0.766874
Si Si5 0.693005 0.157781 0.430099
Si Si6 0.167494 0.629255 0.059419
Si Si7 0.923653 0.435149 0.166388
Si Si8 0.163458 0.123350 0.300893
O O1 0.703555 0.473441 0.657085
O O2 0.000000 0.500000 0.500000
O O3 0.940909 0.124432 0.795572
O O4 0.101437 0.128122 0.551622
O O5 0.624696 0.272434 0.332486
O O6 0.660619 0.317153 0.142034
O O7 0.500000 0.000000 0.500000
O O8 0.777909 0.367014 0.896899
O O9 0.588756 0.154818 0.073613
O O10 0.936385 0.864483 0.069066
O O11 0.495749 0.164479 0.611428
O O12 0.198198 0.322421 0.835370
O O13 0.598713 0.094552 0.721119
O O14 0.755379 0.334970 0.330056
O O15 0.143875 0.365209 0.222046
O O16 0.135761 0.221644 0.180396
O O17 0.000000 0.500000 0.000000
O O18 0.000000 0.000000 0.500000
#
# Coordination Sequence:
#
# PCOD8034704 Si02
#       8
#     2   2   2   2   2   2   2   2
#     4  12  26  44  71 108 152 193 252 307 376 464
#     4  12  24  46  74 110 153 200 251 313 394 450
#     4  11  24  45  76 108 150 194 251 317 388 444
#     4  12  27  48  78 108 148 199 249 314 386 445
#     4  12  26  45  72 107 147 198 246 311 376 444
#     4  11  24  45  75 110 151 199 252 318 379 460
#     4  12  27  50  77 105 151 192 257 316 373 451
#     4  12  27  48  76 112 151 200 264 304 378 456
#
# _framework density 23.808928000000002
#
# number of rings (size 3 to 8) (size 9 to 14) (size 15 to 20)
#    0.000    0.250    5.000    3.375    1.750    4.500 
#    0.000    0.000    0.000    0.000    0.000    0.000 
#    0.000    0.000    0.000    0.000    0.000    0.000 
#
# Total GULP energy -198248.051070 kJ/mol
# GULP energy per Si atom -12390.503192 kJ/mol
# Density = 2.375474 g / cm^3
# Si number density = 23.808928 Si / 1000 Ang^3
#
#
#
# Elastic Constant Matrix: (Units=GPa)
#
#
# Indices 1 2 3 4 5 6 
#
# 1 134.1676 27.4447 32.0572 3.5609 -8.1858 -0.5985
# 2 27.4447 97.6465 33.9015 10.3791 9.1204 6.8343
# 3 32.0572 33.9015 128.3628 7.2493 -10.0106 18.7581
# 4 3.5609 10.3791 7.2493 38.2793 10.5904 -2.2117
# 5 -8.1858 9.1204 -10.0106 10.5904 52.3864 -5.0692
# 6 -0.5985 6.8343 18.7581 -2.2117 -5.0692 41.9529
#
#
#
# Elastic Compliance Matrix: (Units=1/GPa)
#
#
# Indices 1 2 3 4 5 6 
#
# 1 0.008355 -0.001992 -0.001621 -0.000275 0.001528 0.001339
# 2 -0.001992 0.012272 -0.002656 -0.001971 -0.002680 -0.001268
# 3 -0.001621 -0.002656 0.009708 -0.001754 0.002053 -0.003775
# 4 -0.000275 -0.001971 -0.001754 0.028690 -0.005648 0.001931
# 5 0.001528 -0.002680 0.002053 -0.005648 0.021507 0.001841
# 6 0.001339 -0.001268 -0.003775 0.001931 0.001841 0.026074
#
#
# Mechanical properties :
#
#
# Convention : Reuss Voigt Hill
#
# Bulk Modulus (GPa) = 56.19579 60.77594 58.48587
# Shear Modulus (GPa) = 39.97585 44.30861 42.14223
#
# Velocity S-wave (km/s) = 4.10204 4.31862 4.21172
# Velocity P-wave (km/s) = 6.78894 7.10276 6.94762
#
# Compressibility (1/GPa) = 0.01779493
#
# Stress axis : x y z
#
# Youngs Moduli (GPa) = 119.69172 81.48899 103.01210
#
# Poissons Ratio (x) = 0.16237 0.16701
# Poissons Ratio (y) = 0.23848 0.27358
# Poissons Ratio (z) = 0.19405 0.21642
#
# Static dielectric constant tensor:
#      x y z
#    x 4.468590 -0.020180 0.019630 
#    y -0.020180 4.104670 -0.095680 
#    z 0.019630 -0.095680 3.672140 
# 
# 
# High freq. dielectric constant tensor:
#      x y z
#    x 1.967270 -0.005950 -0.011110 
#    y -0.005950 1.934760 -0.006730 
#    z -0.011110 -0.006730 1.952650 
# 
# From -- ./inp_files/573335.got.cif
#   From: 2010.06.25/outbox.cif.g09.slc.cpg/sg2_287_cif.got.tgz:573335.got - 2010.06.27 13:26:56.
