data_PCOD8034462
_publ_section_title
;
Structure prediction by ZEFSAII (Michael W. Deem and Ramdas Pophale) SiO2 
 PCOD8034462
Probable space group: P -1
;
_chemical_formula_sum "Si O2"
_cell_formula_units_Z 10
_cell_length_a 6.891625
_cell_length_b 11.991673
_cell_length_c 5.256701
_cell_angle_alpha 91.885466
_cell_angle_beta 86.724120
_cell_angle_gamma 85.249126
_cell_volume 431.915546
_symmetry_space_group_name_H-M "P -1"
_symmetry_group_IT_number 2
_symmetry_cell_setting 'triclinic'
loop_
_space_group_symop_operation_xyz
x,y,z
-x,-y,-z
loop_
_atom_site_type_symbol
_atom_site_label
_atom_site_fract_x
_atom_site_fract_y
_atom_site_fract_z
Si Si1 0.788842 0.558669 0.042652
Si Si2 0.910532 0.769996 0.243367
Si Si3 0.369340 0.010165 0.760488
Si Si4 0.838518 0.208508 0.272585
Si Si5 0.475670 0.597699 0.709933
O O1 0.796683 0.655974 0.263599
O O2 0.661950 0.454358 0.077977
O O3 0.688975 0.621370 0.806022
O O4 0.000000 0.500000 0.000000
O O5 0.750529 0.870732 0.214011
O O6 0.019560 0.786565 0.498697
O O7 0.057686 0.755082 0.990677
O O8 0.500000 0.000000 0.500000
O O9 0.215407 0.917476 0.767443
O O10 0.500000 0.000000 0.000000
O O11 0.640374 0.286281 0.360541
O O12 0.500000 0.500000 0.500000
#
# Coordination Sequence:
#
# PCOD8034462 Si02
#       5
#     2   2   2   2   2
#     4  11  24  45  67 103 139 185 233 281 352 405
#     4  12  26  45  73  99 141 184 231 287 346 417
#     4  12  26  46  72 102 139 180 234 289 347 413
#     4  12  26  46  70 103 138 183 236 282 349 415
#     4  11  26  41  71 100 142 184 234 288 337 421
#
# _framework density 23.152674999999999
#
# number of rings (size 3 to 8) (size 9 to 14) (size 15 to 20)
#    0.000    0.400    2.000    6.000    8.400    1.600 
#    0.000    0.000    0.000    0.000    0.000    0.000 
#    0.000    0.000    0.000    0.000    0.000    0.000 
#
# Total GULP energy -123941.010029 kJ/mol
# GULP energy per Si atom -12394.101003 kJ/mol
# Density = 2.309998 g / cm^3
# Si number density = 23.152675 Si / 1000 Ang^3
#
#
#
# Elastic Constant Matrix: (Units=GPa)
#
#
# Indices 1 2 3 4 5 6 
#
# 1 119.9046 39.4379 38.0290 4.5718 37.3447 -26.8621
# 2 39.4379 135.5340 7.6724 23.1070 20.6772 -22.0744
# 3 38.0290 7.6724 129.6354 5.0965 27.1960 -7.8562
# 4 4.5718 23.1070 5.0965 37.9775 -0.1570 1.3547
# 5 37.3447 20.6772 27.1960 -0.1570 55.5487 7.6095
# 6 -26.8621 -22.0744 -7.8562 1.3547 7.6095 59.6661
#
#
#
# Elastic Compliance Matrix: (Units=1/GPa)
#
#
# Indices 1 2 3 4 5 6 
#
# 1 0.013472 -0.001297 -0.001628 -0.000882 -0.008670 0.006497
# 2 -0.001297 0.009990 0.001096 -0.006225 -0.003935 0.003900
# 3 -0.001628 0.001096 0.009116 -0.001761 -0.003976 0.001420
# 4 -0.000882 -0.006225 -0.001761 0.030629 0.004433 -0.004193
# 5 -0.008670 -0.003935 -0.003976 0.004433 0.028574 -0.009627
# 6 0.006497 0.003900 0.001420 -0.004193 -0.009627 0.022638
#
#
# Mechanical properties :
#
#
# Convention : Reuss Voigt Hill
#
# Bulk Modulus (GPa) = 34.57786 61.70584 48.14185
# Shear Modulus (GPa) = 39.14887 50.63410 44.89148
#
# Velocity S-wave (km/s) = 4.11652 4.68157 4.40811
# Velocity P-wave (km/s) = 6.12874 7.47880 6.83717
#
# Compressibility (1/GPa) = 0.02892024
#
# Stress axis : x y z
#
# Youngs Moduli (GPa) = 74.22651 100.09697 109.69615
#
# Poissons Ratio (x) = 0.12981 0.17860
# Poissons Ratio (y) = 0.09626 -0.12020
# Poissons Ratio (z) = 0.12085 -0.10968
#
# Static dielectric constant tensor:
#      x y z
#    x 4.626320 0.218300 -0.193380 
#    y 0.218300 4.977540 -0.394640 
#    z -0.193380 -0.394640 4.514760 
# 
# 
# High freq. dielectric constant tensor:
#      x y z
#    x 1.934820 -0.006080 0.012990 
#    y -0.006080 1.936960 0.008270 
#    z 0.012990 0.008270 1.916130 
# 
# From -- ./inp_files/1453.got.cif
#   From: 2010.06.25/outbox.cif.g09.slc.cpg/sg2_1_cif.got.tgz:1453.got - 2010.06.27 13:26:56.
