data_PCOD8034655
_publ_section_title
;
Structure prediction by ZEFSAII (Michael W. Deem and Ramdas Pophale) SiO2 
 PCOD8034655
Probable space group: P -1
;
_chemical_formula_sum "Si O2"
_cell_formula_units_Z 14
_cell_length_a 15.729513
_cell_length_b 9.099157
_cell_length_c 16.231246
_cell_angle_alpha 35.378112
_cell_angle_beta 26.939023
_cell_angle_gamma 33.856482
_cell_volume 559.839580
_symmetry_space_group_name_H-M "P -1"
_symmetry_group_IT_number 2
_symmetry_cell_setting 'triclinic'
loop_
_space_group_symop_operation_xyz
x,y,z
-x,-y,-z
loop_
_atom_site_type_symbol
_atom_site_label
_atom_site_fract_x
_atom_site_fract_y
_atom_site_fract_z
Si Si1 0.202717 0.229339 0.968370
Si Si2 0.049946 0.894157 0.371251
Si Si3 0.069129 0.717568 0.118588
Si Si4 0.833423 0.802509 0.452052
Si Si5 0.825468 0.391530 0.443739
Si Si6 0.571240 0.415788 0.385969
Si Si7 0.436373 0.727975 0.880896
O O1 0.362671 0.344794 0.815382
O O2 0.296761 0.036073 0.894716
O O3 0.000000 0.500000 0.000000
O O4 0.178353 0.032348 0.148797
O O5 0.191809 0.678164 0.413831
O O6 0.972112 0.716159 0.456005
O O7 0.863277 0.124056 0.476405
O O8 0.958542 0.704483 0.305539
O O9 0.006220 0.501363 0.218742
O O10 0.308431 0.631308 0.968880
O O11 0.000000 0.000000 0.000000
O O12 0.638922 0.722214 0.663685
O O13 0.765776 0.131034 0.353518
O O14 0.604116 0.615833 0.505438
O O15 0.500000 0.500000 0.500000
O O16 0.500000 0.500000 0.000000
#
# Coordination Sequence:
#
# PCOD8034655 Si02
#       7
#     2   2   2   2   2   2   2
#     4  12  23  44  79 106 140 197 258 301 362 455
#     4  11  24  45  74 101 143 190 245 312 372 428
#     4  12  29  48  71 107 157 196 247 308 380 451
#     4  12  25  48  77 103 146 206 247 301 376 455
#     4  11  26  44  67 108 145 184 244 318 371 426
#     4  12  22  42  74 102 135 189 255 301 355 442
#     4  12  27  46  77 112 148 196 253 301 378 459
#
# _framework density 25.007165000000001
#
# number of rings (size 3 to 8) (size 9 to 14) (size 15 to 20)
#    0.000    0.286    5.714    1.714    6.000    5.143 
#    0.000    0.000    0.000    0.000    0.000    0.000 
#    0.000    0.000    0.000    0.000    0.000    0.000 
#
# Total GULP energy -173572.168006 kJ/mol
# GULP energy per Si atom -12398.012000 kJ/mol
# Density = 2.495025 g / cm^3
# Si number density = 25.007165 Si / 1000 Ang^3
#
#
#
# Elastic Constant Matrix: (Units=GPa)
#
#
# Indices 1 2 3 4 5 6 
#
# 1 148.4455 15.8919 64.2672 -4.9022 -15.3269 -15.9293
# 2 15.8919 38.1139 3.9213 4.4515 -0.9854 13.5153
# 3 64.2672 3.9213 178.4361 -16.1656 -15.0789 -2.1348
# 4 -4.9022 4.4515 -16.1656 46.0591 1.4879 -1.7585
# 5 -15.3269 -0.9854 -15.0789 1.4879 51.1172 -5.7209
# 6 -15.9293 13.5153 -2.1348 -1.7585 -5.7209 40.1714
#
#
#
# Elastic Compliance Matrix: (Units=1/GPa)
#
#
# Indices 1 2 3 4 5 6 
#
# 1 0.009573 -0.005824 -0.002972 0.000685 0.002532 0.005988
# 2 -0.005824 0.034089 0.000598 -0.004172 -0.002388 -0.014269
# 3 -0.002972 0.000598 0.006919 0.001992 0.001016 -0.000780
# 4 0.000685 -0.004172 0.001992 0.022983 0.000361 0.002839
# 5 0.002532 -0.002388 0.001016 0.000361 0.021112 0.004884
# 6 0.005988 -0.014269 -0.000780 0.002839 0.004884 0.032847
#
#
# Mechanical properties :
#
#
# Convention : Reuss Voigt Hill
#
# Bulk Modulus (GPa) = 29.25282 59.23959 44.24620
# Shear Modulus (GPa) = 32.19266 46.19721 39.19493
#
# Velocity S-wave (km/s) = 3.59184 4.30275 3.96327
# Velocity P-wave (km/s) = 5.37819 6.95884 6.21894
#
# Compressibility (1/GPa) = 0.03418474
#
# Stress axis : x y z
#
# Youngs Moduli (GPa) = 104.45611 29.33455 144.53777
#
# Poissons Ratio (x) = 0.17084 0.42962
# Poissons Ratio (y) = 0.60834 -0.08642
# Poissons Ratio (z) = 0.31048 -0.01754
#
# Static dielectric constant tensor:
#      x y z
#    x 5.325240 0.590030 -0.858700 
#    y 0.590030 5.543160 -0.950520 
#    z -0.858700 -0.950520 5.688470 
# 
# 
# High freq. dielectric constant tensor:
#      x y z
#    x 1.999750 0.001400 -0.003000 
#    y 0.001400 2.006080 -0.021600 
#    z -0.003000 -0.021600 2.010030 
# 
# From -- ./inp_files/529248.got.cif
#   From: 2010.06.25/outbox.cif.g09.slc.cpg/sg2_265_cif.got.tgz:529248.got - 2010.06.27 13:26:56.
