data_PCOD8034515
_publ_section_title
;
Structure prediction by ZEFSAII (Michael W. Deem and Ramdas Pophale) SiO2 
 PCOD8034515
Probable space group: P -1
;
_chemical_formula_sum "Si O2"
_cell_formula_units_Z 14
_cell_length_a 21.220409
_cell_length_b 9.615104
_cell_length_c 8.678942
_cell_angle_alpha 61.917146
_cell_angle_beta 28.891426
_cell_angle_gamma 51.295753
_cell_volume 653.706357
_symmetry_space_group_name_H-M "P -1"
_symmetry_group_IT_number 2
_symmetry_cell_setting 'triclinic'
loop_
_space_group_symop_operation_xyz
x,y,z
-x,-y,-z
loop_
_atom_site_type_symbol
_atom_site_label
_atom_site_fract_x
_atom_site_fract_y
_atom_site_fract_z
Si Si1 0.654302 0.852737 0.315686
Si Si2 0.808450 0.442733 0.105307
Si Si3 0.800277 0.068806 0.775889
Si Si4 0.403808 0.190412 0.186828
Si Si5 0.102822 0.740035 0.309213
Si Si6 0.935029 0.545454 0.287696
Si Si7 0.384889 0.683238 0.230427
O O1 0.710194 0.660921 0.210951
O O2 0.636327 0.827099 0.545109
O O3 0.500000 0.000000 0.500000
O O4 0.764659 0.932043 0.016479
O O5 0.740080 0.340357 0.401154
O O6 0.810047 0.387991 0.953933
O O7 0.975876 0.374567 0.848635
O O8 0.782829 0.230368 0.841985
O O9 0.695814 0.155141 0.805697
O O10 0.974393 0.939145 0.419823
O O11 0.242902 0.314580 0.385308
O O12 0.512539 0.275897 0.895814
O O13 0.500000 0.000000 0.000000
O O14 0.029205 0.645081 0.616390
O O15 0.000000 0.500000 0.000000
O O16 0.500000 0.500000 0.000000
#
# Coordination Sequence:
#
# PCOD8034515 Si02
#       7
#     2   2   2   2   2   2   2
#     4  12  24  46  71 101 140 186 228 291 354 418
#     4  12  26  44  75 103 138 186 240 287 353 416
#     4  11  24  45  69  99 140 176 235 287 354 414
#     4  12  28  43  72 105 144 183 236 288 357 419
#     4  11  26  42  72 104 134 179 236 297 345 410
#     4  12  23  48  73 100 142 188 236 285 353 424
#     4  12  24  49  67 101 141 187 224 290 357 422
#
# _framework density 21.416343999999999
#
# number of rings (size 3 to 8) (size 9 to 14) (size 15 to 20)
#    0.000    0.286    5.714    2.143    6.000    1.714 
#    0.000    2.143    0.000    0.000    0.000    0.000 
#    0.000    0.000    0.000    0.000    0.000    0.000 
#
# Total GULP energy -173607.312764 kJ/mol
# GULP energy per Si atom -12400.522340 kJ/mol
# Density = 2.136760 g / cm^3
# Si number density = 21.416344 Si / 1000 Ang^3
#
#
#
# Elastic Constant Matrix: (Units=GPa)
#
#
# Indices 1 2 3 4 5 6 
#
# 1 95.1600 54.4066 57.9504 8.7029 -8.1683 13.6405
# 2 54.4066 124.9408 66.1256 2.9013 -3.5218 14.5236
# 3 57.9504 66.1256 107.3825 -6.8711 -14.3588 10.6593
# 4 8.7029 2.9013 -6.8711 54.1743 -1.1954 -4.0009
# 5 -8.1683 -3.5218 -14.3588 -1.1954 52.3642 6.7258
# 6 13.6405 14.5236 10.6593 -4.0009 6.7258 48.8945
#
#
#
# Elastic Compliance Matrix: (Units=1/GPa)
#
#
# Indices 1 2 3 4 5 6 
#
# 1 0.017732 -0.003411 -0.007331 -0.003782 0.000794 -0.002754
# 2 -0.003411 0.012936 -0.006209 -0.001067 -0.001202 -0.001459
# 3 -0.007331 -0.006209 0.017811 0.003834 0.003430 -0.000151
# 4 -0.003782 -0.001067 0.003834 0.019776 0.000575 0.002075
# 5 0.000794 -0.001202 0.003430 0.000575 0.020529 -0.003389
# 6 -0.002754 -0.001459 -0.000151 0.002075 -0.003389 0.022323
#
#
# Mechanical properties :
#
#
# Convention : Reuss Voigt Hill
#
# Bulk Modulus (GPa) = 68.60366 76.04983 72.32674
# Shear Modulus (GPa) = 33.36238 41.01998 37.19118
#
# Velocity S-wave (km/s) = 3.95118 4.38123 4.17175
# Velocity P-wave (km/s) = 7.27452 7.82182 7.55313
#
# Compressibility (1/GPa) = 0.01457648
#
# Stress axis : x y z
#
# Youngs Moduli (GPa) = 56.39418 77.30402 56.14372
#
# Poissons Ratio (x) = 0.26370 0.41161
# Poissons Ratio (y) = 0.19237 0.34860
# Poissons Ratio (z) = 0.41344 0.47998
#
# Static dielectric constant tensor:
#      x y z
#    x 4.119470 -0.032860 -0.240620 
#    y -0.032860 3.885820 -0.077350 
#    z -0.240620 -0.077350 4.108090 
# 
# 
# High freq. dielectric constant tensor:
#      x y z
#    x 1.841630 -0.000880 -0.014100 
#    y -0.000880 1.855090 -0.002130 
#    z -0.014100 -0.002130 1.849790 
# 
# From -- ./inp_files/186311.got.cif
#   From: 2010.06.25/outbox.cif.g09.slc.cpg/sg2_94_cif.got.tgz:186311.got - 2010.06.27 13:26:56.
