data_PCOD8034231
_publ_section_title
;
Structure prediction by ZEFSAII (Michael W. Deem and Ramdas Pophale) SiO2 
 PCOD8034231
Probable space group: P -1
;
_chemical_formula_sum "Si O2"
_cell_formula_units_Z 16
_cell_length_a 15.149879
_cell_length_b 8.417554
_cell_length_c 11.216217
_cell_angle_alpha 118.750018
_cell_angle_beta 37.958216
_cell_angle_gamma 100.042777
_cell_volume 713.509610
_symmetry_space_group_name_H-M "P -1"
_symmetry_group_IT_number 2
_symmetry_cell_setting 'triclinic'
loop_
_space_group_symop_operation_xyz
x,y,z
-x,-y,-z
loop_
_atom_site_type_symbol
_atom_site_label
_atom_site_fract_x
_atom_site_fract_y
_atom_site_fract_z
Si Si1 0.722758 0.836947 0.742114
Si Si2 0.863443 0.082153 0.837197
Si Si3 0.567231 0.139388 0.820609
Si Si4 0.848415 0.156823 0.157127
Si Si5 0.160113 0.730464 0.421109
Si Si6 0.779250 0.496626 0.951554
Si Si7 0.060731 0.576197 0.703644
Si Si8 0.534909 0.158121 0.594472
O O1 0.873162 0.652728 0.479516
O O2 0.757503 0.978434 0.851758
O O3 0.657375 0.943219 0.726642
O O4 0.600169 0.753058 0.899571
O O5 0.819952 0.295524 0.906505
O O6 0.829439 0.110697 0.024109
O O7 0.044507 0.944214 0.571675
O O8 0.664940 0.277812 0.762077
O O9 0.540369 0.083225 0.696036
O O10 0.868218 0.365595 0.231518
O O11 0.697204 0.168264 0.392314
O O12 0.000000 0.000000 0.000000
O O13 0.171309 0.554672 0.257502
O O14 0.090093 0.702281 0.610663
O O15 0.877577 0.625041 0.936932
O O16 0.598153 0.626787 0.205486
O O17 0.500000 0.000000 0.500000
#
# Coordination Sequence:
#
# PCOD8034231 Si02
#       8
#     2   2   2   2   2   2   2   2
#     4  11  25  43  72 106 142 181 234 297 353 409
#     4  12  25  48  72 101 146 188 233 292 349 427
#     4  11  24  44  69 102 141 178 230 295 350 409
#     4  12  26  46  71 101 141 190 233 286 354 423
#     4  12  23  44  74 103 140 179 238 295 350 412
#     4  12  27  43  73 106 138 186 240 289 356 413
#     4  12  25  42  72 105 138 184 237 287 351 421
#     4  12  27  46  72 102 146 187 234 290 353 425
#
# _framework density 22.424365999999999
#
# number of rings (size 3 to 8) (size 9 to 14) (size 15 to 20)
#    0.000    0.250    5.000    3.750    3.500    3.000 
#    0.000    0.000    0.000    0.000    0.000    0.000 
#    0.000    0.000    0.000    0.000    0.000    0.000 
#
# Total GULP energy -198425.173934 kJ/mol
# GULP energy per Si atom -12401.573371 kJ/mol
# Density = 2.237333 g / cm^3
# Si number density = 22.424366 Si / 1000 Ang^3
#
#
#
# Elastic Constant Matrix: (Units=GPa)
#
#
# Indices 1 2 3 4 5 6 
#
# 1 128.2994 49.8353 45.2889 11.9117 0.3119 5.3617
# 2 49.8353 90.0223 38.1176 -1.4011 -3.9468 18.5625
# 3 45.2889 38.1176 120.7373 2.4966 -15.7354 4.5482
# 4 11.9117 -1.4011 2.4966 32.0373 12.6963 -3.5536
# 5 0.3119 -3.9468 -15.7354 12.6963 38.7175 -6.6326
# 6 5.3617 18.5625 4.5482 -3.5536 -6.6326 33.4144
#
#
#
# Elastic Compliance Matrix: (Units=1/GPa)
#
#
# Indices 1 2 3 4 5 6 
#
# 1 0.011071 -0.005397 -0.002425 -0.003991 -0.000127 0.001102
# 2 -0.005397 0.017214 -0.003411 0.002879 -0.001956 -0.008315
# 3 -0.002425 -0.003411 0.010900 -0.001901 0.004997 0.001590
# 4 -0.003991 0.002879 -0.001901 0.038140 -0.012815 0.000813
# 5 -0.000127 -0.001956 0.004997 -0.012815 0.032819 0.005579
# 6 0.001102 -0.008315 0.001590 0.000813 0.005579 0.035347
#
#
# Mechanical properties :
#
#
# Convention : Reuss Voigt Hill
#
# Bulk Modulus (GPa) = 59.81316 67.28252 63.54784
# Shear Modulus (GPa) = 28.81347 34.55499 31.68423
#
# Velocity S-wave (km/s) = 3.58846 3.92976 3.76298
# Velocity P-wave (km/s) = 6.62575 7.11759 6.87607
#
# Compressibility (1/GPa) = 0.01671873
#
# Stress axis : x y z
#
# Youngs Moduli (GPa) = 90.32307 58.09143 91.74669
#
# Poissons Ratio (x) = 0.31354 0.22244
# Poissons Ratio (y) = 0.48751 0.31298
# Poissons Ratio (z) = 0.21899 0.19817
#
# Static dielectric constant tensor:
#      x y z
#    x 4.499820 0.108210 -0.035780 
#    y 0.108210 3.917080 -0.028440 
#    z -0.035780 -0.028440 4.247510 
# 
# 
# High freq. dielectric constant tensor:
#      x y z
#    x 1.900840 0.007950 -0.006670 
#    y 0.007950 1.879990 -0.005060 
#    z -0.006670 -0.005060 1.890500 
# 
# From -- ./inp_files/446274.got.cif
#   From: 2010.06.25/outbox.cif.g09.slc.cpg/sg2_224_cif.got.tgz:446274.got - 2010.06.27 13:26:56.
