data_PCOD8034085
_publ_section_title
;
Structure prediction by ZEFSAII (Michael W. Deem and Ramdas Pophale) SiO2 
 PCOD8034085
Probable space group: P -1
;
_chemical_formula_sum "Si O2"
_cell_formula_units_Z 16
_cell_length_a 12.157502
_cell_length_b 5.311580
_cell_length_c 15.381621
_cell_angle_alpha 113.014895
_cell_angle_beta 134.122094
_cell_angle_gamma 81.256027
_cell_volume 645.330468
_symmetry_space_group_name_H-M "P -1"
_symmetry_group_IT_number 2
_symmetry_cell_setting 'triclinic'
loop_
_space_group_symop_operation_xyz
x,y,z
-x,-y,-z
loop_
_atom_site_type_symbol
_atom_site_label
_atom_site_fract_x
_atom_site_fract_y
_atom_site_fract_z
Si Si1 0.679318 0.617226 0.604892
Si Si2 0.493071 0.380043 0.076835
Si Si3 0.861367 0.186764 0.037767
Si Si4 0.847619 0.648576 0.871274
Si Si5 0.404002 0.750875 0.215268
Si Si6 0.700178 0.010456 0.508111
Si Si7 0.228851 0.912309 0.841465
Si Si8 0.021983 0.184137 0.452277
O O1 0.500000 0.500000 0.500000
O O2 0.754881 0.758291 0.754124
O O3 0.702412 0.868767 0.583917
O O4 0.759472 0.345895 0.589338
O O5 0.512361 0.573180 0.198290
O O6 0.636295 0.221693 0.147220
O O7 0.500000 0.500000 0.000000
O O8 0.317679 0.205918 0.967331
O O9 0.685291 0.131989 0.897009
O O10 0.908639 0.885844 0.008120
O O11 0.858440 0.261446 0.148602
O O12 0.989350 0.421133 0.089625
O O13 0.729392 0.394800 0.812388
O O14 0.524665 0.970235 0.366623
O O15 0.806449 0.843272 0.487318
O O16 0.103043 0.953908 0.706350
O O17 0.000000 0.500000 0.500000
O O18 0.000000 0.000000 0.500000
#
# Coordination Sequence:
#
# PCOD8034085 Si02
#       8
#     2   2   2   2   2   2   2   2
#     4  12  25  48  71 106 145 195 245 304 361 441
#     4  11  24  43  72 105 138 186 237 305 367 432
#     4  11  24  44  68 103 139 185 234 301 368 431
#     4  11  25  43  68 101 144 182 241 294 366 431
#     4  12  24  42  72 102 139 182 244 297 361 440
#     4  12  28  46  77 106 147 199 246 302 370 436
#     4  11  25  45  73 103 144 186 242 300 374 438
#     4  12  29  51  76 110 150 196 248 305 369 445
#
# _framework density 24.793496999999999
#
# number of rings (size 3 to 8) (size 9 to 14) (size 15 to 20)
#    0.000    0.500    3.750    3.750    5.250    1.000 
#    0.000    0.000    0.000    0.000    0.000    0.000 
#    0.000    0.000    0.000    0.000    0.000    0.000 
#
# Total GULP energy -198279.120826 kJ/mol
# GULP energy per Si atom -12392.445052 kJ/mol
# Density = 2.473707 g / cm^3
# Si number density = 24.793497 Si / 1000 Ang^3
#
#
#
# Elastic Constant Matrix: (Units=GPa)
#
#
# Indices 1 2 3 4 5 6 
#
# 1 119.6382 9.8607 30.7520 -7.5827 2.7643 14.3233
# 2 9.8607 82.6259 20.7294 -15.9823 -7.9776 8.4667
# 3 30.7520 20.7294 123.8157 -23.9575 0.6290 2.6191
# 4 -7.5827 -15.9823 -23.9575 43.5037 -0.5368 -1.7399
# 5 2.7643 -7.9776 0.6290 -0.5368 41.8041 -7.0951
# 6 14.3233 8.4667 2.6191 -1.7399 -7.0951 31.0533
#
#
#
# Elastic Compliance Matrix: (Units=1/GPa)
#
#
# Indices 1 2 3 4 5 6 
#
# 1 0.009517 -0.000231 -0.002190 0.000172 -0.001394 -0.004450
# 2 -0.000231 0.013791 -0.001396 0.004173 0.002248 -0.002788
# 3 -0.002190 -0.001396 0.009705 0.004481 -0.000073 0.000807
# 4 0.000172 0.004173 0.004481 0.027038 0.001094 0.000169
# 5 -0.001394 0.002248 -0.000073 0.001094 0.025461 0.005915
# 6 -0.004450 -0.002788 0.000807 0.000169 0.005915 0.036308
#
#
# Mechanical properties :
#
#
# Convention : Reuss Voigt Hill
#
# Bulk Modulus (GPa) = 39.40760 49.86268 44.63514
# Shear Modulus (GPa) = 36.25448 40.92140 38.58794
#
# Velocity S-wave (km/s) = 3.82810 4.06703 3.94937
# Velocity P-wave (km/s) = 5.95550 6.49686 6.23206
#
# Compressibility (1/GPa) = 0.02537582
#
# Stress axis : x y z
#
# Youngs Moduli (GPa) = 105.08024 72.51272 103.04348
#
# Poissons Ratio (x) = 0.01678 0.22570
# Poissons Ratio (y) = 0.02431 0.14388
# Poissons Ratio (z) = 0.23016 0.10125
#
# Static dielectric constant tensor:
#      x y z
#    x 4.730380 -0.197200 0.042130 
#    y -0.197200 4.268150 -0.067430 
#    z 0.042130 -0.067430 4.642140 
# 
# 
# High freq. dielectric constant tensor:
#      x y z
#    x 2.007750 -0.004980 -0.000120 
#    y -0.004980 1.974020 -0.010180 
#    z -0.000120 -0.010180 1.996160 
# 
# From -- ./inp_files/482668.got.cif
#   From: 2010.06.25/outbox.cif.g09.slc.cpg/sg2_242_cif.got.tgz:482668.got - 2010.06.27 13:26:56.
