data_PCOD8034811
_publ_section_title
;
Structure prediction by ZEFSAII (Michael W. Deem and Ramdas Pophale) SiO2 
 PCOD8034811
Probable space group: P -1
;
_chemical_formula_sum "Si O2"
_cell_formula_units_Z 16
_cell_length_a 8.804928
_cell_length_b 9.429954
_cell_length_c 12.308306
_cell_angle_alpha 113.139864
_cell_angle_beta 65.610442
_cell_angle_gamma 75.667527
_cell_volume 746.400531
_symmetry_space_group_name_H-M "P -1"
_symmetry_group_IT_number 2
_symmetry_cell_setting 'triclinic'
loop_
_space_group_symop_operation_xyz
x,y,z
-x,-y,-z
loop_
_atom_site_type_symbol
_atom_site_label
_atom_site_fract_x
_atom_site_fract_y
_atom_site_fract_z
Si Si1 0.970016 0.163736 0.627126
Si Si2 0.554228 0.313135 0.888743
Si Si3 0.793097 0.564206 0.130966
Si Si4 0.949451 0.515834 0.647618
Si Si5 0.305150 0.085724 0.648162
Si Si6 0.253168 0.959351 0.848278
Si Si7 0.933085 0.272542 0.160751
Si Si8 0.523183 0.812976 0.912290
O O1 0.755363 0.238001 0.749977
O O2 0.999531 0.317674 0.608120
O O3 0.130661 0.069108 0.643451
O O4 0.000000 0.000000 0.500000
O O5 0.382359 0.334204 0.869088
O O6 0.500000 0.500000 0.000000
O O7 0.579520 0.202131 0.954831
O O8 0.767153 0.707038 0.270648
O O9 0.793529 0.400493 0.144773
O O10 0.000000 0.500000 0.000000
O O11 0.731200 0.649403 0.781457
O O12 0.000000 0.500000 0.500000
O O13 0.059553 0.601728 0.708020
O O14 0.500000 0.000000 0.500000
O O15 0.347101 0.998664 0.728738
O O16 0.136266 0.861199 0.813381
O O17 0.415155 0.818232 0.835591
O O18 0.135195 0.144282 0.004061
O O19 0.500000 0.000000 0.000000
#
# Coordination Sequence:
#
# PCOD8034811 Si02
#       8
#     2   2   2   2   2   2   2   2
#     4  12  29  49  72 104 146 193 246 304 364 437
#     4  12  25  44  73 107 141 186 246 302 358 427
#     4  12  22  44  73 103 141 185 239 293 356 425
#     4  12  28  49  72 104 150 195 238 301 375 433
#     4  12  27  47  72 102 144 190 242 295 366 429
#     4  11  26  42  74 108 143 185 242 297 359 434
#     4  11  24  46  71 106 142 189 238 301 359 430
#     4  12  25  44  73 107 147 188 239 296 365 438
#
# _framework density 21.436211
#
# number of rings (size 3 to 8) (size 9 to 14) (size 15 to 20)
#    0.000    0.250    5.000    3.750    8.750    0.000 
#    0.000    1.250    0.000    0.000    0.000    0.000 
#    0.000    0.000    0.000    0.000    0.000    0.000 
#
# Total GULP energy -198239.968541 kJ/mol
# GULP energy per Si atom -12389.998034 kJ/mol
# Density = 2.138742 g / cm^3
# Si number density = 21.436211 Si / 1000 Ang^3
#
#
#
# Elastic Constant Matrix: (Units=GPa)
#
#
# Indices 1 2 3 4 5 6 
#
# 1 122.6008 30.6851 48.8339 -0.6573 3.3878 -9.0913
# 2 30.6851 131.2874 48.0000 -7.5958 10.3622 9.2080
# 3 48.8339 48.0000 143.9047 4.2505 -0.0431 13.5973
# 4 -0.6573 -7.5958 4.2505 46.9955 5.3486 6.7991
# 5 3.3878 10.3622 -0.0431 5.3486 43.7961 4.8951
# 6 -9.0913 9.2080 13.5973 6.7991 4.8951 42.9583
#
#
#
# Elastic Compliance Matrix: (Units=1/GPa)
#
#
# Indices 1 2 3 4 5 6 
#
# 1 0.010103 -0.001348 -0.003314 -0.000202 -0.000844 0.003604
# 2 -0.001348 0.009274 -0.002554 0.002186 -0.002185 -0.001562
# 3 -0.003314 -0.002554 0.009246 -0.001003 0.001336 -0.003074
# 4 -0.000202 0.002186 -0.001003 0.022544 -0.002872 -0.003435
# 5 -0.000844 -0.002185 0.001336 -0.002872 0.024038 -0.002418
# 6 0.003604 -0.001562 -0.003074 -0.003435 -0.002418 0.026168
#
#
# Mechanical properties :
#
#
# Convention : Reuss Voigt Hill
#
# Bulk Modulus (GPa) = 70.45875 72.53678 71.49776
# Shear Modulus (GPa) = 41.48224 44.76823 43.12524
#
# Velocity S-wave (km/s) = 4.40380 4.57490 4.49017
# Velocity P-wave (km/s) = 7.66801 7.86246 7.76584
#
# Compressibility (1/GPa) = 0.01419270
#
# Stress axis : x y z
#
# Youngs Moduli (GPa) = 98.97734 107.82899 108.15658
#
# Poissons Ratio (x) = 0.14532 0.35842
# Poissons Ratio (y) = 0.13339 0.27620
# Poissons Ratio (z) = 0.32800 0.27536
#
# Static dielectric constant tensor:
#      x y z
#    x 4.019250 -0.051540 0.004290 
#    y -0.051540 4.164410 0.253480 
#    z 0.004290 0.253480 3.882000 
# 
# 
# High freq. dielectric constant tensor:
#      x y z
#    x 1.850700 0.000970 0.008160 
#    y 0.000970 1.863280 0.008560 
#    z 0.008160 0.008560 1.841450 
# 
# From -- ./inp_files/382922.got.cif
#   From: 2010.06.25/outbox.cif.g09.slc.cpg/sg2_192_cif.got.tgz:382922.got - 2010.06.27 13:26:56.
