data_PCOD8034380
_publ_section_title
;
Structure prediction by ZEFSAII (Michael W. Deem and Ramdas Pophale) SiO2 
 PCOD8034380
Probable space group: P -1
;
_chemical_formula_sum "Si O2"
_cell_formula_units_Z 14
_cell_length_a 8.812933
_cell_length_b 22.472595
_cell_length_c 8.791584
_cell_angle_alpha 38.733714
_cell_angle_beta 50.147143
_cell_angle_gamma 32.433800
_cell_volume 583.499430
_symmetry_space_group_name_H-M "P -1"
_symmetry_group_IT_number 2
_symmetry_cell_setting 'triclinic'
loop_
_space_group_symop_operation_xyz
x,y,z
-x,-y,-z
loop_
_atom_site_type_symbol
_atom_site_label
_atom_site_fract_x
_atom_site_fract_y
_atom_site_fract_z
Si Si1 0.732588 0.701334 0.370250
Si Si2 0.918399 0.580168 0.180782
Si Si3 0.139814 0.958734 0.157555
Si Si4 0.099427 0.151114 0.961825
Si Si5 0.621591 0.357633 0.660478
Si Si6 0.261179 0.022089 0.438992
Si Si7 0.126645 0.223344 0.375920
O O1 0.933869 0.628975 0.236043
O O2 0.411356 0.797247 0.326421
O O3 0.770406 0.788484 0.257899
O O4 0.823547 0.585365 0.658966
O O5 0.621114 0.628640 0.265360
O O6 0.947199 0.644684 0.896725
O O7 0.902461 0.013684 0.322913
O O8 0.244558 0.030995 0.981216
O O9 0.000000 0.000000 0.000000
O O10 0.767022 0.268025 0.899298
O O11 0.138021 0.091206 0.218567
O O12 0.500000 0.500000 0.500000
O O13 0.858495 0.280310 0.529880
O O14 0.195149 0.133758 0.367018
O O15 0.589867 0.878431 0.501185
#
# Coordination Sequence:
#
# PCOD8034380 Si02
#       7
#     2   2   2   2   2   2   2
#     4  11  24  44  73 106 142 195 243 302 363 437
#     4  11  24  49  71 103 151 194 244 296 373 434
#     4  12  26  45  74 107 149 193 240 305 375 433
#     4  12  25  45  71 106 147 182 251 304 358 437
#     4  12  27  46  71 108 147 196 241 297 370 439
#     4  11  25  45  71 113 140 190 252 301 372 430
#     4  11  25  46  77 105 148 193 245 309 363 436
#
# _framework density 23.993169000000002
#
# number of rings (size 3 to 8) (size 9 to 14) (size 15 to 20)
#    0.000    0.571    2.857    5.143    6.000    1.714 
#    0.000    3.571    0.000    0.000    0.000    0.000 
#    0.000    0.000    0.000    0.000    0.000    0.000 
#
# Total GULP energy -173581.840362 kJ/mol
# GULP energy per Si atom -12398.702883 kJ/mol
# Density = 2.393856 g / cm^3
# Si number density = 23.993169 Si / 1000 Ang^3
#
#
#
# Elastic Constant Matrix: (Units=GPa)
#
#
# Indices 1 2 3 4 5 6 
#
# 1 124.1942 46.0093 67.0665 -17.8534 10.6462 1.1432
# 2 46.0093 106.3141 56.9544 -27.3548 12.9294 -19.9558
# 3 67.0665 56.9544 176.3579 -32.6144 19.3569 -11.4989
# 4 -17.8534 -27.3548 -32.6144 42.5363 -8.2809 5.2318
# 5 10.6462 12.9294 19.3569 -8.2809 48.5773 -6.1690
# 6 1.1432 -19.9558 -11.4989 5.2318 -6.1690 39.3536
#
#
#
# Elastic Compliance Matrix: (Units=1/GPa)
#
#
# Indices 1 2 3 4 5 6 
#
# 1 0.011238 -0.003623 -0.003210 0.000206 -0.000593 -0.003222
# 2 -0.003623 0.014631 -0.001842 0.005597 -0.000632 0.006143
# 3 -0.003210 -0.001842 0.008345 0.003477 -0.001423 0.000912
# 4 0.000206 0.005597 0.003477 0.030280 0.002264 0.000178
# 5 -0.000593 -0.000632 -0.001423 0.002264 0.022148 0.002452
# 6 -0.003222 0.006143 0.000912 0.000178 0.002452 0.029247
#
#
# Mechanical properties :
#
#
# Convention : Reuss Voigt Hill
#
# Bulk Modulus (GPa) = 59.30437 82.99186 71.14811
# Shear Modulus (GPa) = 36.00715 41.88250 38.94482
#
# Velocity S-wave (km/s) = 3.87812 4.18257 4.03322
# Velocity P-wave (km/s) = 6.69507 7.61512 7.16987
#
# Compressibility (1/GPa) = 0.01686216
#
# Stress axis : x y z
#
# Youngs Moduli (GPa) = 88.98394 68.34728 119.83620
#
# Poissons Ratio (x) = 0.24764 0.38472
# Poissons Ratio (y) = 0.32241 0.22076
# Poissons Ratio (z) = 0.28568 0.12591
#
# Static dielectric constant tensor:
#      x y z
#    x 4.757620 0.022570 -0.045460 
#    y 0.022570 4.370100 -0.470000 
#    z -0.045460 -0.470000 4.541660 
# 
# 
# High freq. dielectric constant tensor:
#      x y z
#    x 1.969440 0.001540 0.006290 
#    y 0.001540 1.944120 -0.027800 
#    z 0.006290 -0.027800 1.961200 
# 
# From -- ./inp_files/225927.got.cif
#   From: 2010.06.25/outbox.cif.g09.slc.cpg/sg2_113_cif.got.tgz:225927.got - 2010.06.27 13:26:56.
