data_PCOD8034124
_publ_section_title
;
Structure prediction by ZEFSAII (Michael W. Deem and Ramdas Pophale) SiO2 
 PCOD8034124
Probable space group: P -1
;
_chemical_formula_sum "Si O2"
_cell_formula_units_Z 14
_cell_length_a 28.361423
_cell_length_b 5.394691
_cell_length_c 26.326641
_cell_angle_alpha 114.221400
_cell_angle_beta 170.536327
_cell_angle_gamma 65.212462
_cell_volume 601.130088
_symmetry_space_group_name_H-M "P -1"
_symmetry_group_IT_number 2
_symmetry_cell_setting 'triclinic'
loop_
_space_group_symop_operation_xyz
x,y,z
-x,-y,-z
loop_
_atom_site_type_symbol
_atom_site_label
_atom_site_fract_x
_atom_site_fract_y
_atom_site_fract_z
Si Si1 0.461243 0.675285 0.667614
Si Si2 0.795133 0.114653 0.682091
Si Si3 0.905170 0.701723 0.519420
Si Si4 0.194431 0.923087 0.652700
Si Si5 0.421409 0.192128 0.384753
Si Si6 0.523238 0.797465 0.212591
Si Si7 0.945213 0.604811 0.726720
O O1 0.158043 0.639714 0.369797
O O2 0.401746 0.669034 0.543411
O O3 0.575321 0.944241 0.835082
O O4 0.715132 0.434987 0.927997
O O5 0.879935 0.871746 0.713270
O O6 0.597040 0.040370 0.512217
O O7 0.080563 0.227715 0.016405
O O8 0.797168 0.401771 0.374173
O O9 0.680169 0.867468 0.332725
O O10 0.911047 0.889563 0.491542
O O11 0.233846 0.651764 0.884114
O O12 0.000000 0.000000 0.500000
O O13 0.500000 0.000000 0.000000
O O14 0.500000 0.500000 0.500000
O O15 0.500000 0.000000 0.500000
O O16 0.763634 0.603296 0.481951
#
# Coordination Sequence:
#
# PCOD8034124 Si02
#       7
#     2   2   2   2   2   2   2
#     4  11  24  43  73  98 145 183 230 287 344 445
#     4  11  26  46  70 105 136 189 236 285 362 418
#     4  12  26  44  76 103 146 184 232 301 350 414
#     4  12  26  48  72 103 140 189 244 290 348 414
#     4  12  28  47  74 103 142 183 240 303 352 414
#     4  11  26  43  66 114 138 183 234 285 362 418
#     4  11  24  43  73  98 145 183 230 287 344 445
#
# _framework density 23.289470000000001
#
# number of rings (size 3 to 8) (size 9 to 14) (size 15 to 20)
#    0.000    0.571    0.000    6.857   12.000    4.571 
#    0.000    0.000    0.000    0.000    0.000    0.000 
#    0.000    0.000    0.000    0.000    0.000    0.000 
#
# Total GULP energy -173576.829271 kJ/mol
# GULP energy per Si atom -12398.344948 kJ/mol
# Density = 2.323646 g / cm^3
# Si number density = 23.289470 Si / 1000 Ang^3
#
#
#
# Elastic Constant Matrix: (Units=GPa)
#
#
# Indices 1 2 3 4 5 6 
#
# 1 144.3389 30.4136 42.9479 -4.3354 -1.5620 10.7745
# 2 30.4136 93.6998 32.5308 -1.7057 -17.6574 20.1259
# 3 42.9479 32.5308 152.6153 -3.2031 -3.6787 1.2976
# 4 -4.3354 -1.7057 -3.2031 35.6110 -0.3772 6.4355
# 5 -1.5620 -17.6574 -3.6787 -0.3772 44.0278 -4.5152
# 6 10.7745 20.1259 1.2976 6.4355 -4.5152 32.1755
#
#
#
# Elastic Compliance Matrix: (Units=1/GPa)
#
#
# Indices 1 2 3 4 5 6 
#
# 1 0.008000 -0.001658 -0.001877 0.001058 -0.000722 -0.001879
# 2 -0.001658 0.014788 -0.002460 0.001833 0.004833 -0.008284
# 3 -0.001877 -0.002460 0.007584 0.000003 -0.000232 0.001828
# 4 0.001058 0.001833 0.000003 0.029637 0.000269 -0.007391
# 5 -0.000722 0.004833 -0.000232 0.000269 0.024674 0.000637
# 6 -0.001879 -0.008284 0.001828 -0.007391 0.000637 0.038384
#
#
# Mechanical properties :
#
#
# Convention : Reuss Voigt Hill
#
# Bulk Modulus (GPa) = 54.40281 66.93761 60.67021
# Shear Modulus (GPa) = 35.41446 41.34698 38.38072
#
# Velocity S-wave (km/s) = 3.90374 4.21806 4.06394
# Velocity P-wave (km/s) = 6.61280 7.24753 6.93743
#
# Compressibility (1/GPa) = 0.01838140
#
# Stress axis : x y z
#
# Youngs Moduli (GPa) = 124.99529 67.62172 131.85674
#
# Poissons Ratio (x) = 0.11213 0.24751
# Poissons Ratio (y) = 0.20727 0.32439
# Poissons Ratio (z) = 0.23463 0.16636
#
# Static dielectric constant tensor:
#      x y z
#    x 4.602910 0.096500 -0.133630 
#    y 0.096500 4.142820 0.038350 
#    z -0.133630 0.038350 4.414330 
# 
# 
# High freq. dielectric constant tensor:
#      x y z
#    x 1.942120 -0.001350 0.000220 
#    y -0.001350 1.913560 0.003710 
#    z 0.000220 0.003710 1.942130 
# 
# From -- ./inp_files/13068.got.cif
#   From: 2010.06.25/outbox.cif.g09.slc.cpg/sg2_7_cif.got.tgz:13068.got - 2010.06.27 13:26:56.
