data_PCOD8034006
_publ_section_title
;
Structure prediction by ZEFSAII (Michael W. Deem and Ramdas Pophale) SiO2 
 PCOD8034006
Probable space group: P -1
;
_chemical_formula_sum "Si O2"
_cell_formula_units_Z 16
_cell_length_a 13.442656
_cell_length_b 9.253587
_cell_length_c 11.102999
_cell_angle_alpha 79.885560
_cell_angle_beta 34.250955
_cell_angle_gamma 94.017198
_cell_volume 705.159889
_symmetry_space_group_name_H-M "P -1"
_symmetry_group_IT_number 2
_symmetry_cell_setting 'triclinic'
loop_
_space_group_symop_operation_xyz
x,y,z
-x,-y,-z
loop_
_atom_site_type_symbol
_atom_site_label
_atom_site_fract_x
_atom_site_fract_y
_atom_site_fract_z
Si Si1 0.403082 0.205359 0.600586
Si Si2 0.773774 0.685338 0.622569
Si Si3 0.192004 0.738314 0.185538
Si Si4 0.541066 0.337423 0.882781
Si Si5 0.184779 0.623645 0.939743
Si Si6 0.782428 0.973012 0.420064
Si Si7 0.929850 0.708369 0.002295
Si Si8 0.461787 0.071136 0.808991
O O1 0.609998 0.326141 0.335083
O O2 0.305424 0.074371 0.616694
O O3 0.277844 0.308732 0.740660
O O4 0.419351 0.103135 0.711742
O O5 0.630405 0.522535 0.725479
O O6 0.824037 0.828851 0.457106
O O7 0.974236 0.674405 0.460176
O O8 0.670783 0.711431 0.842003
O O9 0.314209 0.679993 0.161651
O O10 0.206051 0.668327 0.051213
O O11 0.277470 0.930693 0.069907
O O12 0.521403 0.231997 0.801165
O O13 0.082385 0.433064 0.055490
O O14 0.059814 0.708713 0.987216
O O15 0.636938 0.012880 0.646242
O O16 0.978603 0.127346 0.187883
#
# Coordination Sequence:
#
# PCOD8034006 Si02
#       8
#     2   2   2   2   2   2   2   2
#     4  12  23  44  68 101 141 183 220 275 343 407
#     4  11  26  47  73  98 134 182 227 285 339 405
#     4  12  24  46  73  99 137 184 224 284 342 397
#     4  11  27  49  68 101 136 179 234 283 335 397
#     4  11  24  43  69 107 141 176 226 277 345 400
#     4  12  23  46  71 100 142 178 222 285 342 400
#     4  11  25  40  68 107 140 179 224 276 336 418
#     4  12  25  44  73 100 141 181 225 282 336 404
#
# _framework density 22.689889000000001
#
# number of rings (size 3 to 8) (size 9 to 14) (size 15 to 20)
#    0.000    0.500    3.750    4.125    1.750    4.500 
#    2.250    0.000    0.000    0.000    0.000    0.000 
#    0.000    0.000    0.000    0.000    0.000    0.000 
#
# Total GULP energy -198518.488071 kJ/mol
# GULP energy per Si atom -12407.405504 kJ/mol
# Density = 2.263825 g / cm^3
# Si number density = 22.689889 Si / 1000 Ang^3
#
#
#
# Elastic Constant Matrix: (Units=GPa)
#
#
# Indices 1 2 3 4 5 6 
#
# 1 41.7805 17.7270 27.6669 -0.8206 -5.2427 -11.4901
# 2 17.7270 114.6489 28.2654 -8.7160 7.1322 -2.5433
# 3 27.6669 28.2654 123.4096 4.2981 -19.8492 -23.8418
# 4 -0.8206 -8.7160 4.2981 46.6270 -7.5077 0.4922
# 5 -5.2427 7.1322 -19.8492 -7.5077 28.7628 1.9366
# 6 -11.4901 -2.5433 -23.8418 0.4922 1.9366 26.6081
#
#
#
# Elastic Compliance Matrix: (Units=1/GPa)
#
#
# Indices 1 2 3 4 5 6 
#
# 1 0.031091 -0.003860 -0.003700 0.000647 0.003602 0.009467
# 2 -0.003860 0.010363 -0.002881 0.001410 -0.004695 -0.002942
# 3 -0.003700 -0.002881 0.012609 -0.000572 0.007996 0.008853
# 4 0.000647 0.001410 -0.000572 0.022645 0.005345 -0.000906
# 5 0.003602 -0.004695 0.007996 0.005345 0.043163 0.005031
# 6 0.009467 -0.002942 0.008853 -0.000906 0.005031 0.048973
#
#
# Mechanical properties :
#
#
# Convention : Reuss Voigt Hill
#
# Bulk Modulus (GPa) = 30.13787 47.46194 38.79990
# Shear Modulus (GPa) = 24.90214 34.14491 29.52352
#
# Velocity S-wave (km/s) = 3.31645 3.88345 3.61109
# Velocity P-wave (km/s) = 5.28928 6.40869 5.87570
#
# Compressibility (1/GPa) = 0.03318085
#
# Stress axis : x y z
#
# Youngs Moduli (GPa) = 32.16378 96.49369 79.30906
#
# Poissons Ratio (x) = 0.37245 0.29347
# Poissons Ratio (y) = 0.12415 0.22848
# Poissons Ratio (z) = 0.11902 0.27799
#
# Static dielectric constant tensor:
#      x y z
#    x 3.960470 -0.049560 -0.190850 
#    y -0.049560 4.198130 -0.027580 
#    z -0.190850 -0.027580 4.277290 
# 
# 
# High freq. dielectric constant tensor:
#      x y z
#    x 1.886500 -0.005480 -0.009740 
#    y -0.005480 1.911300 -0.001970 
#    z -0.009740 -0.001970 1.906140 
# 
# From -- ./inp_files/297455.got.cif
#   From: 2010.06.25/outbox.cif.g09.slc.cpg/sg2_149_cif.got.tgz:297455.got - 2010.06.27 13:26:56.
