data_PCOD8034470
_publ_section_title
;
Structure prediction by ZEFSAII (Michael W. Deem and Ramdas Pophale) SiO2 
 PCOD8034470
Probable space group: P -1
;
_chemical_formula_sum "Si O2"
_cell_formula_units_Z 16
_cell_length_a 14.772737
_cell_length_b 17.028275
_cell_length_c 8.629545
_cell_angle_alpha 40.951718
_cell_angle_beta 43.260823
_cell_angle_gamma 28.866128
_cell_volume 671.382307
_symmetry_space_group_name_H-M "P -1"
_symmetry_group_IT_number 2
_symmetry_cell_setting 'triclinic'
loop_
_space_group_symop_operation_xyz
x,y,z
-x,-y,-z
loop_
_atom_site_type_symbol
_atom_site_label
_atom_site_fract_x
_atom_site_fract_y
_atom_site_fract_z
Si Si1 0.954988 0.094987 0.253815
Si Si2 0.666674 0.977621 0.854499
Si Si3 0.760124 0.477131 0.486093
Si Si4 0.433282 0.282834 0.913316
Si Si5 0.296678 0.767562 0.123061
Si Si6 0.138878 0.336291 0.377700
Si Si7 0.943468 0.705634 0.144243
Si Si8 0.380103 0.797388 0.641765
O O1 0.737257 0.222992 0.278572
O O2 0.000000 0.000000 0.500000
O O3 0.099229 0.950743 0.159841
O O4 0.950086 0.239623 0.057858
O O5 0.615439 0.112899 0.844150
O O6 0.710539 0.015067 0.581513
O O7 0.500000 0.000000 0.000000
O O8 0.831042 0.784922 0.003765
O O9 0.723958 0.550979 0.248555
O O10 0.735613 0.350125 0.701335
O O11 0.605335 0.635949 0.561029
O O12 0.970594 0.380704 0.424148
O O13 0.523247 0.325251 0.849604
O O14 0.332479 0.232120 0.193340
O O15 0.348572 0.808653 0.845255
O O16 0.183556 0.230803 0.635507
O O17 0.091599 0.501506 0.246856
#
# Coordination Sequence:
#
# PCOD8034470 Si02
#       8
#     2   2   2   2   2   2   2   2
#     4  12  24  46  70 104 138 188 230 291 356 415
#     4  11  24  45  70  98 142 186 229 291 351 420
#     4  11  25  48  68 104 143 186 238 284 353 416
#     4  11  25  44  70 106 137 184 237 283 356 413
#     4  12  26  43  71 108 141 182 238 291 347 422
#     4  11  27  43  73 102 139 186 231 290 346 415
#     4  11  24  45  68 102 140 177 238 284 352 415
#     4  11  25  43  71 102 141 184 238 286 358 407
#
# _framework density 23.831430000000001
#
# number of rings (size 3 to 8) (size 9 to 14) (size 15 to 20)
#    0.000    0.750    2.500    4.500    8.750    2.500 
#    0.000    0.000    0.000    0.000    0.000    0.000 
#    0.000    0.000    0.000    0.000    0.000    0.000 
#
# Total GULP energy -198349.814009 kJ/mol
# GULP energy per Si atom -12396.863376 kJ/mol
# Density = 2.377719 g / cm^3
# Si number density = 23.831430 Si / 1000 Ang^3
#
#
#
# Elastic Constant Matrix: (Units=GPa)
#
#
# Indices 1 2 3 4 5 6 
#
# 1 79.9633 7.0814 41.4793 -6.6871 -7.6336 6.4249
# 2 7.0814 41.0276 8.4346 3.6553 -1.2492 -1.3240
# 3 41.4793 8.4346 153.4838 -5.7504 0.4162 9.6417
# 4 -6.6871 3.6553 -5.7504 38.2531 -2.1884 -0.0340
# 5 -7.6336 -1.2492 0.4162 -2.1884 43.4159 8.2733
# 6 6.4249 -1.3240 9.6417 -0.0340 8.2733 23.0371
#
#
#
# Elastic Compliance Matrix: (Units=1/GPa)
#
#
# Indices 1 2 3 4 5 6 
#
# 1 0.015530 -0.002167 -0.003728 0.002566 0.003633 -0.004196
# 2 -0.002167 0.025310 -0.001080 -0.002974 -0.000290 0.002611
# 3 -0.003728 -0.001080 0.007740 0.000595 -0.000322 -0.002145
# 4 0.002566 -0.002974 0.000595 0.027081 0.002076 -0.001841
# 5 0.003633 -0.000290 -0.000322 0.002076 0.025700 -0.010122
# 6 -0.004196 0.002611 -0.002145 -0.001841 -0.010122 0.049259
#
#
# Mechanical properties :
#
#
# Convention : Reuss Voigt Hill
#
# Bulk Modulus (GPa) = 28.87678 43.16281 36.01979
# Shear Modulus (GPa) = 28.39070 35.43984 31.91527
#
# Velocity S-wave (km/s) = 3.45529 3.86048 3.66349
# Velocity P-wave (km/s) = 5.29736 6.16621 5.74823
#
# Compressibility (1/GPa) = 0.03462991
#
# Stress axis : x y z
#
# Youngs Moduli (GPa) = 64.39122 39.50962 129.19708
#
# Poissons Ratio (x) = 0.08564 0.48165
# Poissons Ratio (y) = 0.13957 0.13951
# Poissons Ratio (z) = 0.24005 0.04266
#
# Static dielectric constant tensor:
#      x y z
#    x 4.727470 0.175950 0.056610 
#    y 0.175950 4.039910 0.119270 
#    z 0.056610 0.119270 4.644310 
# 
# 
# High freq. dielectric constant tensor:
#      x y z
#    x 1.960090 -0.005820 -0.002690 
#    y -0.005820 1.920850 0.001400 
#    z -0.002690 0.001400 1.971370 
# 
# From -- ./inp_files/317957.got.cif
#   From: 2010.06.25/outbox.cif.g09.slc.cpg/sg2_159_cif.got.tgz:317957.got - 2010.06.27 13:26:56.
