data_PCOD8034419
_publ_section_title
;
Structure prediction by ZEFSAII (Michael W. Deem and Ramdas Pophale) SiO2 
 PCOD8034419
Probable space group: P -1
;
_chemical_formula_sum "Si O2"
_cell_formula_units_Z 16
_cell_length_a 11.612352
_cell_length_b 9.050419
_cell_length_c 11.789288
_cell_angle_alpha 47.766553
_cell_angle_beta 128.954125
_cell_angle_gamma 106.559562
_cell_volume 692.739836
_symmetry_space_group_name_H-M "P -1"
_symmetry_group_IT_number 2
_symmetry_cell_setting 'triclinic'
loop_
_space_group_symop_operation_xyz
x,y,z
-x,-y,-z
loop_
_atom_site_type_symbol
_atom_site_label
_atom_site_fract_x
_atom_site_fract_y
_atom_site_fract_z
Si Si1 0.915728 0.428017 0.315286
Si Si2 0.628726 0.205613 0.548011
Si Si3 0.461977 0.325492 0.789070
Si Si4 0.174340 0.212575 0.750455
Si Si5 0.617741 0.302178 0.128461
Si Si6 0.276199 0.801674 0.143863
Si Si7 0.663808 0.936550 0.502478
Si Si8 0.901933 0.542044 0.805567
O O1 0.837756 0.624069 0.240362
O O2 0.790534 0.313456 0.252041
O O3 0.037622 0.268047 0.547951
O O4 0.993835 0.507114 0.215459
O O5 0.629177 0.437207 0.394757
O O6 0.725083 0.139937 0.755111
O O7 0.455353 0.188942 0.462485
O O8 0.714126 0.057592 0.577833
O O9 0.336363 0.194584 0.798032
O O10 0.548107 0.253070 0.762067
O O11 0.590892 0.284663 0.987370
O O12 0.171136 0.992824 0.913906
O O13 0.587542 0.100878 0.274858
O O14 0.500000 0.500000 0.000000
O O15 0.215497 0.600577 0.192170
O O16 0.810806 0.779594 0.623968
O O17 0.000000 0.500000 0.000000
#
# Coordination Sequence:
#
# PCOD8034419 Si02
#       8
#     2   2   2   2   2   2   2   2
#     4  11  27  47  70 103 147 189 238 297 369 428
#     4  11  24  44  75 105 146 184 242 293 359 425
#     4  12  23  46  74 110 141 184 248 298 353 424
#     4  11  26  46  73 105 143 189 240 303 355 429
#     4  12  24  46  76 103 138 192 244 298 356 434
#     4  12  27  45  76 106 141 194 242 297 357 431
#     4  11  26  44  72 107 145 188 236 298 360 421
#     4  12  29  48  70 104 154 188 238 297 363 435
#
# _framework density 23.096692999999998
#
# number of rings (size 3 to 8) (size 9 to 14) (size 15 to 20)
#    0.000    0.500    3.750    3.000    7.000    2.000 
#    0.000    0.000    0.000    0.000    0.000    0.000 
#    0.000    0.000    0.000    0.000    0.000    0.000 
#
# Total GULP energy -198553.458227 kJ/mol
# GULP energy per Si atom -12409.591139 kJ/mol
# Density = 2.304412 g / cm^3
# Si number density = 23.096693 Si / 1000 Ang^3
#
#
#
# Elastic Constant Matrix: (Units=GPa)
#
#
# Indices 1 2 3 4 5 6 
#
# 1 93.5124 13.5892 31.0631 2.6737 -8.9806 0.2467
# 2 13.5892 67.0898 43.6048 -0.5682 -5.4297 1.1546
# 3 31.0631 43.6048 133.6687 -3.6133 -12.8566 4.9462
# 4 2.6737 -0.5682 -3.6133 37.1897 4.4751 -2.6401
# 5 -8.9806 -5.4297 -12.8566 4.4751 38.4843 4.5929
# 6 0.2467 1.1546 4.9462 -2.6401 4.5929 27.0446
#
#
#
# Elastic Compliance Matrix: (Units=1/GPa)
#
#
# Indices 1 2 3 4 5 6 
#
# 1 0.011812 -0.000710 -0.002349 -0.001343 0.002043 -0.000126
# 2 -0.000710 0.018980 -0.005990 -0.000292 0.000524 0.000174
# 3 -0.002349 -0.005990 0.010281 0.000677 0.002190 -0.001909
# 4 -0.001343 -0.000292 0.000677 0.027727 -0.003740 0.003243
# 5 0.002043 0.000524 0.002190 -0.003740 0.028373 -0.005625
# 6 -0.000126 0.000174 -0.001909 0.003243 -0.005625 0.038591
#
#
# Mechanical properties :
#
#
# Convention : Reuss Voigt Hill
#
# Bulk Modulus (GPa) = 43.52651 52.30946 47.91799
# Shear Modulus (GPa) = 30.95605 34.27798 32.61702
#
# Velocity S-wave (km/s) = 3.66496 3.85659 3.76199
# Velocity P-wave (km/s) = 6.06593 6.52137 6.29777
#
# Compressibility (1/GPa) = 0.02297450
#
# Stress axis : x y z
#
# Youngs Moduli (GPa) = 84.65970 52.68826 97.26948
#
# Poissons Ratio (x) = 0.03741 0.22844
# Poissons Ratio (y) = 0.06011 0.58268
# Poissons Ratio (z) = 0.19882 0.31562
#
# Static dielectric constant tensor:
#      x y z
#    x 4.263350 0.016730 -0.069180 
#    y 0.016730 4.389600 0.188280 
#    z -0.069180 0.188280 4.350760 
# 
# 
# High freq. dielectric constant tensor:
#      x y z
#    x 1.915870 -0.004520 -0.012960 
#    y -0.004520 1.920990 -0.001060 
#    z -0.012960 -0.001060 1.920500 
# 
# From -- ./inp_files/402961.got.cif
#   From: 2010.06.25/outbox.cif.g09.slc.cpg/sg2_202_cif.got.tgz:402961.got - 2010.06.27 13:26:56.
