data_PCOD8034589
_publ_section_title
;
Structure prediction by ZEFSAII (Michael W. Deem and Ramdas Pophale) SiO2 
 PCOD8034589
Probable space group: P -1
;
_chemical_formula_sum "Si O2"
_cell_formula_units_Z 16
_cell_length_a 25.739916
_cell_length_b 8.414668
_cell_length_c 25.978929
_cell_angle_alpha 42.461459
_cell_angle_beta 168.881924
_cell_angle_gamma 137.263594
_cell_volume 730.068874
_symmetry_space_group_name_H-M "P -1"
_symmetry_group_IT_number 2
_symmetry_cell_setting 'triclinic'
loop_
_space_group_symop_operation_xyz
x,y,z
-x,-y,-z
loop_
_atom_site_type_symbol
_atom_site_label
_atom_site_fract_x
_atom_site_fract_y
_atom_site_fract_z
Si Si1 0.403037 0.045402 0.609347
Si Si2 0.007426 0.526651 0.584742
Si Si3 0.343005 0.798853 0.021674
Si Si4 0.880411 0.118572 0.479185
Si Si5 0.972634 0.208401 0.961652
Si Si6 0.522923 0.511599 0.869443
Si Si7 0.091369 0.697897 0.906987
Si Si8 0.438935 0.232583 0.490596
O O1 0.335043 0.082118 0.474689
O O2 0.145468 0.124259 0.372122
O O3 0.436310 0.772895 0.714753
O O4 0.676572 0.199476 0.853337
O O5 0.148599 0.723230 0.637491
O O6 0.940482 0.281355 0.548378
O O7 0.731810 0.622610 0.316367
O O8 0.208127 0.483040 0.836749
O O9 0.433636 0.611280 0.113456
O O10 0.596899 0.967848 0.248164
O O11 0.214889 0.658982 0.979910
O O12 0.122825 0.953592 0.744886
O O13 0.956928 0.452748 0.857211
O O14 0.706096 0.132778 0.752504
O O15 0.218539 0.218479 0.236326
O O16 0.000000 0.000000 0.000000
O O17 0.500000 0.500000 0.500000
#
# Coordination Sequence:
#
# PCOD8034589 Si02
#       8
#     2   2   2   2   2   2   2   2
#     4  12  25  43  72  93 133 177 225 273 319 393
#     4  11  24  45  72  96 132 172 229 261 325 394
#     4  12  26  42  66  99 139 170 219 270 339 385
#     4  11  24  45  71  99 128 179 216 273 321 401
#     4  12  26  44  69 101 136 173 215 279 337 389
#     4  12  26  43  65 103 133 175 216 278 326 387
#     4  12  24  45  67  95 132 182 217 269 331 395
#     4  12  23  46  70 100 128 174 230 269 324 393
#
# _framework density 21.915741000000001
#
# number of rings (size 3 to 8) (size 9 to 14) (size 15 to 20)
#    0.000    0.250    2.500    7.500    1.750    5.000 
#    2.250    0.000    0.000    0.000    0.000    0.000 
#    0.000    0.000    0.000    0.000    0.000    0.000 
#
# Total GULP energy -198513.063001 kJ/mol
# GULP energy per Si atom -12407.066438 kJ/mol
# Density = 2.186586 g / cm^3
# Si number density = 21.915741 Si / 1000 Ang^3
#
#
#
# Elastic Constant Matrix: (Units=GPa)
#
#
# Indices 1 2 3 4 5 6 
#
# 1 123.6760 33.0009 27.2453 0.3082 9.1986 -6.9439
# 2 33.0009 65.0000 25.5541 -1.9184 -5.2085 -6.7820
# 3 27.2453 25.5541 128.7540 3.0792 5.2439 -8.7584
# 4 0.3082 -1.9184 3.0792 35.0031 -1.0275 2.4779
# 5 9.1986 -5.2085 5.2439 -1.0275 49.3310 -2.9959
# 6 -6.9439 -6.7820 -8.7584 2.4779 -2.9959 36.0186
#
#
#
# Elastic Compliance Matrix: (Units=1/GPa)
#
#
# Indices 1 2 3 4 5 6 
#
# 1 0.009751 -0.004682 -0.000996 -0.000361 -0.002178 0.000600
# 2 -0.004682 0.019441 -0.002884 0.001301 0.003396 0.002250
# 3 -0.000996 -0.002884 0.008708 -0.001041 -0.000983 0.001372
# 4 -0.000361 0.001301 -0.001041 0.028900 0.000796 -0.002000
# 5 -0.002178 0.003396 -0.000983 0.000796 0.021260 0.001694
# 6 0.000600 0.002250 0.001372 -0.002000 0.001694 0.028915
#
#
# Mechanical properties :
#
#
# Convention : Reuss Voigt Hill
#
# Bulk Modulus (GPa) = 48.13216 54.33672 51.23444
# Shear Modulus (GPa) = 35.45521 39.51253 37.48387
#
# Velocity S-wave (km/s) = 4.02655 4.25070 4.14014
# Velocity P-wave (km/s) = 6.60511 6.99561 6.80316
#
# Compressibility (1/GPa) = 0.02077613
#
# Stress axis : x y z
#
# Youngs Moduli (GPa) = 102.55560 51.43883 114.83391
#
# Poissons Ratio (x) = 0.24081 0.11438
# Poissons Ratio (y) = 0.48012 0.33120
# Poissons Ratio (z) = 0.10215 0.14836
#
# Static dielectric constant tensor:
#      x y z
#    x 4.629700 0.279080 0.278930 
#    y 0.279080 4.096910 0.149440 
#    z 0.278930 0.149440 4.271910 
# 
# 
# High freq. dielectric constant tensor:
#      x y z
#    x 1.880950 0.006360 0.003500 
#    y 0.006360 1.857110 -0.001220 
#    z 0.003500 -0.001220 1.881910 
# 
# From -- ./inp_files/617690.got.cif
#   From: 2010.06.25/outbox.cif.g09.slc.cpg/sg2_309_cif.got.tgz:617690.got - 2010.06.27 13:26:56.
