data_PCOD8034364
_publ_section_title
;
Structure prediction by ZEFSAII (Michael W. Deem and Ramdas Pophale) SiO2 
 PCOD8034364
Probable space group: P -1
;
_chemical_formula_sum "Si O2"
_cell_formula_units_Z 12
_cell_length_a 12.352697
_cell_length_b 11.375870
_cell_length_c 6.456648
_cell_angle_alpha 68.805003
_cell_angle_beta 47.375363
_cell_angle_gamma 54.493909
_cell_volume 542.698282
_symmetry_space_group_name_H-M "P -1"
_symmetry_group_IT_number 2
_symmetry_cell_setting 'triclinic'
loop_
_space_group_symop_operation_xyz
x,y,z
-x,-y,-z
loop_
_atom_site_type_symbol
_atom_site_label
_atom_site_fract_x
_atom_site_fract_y
_atom_site_fract_z
Si Si1 0.613062 0.330232 0.003183
Si Si2 0.899280 0.226332 0.015854
Si Si3 0.805593 0.843714 0.625141
Si Si4 0.929523 0.666445 0.973427
Si Si5 0.823266 0.095717 0.557146
Si Si6 0.406021 0.165559 0.443426
O O1 0.515127 0.247172 0.262999
O O2 0.500000 0.500000 0.000000
O O3 0.739594 0.326238 0.017777
O O4 0.712445 0.247679 0.719530
O O5 0.066991 0.150293 0.711118
O O6 0.927718 0.312792 0.109930
O O7 0.859362 0.113721 0.259225
O O8 0.660477 0.824347 0.712451
O O9 0.727489 0.999492 0.744732
O O10 0.911276 0.712513 0.727951
O O11 0.747565 0.751296 0.256210
O O12 0.000000 0.500000 0.000000
O O13 0.000000 0.000000 0.500000
O O14 0.500000 0.000000 0.500000
#
# Coordination Sequence:
#
# PCOD8034364 Si02
#       6
#     2   2   2   2   2   2
#     4  12  29  45  68 107 148 178 227 294 358 403
#     4  11  24  44  73 101 140 178 237 284 342 415
#     4  11  24  45  75 103 135 183 239 284 335 417
#     4  11  26  44  73  99 136 190 235 274 346 419
#     4  12  23  43  76 102 134 182 236 277 346 417
#     4  11  27  46  70 104 145 179 230 294 346 406
#
# _framework density 22.111733999999998
#
# number of rings (size 3 to 8) (size 9 to 14) (size 15 to 20)
#    0.000    0.667    3.333    2.500    9.333    6.000 
#    0.000    0.000    0.000    0.000    0.000    0.000 
#    0.000    0.000    0.000    0.000    0.000    0.000 
#
# Total GULP energy -148763.231974 kJ/mol
# GULP energy per Si atom -12396.935998 kJ/mol
# Density = 2.206141 g / cm^3
# Si number density = 22.111734 Si / 1000 Ang^3
#
#
#
# Elastic Constant Matrix: (Units=GPa)
#
#
# Indices 1 2 3 4 5 6 
#
# 1 141.2186 42.3331 27.2078 -8.2538 8.1989 -9.7523
# 2 42.3331 177.7113 44.2683 -9.6804 6.4910 -0.9925
# 3 27.2078 44.2683 97.5206 -7.0317 5.6480 -4.8424
# 4 -8.2538 -9.6804 -7.0317 33.9076 -3.3727 -4.8497
# 5 8.1989 6.4910 5.6480 -3.3727 42.7421 -6.7082
# 6 -9.7523 -0.9925 -4.8424 -4.8497 -6.7082 29.7258
#
#
#
# Elastic Compliance Matrix: (Units=1/GPa)
#
#
# Indices 1 2 3 4 5 6 
#
# 1 0.008077 -0.001475 -0.001310 0.001568 -0.000636 0.002499
# 2 -0.001475 0.006677 -0.002562 0.000884 -0.000421 -0.000629
# 3 -0.001310 -0.002562 0.012010 0.001608 -0.000573 0.001574
# 4 0.001568 0.000884 0.001608 0.031695 0.002894 0.006630
# 5 -0.000636 -0.000421 -0.000573 0.002894 0.024789 0.005750
# 6 0.002499 -0.000629 0.001574 0.006630 0.005750 0.037076
#
#
# Mechanical properties :
#
#
# Convention : Reuss Voigt Hill
#
# Bulk Modulus (GPa) = 62.23102 71.56320 66.89711
# Shear Modulus (GPa) = 36.66367 41.45120 39.05743
#
# Velocity S-wave (km/s) = 4.07641 4.33439 4.20738
# Velocity P-wave (km/s) = 7.09656 7.58181 7.34319
#
# Compressibility (1/GPa) = 0.01606916
#
# Stress axis : x y z
#
# Youngs Moduli (GPa) = 123.80917 149.77158 83.26274
#
# Poissons Ratio (x) = 0.22094 0.10906
# Poissons Ratio (y) = 0.18264 0.21335
# Poissons Ratio (z) = 0.16217 0.38378
#
# Static dielectric constant tensor:
#      x y z
#    x 4.613490 0.186980 0.063440 
#    y 0.186980 3.945400 -0.035660 
#    z 0.063440 -0.035660 4.221820 
# 
# 
# High freq. dielectric constant tensor:
#      x y z
#    x 1.887850 0.005670 0.003350 
#    y 0.005670 1.867810 -0.007830 
#    z 0.003350 -0.007830 1.877860 
# 
# From -- ./inp_files/26548.got.cif
#   From: 2010.06.25/outbox.cif.g09.slc.cpg/sg2_14_cif.got.tgz:26548.got - 2010.06.27 13:26:56.
