data_PCOD8034492
_publ_section_title
;
Structure prediction by ZEFSAII (Michael W. Deem and Ramdas Pophale) SiO2 
 PCOD8034492
Probable space group: P -1
;
_chemical_formula_sum "Si O2"
_cell_formula_units_Z 14
_cell_length_a 8.441528
_cell_length_b 10.824570
_cell_length_c 8.286820
_cell_angle_alpha 59.852777
_cell_angle_beta 100.107982
_cell_angle_gamma 111.163890
_cell_volume 610.612366
_symmetry_space_group_name_H-M "P -1"
_symmetry_group_IT_number 2
_symmetry_cell_setting 'triclinic'
loop_
_space_group_symop_operation_xyz
x,y,z
-x,-y,-z
loop_
_atom_site_type_symbol
_atom_site_label
_atom_site_fract_x
_atom_site_fract_y
_atom_site_fract_z
Si Si1 0.387652 0.073548 0.278105
Si Si2 0.051939 0.668575 0.977575
Si Si3 0.085623 0.872531 0.566710
Si Si4 0.824625 0.407731 0.617499
Si Si5 0.862500 0.840003 0.029756
Si Si6 0.232708 0.307254 0.557317
Si Si7 0.518441 0.194693 0.537128
O O1 0.514129 0.981774 0.306599
O O2 0.240759 0.944552 0.430103
O O3 0.483180 0.208402 0.330224
O O4 0.312122 0.134095 0.072687
O O5 0.905779 0.740134 0.959496
O O6 0.156979 0.671625 0.158501
O O7 0.151626 0.794494 0.781511
O O8 0.000000 0.500000 0.000000
O O9 0.935051 0.738586 0.550802
O O10 0.000000 0.000000 0.500000
O O11 0.706609 0.512208 0.563588
O O12 0.713274 0.284884 0.553689
O O13 0.000000 0.500000 0.500000
O O14 0.825301 0.734643 0.244746
O O15 0.000000 0.000000 0.000000
O O16 0.380272 0.242090 0.580535
#
# Coordination Sequence:
#
# PCOD8034492 Si02
#       7
#     2   2   2   2   2   2   2
#     4  11  24  45  69 102 143 179 234 286 348 415
#     4  12  25  41  72 110 135 178 243 285 347 417
#     4  12  21  43  75 100 137 185 231 288 344 420
#     4  12  25  48  70  96 138 184 234 286 351 420
#     4  12  23  42  73 108 135 186 240 284 341 422
#     4  12  23  43  71 100 140 182 230 287 350 409
#     4  11  26  45  66 100 141 184 228 294 351 407
#
# _framework density 22.927802
#
# number of rings (size 3 to 8) (size 9 to 14) (size 15 to 20)
#    0.000    0.286    7.143    2.143    0.000    0.571 
#    5.143    0.714    0.000    0.000    0.000    0.000 
#    0.000    0.000    0.000    0.000    0.000    0.000 
#
# Total GULP energy -173439.779038 kJ/mol
# GULP energy per Si atom -12388.555646 kJ/mol
# Density = 2.287562 g / cm^3
# Si number density = 22.927802 Si / 1000 Ang^3
#
#
#
# Elastic Constant Matrix: (Units=GPa)
#
#
# Indices 1 2 3 4 5 6 
#
# 1 67.9818 24.8152 9.5649 -1.1067 9.6045 -14.0165
# 2 24.8152 129.7245 25.9526 14.3508 10.9559 -2.6227
# 3 9.5649 25.9526 137.1908 1.5328 20.3227 6.2282
# 4 -1.1067 14.3508 1.5328 35.7145 1.7374 15.0257
# 5 9.6045 10.9559 20.3227 1.7374 37.0151 -1.7341
# 6 -14.0165 -2.6227 6.2282 15.0257 -1.7341 50.6521
#
#
#
# Elastic Compliance Matrix: (Units=1/GPa)
#
#
# Indices 1 2 3 4 5 6 
#
# 1 0.017194 -0.002840 -0.000397 -0.000079 -0.003185 0.004574
# 2 -0.002840 0.009078 -0.001379 -0.004062 -0.000954 0.001026
# 3 -0.000397 -0.001379 0.008256 0.001088 -0.004151 -0.001661
# 4 -0.000079 -0.004062 0.001088 0.034083 -0.001468 -0.010527
# 5 -0.003185 -0.000954 -0.004151 -0.001468 0.030522 0.001060
# 6 0.004574 0.001026 -0.001661 -0.010527 0.001060 0.024425
#
#
# Mechanical properties :
#
#
# Convention : Reuss Voigt Hill
#
# Bulk Modulus (GPa) = 39.52961 50.61807 45.07384
# Shear Modulus (GPa) = 35.40542 42.98063 39.19302
#
# Velocity S-wave (km/s) = 3.93391 4.33437 4.13899
# Velocity P-wave (km/s) = 6.15732 6.86834 6.52252
#
# Compressibility (1/GPa) = 0.02529749
#
# Stress axis : x y z
#
# Youngs Moduli (GPa) = 58.16019 110.15078 121.12737
#
# Poissons Ratio (x) = 0.31278 0.04803
# Poissons Ratio (y) = 0.16515 0.16707
# Poissons Ratio (z) = 0.02306 0.15193
#
# Static dielectric constant tensor:
#      x y z
#    x 4.314270 -0.183200 0.431690 
#    y -0.183200 5.134010 0.091360 
#    z 0.431690 0.091360 4.184190 
# 
# 
# High freq. dielectric constant tensor:
#      x y z
#    x 1.904340 -0.024440 0.026640 
#    y -0.024440 1.920270 0.008560 
#    z 0.026640 0.008560 1.904540 
# 
# From -- ./inp_files/184470.got.cif
#   From: 2010.06.25/outbox.cif.g09.slc.cpg/sg2_93_cif.got.tgz:184470.got - 2010.06.27 13:26:56.
