data_PCOD8034463
_publ_section_title
;
Structure prediction by ZEFSAII (Michael W. Deem and Ramdas Pophale) SiO2 
 PCOD8034463
Probable space group: P -1
;
_chemical_formula_sum "Si O2"
_cell_formula_units_Z 16
_cell_length_a 9.723338
_cell_length_b 9.094788
_cell_length_c 13.571459
_cell_angle_alpha 72.446926
_cell_angle_beta 109.337079
_cell_angle_gamma 144.748821
_cell_volume 652.530844
_symmetry_space_group_name_H-M "P -1"
_symmetry_group_IT_number 2
_symmetry_cell_setting 'triclinic'
loop_
_space_group_symop_operation_xyz
x,y,z
-x,-y,-z
loop_
_atom_site_type_symbol
_atom_site_label
_atom_site_fract_x
_atom_site_fract_y
_atom_site_fract_z
Si Si1 0.336316 0.519251 0.635565
Si Si2 0.227183 0.302814 0.270562
Si Si3 0.615782 0.044270 0.819874
Si Si4 0.822322 0.833855 0.155363
Si Si5 0.418208 0.711769 0.100857
Si Si6 0.027698 0.201404 0.445898
Si Si7 0.182695 0.463035 0.900028
Si Si8 0.615718 0.098814 0.400511
O O1 0.619394 0.715429 0.652248
O O2 0.224920 0.298492 0.726866
O O3 0.278171 0.639004 0.641573
O O4 0.246128 0.440064 0.517951
O O5 0.384459 0.577244 0.215587
O O6 0.071066 0.250518 0.329772
O O7 0.085552 0.124461 0.176619
O O8 0.550259 0.089327 0.891735
O O9 0.905465 0.263007 0.842416
O O10 0.412999 0.736727 0.842581
O O11 0.573123 0.089849 0.694844
O O12 0.663413 0.849644 0.085384
O O13 0.794315 0.699807 0.082017
O O14 0.203681 0.519393 0.009232
O O15 0.805460 0.121763 0.436621
O O16 0.000000 0.000000 0.500000
O O17 0.500000 0.000000 0.500000
#
# Coordination Sequence:
#
# PCOD8034463 Si02
#       8
#     2   2   2   2   2   2   2   2
#     4  11  24  45  67 104 144 194 246 306 375 444
#     4  11  25  44  75 106 148 194 254 312 371 452
#     4  12  29  50  78 110 156 197 253 312 382 452
#     4  11  24  46  75 104 153 189 256 310 377 447
#     4  11  28  46  76 111 147 201 252 314 378 443
#     4  12  25  44  73 102 147 193 248 305 376 448
#     4  12  28  51  79 111 154 202 253 315 377 450
#     4  12  28  45  74 108 146 197 245 309 378 453
#
# _framework density 24.519914
#
# number of rings (size 3 to 8) (size 9 to 14) (size 15 to 20)
#    0.000    0.500    2.500    4.125   12.250    0.500 
#    0.000    0.000    0.000    0.000    0.000    0.000 
#    0.000    0.000    0.000    0.000    0.000    0.000 
#
# Total GULP energy -198221.660963 kJ/mol
# GULP energy per Si atom -12388.853810 kJ/mol
# Density = 2.446411 g / cm^3
# Si number density = 24.519914 Si / 1000 Ang^3
#
#
#
# Elastic Constant Matrix: (Units=GPa)
#
#
# Indices 1 2 3 4 5 6 
#
# 1 150.4922 34.7755 14.4830 27.2136 4.5995 9.7812
# 2 34.7755 80.3781 10.2855 32.9275 11.0758 11.1496
# 3 14.4830 10.2855 88.6654 32.9313 -11.2726 14.1291
# 4 27.2136 32.9275 32.9313 46.8461 -1.6433 -5.5084
# 5 4.5995 11.0758 -11.2726 -1.6433 43.4425 13.9943
# 6 9.7812 11.1496 14.1291 -5.5084 13.9943 36.4028
#
#
#
# Elastic Compliance Matrix: (Units=1/GPa)
#
#
# Indices 1 2 3 4 5 6 
#
# 1 0.007897 -0.001119 0.001368 -0.005132 0.000690 -0.003352
# 2 -0.001119 0.023130 0.008063 -0.022845 -0.000278 -0.013263
# 3 0.001368 0.008063 0.023696 -0.025074 0.009243 -0.019382
# 4 -0.005132 -0.022845 -0.025074 0.061308 -0.007580 0.030299
# 5 0.000690 -0.000278 0.009243 -0.007580 0.030458 -0.016544
# 6 -0.003352 -0.013263 -0.019382 0.030299 -0.016544 0.050900
#
#
# Mechanical properties :
#
#
# Convention : Reuss Voigt Hill
#
# Bulk Modulus (GPa) = 14.01635 48.73599 31.37617
# Shear Modulus (GPa) = 24.44402 42.67107 33.55754
#
# Velocity S-wave (km/s) = 3.16080 4.17617 3.70345
# Velocity P-wave (km/s) = 4.36459 6.57062 5.57776
#
# Compressibility (1/GPa) = 0.07134523
#
# Stress axis : x y z
#
# Youngs Moduli (GPa) = 126.63606 43.23310 42.20107
#
# Poissons Ratio (x) = 0.04839 -0.05772
# Poissons Ratio (y) = 0.14174 -0.34025
# Poissons Ratio (z) = -0.17321 -0.34857
#
# Static dielectric constant tensor:
#      x y z
#    x 4.359450 -0.029200 0.773600 
#    y -0.029200 4.435340 0.049290 
#    z 0.773600 0.049290 3.558730 
# 
# 
# High freq. dielectric constant tensor:
#      x y z
#    x 1.983940 -0.010700 -0.003100 
#    y -0.010700 1.969340 0.012470 
#    z -0.003100 0.012470 1.992340 
# 
# From -- ./inp_files/38199.got.cif
#   From: 2010.06.25/outbox.cif.g09.slc.cpg/sg2_20_cif.got.tgz:38199.got - 2010.06.27 13:26:56.
