data_PCOD8034140
_publ_section_title
;
Structure prediction by ZEFSAII (Michael W. Deem and Ramdas Pophale) SiO2 
 PCOD8034140
Probable space group: P -1
;
_chemical_formula_sum "Si O2"
_cell_formula_units_Z 14
_cell_length_a 8.379912
_cell_length_b 9.015213
_cell_length_c 17.743942
_cell_angle_alpha 72.744128
_cell_angle_beta 111.784707
_cell_angle_gamma 48.980804
_cell_volume 598.024356
_symmetry_space_group_name_H-M "P -1"
_symmetry_group_IT_number 2
_symmetry_cell_setting 'triclinic'
loop_
_space_group_symop_operation_xyz
x,y,z
-x,-y,-z
loop_
_atom_site_type_symbol
_atom_site_label
_atom_site_fract_x
_atom_site_fract_y
_atom_site_fract_z
Si Si1 0.135211 0.842673 0.355466
Si Si2 0.586545 0.102326 0.969353
Si Si3 0.748079 0.427722 0.271276
Si Si4 0.240103 0.154771 0.665569
Si Si5 0.945126 0.033662 0.848050
Si Si6 0.761057 0.792224 0.508002
Si Si7 0.866720 0.775914 0.923583
O O1 0.500000 0.500000 0.500000
O O2 0.186514 0.835526 0.278151
O O3 0.829322 0.958885 0.295110
O O4 0.999909 0.095891 0.339178
O O5 0.265519 0.436977 0.820954
O O6 0.871089 0.848634 0.995182
O O7 0.500000 0.000000 0.000000
O O8 0.738364 0.098320 0.059966
O O9 0.360139 0.687195 0.188172
O O10 0.909145 0.369423 0.384514
O O11 0.381804 0.026866 0.623434
O O12 0.874556 0.528154 0.547735
O O13 0.498657 0.048268 0.779295
O O14 0.068610 0.753842 0.916201
O O15 0.500000 0.000000 0.500000
O O16 0.000000 0.500000 0.000000
#
# Coordination Sequence:
#
# PCOD8034140 Si02
#       7
#     2   2   2   2   2   2   2
#     4  12  28  45  71 106 147 191 241 294 358 424
#     4  11  25  47  73 106 141 187 241 295 368 431
#     4  11  25  47  70 103 145 186 239 298 357 426
#     4  11  25  45  68 105 141 181 243 291 353 428
#     4  11  26  48  74 104 148 186 240 300 359 435
#     4  11  24  43  74  98 140 190 240 294 352 419
#     4  11  25  45  72 104 142 186 235 297 358 421
#
# _framework density 23.410419000000001
#
# number of rings (size 3 to 8) (size 9 to 14) (size 15 to 20)
#    0.000    0.857    2.857    4.286   10.000    4.000 
#    0.000    0.000    0.000    0.000    0.000    0.000 
#    0.000    0.000    0.000    0.000    0.000    0.000 
#
# Total GULP energy -173458.163376 kJ/mol
# GULP energy per Si atom -12389.868813 kJ/mol
# Density = 2.335714 g / cm^3
# Si number density = 23.410419 Si / 1000 Ang^3
#
#
#
# Elastic Constant Matrix: (Units=GPa)
#
#
# Indices 1 2 3 4 5 6 
#
# 1 156.7786 41.9398 45.4953 6.1560 -21.8525 19.3956
# 2 41.9398 126.4437 37.7172 -5.5447 -19.7811 5.3627
# 3 45.4953 37.7172 83.8344 16.7327 -17.2976 12.1951
# 4 6.1560 -5.5447 16.7327 40.0890 4.3632 -5.0835
# 5 -21.8525 -19.7811 -17.2976 4.3632 42.2222 3.4998
# 6 19.3956 5.3627 12.1951 -5.0835 3.4998 48.2235
#
#
#
# Elastic Compliance Matrix: (Units=1/GPa)
#
#
# Indices 1 2 3 4 5 6 
#
# 1 0.008330 -0.001445 -0.002652 -0.001047 0.002891 -0.002839
# 2 -0.001445 0.010006 -0.004065 0.003185 0.001888 0.000695
# 3 -0.002652 -0.004065 0.018930 -0.009282 0.005825 -0.004670
# 4 -0.001047 0.003185 -0.009282 0.030913 -0.006557 0.006149
# 5 0.002891 0.001888 0.005825 -0.006557 0.029600 -0.005685
# 6 -0.002839 0.000695 -0.004670 0.006149 -0.005685 0.024043
#
#
# Mechanical properties :
#
#
# Convention : Reuss Voigt Hill
#
# Bulk Modulus (GPa) = 47.75014 68.59569 58.17292
# Shear Modulus (GPa) = 34.45272 42.23391 38.34331
#
# Velocity S-wave (km/s) = 3.84041 4.25204 4.05146
# Velocity P-wave (km/s) = 6.33295 7.31241 6.84024
#
# Compressibility (1/GPa) = 0.02094235
#
# Stress axis : x y z
#
# Youngs Moduli (GPa) = 120.04996 99.93999 52.82654
#
# Poissons Ratio (x) = 0.14442 0.14009
# Poissons Ratio (y) = 0.17348 0.21473
# Poissons Ratio (z) = 0.31835 0.40624
#
# Static dielectric constant tensor:
#      x y z
#    x 14.220340 1.043960 -2.193570 
#    y 1.043960 4.321560 -0.034960 
#    z -2.193570 -0.034960 4.719290 
# 
# 
# High freq. dielectric constant tensor:
#      x y z
#    x 1.932060 0.011300 -0.011230 
#    y 0.011300 1.930920 0.015010 
#    z -0.011230 0.015010 1.929430 
# 
# From -- ./inp_files/203841.got.cif
#   From: 2010.06.25/outbox.cif.g09.slc.cpg/sg2_102_cif.got.tgz:203841.got - 2010.06.27 13:26:56.
