data_PCOD8034394
_publ_section_title
;
Structure prediction by ZEFSAII (Michael W. Deem and Ramdas Pophale) SiO2 
 PCOD8034394
Probable space group: P -1
;
_chemical_formula_sum "Si O2"
_cell_formula_units_Z 12
_cell_length_a 12.185465
_cell_length_b 9.022849
_cell_length_c 9.737623
_cell_angle_alpha 107.608229
_cell_angle_beta 87.651288
_cell_angle_gamma 36.020548
_cell_volume 516.337190
_symmetry_space_group_name_H-M "P -1"
_symmetry_group_IT_number 2
_symmetry_cell_setting 'triclinic'
loop_
_space_group_symop_operation_xyz
x,y,z
-x,-y,-z
loop_
_atom_site_type_symbol
_atom_site_label
_atom_site_fract_x
_atom_site_fract_y
_atom_site_fract_z
Si Si1 0.005726 0.458660 0.328553
Si Si2 0.647262 0.454862 0.723271
Si Si3 0.944091 0.873216 0.415854
Si Si4 0.800936 0.121486 0.200964
Si Si5 0.509990 0.135075 0.936230
Si Si6 0.192318 0.554422 0.835668
O O1 0.000000 0.500000 0.500000
O O2 0.926570 0.714650 0.333568
O O3 0.842881 0.521643 0.309638
O O4 0.244296 0.119609 0.175487
O O5 0.416418 0.718710 0.733852
O O6 0.809142 0.383644 0.622899
O O7 0.777494 0.130407 0.617668
O O8 0.604010 0.571048 0.911825
O O9 0.888177 0.037959 0.326834
O O10 0.742883 0.358560 0.204971
O O11 0.976495 0.821228 0.013788
O O12 0.387865 0.248540 0.832170
O O13 0.500000 0.000000 0.000000
#
# Coordination Sequence:
#
# PCOD8034394 Si02
#       6
#     2   2   2   2   2   2
#     4  12  29  47  71 104 147 184 233 299 352 413
#     4  11  24  44  74 100 140 185 241 278 353 418
#     4  11  26  45  72 104 138 188 236 287 348 420
#     4  11  24  45  72 105 138 187 232 294 341 420
#     4  12  25  47  74 104 141 192 230 290 356 419
#     4  11  27  43  72 107 140 179 244 286 350 419
#
# _framework density 23.240628000000001
#
# number of rings (size 3 to 8) (size 9 to 14) (size 15 to 20)
#    0.000    0.667    5.000    0.500    9.333    2.667 
#    0.000    0.000    0.000    0.000    0.000    0.000 
#    0.000    0.000    0.000    0.000    0.000    0.000 
#
# Total GULP energy -148771.651307 kJ/mol
# GULP energy per Si atom -12397.637609 kJ/mol
# Density = 2.318773 g / cm^3
# Si number density = 23.240628 Si / 1000 Ang^3
#
#
#
# Elastic Constant Matrix: (Units=GPa)
#
#
# Indices 1 2 3 4 5 6 
#
# 1 89.9423 41.2404 25.8364 -8.8188 18.6919 -13.8203
# 2 41.2404 110.5610 35.1375 -14.2167 3.3790 -1.3560
# 3 25.8364 35.1375 122.4251 6.8468 19.3035 -3.8538
# 4 -8.8188 -14.2167 6.8468 44.0744 -1.1175 0.0795
# 5 18.6919 3.3790 19.3035 -1.1175 41.5373 -0.5868
# 6 -13.8203 -1.3560 -3.8538 0.0795 -0.5868 31.0458
#
#
#
# Elastic Compliance Matrix: (Units=1/GPa)
#
#
# Indices 1 2 3 4 5 6 
#
# 1 0.016330 -0.005381 -0.000757 0.001474 -0.006423 0.006815
# 2 -0.005381 0.012383 -0.003146 0.003485 0.002939 -0.002198
# 3 -0.000757 -0.003146 0.010066 -0.002836 -0.004148 0.000704
# 4 0.001474 0.003485 -0.002836 0.024574 0.001038 0.000413
# 5 -0.006423 0.002939 -0.004148 0.001038 0.028643 -0.002707
# 6 0.006815 -0.002198 0.000704 0.000413 -0.002707 0.035183
#
#
# Mechanical properties :
#
#
# Convention : Reuss Voigt Hill
#
# Bulk Modulus (GPa) = 49.47940 58.59523 54.03731
# Shear Modulus (GPa) = 32.79032 38.04576 35.41804
#
# Velocity S-wave (km/s) = 3.76028 4.05042 3.90804
# Velocity P-wave (km/s) = 6.33949 6.86598 6.60798
#
# Compressibility (1/GPa) = 0.02021043
#
# Stress axis : x y z
#
# Youngs Moduli (GPa) = 61.23863 80.75492 99.34721
#
# Poissons Ratio (x) = 0.43455 0.07519
# Poissons Ratio (y) = 0.32953 0.31255
# Poissons Ratio (z) = 0.04635 0.25405
#
# Static dielectric constant tensor:
#      x y z
#    x 4.325670 0.070180 0.158220 
#    y 0.070180 4.402830 0.555060 
#    z 0.158220 0.555060 4.675780 
# 
# 
# High freq. dielectric constant tensor:
#      x y z
#    x 1.922540 -0.015580 0.010950 
#    y -0.015580 1.907440 0.016320 
#    z 0.010950 0.016320 1.927040 
# 
# From -- ./inp_files/151890.got.cif
#   From: 2010.06.25/outbox.cif.g09.slc.cpg/sg2_76_cif.got.tgz:151890.got - 2010.06.27 13:26:56.
