data_PCOD8034489
_publ_section_title
;
Structure prediction by ZEFSAII (Michael W. Deem and Ramdas Pophale) SiO2 
 PCOD8034489
Probable space group: P -1
;
_chemical_formula_sum "Si O2"
_cell_formula_units_Z 16
_cell_length_a 21.252146
_cell_length_b 12.312358
_cell_length_c 9.056312
_cell_angle_alpha 138.660615
_cell_angle_beta 53.388964
_cell_angle_gamma 151.359066
_cell_volume 735.453746
_symmetry_space_group_name_H-M "P -1"
_symmetry_group_IT_number 2
_symmetry_cell_setting 'triclinic'
loop_
_space_group_symop_operation_xyz
x,y,z
-x,-y,-z
loop_
_atom_site_type_symbol
_atom_site_label
_atom_site_fract_x
_atom_site_fract_y
_atom_site_fract_z
Si Si1 0.198430 0.695235 0.041956
Si Si2 0.191128 0.653512 0.672170
Si Si3 0.934321 0.859009 0.288016
Si Si4 0.066975 0.698523 0.470096
Si Si5 0.538918 0.697618 0.764039
Si Si6 0.360308 0.253320 0.025670
Si Si7 0.793739 0.677122 0.770802
Si Si8 0.752045 0.712653 0.176332
O O1 0.108454 0.651082 0.230349
O O2 0.357177 0.998616 0.145245
O O3 0.157343 0.648195 0.881055
O O4 0.172799 0.467339 0.892659
O O5 0.259674 0.587363 0.495877
O O6 0.049940 0.383165 0.513281
O O7 0.276842 0.948052 0.778165
O O8 0.836907 0.833960 0.332856
O O9 0.000000 0.000000 0.500000
O O10 0.053227 0.023833 0.177391
O O11 0.000000 0.500000 0.500000
O O12 0.197944 0.020848 0.672597
O O13 0.500000 0.500000 0.500000
O O14 0.612735 0.724122 0.816648
O O15 0.407019 0.569458 0.869270
O O16 0.288768 0.306308 0.155690
O O17 0.500000 0.500000 0.000000
O O18 0.784332 0.642291 0.926110
#
# Coordination Sequence:
#
# PCOD8034489 Si02
#       8
#     2   2   2   2   2   2   2   2
#     4  11  24  45  69 101 142 186 236 285 359 425
#     4  11  25  44  71 105 138 187 237 293 355 420
#     4  12  25  44  70 104 141 180 235 296 353 414
#     4  12  24  41  73 102 140 181 235 297 353 413
#     4  11  25  45  70 100 142 188 231 290 355 430
#     4  11  25  48  72 101 142 187 240 286 358 427
#     4  12  25  47  72 106 142 182 238 299 354 419
#     4  12  25  45  69 103 143 183 231 294 356 416
#
# _framework density 21.755277
#
# number of rings (size 3 to 8) (size 9 to 14) (size 15 to 20)
#    0.000    0.500    5.000    3.000    3.500    2.000 
#    0.000    0.000    0.000    0.000    0.000    0.000 
#    0.000    0.000    0.000    0.000    0.000    0.000 
#
# Total GULP energy -198291.796094 kJ/mol
# GULP energy per Si atom -12393.237256 kJ/mol
# Density = 2.170576 g / cm^3
# Si number density = 21.755277 Si / 1000 Ang^3
#
#
#
# Elastic Constant Matrix: (Units=GPa)
#
#
# Indices 1 2 3 4 5 6 
#
# 1 108.8353 43.3379 38.1471 -2.4160 -6.7484 11.2535
# 2 43.3379 163.5234 62.2859 10.1532 -13.5966 0.6831
# 3 38.1471 62.2859 136.5329 0.8841 -5.9626 -5.5968
# 4 -2.4160 10.1532 0.8841 45.9774 -8.3905 2.9435
# 5 -6.7484 -13.5966 -5.9626 -8.3905 38.7131 2.3189
# 6 11.2535 0.6831 -5.5968 2.9435 2.3189 28.9992
#
#
#
# Elastic Compliance Matrix: (Units=1/GPa)
#
#
# Indices 1 2 3 4 5 6 
#
# 1 0.011547 -0.002089 -0.002428 0.001739 0.001594 -0.005204
# 2 -0.002089 0.008045 -0.003001 -0.001529 0.001664 0.000064
# 3 -0.002428 -0.003001 0.009481 0.000142 -0.000156 0.002841
# 4 0.001739 -0.001529 0.000142 0.023313 0.005043 -0.003381
# 5 0.001594 0.001664 -0.000156 0.005043 0.027968 -0.003436
# 6 -0.005204 0.000064 0.002841 -0.003381 -0.003436 0.037668
#
#
# Mechanical properties :
#
#
# Convention : Reuss Voigt Hill
#
# Bulk Modulus (GPa) = 71.24803 77.38151 74.31477
# Shear Modulus (GPa) = 36.30114 40.41264 38.35689
#
# Velocity S-wave (km/s) = 4.08930 4.31467 4.20349
# Velocity P-wave (km/s) = 7.42411 7.77612 7.60215
#
# Compressibility (1/GPa) = 0.01403548
#
# Stress axis : x y z
#
# Youngs Moduli (GPa) = 86.60553 124.29755 105.47911
#
# Poissons Ratio (x) = 0.25966 0.25611
# Poissons Ratio (y) = 0.18092 0.31658
# Poissons Ratio (z) = 0.21029 0.37306
#
# Static dielectric constant tensor:
#      x y z
#    x 2.691260 -2.711210 0.454810 
#    y -2.711210 -0.107910 0.815610 
#    z 0.454810 0.815610 3.883220 
# 
# 
# High freq. dielectric constant tensor:
#      x y z
#    x 1.849120 -0.010030 0.007000 
#    y -0.010030 1.874310 0.005470 
#    z 0.007000 0.005470 1.859110 
# 
# From -- ./inp_files/346467.got.cif
#   From: 2010.06.25/outbox.cif.g09.slc.cpg/sg2_174_cif.got.tgz:346467.got - 2010.06.27 13:26:56.
