data_PCOD8034635
_publ_section_title
;
Structure prediction by ZEFSAII (Michael W. Deem and Ramdas Pophale) SiO2 
 PCOD8034635
Probable space group: P -1
;
_chemical_formula_sum "Si O2"
_cell_formula_units_Z 14
_cell_length_a 14.370529
_cell_length_b 6.627900
_cell_length_c 14.235741
_cell_angle_alpha 108.415203
_cell_angle_beta 149.070328
_cell_angle_gamma 85.808467
_cell_volume 604.340299
_symmetry_space_group_name_H-M "P -1"
_symmetry_group_IT_number 2
_symmetry_cell_setting 'triclinic'
loop_
_space_group_symop_operation_xyz
x,y,z
-x,-y,-z
loop_
_atom_site_type_symbol
_atom_site_label
_atom_site_fract_x
_atom_site_fract_y
_atom_site_fract_z
Si Si1 0.758905 0.965635 0.874268
Si Si2 0.834129 0.906566 0.127139
Si Si3 0.783345 0.709549 0.685158
Si Si4 0.083728 0.441668 0.470334
Si Si5 0.859043 0.290510 0.624692
Si Si6 0.529178 0.822268 0.322602
Si Si7 0.521387 0.547490 0.915549
O O1 0.698694 0.750640 0.717803
O O2 0.644729 0.126798 0.768153
O O3 0.691654 0.878185 0.909580
O O4 0.994706 0.099962 0.105637
O O5 0.960197 0.759267 0.184204
O O6 0.692370 0.802256 0.079572
O O7 0.977544 0.170299 0.314395
O O8 0.792661 0.458412 0.656145
O O9 0.647628 0.734974 0.487396
O O10 0.057793 0.597093 0.387526
O O11 0.314976 0.521251 0.691482
O O12 0.000000 0.500000 0.500000
O O13 0.671186 0.047701 0.421351
O O14 0.420237 0.634628 0.119512
O O15 0.500000 0.500000 0.000000
#
# Coordination Sequence:
#
# PCOD8034635 Si02
#       7
#     2   2   2   2   2   2   2
#     4  11  24  45  73 104 143 193 244 297 358 435
#     4  12  26  49  73 107 149 188 239 302 363 427
#     4  11  24  48  69 105 146 190 246 295 363 425
#     4  12  27  47  72 105 145 191 240 302 366 425
#     4  12  22  47  73  97 151 188 232 307 355 425
#     4  12  25  48  70 105 150 186 243 304 358 430
#     4  12  27  46  73 108 139 190 247 290 366 439
#
# _framework density 23.165755000000001
#
# number of rings (size 3 to 8) (size 9 to 14) (size 15 to 20)
#    0.000    0.286    5.714    3.000    4.000    2.857 
#    2.571    0.000    0.000    0.000    0.000    0.000 
#    0.000    0.000    0.000    0.000    0.000    0.000 
#
# Total GULP energy -173580.232022 kJ/mol
# GULP energy per Si atom -12398.588002 kJ/mol
# Density = 2.311303 g / cm^3
# Si number density = 23.165755 Si / 1000 Ang^3
#
#
#
# Elastic Constant Matrix: (Units=GPa)
#
#
# Indices 1 2 3 4 5 6 
#
# 1 93.8625 34.8453 28.2144 -10.9848 -10.3918 -26.4651
# 2 34.8453 120.8998 46.7920 -5.3264 -7.3429 -12.2341
# 3 28.2144 46.7920 95.4848 -8.4961 -5.3455 -2.9295
# 4 -10.9848 -5.3264 -8.4961 26.4370 -0.8374 1.6792
# 5 -10.3918 -7.3429 -5.3455 -0.8374 33.5012 9.0060
# 6 -26.4651 -12.2341 -2.9295 1.6792 9.0060 40.4315
#
#
#
# Elastic Compliance Matrix: (Units=1/GPa)
#
#
# Indices 1 2 3 4 5 6 
#
# 1 0.015469 -0.002226 -0.002711 0.004608 0.001656 0.008696
# 2 -0.002226 0.010861 -0.004616 -0.000289 0.000576 0.001379
# 3 -0.002711 -0.004616 0.013747 0.002556 0.001083 -0.002522
# 4 0.004608 -0.000289 0.002556 0.040530 0.002555 0.000862
# 5 0.001656 0.000576 0.001083 0.002555 0.032331 -0.005971
# 6 0.008696 0.001379 -0.002522 0.000862 -0.005971 0.031954
#
#
# Mechanical properties :
#
#
# Convention : Reuss Voigt Hill
#
# Bulk Modulus (GPa) = 47.68274 58.88342 53.28308
# Shear Modulus (GPa) = 29.24182 33.43361 31.33772
#
# Velocity S-wave (km/s) = 3.55672 3.80311 3.68198
# Velocity P-wave (km/s) = 6.12332 6.69017 6.41301
#
# Compressibility (1/GPa) = 0.02097195
#
# Stress axis : x y z
#
# Youngs Moduli (GPa) = 64.64356 92.07162 72.74568
#
# Poissons Ratio (x) = 0.20494 0.19719
# Poissons Ratio (y) = 0.14389 0.33579
# Poissons Ratio (z) = 0.17523 0.42500
#
# Static dielectric constant tensor:
#      x y z
#    x 4.360130 -0.145000 0.100510 
#    y -0.145000 4.379370 -0.113400 
#    z 0.100510 -0.113400 4.200340 
# 
# 
# High freq. dielectric constant tensor:
#      x y z
#    x 1.920270 -0.007500 0.009860 
#    y -0.007500 1.921640 -0.005710 
#    z 0.009860 -0.005710 1.926070 
# 
# From -- ./inp_files/36053.got.cif
#   From: 2010.06.25/outbox.cif.g09.slc.cpg/sg2_19_cif.got.tgz:36053.got - 2010.06.27 13:26:56.
