data_PCOD8034242
_publ_section_title
;
Structure prediction by ZEFSAII (Michael W. Deem and Ramdas Pophale) SiO2 
 PCOD8034242
Probable space group: P -1
;
_chemical_formula_sum "Si O2"
_cell_formula_units_Z 14
_cell_length_a 9.077960
_cell_length_b 11.308789
_cell_length_c 15.382564
_cell_angle_alpha 150.747151
_cell_angle_beta 134.758239
_cell_angle_gamma 56.176216
_cell_volume 540.342165
_symmetry_space_group_name_H-M "P -1"
_symmetry_group_IT_number 2
_symmetry_cell_setting 'triclinic'
loop_
_space_group_symop_operation_xyz
x,y,z
-x,-y,-z
loop_
_atom_site_type_symbol
_atom_site_label
_atom_site_fract_x
_atom_site_fract_y
_atom_site_fract_z
Si Si1 0.159730 0.146541 0.038963
Si Si2 0.171819 0.839817 0.678214
Si Si3 0.236312 0.101632 0.527015
Si Si4 0.276714 0.929409 0.120231
Si Si5 0.469953 0.468546 0.603846
Si Si6 0.352619 0.636906 0.213307
Si Si7 0.697592 0.811425 0.198636
O O1 0.187841 0.955593 0.003971
O O2 0.324908 0.400836 0.282426
O O3 0.216463 0.032410 0.898686
O O4 0.914650 0.182810 0.966256
O O5 0.269298 0.599344 0.586329
O O6 0.920281 0.763541 0.509554
O O7 0.269327 0.959382 0.706321
O O8 0.478445 0.205582 0.678728
O O9 0.178200 0.121292 0.616885
O O10 0.196394 0.811185 0.298370
O O11 0.407437 0.184879 0.372841
O O12 0.444472 0.742727 0.067398
O O13 0.529015 0.487264 0.741539
O O14 0.222719 0.420661 0.962216
#
# Coordination Sequence:
#
# PCOD8034242 Si02
#       7
#     2   2   2   2   2   2   2
#     4  11  24  44  69 112 147 192 250 305 376 444
#     4  12  26  45  75 109 148 192 255 306 377 448
#     4  11  27  48  71 111 149 200 254 301 376 460
#     4  11  25  43  75 112 151 194 247 310 376 444
#     4  12  23  48  76 109 152 193 245 320 371 437
#     4  11  25  48  77 102 153 199 244 316 377 434
#     4  12  24  49  74 108 152 195 249 311 371 453
#
# _framework density 25.909510999999998
#
# number of rings (size 3 to 8) (size 9 to 14) (size 15 to 20)
#    0.000    0.571    4.286    3.429    2.000    5.143 
#    2.571    0.000    0.000    0.000    0.000    0.000 
#    0.000    0.000    0.000    0.000    0.000    0.000 
#
# Total GULP energy -173636.835274 kJ/mol
# GULP energy per Si atom -12402.631091 kJ/mol
# Density = 2.585054 g / cm^3
# Si number density = 25.909511 Si / 1000 Ang^3
#
#
#
# Elastic Constant Matrix: (Units=GPa)
#
#
# Indices 1 2 3 4 5 6 
#
# 1 92.9413 19.6864 41.3690 -10.9807 4.1367 8.8271
# 2 19.6864 76.6413 22.4486 2.3186 -17.8509 7.9815
# 3 41.3690 22.4486 96.3154 1.0068 -21.3377 -6.4308
# 4 -10.9807 2.3186 1.0068 24.0273 3.4487 0.1696
# 5 4.1367 -17.8509 -21.3377 3.4487 48.6465 -12.7988
# 6 8.8271 7.9815 -6.4308 0.1696 -12.7988 32.0350
#
#
#
# Elastic Compliance Matrix: (Units=1/GPa)
#
#
# Indices 1 2 3 4 5 6 
#
# 1 0.019272 -0.003621 -0.010847 0.011339 -0.011485 -0.011234
# 2 -0.003621 0.015778 -0.000844 -0.003970 0.005808 -0.000761
# 3 -0.010847 -0.000844 0.018921 -0.007566 0.012627 0.012083
# 4 0.011339 -0.003970 -0.007566 0.049207 -0.011463 -0.008495
# 5 -0.011485 0.005808 0.012627 -0.011463 0.034810 0.018220
# 6 -0.011234 -0.000761 0.012083 -0.008495 0.018220 0.044251
#
#
# Mechanical properties :
#
#
# Convention : Reuss Voigt Hill
#
# Bulk Modulus (GPa) = 42.83331 48.10067 45.46699
# Shear Modulus (GPa) = 22.66067 33.10134 27.88101
#
# Velocity S-wave (km/s) = 2.96059 3.57820 3.28394
# Velocity P-wave (km/s) = 5.31550 5.97298 5.65380
#
# Compressibility (1/GPa) = 0.02334632
#
# Stress axis : x y z
#
# Youngs Moduli (GPa) = 51.88757 63.38109 52.84995
#
# Poissons Ratio (x) = 0.22953 0.57325
# Poissons Ratio (y) = 0.18791 0.04462
# Poissons Ratio (z) = 0.56281 0.05352
#
# Static dielectric constant tensor:
#      x y z
#    x 4.808560 0.013990 -0.081520 
#    y 0.013990 4.646160 -0.145330 
#    z -0.081520 -0.145330 4.528920 
# 
# 
# High freq. dielectric constant tensor:
#      x y z
#    x 2.045460 0.006160 -0.008710 
#    y 0.006160 2.035590 -0.014670 
#    z -0.008710 -0.014670 2.031380 
# 
# From -- ./inp_files/242569.got.cif
#   From: 2010.06.25/outbox.cif.g09.slc.cpg/sg2_122_cif.got.tgz:242569.got - 2010.06.27 13:26:56.
