data_PCOD8034473
_publ_section_title
;
Structure prediction by ZEFSAII (Michael W. Deem and Ramdas Pophale) SiO2 
 PCOD8034473
Probable space group: P -1
;
_chemical_formula_sum "Si O2"
_cell_formula_units_Z 16
_cell_length_a 5.522789
_cell_length_b 15.513726
_cell_length_c 14.221669
_cell_angle_alpha 37.486255
_cell_angle_beta 58.848907
_cell_angle_gamma 58.456515
_cell_volume 619.589073
_symmetry_space_group_name_H-M "P -1"
_symmetry_group_IT_number 2
_symmetry_cell_setting 'triclinic'
loop_
_space_group_symop_operation_xyz
x,y,z
-x,-y,-z
loop_
_atom_site_type_symbol
_atom_site_label
_atom_site_fract_x
_atom_site_fract_y
_atom_site_fract_z
Si Si1 0.699765 0.127858 0.536575
Si Si2 0.248208 0.919905 0.640021
Si Si3 0.350918 0.424542 0.415936
Si Si4 0.769824 0.879395 0.071217
Si Si5 0.672901 0.370535 0.014218
Si Si6 0.233218 0.428855 0.635187
Si Si7 0.318153 0.969885 0.855545
Si Si8 0.647419 0.660767 0.088401
O O1 0.814782 0.141583 0.396582
O O2 0.598425 0.292158 0.447339
O O3 0.440067 0.039539 0.678965
O O4 0.961130 0.038752 0.626361
O O5 0.344200 0.788158 0.806335
O O6 0.500000 0.000000 0.500000
O O7 0.193941 0.377186 0.580329
O O8 0.526592 0.558782 0.280212
O O9 0.078913 0.470878 0.357278
O O10 0.717949 0.722034 0.185405
O O11 0.806474 0.900060 0.158480
O O12 0.049067 0.900536 0.937834
O O13 0.500000 0.000000 0.000000
O O14 0.500000 0.500000 0.000000
O O15 0.507240 0.384600 0.935151
O O16 0.006113 0.386677 0.936878
O O17 0.500000 0.500000 0.500000
O O18 0.554188 0.835639 0.970149
#
# Coordination Sequence:
#
# PCOD8034473 Si02
#       8
#     2   2   2   2   2   2   2   2
#     4  11  24  46  69 101 139 191 238 302 365 440
#     4  11  26  44  71 102 142 183 244 301 365 434
#     4  11  26  45  68 100 146 190 244 293 376 435
#     4  11  26  42  70 102 144 191 245 306 369 440
#     4  12  28  49  75 108 148 193 244 310 372 438
#     4  11  26  44  67 102 147 189 242 306 370 443
#     4  11  24  45  68 103 141 189 247 296 369 433
#     4  12  27  47  78 106 146 195 249 304 368 444
#
# _framework density 25.823566
#
# number of rings (size 3 to 8) (size 9 to 14) (size 15 to 20)
#    0.000    0.750    3.750    1.875   10.500    2.000 
#    0.000    0.000    0.000    0.000    0.000    0.000 
#    0.000    0.000    0.000    0.000    0.000    0.000 
#
# Total GULP energy -198277.839617 kJ/mol
# GULP energy per Si atom -12392.364976 kJ/mol
# Density = 2.576479 g / cm^3
# Si number density = 25.823566 Si / 1000 Ang^3
#
#
#
# Elastic Constant Matrix: (Units=GPa)
#
#
# Indices 1 2 3 4 5 6 
#
# 1 110.3139 31.0969 49.0614 -2.4351 -24.3920 -38.9755
# 2 31.0969 128.0280 40.1151 -23.2289 -4.9077 -33.2611
# 3 49.0614 40.1151 166.7514 -9.3783 -16.0187 -18.8429
# 4 -2.4351 -23.2289 -9.3783 52.1930 0.1823 1.4074
# 5 -24.3920 -4.9077 -16.0187 0.1823 52.3058 7.6451
# 6 -38.9755 -33.2611 -18.8429 1.4074 7.6451 46.3027
#
#
#
# Elastic Compliance Matrix: (Units=1/GPa)
#
#
# Indices 1 2 3 4 5 6 
#
# 1 0.015176 0.000244 -0.002834 -0.000006 0.004620 0.011035
# 2 0.000244 0.010964 -0.001677 0.004393 -0.000459 0.007341
# 3 -0.002834 -0.001677 0.007252 0.000443 0.000857 -0.000794
# 4 -0.000006 0.004393 0.000443 0.021122 0.000080 0.002676
# 5 0.004620 -0.000459 0.000857 0.000080 0.021438 0.000365
# 6 0.011035 0.007341 -0.000794 0.002676 0.000365 0.035694
#
#
# Mechanical properties :
#
#
# Convention : Reuss Voigt Hill
#
# Bulk Modulus (GPa) = 40.22641 71.73779 55.98210
# Shear Modulus (GPa) = 38.92128 49.14829 44.03479
#
# Velocity S-wave (km/s) = 3.88648 4.36734 4.13391
# Velocity P-wave (km/s) = 5.97920 7.29875 6.67168
#
# Compressibility (1/GPa) = 0.02485929
#
# Stress axis : x y z
#
# Youngs Moduli (GPa) = 65.89172 91.21167 137.90130
#
# Poissons Ratio (x) = -0.02229 0.39076
# Poissons Ratio (y) = -0.01610 0.23124
# Poissons Ratio (z) = 0.18671 0.15295
#
# Static dielectric constant tensor:
#      x y z
#    x 3.533090 1.133930 -3.294620 
#    y 1.133930 5.381270 0.860340 
#    z -3.294620 0.860340 -1.358670 
# 
# 
# High freq. dielectric constant tensor:
#      x y z
#    x 2.049870 -0.000530 0.004430 
#    y -0.000530 2.038750 0.005060 
#    z 0.004430 0.005060 2.051710 
# 
# From -- ./inp_files/77726.got.cif
#   From: 2010.06.25/outbox.cif.g09.slc.cpg/sg2_39_cif.got.tgz:77726.got - 2010.06.27 13:26:56.
