data_PCOD8034057
_publ_section_title
;
Structure prediction by ZEFSAII (Michael W. Deem and Ramdas Pophale) SiO2 
 PCOD8034057
Probable space group: P -1
;
_chemical_formula_sum "Si O2"
_cell_formula_units_Z 16
_cell_length_a 12.040100
_cell_length_b 11.307278
_cell_length_c 9.334926
_cell_angle_alpha 51.412495
_cell_angle_beta 83.419449
_cell_angle_gamma 117.007725
_cell_volume 726.418877
_symmetry_space_group_name_H-M "P -1"
_symmetry_group_IT_number 2
_symmetry_cell_setting 'triclinic'
loop_
_space_group_symop_operation_xyz
x,y,z
-x,-y,-z
loop_
_atom_site_type_symbol
_atom_site_label
_atom_site_fract_x
_atom_site_fract_y
_atom_site_fract_z
Si Si1 0.660140 0.101428 0.950787
Si Si2 0.792248 0.357622 0.992640
Si Si3 0.137641 0.555405 0.520907
Si Si4 0.163456 0.071531 0.394529
Si Si5 0.849378 0.765707 0.229899
Si Si6 0.669049 0.795482 0.031405
Si Si7 0.856971 0.294169 0.316877
Si Si8 0.687885 0.567086 0.705079
O O1 0.694789 0.139200 0.087051
O O2 0.741273 0.330435 0.710742
O O3 0.712937 0.992295 0.956010
O O4 0.500000 0.000000 0.000000
O O5 0.749113 0.486131 0.854508
O O6 0.971073 0.488087 0.849968
O O7 0.762101 0.303789 0.206732
O O8 0.107459 0.362252 0.734122
O O9 0.212769 0.732978 0.497164
O O10 0.000000 0.500000 0.500000
O O11 0.221115 0.125458 0.181042
O O12 0.293578 0.268725 0.321487
O O13 0.148329 0.885480 0.588678
O O14 0.000000 0.000000 0.500000
O O15 0.795222 0.700090 0.451881
O O16 0.708629 0.698660 0.209705
O O17 0.000000 0.000000 0.000000
O O18 0.489831 0.621056 0.158735
#
# Coordination Sequence:
#
# PCOD8034057 Si02
#       8
#     2   2   2   2   2   2   2   2
#     4  12  23  45  74 101 142 190 237 292 361 431
#     4  11  24  43  71 104 144 186 237 305 358 424
#     4  12  23  46  72 102 140 183 245 301 345 427
#     4  12  26  46  71 101 144 191 242 298 362 433
#     4  12  27  43  74 108 140 187 246 301 362 433
#     4  12  27  46  72 107 145 197 238 301 373 427
#     4  11  25  43  72 105 140 188 245 301 357 420
#     4  12  25  49  67 102 152 189 237 300 372 433
#
# _framework density 22.025857999999999
#
# number of rings (size 3 to 8) (size 9 to 14) (size 15 to 20)
#    0.000    0.250    6.250    2.250    3.500    1.000 
#    0.000    1.250    0.000    0.000    0.000    0.000 
#    0.000    0.000    0.000    0.000    0.000    0.000 
#
# Total GULP energy -198246.183926 kJ/mol
# GULP energy per Si atom -12390.386495 kJ/mol
# Density = 2.197573 g / cm^3
# Si number density = 22.025858 Si / 1000 Ang^3
#
#
#
# Elastic Constant Matrix: (Units=GPa)
#
#
# Indices 1 2 3 4 5 6 
#
# 1 128.9635 56.3026 62.8142 5.3706 25.2435 11.8725
# 2 56.3026 164.1134 45.8701 7.3300 20.1499 4.0040
# 3 62.8142 45.8701 108.0750 6.5492 18.7422 8.4562
# 4 5.3706 7.3300 6.5492 43.1340 5.2084 2.4715
# 5 25.2435 20.1499 18.7422 5.2084 44.6254 -1.8871
# 6 11.8725 4.0040 8.4562 2.4715 -1.8871 45.0979
#
#
#
# Elastic Compliance Matrix: (Units=1/GPa)
#
#
# Indices 1 2 3 4 5 6 
#
# 1 0.012273 -0.002195 -0.005383 0.000249 -0.003812 -0.002200
# 2 -0.002195 0.007497 -0.001647 -0.000596 -0.001374 0.000196
# 3 -0.005383 -0.001647 0.013528 -0.000824 -0.001839 -0.001005
# 4 0.000249 -0.000596 -0.000824 0.023735 -0.002349 -0.001257
# 5 -0.003812 -0.001374 -0.001839 -0.002349 0.026347 0.002702
# 6 -0.002200 0.000196 -0.001005 -0.001257 0.002702 0.023106
#
#
# Mechanical properties :
#
#
# Convention : Reuss Voigt Hill
#
# Bulk Modulus (GPa) = 67.35249 81.23617 74.29433
# Shear Modulus (GPa) = 38.49525 42.31580 40.40553
#
# Velocity S-wave (km/s) = 4.18512 4.38789 4.28770
# Velocity P-wave (km/s) = 7.34839 7.91415 7.63651
#
# Compressibility (1/GPa) = 0.01484726
#
# Stress axis : x y z
#
# Youngs Moduli (GPa) = 81.48016 133.38004 73.91938
#
# Poissons Ratio (x) = 0.29280 0.39792
# Poissons Ratio (y) = 0.17887 0.12176
# Poissons Ratio (z) = 0.43863 0.21970
#
# Static dielectric constant tensor:
#      x y z
#    x 3.102570 0.798410 -0.729130 
#    y 0.798410 3.416590 0.995650 
#    z -0.729130 0.995650 3.315770 
# 
# 
# High freq. dielectric constant tensor:
#      x y z
#    x 1.864890 -0.000070 0.008620 
#    y -0.000070 1.888060 0.002320 
#    z 0.008620 0.002320 1.868700 
# 
# From -- ./inp_files/261630.got.cif
#   From: 2010.06.25/outbox.cif.g09.slc.cpg/sg2_131_cif.got.tgz:261630.got - 2010.06.27 13:26:56.
