data_PCOD8034632
_publ_section_title
;
Structure prediction by ZEFSAII (Michael W. Deem and Ramdas Pophale) SiO2 
 PCOD8034632
Probable space group: P -1
;
_chemical_formula_sum "Si O2"
_cell_formula_units_Z 16
_cell_length_a 15.877406
_cell_length_b 8.764494
_cell_length_c 9.983917
_cell_angle_alpha 109.030985
_cell_angle_beta 109.003787
_cell_angle_gamma 33.906257
_cell_volume 728.664795
_symmetry_space_group_name_H-M "P -1"
_symmetry_group_IT_number 2
_symmetry_cell_setting 'triclinic'
loop_
_space_group_symop_operation_xyz
x,y,z
-x,-y,-z
loop_
_atom_site_type_symbol
_atom_site_label
_atom_site_fract_x
_atom_site_fract_y
_atom_site_fract_z
Si Si1 0.072025 0.337233 0.127642
Si Si2 0.630777 0.881117 0.440647
Si Si3 0.084860 0.745739 0.881691
Si Si4 0.104547 0.938236 0.372979
Si Si5 0.575772 0.815649 0.118897
Si Si6 0.902242 0.381568 0.599875
Si Si7 0.414479 0.747308 0.121696
Si Si8 0.612908 0.271034 0.603697
O O1 0.086406 0.468052 0.271667
O O2 0.958679 0.374271 0.142837
O O3 0.232169 0.013309 0.091906
O O4 0.000000 0.500000 0.000000
O O5 0.599772 0.913588 0.275073
O O6 0.783980 0.565168 0.469512
O O7 0.500000 0.000000 0.500000
O O8 0.664901 0.016762 0.522541
O O9 0.264992 0.501535 0.927904
O O10 0.042531 0.845962 0.735925
O O11 0.000000 0.000000 0.000000
O O12 0.063045 0.091578 0.534359
O O13 0.152969 0.681544 0.349212
O O14 0.242126 0.825899 0.339140
O O15 0.463262 0.854882 0.140306
O O16 0.500000 0.000000 0.000000
O O17 0.466639 0.618896 0.260857
O O18 0.500000 0.500000 0.000000
O O19 0.500000 0.500000 0.500000
#
# Coordination Sequence:
#
# PCOD8034632 Si02
#       8
#     2   2   2   2   2   2   2   2
#     4  12  25  47  73 103 141 193 240 297 364 439
#     4  12  23  46  72 101 141 184 240 298 361 435
#     4  12  25  44  72 104 142 187 237 300 360 433
#     4  11  25  44  72 107 139 184 244 305 366 434
#     4  12  28  46  72 107 143 192 240 297 364 434
#     4  11  24  45  73 104 140 185 242 302 367 434
#     4  12  27  49  68 105 151 188 242 301 362 436
#     4  12  27  44  75 106 141 193 241 302 366 435
#
# _framework density 21.957971000000001
#
# number of rings (size 3 to 8) (size 9 to 14) (size 15 to 20)
#    0.000    0.250    5.000    3.000    3.500    3.000 
#    0.000    0.000    0.000    0.000    0.000    0.000 
#    0.000    0.000    0.000    0.000    0.000    0.000 
#
# Total GULP energy -198445.592166 kJ/mol
# GULP energy per Si atom -12402.849510 kJ/mol
# Density = 2.190799 g / cm^3
# Si number density = 21.957971 Si / 1000 Ang^3
#
#
#
# Elastic Constant Matrix: (Units=GPa)
#
#
# Indices 1 2 3 4 5 6 
#
# 1 115.5795 21.0875 31.5859 -8.4814 -11.7080 18.9557
# 2 21.0875 110.8203 53.0775 -18.5520 -11.4535 9.4356
# 3 31.5859 53.0775 156.9593 -10.3067 -14.6830 15.6915
# 4 -8.4814 -18.5520 -10.3067 55.7616 8.5759 -1.9229
# 5 -11.7080 -11.4535 -14.6830 8.5759 35.4041 -1.2732
# 6 18.9557 9.4356 15.6915 -1.9229 -1.2732 40.3414
#
#
#
# Elastic Compliance Matrix: (Units=1/GPa)
#
#
# Indices 1 2 3 4 5 6 
#
# 1 0.010023 -0.000686 -0.001127 0.000590 0.002338 -0.004009
# 2 -0.000686 0.011441 -0.003328 0.002846 0.001374 -0.000880
# 3 -0.001127 -0.003328 0.008066 -0.000136 0.001865 -0.001777
# 4 0.000590 0.002846 -0.000136 0.019506 -0.003668 -0.000076
# 5 0.002338 0.001374 0.001865 -0.003668 0.031077 -0.001340
# 6 -0.004009 -0.000880 -0.001777 -0.000076 -0.001340 0.027523
#
#
# Mechanical properties :
#
#
# Convention : Reuss Voigt Hill
#
# Bulk Modulus (GPa) = 51.94794 66.09565 59.02180
# Shear Modulus (GPa) = 40.21430 44.80864 42.51147
#
# Velocity S-wave (km/s) = 4.28415 4.52226 4.40482
# Velocity P-wave (km/s) = 6.94127 7.57853 7.26689
#
# Compressibility (1/GPa) = 0.01925004
#
# Stress axis : x y z
#
# Youngs Moduli (GPa) = 99.77303 87.40386 123.97186
#
# Poissons Ratio (x) = 0.05993 0.13969
# Poissons Ratio (y) = 0.06842 0.41253
# Poissons Ratio (z) = 0.11242 0.29084
#
# Static dielectric constant tensor:
#      x y z
#    x 4.159050 -0.153670 0.063310 
#    y -0.153670 3.714300 0.110200 
#    z 0.063310 0.110200 3.969620 
# 
# 
# High freq. dielectric constant tensor:
#      x y z
#    x 1.874670 0.006630 -0.005730 
#    y 0.006630 1.871360 -0.002520 
#    z -0.005730 -0.002520 1.875520 
# 
# From -- ./inp_files/299301.got.cif
#   From: 2010.06.25/outbox.cif.g09.slc.cpg/sg2_150_cif.got.tgz:299301.got - 2010.06.27 13:26:56.
