data_PCOD8034409
_publ_section_title
;
Structure prediction by ZEFSAII (Michael W. Deem and Ramdas Pophale) SiO2 
 PCOD8034409
Probable space group: P -1
;
_chemical_formula_sum "Si O2"
_cell_formula_units_Z 14
_cell_length_a 9.037770
_cell_length_b 9.548699
_cell_length_c 11.624361
_cell_angle_alpha 63.214449
_cell_angle_beta 46.735633
_cell_angle_gamma 50.512695
_cell_volume 563.584412
_symmetry_space_group_name_H-M "P -1"
_symmetry_group_IT_number 2
_symmetry_cell_setting 'triclinic'
loop_
_space_group_symop_operation_xyz
x,y,z
-x,-y,-z
loop_
_atom_site_type_symbol
_atom_site_label
_atom_site_fract_x
_atom_site_fract_y
_atom_site_fract_z
Si Si1 0.424798 0.896235 0.691450
Si Si2 0.058870 0.298098 0.519737
Si Si3 0.616327 0.411602 0.088964
Si Si4 0.162664 0.169073 0.922663
Si Si5 0.141733 0.732115 0.589128
Si Si6 0.979312 0.014632 0.751297
Si Si7 0.389557 0.404860 0.746026
O O1 0.676611 0.854042 0.522044
O O2 0.495830 0.716158 0.792246
O O3 0.250517 0.898070 0.687418
O O4 0.308924 0.073985 0.766058
O O5 0.000000 0.500000 0.500000
O O6 0.025721 0.290042 0.404244
O O7 0.900395 0.228882 0.698452
O O8 0.540306 0.551359 0.184294
O O9 0.500000 0.500000 0.000000
O O10 0.898515 0.297367 0.973009
O O11 0.269819 0.283468 0.879252
O O12 0.182105 0.016451 0.059871
O O13 0.981893 0.933017 0.654120
O O14 0.202446 0.587747 0.712879
O O15 0.377539 0.705732 0.413810
#
# Coordination Sequence:
#
# PCOD8034409 Si02
#       7
#     2   2   2   2   2   2   2
#     4  11  25  45  68 103 141 192 229 294 365 421
#     4  12  28  44  73 107 137 185 245 301 353 418
#     4  11  24  44  74 108 143 182 246 297 343 423
#     4  11  25  45  73 100 147 195 233 285 366 429
#     4  11  25  45  72 104 149 182 240 296 348 432
#     4  11  24  48  69 101 146 186 235 291 362 430
#     4  11  24  45  73 107 140 193 233 290 366 416
#
# _framework density 24.841000000000001
#
# number of rings (size 3 to 8) (size 9 to 14) (size 15 to 20)
#    0.000    0.857    2.857    4.714    6.000    3.429 
#    0.000    2.143    0.000    0.000    0.000    0.000 
#    0.000    0.000    0.000    0.000    0.000    0.000 
#
# Total GULP energy -173574.435856 kJ/mol
# GULP energy per Si atom -12398.173990 kJ/mol
# Density = 2.478446 g / cm^3
# Si number density = 24.841000 Si / 1000 Ang^3
#
#
#
# Elastic Constant Matrix: (Units=GPa)
#
#
# Indices 1 2 3 4 5 6 
#
# 1 100.5700 13.1085 16.3652 -5.2364 13.8573 15.5479
# 2 13.1085 104.0126 42.8115 -18.0788 -7.4714 35.1061
# 3 16.3652 42.8115 108.5815 -11.6273 -0.7341 15.5276
# 4 -5.2364 -18.0788 -11.6273 49.4876 -0.3003 -0.5202
# 5 13.8573 -7.4714 -0.7341 -0.3003 41.2261 4.6442
# 6 15.5479 35.1061 15.5276 -0.5202 4.6442 31.6222
#
#
#
# Elastic Compliance Matrix: (Units=1/GPa)
#
#
# Indices 1 2 3 4 5 6 
#
# 1 0.011354 0.000914 -0.001171 0.001183 -0.003037 -0.005557
# 2 0.000914 0.019858 -0.004246 0.006166 0.005642 -0.021137
# 3 -0.001171 -0.004246 0.011185 0.000950 -0.000151 -0.000164
# 4 0.001183 0.006166 0.000950 0.022737 0.001779 -0.007780
# 5 -0.003037 0.005642 -0.000151 0.001779 0.027287 -0.008674
# 6 -0.005557 -0.021137 -0.000164 -0.007780 -0.008674 0.059048
#
#
# Mechanical properties :
#
#
# Convention : Reuss Voigt Hill
#
# Bulk Modulus (GPa) = 29.94883 50.85940 40.40411
# Shear Modulus (GPa) = 29.13672 40.52578 34.83125
#
# Velocity S-wave (km/s) = 3.42852 4.04345 3.74862
# Velocity P-wave (km/s) = 5.26834 6.50521 5.91917
#
# Compressibility (1/GPa) = 0.03339029
#
# Stress axis : x y z
#
# Youngs Moduli (GPa) = 88.07593 50.35776 89.40889
#
# Poissons Ratio (x) = -0.04603 0.10468
# Poissons Ratio (y) = -0.08050 0.37965
# Poissons Ratio (z) = 0.10312 0.21383
#
# Static dielectric constant tensor:
#      x y z
#    x 4.572870 0.025750 -0.059750 
#    y 0.025750 4.548350 -0.260560 
#    z -0.059750 -0.260560 4.621530 
# 
# 
# High freq. dielectric constant tensor:
#      x y z
#    x 1.996230 0.003130 0.004010 
#    y 0.003130 1.998100 -0.012990 
#    z 0.004010 -0.012990 1.990980 
# 
# From -- ./inp_files/242737.got.cif
#   From: 2010.06.25/outbox.cif.g09.slc.cpg/sg2_122_cif.got.tgz:242737.got - 2010.06.27 13:26:56.
