data_PCOD8034290
_publ_section_title
;
Structure prediction by ZEFSAII (Michael W. Deem and Ramdas Pophale) SiO2 
 PCOD8034290
Probable space group: P -1
;
_chemical_formula_sum "Si O2"
_cell_formula_units_Z 16
_cell_length_a 9.131335
_cell_length_b 23.560144
_cell_length_c 13.846767
_cell_angle_alpha 25.555207
_cell_angle_beta 45.134691
_cell_angle_gamma 35.863889
_cell_volume 748.965132
_symmetry_space_group_name_H-M "P -1"
_symmetry_group_IT_number 2
_symmetry_cell_setting 'triclinic'
loop_
_space_group_symop_operation_xyz
x,y,z
-x,-y,-z
loop_
_atom_site_type_symbol
_atom_site_label
_atom_site_fract_x
_atom_site_fract_y
_atom_site_fract_z
Si Si1 0.901138 0.833471 0.817378
Si Si2 0.339087 0.709658 0.498295
Si Si3 0.162855 0.403499 0.662993
Si Si4 0.767020 0.538999 0.108667
Si Si5 0.434630 0.126875 0.253595
Si Si6 0.928164 0.637738 0.577838
Si Si7 0.907660 0.920991 0.230970
Si Si8 0.360165 0.804132 0.561428
O O1 0.818772 0.818318 0.770803
O O2 0.187846 0.777488 0.752864
O O3 0.726000 0.013097 0.665553
O O4 0.899910 0.714467 0.077577
O O5 0.546960 0.696409 0.350512
O O6 0.370565 0.539568 0.750764
O O7 0.341724 0.773448 0.504297
O O8 0.071314 0.835736 0.381062
O O9 0.000000 0.500000 0.500000
O O10 0.082603 0.550051 0.545149
O O11 0.876933 0.478691 0.254967
O O12 0.571045 0.730023 0.910703
O O13 0.000000 0.500000 0.000000
O O14 0.500000 0.000000 0.500000
O O15 0.635038 0.059969 0.178747
O O16 0.887499 0.806771 0.343711
O O17 0.649557 0.673981 0.658284
O O18 0.000000 0.000000 0.000000
#
# Coordination Sequence:
#
# PCOD8034290 Si02
#       8
#     2   2   2   2   2   2   2   2
#     4  11  25  45  72 100 139 184 231 293 348 412
#     4  11  26  45  67 104 138 183 234 280 355 413
#     4  12  26  46  67 102 141 187 230 283 353 418
#     4  11  25  44  72 102 140 179 230 293 342 412
#     4  12  23  45  71 101 136 177 234 286 345 407
#     4  11  24  44  70  99 140 177 230 286 346 411
#     4  11  25  42  69  98 134 183 227 279 344 409
#     4  11  24  47  71 102 137 181 235 288 352 415
#
# _framework density 21.36281
#
# number of rings (size 3 to 8) (size 9 to 14) (size 15 to 20)
#    0.000    0.750    3.750    3.750    1.750    4.000 
#    2.250    0.000    0.000    0.000    0.000    0.000 
#    0.000    0.000    0.000    0.000    0.000    0.000 
#
# Total GULP energy -198360.495307 kJ/mol
# GULP energy per Si atom -12397.530957 kJ/mol
# Density = 2.131419 g / cm^3
# Si number density = 21.362810 Si / 1000 Ang^3
#
#
#
# Elastic Constant Matrix: (Units=GPa)
#
#
# Indices 1 2 3 4 5 6 
#
# 1 69.2790 5.8189 20.8791 0.5685 -10.7860 11.1765
# 2 5.8189 120.2522 33.0526 1.6688 -21.9936 17.1631
# 3 20.8791 33.0526 134.7651 5.3413 -19.6095 12.9209
# 4 0.5685 1.6688 5.3413 41.7495 2.1377 -5.9122
# 5 -10.7860 -21.9936 -19.6095 2.1377 31.8696 -1.4179
# 6 11.1765 17.1631 12.9209 -5.9122 -1.4179 42.0219
#
#
#
# Elastic Compliance Matrix: (Units=1/GPa)
#
#
# Indices 1 2 3 4 5 6 
#
# 1 0.016341 0.001246 -0.001620 -0.000945 0.005265 -0.004312
# 2 0.001246 0.010457 -0.001338 -0.001193 0.006711 -0.004132
# 3 -0.001620 -0.001338 0.008811 -0.001511 0.003970 -0.001810
# 4 -0.000945 -0.001193 -0.001511 0.025040 -0.003548 0.004607
# 5 0.005265 0.006711 0.003970 -0.003548 0.040272 -0.004503
# 6 -0.004312 -0.004132 -0.001810 0.004607 -0.004503 0.027685
#
#
# Mechanical properties :
#
#
# Convention : Reuss Voigt Hill
#
# Bulk Modulus (GPa) = 31.07016 49.31083 40.19049
# Shear Modulus (GPa) = 35.02426 40.76460 37.89443
#
# Velocity S-wave (km/s) = 4.05346 4.37304 4.21628
# Velocity P-wave (km/s) = 6.04012 6.97357 6.52356
#
# Compressibility (1/GPa) = 0.03218522
#
# Stress axis : x y z
#
# Youngs Moduli (GPa) = 61.19490 95.62892 113.49872
#
# Poissons Ratio (x) = -0.11917 0.18391
# Poissons Ratio (y) = -0.07626 0.15183
# Poissons Ratio (z) = 0.09916 0.12793
#
# Static dielectric constant tensor:
#      x y z
#    x 4.185820 -0.059110 -0.200830 
#    y -0.059110 3.800550 -0.198120 
#    z -0.200830 -0.198120 3.952610 
# 
# 
# High freq. dielectric constant tensor:
#      x y z
#    x 1.844500 0.004930 -0.003960 
#    y 0.004930 1.859080 -0.002330 
#    z -0.003960 -0.002330 1.840300 
# 
# From -- ./inp_files/190801.got.cif
#   From: 2010.06.25/outbox.cif.g09.slc.cpg/sg2_96_cif.got.tgz:190801.got - 2010.06.27 13:26:56.
