data_PCOD8034143
_publ_section_title
;
Structure prediction by ZEFSAII (Michael W. Deem and Ramdas Pophale) SiO2 
 PCOD8034143
Probable space group: P -1
;
_chemical_formula_sum "Si O2"
_cell_formula_units_Z 16
_cell_length_a 11.915012
_cell_length_b 14.117832
_cell_length_c 14.310243
_cell_angle_alpha 43.647580
_cell_angle_beta 118.198794
_cell_angle_gamma 151.665523
_cell_volume 682.118388
_symmetry_space_group_name_H-M "P -1"
_symmetry_group_IT_number 2
_symmetry_cell_setting 'triclinic'
loop_
_space_group_symop_operation_xyz
x,y,z
-x,-y,-z
loop_
_atom_site_type_symbol
_atom_site_label
_atom_site_fract_x
_atom_site_fract_y
_atom_site_fract_z
Si Si1 0.915752 0.658668 0.050912
Si Si2 0.171396 0.383934 0.625314
Si Si3 0.261268 0.849309 0.914152
Si Si4 0.850344 0.497613 0.654456
Si Si5 0.882961 0.585308 0.805932
Si Si6 0.246085 0.660479 0.616953
Si Si7 0.625367 0.700553 0.173389
Si Si8 0.392163 0.270914 0.061675
O O1 0.781057 0.496206 0.213706
O O2 0.661596 0.433530 0.040401
O O3 0.093024 0.701984 0.050206
O O4 0.117202 0.981491 0.901970
O O5 0.192427 0.422463 0.494383
O O6 0.256692 0.605343 0.556654
O O7 0.382348 0.462682 0.676205
O O8 0.855818 0.047442 0.761944
O O9 0.147183 0.847145 0.791150
O O10 0.568213 0.184449 0.814734
O O11 0.256439 0.683000 0.010098
O O12 0.007398 0.694088 0.670901
O O13 0.979946 0.498862 0.644011
O O14 0.667938 0.506345 0.779187
O O15 0.500000 0.000000 0.500000
O O16 0.705505 0.770781 0.046748
O O17 0.500000 0.500000 0.000000
#
# Coordination Sequence:
#
# PCOD8034143 Si02
#       8
#     2   2   2   2   2   2   2   2
#     4  12  22  44  77 104 138 184 247 296 354 416
#     4  12  28  46  69 105 154 189 231 292 354 438
#     4  11  24  44  71 105 133 186 242 302 347 414
#     4  12  26  45  70 103 144 188 234 292 361 416
#     4  11  24  43  75 101 139 183 244 301 347 415
#     4  12  27  47  73 106 147 190 233 295 360 425
#     4  12  24  46  71 107 140 186 242 296 353 417
#     4  12  24  44  72 104 142 190 235 288 352 425
#
# _framework density 23.456339
#
# number of rings (size 3 to 8) (size 9 to 14) (size 15 to 20)
#    0.000    0.250    6.250    3.375    1.750    0.500 
#    0.000    0.625    0.000    0.000    0.000    0.000 
#    0.000    0.000    0.000    0.000    0.000    0.000 
#
# Total GULP energy -198326.154567 kJ/mol
# GULP energy per Si atom -12395.384660 kJ/mol
# Density = 2.340295 g / cm^3
# Si number density = 23.456339 Si / 1000 Ang^3
#
#
#
# Elastic Constant Matrix: (Units=GPa)
#
#
# Indices 1 2 3 4 5 6 
#
# 1 108.7867 34.7928 22.8760 -1.6088 2.3927 12.4952
# 2 34.7928 100.6826 14.4847 6.2779 -0.1137 7.2573
# 3 22.8760 14.4847 68.1876 11.3834 -2.9214 0.0341
# 4 -1.6088 6.2779 11.3834 43.5313 -6.3676 2.0007
# 5 2.3927 -0.1137 -2.9214 -6.3676 27.7277 5.1763
# 6 12.4952 7.2573 0.0341 2.0007 5.1763 48.3226
#
#
#
# Elastic Compliance Matrix: (Units=1/GPa)
#
#
# Indices 1 2 3 4 5 6 
#
# 1 0.011298 -0.003354 -0.003403 0.001835 -0.000470 -0.002441
# 2 -0.003354 0.011389 -0.001050 -0.001450 0.000039 -0.000787
# 3 -0.003403 -0.001050 0.016782 -0.004287 0.000866 0.001111
# 4 0.001835 -0.001450 -0.004287 0.025267 0.005540 -0.001893
# 5 -0.000470 0.000039 0.000866 0.005540 0.038256 -0.004212
# 6 -0.002441 -0.000787 0.001111 -0.001893 -0.004212 0.021972
#
#
# Mechanical properties :
#
#
# Convention : Reuss Voigt Hill
#
# Bulk Modulus (GPa) = 41.91795 46.88487 44.40141
# Shear Modulus (GPa) = 33.66280 37.61654 35.63967
#
# Velocity S-wave (km/s) = 3.79242 4.00895 3.90218
# Velocity P-wave (km/s) = 6.08983 6.43897 6.26683
#
# Compressibility (1/GPa) = 0.02385613
#
# Stress axis : x y z
#
# Youngs Moduli (GPa) = 88.50809 87.80106 59.58593
#
# Poissons Ratio (x) = 0.29446 0.20278
# Poissons Ratio (y) = 0.29683 0.06257
# Poissons Ratio (z) = 0.30121 0.09220
#
# Static dielectric constant tensor:
#      x y z
#    x 4.332400 0.167960 -0.062680 
#    y 0.167960 4.723100 0.207090 
#    z -0.062680 0.207090 4.012660 
# 
# 
# High freq. dielectric constant tensor:
#      x y z
#    x 1.931190 0.007730 -0.005580 
#    y 0.007730 1.945900 0.015550 
#    z -0.005580 0.015550 1.907620 
# 
# From -- ./inp_files/522286.got.cif
#   From: 2010.06.25/outbox.cif.g09.slc.cpg/sg2_262_cif.got.tgz:522286.got - 2010.06.27 13:26:56.
