data_PCOD8034304
_publ_section_title
;
Structure prediction by ZEFSAII (Michael W. Deem and Ramdas Pophale) SiO2 
 PCOD8034304
Probable space group: P -1
;
_chemical_formula_sum "Si O2"
_cell_formula_units_Z 14
_cell_length_a 23.721063
_cell_length_b 14.936848
_cell_length_c 14.960626
_cell_angle_alpha 150.137122
_cell_angle_beta 18.793820
_cell_angle_gamma 158.768566
_cell_volume 613.153580
_symmetry_space_group_name_H-M "P -1"
_symmetry_group_IT_number 2
_symmetry_cell_setting 'triclinic'
loop_
_space_group_symop_operation_xyz
x,y,z
-x,-y,-z
loop_
_atom_site_type_symbol
_atom_site_label
_atom_site_fract_x
_atom_site_fract_y
_atom_site_fract_z
Si Si1 0.260711 0.847726 0.593876
Si Si2 0.410023 0.454928 0.495317
Si Si3 0.265580 0.704531 0.824458
Si Si4 0.719908 0.535644 0.817563
Si Si5 0.764322 0.936150 0.823724
Si Si6 0.882582 0.009955 0.904606
Si Si7 0.893347 0.728265 0.909251
O O1 0.279455 0.644606 0.400199
O O2 0.063844 0.715700 0.696129
O O3 0.510607 0.128945 0.438283
O O4 0.158508 0.866292 0.852413
O O5 0.500000 0.500000 0.500000
O O6 0.324916 0.595115 0.714239
O O7 0.167282 0.162459 0.599390
O O8 0.615678 0.522068 0.180673
O O9 0.000000 0.500000 0.000000
O O10 0.268177 0.900862 0.041587
O O11 0.914590 0.689606 0.739358
O O12 0.743641 0.724570 0.882645
O O13 0.460844 0.358298 0.104367
O O14 0.781334 0.017291 0.971209
O O15 0.000000 0.000000 0.500000
O O16 0.000000 0.000000 0.000000
#
# Coordination Sequence:
#
# PCOD8034304 Si02
#       7
#     2   2   2   2   2   2   2
#     4  11  25  44  73 105 141 193 239 293 360 432
#     4  12  23  42  73 105 138 185 241 292 360 425
#     4  11  24  44  71 103 139 190 240 288 357 433
#     4  11  25  43  69 106 140 187 242 293 357 435
#     4  11  26  46  70 100 145 193 238 297 359 429
#     4  12  24  45  70 103 146 187 231 301 359 420
#     4  12  21  45  75  97 145 190 234 296 368 423
#
# _framework density 22.832778000000001
#
# number of rings (size 3 to 8) (size 9 to 14) (size 15 to 20)
#    0.000    0.571    5.714    1.714    2.000    3.429 
#    0.000    0.714    0.000    0.000    0.000    0.000 
#    0.000    0.000    0.000    0.000    0.000    0.000 
#
# Total GULP energy -173497.312195 kJ/mol
# GULP energy per Si atom -12392.665157 kJ/mol
# Density = 2.278081 g / cm^3
# Si number density = 22.832778 Si / 1000 Ang^3
#
#
#
# Elastic Constant Matrix: (Units=GPa)
#
#
# Indices 1 2 3 4 5 6 
#
# 1 94.5310 18.6496 12.7927 11.7424 -11.4399 0.5398
# 2 18.6496 139.1559 43.3545 -6.0398 -4.1138 -12.7724
# 3 12.7927 43.3545 111.3626 -13.3301 -11.7911 -9.8859
# 4 11.7424 -6.0398 -13.3301 37.1263 3.5054 -6.9614
# 5 -11.4399 -4.1138 -11.7911 3.5054 36.5086 5.0526
# 6 0.5398 -12.7724 -9.8859 -6.9614 5.0526 37.8875
#
#
#
# Elastic Compliance Matrix: (Units=1/GPa)
#
#
# Indices 1 2 3 4 5 6 
#
# 1 0.012257 -0.001614 -0.001224 -0.005456 0.004146 -0.002594
# 2 -0.001614 0.008559 -0.002847 0.001451 -0.000954 0.002559
# 3 -0.001224 -0.002847 0.011178 0.004194 0.002163 0.002456
# 4 -0.005456 0.001451 0.004194 0.032358 -0.004433 0.008198
# 5 0.004146 -0.000954 0.002163 -0.004433 0.030354 -0.004679
# 6 -0.002594 0.002559 0.002456 0.008198 -0.004679 0.030065
#
#
# Mechanical properties :
#
#
# Convention : Reuss Voigt Hill
#
# Bulk Modulus (GPa) = 48.48656 54.96033 51.72345
# Shear Modulus (GPa) = 34.96130 40.32132 37.64131
#
# Velocity S-wave (km/s) = 3.91729 4.20687 4.06466
# Velocity P-wave (km/s) = 6.46079 6.90797 6.68812
#
# Compressibility (1/GPa) = 0.02062427
#
# Stress axis : x y z
#
# Youngs Moduli (GPa) = 81.58659 116.83514 89.46372
#
# Poissons Ratio (x) = 0.18852 0.10952
# Poissons Ratio (y) = 0.13165 0.25470
# Poissons Ratio (z) = 0.09988 0.33263
#
# Static dielectric constant tensor:
#      x y z
#    x 4.028970 -0.124200 -0.064160 
#    y -0.124200 4.342220 -0.221790 
#    z -0.064160 -0.221790 4.242930 
# 
# 
# High freq. dielectric constant tensor:
#      x y z
#    x 1.899480 0.000250 -0.017420 
#    y 0.000250 1.914180 -0.015050 
#    z -0.017420 -0.015050 1.904420 
# 
# From -- ./inp_files/281556.got.cif
#   From: 2010.06.25/outbox.cif.g09.slc.cpg/sg2_141_cif.got.tgz:281556.got - 2010.06.27 13:26:56.
