data_PCOD8034004
_publ_section_title
;
Structure prediction by ZEFSAII (Michael W. Deem and Ramdas Pophale) SiO2 
 PCOD8034004
Probable space group: P -1
;
_chemical_formula_sum "Si O2"
_cell_formula_units_Z 16
_cell_length_a 15.653284
_cell_length_b 11.665257
_cell_length_c 15.331803
_cell_angle_alpha 140.005303
_cell_angle_beta 151.897404
_cell_angle_gamma 59.199812
_cell_volume 712.925826
_symmetry_space_group_name_H-M "P -1"
_symmetry_group_IT_number 2
_symmetry_cell_setting 'triclinic'
loop_
_space_group_symop_operation_xyz
x,y,z
-x,-y,-z
loop_
_atom_site_type_symbol
_atom_site_label
_atom_site_fract_x
_atom_site_fract_y
_atom_site_fract_z
Si Si1 0.008524 0.026064 0.420534
Si Si2 0.381427 0.490831 0.976376
Si Si3 0.982344 0.231506 0.863282
Si Si4 0.466099 0.146474 0.116778
Si Si5 0.806007 0.894826 0.890271
Si Si6 0.643139 0.302618 0.546395
Si Si7 0.312357 0.436107 0.550239
Si Si8 0.070484 0.628083 0.728929
O O1 0.197935 0.252411 0.692356
O O2 0.045218 0.854060 0.309725
O O3 0.000000 0.000000 0.500000
O O4 0.783808 0.981684 0.156531
O O5 0.270063 0.624921 0.947124
O O6 0.500000 0.500000 0.000000
O O7 0.551751 0.583235 0.261876
O O8 0.771236 0.242137 0.694451
O O9 0.999529 0.083357 0.863384
O O10 0.204675 0.454387 0.201557
O O11 0.592025 0.174183 0.335361
O O12 0.536559 0.369219 0.264541
O O13 0.500000 0.000000 0.000000
O O14 0.569813 0.733212 0.622597
O O15 0.806990 0.792217 0.738801
O O16 0.847428 0.126416 0.061297
O O17 0.135175 0.479155 0.454477
O O18 0.000000 0.500000 0.500000
#
# Coordination Sequence:
#
# PCOD8034004 Si02
#       8
#     2   2   2   2   2   2   2   2
#     4  12  24  43  73 107 143 187 242 307 370 430
#     4  12  28  48  75 107 149 194 252 308 368 444
#     4  11  24  43  69 106 146 187 240 301 364 441
#     4  12  24  43  72 109 150 186 246 304 369 438
#     4  12  26  47  74 104 153 192 244 303 375 439
#     4  11  25  42  72 107 144 193 237 297 373 438
#     4  12  27  48  74 107 149 192 247 311 367 440
#     4  12  28  48  75 103 141 200 252 301 370 446
#
# _framework density 22.442727000000001
#
# number of rings (size 3 to 8) (size 9 to 14) (size 15 to 20)
#    0.000    0.250    5.000    3.750    3.500    1.500 
#    0.000    0.000    0.000    0.000    0.000    0.000 
#    0.000    0.000    0.000    0.000    0.000    0.000 
#
# Total GULP energy -198434.262520 kJ/mol
# GULP energy per Si atom -12402.141408 kJ/mol
# Density = 2.239165 g / cm^3
# Si number density = 22.442727 Si / 1000 Ang^3
#
#
#
# Elastic Constant Matrix: (Units=GPa)
#
#
# Indices 1 2 3 4 5 6 
#
# 1 115.1587 44.2647 50.6308 1.8895 -12.9174 -2.6430
# 2 44.2647 109.4786 70.9502 -42.8098 -2.1850 -22.3453
# 3 50.6308 70.9502 101.4983 11.7761 -15.1001 13.1089
# 4 1.8895 -42.8098 11.7761 28.8711 -3.3681 -17.1079
# 5 -12.9174 -2.1850 -15.1001 -3.3681 45.0823 5.6407
# 6 -2.6430 -22.3453 13.1089 -17.1079 5.6407 26.3816
#
#
#
# Elastic Compliance Matrix: (Units=1/GPa)
#
#
# Indices 1 2 3 4 5 6 
#
# 1 0.011488 -0.001683 -0.004431 -0.000511 0.001529 0.001269
# 2 -0.001683 -0.002030 0.005922 -0.013317 0.002150 -0.013926
# 3 -0.004431 0.005922 0.005053 0.013363 0.000376 0.010646
# 4 -0.000511 -0.013317 0.013363 -0.002007 0.006109 -0.020578
# 5 0.001529 0.002150 0.000376 0.006109 0.023208 0.000787
# 6 0.001269 -0.013926 0.010646 -0.020578 0.000787 0.007434
#
#
# Mechanical properties :
#
#
# Convention : Reuss Voigt Hill
#
# Bulk Modulus (GPa) = 70.78520 73.09189 71.93855
# Shear Modulus (GPa) = 103.64909 30.75300 67.20104
#
# Velocity S-wave (km/s) = 6.80324 3.70576 5.47799
# Velocity P-wave (km/s) = 9.66028 7.13786 8.49323
#
# Compressibility (1/GPa) = 0.01412725
#
# Stress axis : x y z
#
# Youngs Moduli (GPa) = 87.04851 -492.62343 197.88627
#
# Poissons Ratio (x) = -0.82930 0.87681
# Poissons Ratio (y) = 0.14654 -1.17194
# Poissons Ratio (z) = 0.38570 2.91746
#
# Static dielectric constant tensor:
#      x y z
#    x 3.855550 0.217980 -0.064330 
#    y 0.217980 3.809470 -0.129440 
#    z -0.064330 -0.129440 4.328140 
# 
# 
# High freq. dielectric constant tensor:
#      x y z
#    x 1.888310 -0.009450 -0.004280 
#    y -0.009450 1.889500 -0.005640 
#    z -0.004280 -0.005640 1.903630 
# 
# From -- ./inp_files/522612.got.cif
#   From: 2010.06.25/outbox.cif.g09.slc.cpg/sg2_262_cif.got.tgz:522612.got - 2010.06.27 13:26:56.
