data_PCOD8034240
_publ_section_title
;
Structure prediction by ZEFSAII (Michael W. Deem and Ramdas Pophale) SiO2 
 PCOD8034240
Probable space group: P -1
;
_chemical_formula_sum "Si O2"
_cell_formula_units_Z 16
_cell_length_a 17.462073
_cell_length_b 6.069921
_cell_length_c 8.804356
_cell_angle_alpha 100.875723
_cell_angle_beta 121.695869
_cell_angle_gamma 61.506357
_cell_volume 695.435694
_symmetry_space_group_name_H-M "P -1"
_symmetry_group_IT_number 2
_symmetry_cell_setting 'triclinic'
loop_
_space_group_symop_operation_xyz
x,y,z
-x,-y,-z
loop_
_atom_site_type_symbol
_atom_site_label
_atom_site_fract_x
_atom_site_fract_y
_atom_site_fract_z
Si Si1 0.449945 0.803456 0.438926
Si Si2 0.698005 0.762453 0.488252
Si Si3 0.782281 0.328999 0.737923
Si Si4 0.612493 0.784622 0.094011
Si Si5 0.670582 0.303257 0.913388
Si Si6 0.128848 0.149902 0.423381
Si Si7 0.057640 0.561932 0.934430
Si Si8 0.797596 0.872526 0.183328
O O1 0.500000 0.500000 0.500000
O O2 0.406741 0.811342 0.223662
O O3 0.500000 0.000000 0.500000
O O4 0.363747 0.942060 0.494460
O O5 0.708043 0.600148 0.627402
O O6 0.641118 0.691764 0.285497
O O7 0.811993 0.695342 0.549235
O O8 0.719623 0.292084 0.801038
O O9 0.809336 0.134428 0.603578
O O10 0.888783 0.289019 0.912263
O O11 0.697895 0.859390 0.135703
O O12 0.608842 0.578123 0.952174
O O13 0.500000 0.000000 0.000000
O O14 0.757441 0.146861 0.103788
O O15 0.125245 0.154455 0.603879
O O16 0.016783 0.275132 0.255350
O O17 0.145496 0.318621 0.916859
O O18 0.000000 0.500000 0.000000
#
# Coordination Sequence:
#
# PCOD8034240 Si02
#       8
#     2   2   2   2   2   2   2   2
#     4  12  27  45  75 108 146 195 258 320 378 451
#     4  11  24  45  69 102 148 188 246 306 374 441
#     4  12  23  45  74 103 145 192 247 308 374 443
#     4  11  26  47  72 101 146 196 246 302 377 448
#     4  12  25  46  73 103 145 195 245 312 378 445
#     4  11  24  44  69 105 142 191 236 305 372 449
#     4  12  23  45  74 105 142 189 248 307 374 452
#     4  11  26  46  70 103 149 186 243 305 375 448
#
# _framework density 23.007161
#
# number of rings (size 3 to 8) (size 9 to 14) (size 15 to 20)
#    0.000    0.500    3.750    4.500    3.500    0.500 
#    0.000    1.250    0.000    0.000    0.000    0.000 
#    0.000    0.000    0.000    0.000    0.000    0.000 
#
# Total GULP energy -198264.082168 kJ/mol
# GULP energy per Si atom -12391.505136 kJ/mol
# Density = 2.295480 g / cm^3
# Si number density = 23.007161 Si / 1000 Ang^3
#
#
#
# Elastic Constant Matrix: (Units=GPa)
#
#
# Indices 1 2 3 4 5 6 
#
# 1 82.8665 33.5900 40.8558 -2.9215 1.0461 -8.1075
# 2 33.5900 94.5863 28.4083 -2.0051 -0.9552 0.9638
# 3 40.8558 28.4083 152.2232 -0.1079 2.8145 10.8650
# 4 -2.9215 -2.0051 -0.1079 52.5011 0.8628 -0.8983
# 5 1.0461 -0.9552 2.8145 0.8628 37.5708 0.5526
# 6 -8.1075 0.9638 10.8650 -0.8983 0.5526 33.9141
#
#
#
# Elastic Compliance Matrix: (Units=1/GPa)
#
#
# Indices 1 2 3 4 5 6 
#
# 1 0.016465 -0.004713 -0.003914 0.000826 -0.000383 0.005352
# 2 -0.004713 0.012570 -0.001008 0.000187 0.000539 -0.001165
# 3 -0.003914 -0.001008 0.008065 -0.000292 -0.000463 -0.003491
# 4 0.000826 0.000187 -0.000292 0.019121 -0.000447 0.000799
# 5 -0.000383 0.000539 -0.000463 -0.000447 0.026692 -0.000405
# 6 0.005352 -0.001165 -0.003491 0.000799 -0.000405 0.031945
#
#
# Mechanical properties :
#
#
# Convention : Reuss Voigt Hill
#
# Bulk Modulus (GPa) = 56.07941 59.48712 57.78327
# Shear Modulus (GPa) = 35.69634 39.91867 37.80750
#
# Velocity S-wave (km/s) = 3.94322 4.16992 4.05815
# Velocity P-wave (km/s) = 6.72010 7.00688 6.86498
#
# Compressibility (1/GPa) = 0.01783186
#
# Stress axis : x y z
#
# Youngs Moduli (GPa) = 60.73421 79.55560 123.98649
#
# Poissons Ratio (x) = 0.37491 0.48529
# Poissons Ratio (y) = 0.28621 0.12494
# Poissons Ratio (z) = 0.23772 0.08017
#
# Static dielectric constant tensor:
#      x y z
#    x 4.326980 -0.106600 0.286760 
#    y -0.106600 4.191930 0.134930 
#    z 0.286760 0.134930 4.838760 
# 
# 
# High freq. dielectric constant tensor:
#      x y z
#    x 1.906070 -0.010310 0.002310 
#    y -0.010310 1.909610 0.006520 
#    z 0.002310 0.006520 1.934240 
# 
# From -- ./inp_files/85039.got.cif
#   From: 2010.06.25/outbox.cif.g09.slc.cpg/sg2_43_cif.got.tgz:85039.got - 2010.06.27 13:26:56.
