data_PCOD8034724
_publ_section_title
;
Structure prediction by ZEFSAII (Michael W. Deem and Ramdas Pophale) SiO2 
 PCOD8034724
Probable space group: P -1
;
_chemical_formula_sum "Si O2"
_cell_formula_units_Z 16
_cell_length_a 9.110603
_cell_length_b 9.283549
_cell_length_c 11.876617
_cell_angle_alpha 78.652852
_cell_angle_beta 48.363164
_cell_angle_gamma 85.974108
_cell_volume 733.551927
_symmetry_space_group_name_H-M "P -1"
_symmetry_group_IT_number 2
_symmetry_cell_setting 'triclinic'
loop_
_space_group_symop_operation_xyz
x,y,z
-x,-y,-z
loop_
_atom_site_type_symbol
_atom_site_label
_atom_site_fract_x
_atom_site_fract_y
_atom_site_fract_z
Si Si1 0.352000 0.240049 0.306161
Si Si2 0.364796 0.133963 0.565356
Si Si3 0.991035 0.124881 0.892326
Si Si4 0.329171 0.516993 0.848011
Si Si5 0.440260 0.978102 0.906886
Si Si6 0.029259 0.471614 0.829585
Si Si7 0.029825 0.610835 0.569713
Si Si8 0.541299 0.261978 0.675917
O O1 0.327810 0.212720 0.455227
O O2 0.545277 0.349735 0.177240
O O3 0.158245 0.296303 0.340529
O O4 0.393325 0.098186 0.235129
O O5 0.468064 0.249353 0.585589
O O6 0.146195 0.078426 0.727039
O O7 0.500000 0.000000 0.500000
O O8 0.041857 0.296155 0.876994
O O9 0.768639 0.116108 0.963126
O O10 0.000000 0.000000 0.000000
O O11 0.481594 0.403649 0.750253
O O12 0.208602 0.560354 0.791664
O O13 0.170742 0.464516 0.032961
O O14 0.428419 0.129603 0.823003
O O15 0.500000 0.000000 0.000000
O O16 0.052857 0.506898 0.681522
O O17 0.000000 0.500000 0.500000
O O18 0.221122 0.727339 0.441993
#
# Coordination Sequence:
#
# PCOD8034724 Si02
#       8
#     2   2   2   2   2   2   2   2
#     4  12  26  48  72 107 143 193 237 300 356 429
#     4  12  25  46  75 104 144 184 241 294 352 419
#     4  12  23  47  76 106 140 187 245 291 352 421
#     4  11  24  45  78 102 141 178 250 292 355 418
#     4  12  29  47  71 105 148 190 236 296 364 430
#     4  11  25  45  73 111 138 186 236 303 358 421
#     4  12  28  44  71 105 148 188 236 293 367 429
#     4  12  26  49  71 106 142 193 238 298 360 421
#
# _framework density 21.811679999999999
#
# number of rings (size 3 to 8) (size 9 to 14) (size 15 to 20)
#    0.000    0.250    6.250    1.500    5.250    3.000 
#    0.000    0.000    0.000    0.000    0.000    0.000 
#    0.000    0.000    0.000    0.000    0.000    0.000 
#
# Total GULP energy -198377.973071 kJ/mol
# GULP energy per Si atom -12398.623317 kJ/mol
# Density = 2.176204 g / cm^3
# Si number density = 21.811680 Si / 1000 Ang^3
#
#
#
# Elastic Constant Matrix: (Units=GPa)
#
#
# Indices 1 2 3 4 5 6 
#
# 1 91.6208 16.7215 45.0625 3.4623 -14.0727 5.8692
# 2 16.7215 58.9451 26.0473 7.2725 6.7641 -2.1290
# 3 45.0625 26.0473 114.3832 15.1058 -10.5024 1.5822
# 4 3.4623 7.2725 15.1058 34.3191 6.1145 -1.8458
# 5 -14.0727 6.7641 -10.5024 6.1145 45.2895 4.2421
# 6 5.8692 -2.1290 1.5822 -1.8458 4.2421 34.4687
#
#
#
# Elastic Compliance Matrix: (Units=1/GPa)
#
#
# Indices 1 2 3 4 5 6 
#
# 1 0.014526 -0.002625 -0.004755 0.000310 0.004032 -0.002897
# 2 -0.002625 0.020216 -0.003864 -0.001339 -0.004774 0.002389
# 3 -0.004755 -0.003864 0.012360 -0.004644 0.002646 -0.000571
# 4 0.000310 -0.001339 -0.004644 0.032532 -0.005406 0.002485
# 5 0.004032 -0.004774 0.002646 -0.005406 0.025818 -0.004570
# 6 -0.002897 0.002389 -0.000571 0.002485 -0.004570 0.030374
#
#
# Mechanical properties :
#
#
# Convention : Reuss Voigt Hill
#
# Bulk Modulus (GPa) = 40.62811 48.95685 44.79248
# Shear Modulus (GPa) = 30.02661 34.62332 32.32497
#
# Velocity S-wave (km/s) = 3.71432 3.98851 3.85385
# Velocity P-wave (km/s) = 6.08787 6.61097 6.35480
#
# Compressibility (1/GPa) = 0.02461350
#
# Stress axis : x y z
#
# Youngs Moduli (GPa) = 68.84343 49.46479 80.90566
#
# Poissons Ratio (x) = 0.12984 0.38474
# Poissons Ratio (y) = 0.18070 0.31263
# Poissons Ratio (z) = 0.32738 0.19114
#
# Static dielectric constant tensor:
#      x y z
#    x 4.128830 0.062750 -0.300990 
#    y 0.062750 3.947970 -0.085820 
#    z -0.300990 -0.085820 4.481270 
# 
# 
# High freq. dielectric constant tensor:
#      x y z
#    x 1.865720 0.003340 -0.012790 
#    y 0.003340 1.854530 0.013240 
#    z -0.012790 0.013240 1.873820 
# 
# From -- ./inp_files/188588.got.cif
#   From: 2010.06.25/outbox.cif.g09.slc.cpg/sg2_95_cif.got.tgz:188588.got - 2010.06.27 13:26:56.
