data_PCOD8034531
_publ_section_title
;
Structure prediction by ZEFSAII (Michael W. Deem and Ramdas Pophale) SiO2 
 PCOD8034531
Probable space group: P -1
;
_chemical_formula_sum "Si O2"
_cell_formula_units_Z 14
_cell_length_a 13.090060
_cell_length_b 10.101906
_cell_length_c 13.794819
_cell_angle_alpha 40.141401
_cell_angle_beta 65.355370
_cell_angle_gamma 45.784228
_cell_volume 815.804083
_symmetry_space_group_name_H-M "P -1"
_symmetry_group_IT_number 2
_symmetry_cell_setting 'triclinic'
loop_
_space_group_symop_operation_xyz
x,y,z
-x,-y,-z
loop_
_atom_site_type_symbol
_atom_site_label
_atom_site_fract_x
_atom_site_fract_y
_atom_site_fract_z
Si Si1 0.209655 0.232474 0.311825
Si Si2 0.886047 0.758632 0.462926
Si Si3 0.431460 0.263667 0.128746
Si Si4 0.537755 0.375977 0.417706
Si Si5 0.407404 0.709985 0.778477
Si Si6 0.040143 0.738320 0.585724
Si Si7 0.380560 0.340570 0.657622
O O1 0.195611 0.298560 0.396125
O O2 0.269225 0.359407 0.159788
O O3 0.049381 0.339464 0.278112
O O4 0.321129 0.909827 0.436029
O O5 0.000000 0.500000 0.500000
O O6 0.979225 0.816120 0.455565
O O7 0.762461 0.016982 0.302851
O O8 0.498547 0.251712 0.212010
O O9 0.535430 0.974753 0.198293
O O10 0.412503 0.472314 0.946713
O O11 0.522767 0.368027 0.312774
O O12 0.397358 0.439110 0.492286
O O13 0.554161 0.595368 0.317579
O O14 0.211586 0.487546 0.662456
O O15 0.000000 0.000000 0.500000
#
# Coordination Sequence:
#
# PCOD8034531 Si02
#       7
#     2   2   2   2   2   2   2
#     4   8  18  32  51  77  98 133 166 209 257 290
#     4   9  18  31  53  77  97 129 171 212 250 296
#     4  10  21  34  54  71 105 143 170 205 253 304
#     4   9  18  33  54  81  99 127 176 219 244 295
#     4  10  20  36  51  74 106 138 170 209 256 296
#     4  10  17  31  54  75 103 129 162 213 259 295
#     4  10  18  32  57  80  98 131 173 211 257 302
#
# _framework density 17.160982000000001
#
# number of rings (size 3 to 8) (size 9 to 14) (size 15 to 20)
#    0.857    1.714    1.429    0.857    0.000    6.857 
#    0.000    0.714    3.143    1.714    0.000    0.000 
#    0.000    0.000    0.000    0.000    0.000    0.000 
#
# Total GULP energy -173452.196834 kJ/mol
# GULP energy per Si atom -12389.442631 kJ/mol
# Density = 1.712192 g / cm^3
# Si number density = 17.160982 Si / 1000 Ang^3
#
#
#
# Elastic Constant Matrix: (Units=GPa)
#
#
# Indices 1 2 3 4 5 6 
#
# 1 86.1654 42.2876 18.8929 -4.3832 -13.6885 -8.3148
# 2 42.2876 118.1687 28.7197 -1.5295 -6.8420 0.6583
# 3 18.8929 28.7197 43.2557 -5.2627 -4.2118 0.8482
# 4 -4.3832 -1.5295 -5.2627 17.4332 2.8168 1.5043
# 5 -13.6885 -6.8420 -4.2118 2.8168 23.0075 4.3886
# 6 -8.3148 0.6583 0.8482 1.5043 4.3886 36.2506
#
#
#
# Elastic Compliance Matrix: (Units=1/GPa)
#
#
# Indices 1 2 3 4 5 6 
#
# 1 0.015973 -0.004543 -0.003194 0.001293 0.006849 0.002938
# 2 -0.004543 0.011494 -0.005841 -0.001818 0.000068 -0.001047
# 3 -0.003194 -0.005841 0.029458 0.007541 0.001170 -0.001770
# 4 0.001293 -0.001818 0.007541 0.060842 -0.005515 -0.001704
# 5 0.006849 0.000068 0.001170 -0.005515 0.049248 -0.004191
# 6 0.002938 -0.001047 -0.001770 -0.001704 -0.004191 0.028898
#
#
# Mechanical properties :
#
#
# Convention : Reuss Voigt Hill
#
# Bulk Modulus (GPa) = 33.59220 47.48781 40.54000
# Shear Modulus (GPa) = 21.46009 25.85090 23.65550
#
# Velocity S-wave (km/s) = 3.54010 3.88542 3.71677
# Velocity P-wave (km/s) = 6.02719 6.91814 6.48798
#
# Compressibility (1/GPa) = 0.02976882
#
# Stress axis : x y z
#
# Youngs Moduli (GPa) = 62.60705 87.00108 33.94699
#
# Poissons Ratio (x) = 0.39523 0.10841
# Poissons Ratio (y) = 0.28441 0.19830
# Poissons Ratio (z) = 0.19994 0.50820
#
# Static dielectric constant tensor:
#      x y z
#    x 3.225550 -0.049100 -0.164290 
#    y -0.049100 3.367200 0.131850 
#    z -0.164290 0.131850 2.836170 
# 
# 
# High freq. dielectric constant tensor:
#      x y z
#    x 1.664270 0.002460 -0.011300 
#    y 0.002460 1.678660 0.005350 
#    z -0.011300 0.005350 1.620070 
# 
# From -- ./inp_files/324978.got.cif
#   From: 2010.06.25/outbox.cif.g09.slc.cpg/sg2_163_cif.got.tgz:324978.got - 2010.06.27 13:26:56.
