data_PCOD8034866
_publ_section_title
;
Structure prediction by ZEFSAII (Michael W. Deem and Ramdas Pophale) SiO2 
 PCOD8034866
Probable space group: P -1
;
_chemical_formula_sum "Si O2"
_cell_formula_units_Z 16
_cell_length_a 11.811153
_cell_length_b 14.572660
_cell_length_c 15.155404
_cell_angle_alpha 142.413227
_cell_angle_beta 30.489646
_cell_angle_gamma 121.408366
_cell_volume 688.316742
_symmetry_space_group_name_H-M "P -1"
_symmetry_group_IT_number 2
_symmetry_cell_setting 'triclinic'
loop_
_space_group_symop_operation_xyz
x,y,z
-x,-y,-z
loop_
_atom_site_type_symbol
_atom_site_label
_atom_site_fract_x
_atom_site_fract_y
_atom_site_fract_z
Si Si1 0.959335 0.058834 0.671883
Si Si2 0.346829 0.341875 0.864271
Si Si3 0.562813 0.710679 0.713642
Si Si4 0.815428 0.697917 0.242277
Si Si5 0.945872 0.285975 0.591422
Si Si6 0.304908 0.840410 0.804483
Si Si7 0.045179 0.667443 0.761921
Si Si8 0.083082 0.761803 0.615869
O O1 0.076307 0.178032 0.709418
O O2 0.649689 0.169690 0.979961
O O3 0.000000 0.000000 0.500000
O O4 0.099540 0.877390 0.496139
O O5 0.200656 0.310048 0.858238
O O6 0.657121 0.225368 0.553817
O O7 0.266363 0.547081 0.081430
O O8 0.238892 0.297305 0.991303
O O9 0.418734 0.725731 0.729617
O O10 0.719295 0.511536 0.491159
O O11 0.765003 0.776623 0.613945
O O12 0.529829 0.779546 0.535531
O O13 0.000000 0.500000 0.000000
O O14 0.922225 0.342265 0.546933
O O15 0.077710 0.821597 0.897949
O O16 0.175771 0.045457 0.068729
O O17 0.071206 0.662089 0.634503
#
# Coordination Sequence:
#
# PCOD8034866 Si02
#       8
#     2   2   2   2   2   2   2   2
#     4  12  25  41  73 114 144 188 243 312 378 424
#     4  11  26  48  72 106 148 195 253 295 371 445
#     4  11  24  46  73 103 144 191 252 306 365 443
#     4  12  25  45  76 111 148 193 249 308 365 445
#     4  11  26  49  72 105 148 198 245 311 369 436
#     4  12  24  47  73 109 149 188 247 313 374 428
#     4  11  25  46  76 106 144 201 241 305 380 435
#     4  12  27  47  72 107 157 195 245 307 367 452
#
# _framework density 23.245114000000001
#
# number of rings (size 3 to 8) (size 9 to 14) (size 15 to 20)
#    0.000    0.500    2.500    6.000    3.500    3.500 
#    0.000    0.000    0.000    0.000    0.000    0.000 
#    0.000    0.000    0.000    0.000    0.000    0.000 
#
# Total GULP energy -198442.009061 kJ/mol
# GULP energy per Si atom -12402.625566 kJ/mol
# Density = 2.319221 g / cm^3
# Si number density = 23.245114 Si / 1000 Ang^3
#
#
#
# Elastic Constant Matrix: (Units=GPa)
#
#
# Indices 1 2 3 4 5 6 
#
# 1 100.1130 29.0050 31.5253 -3.1344 22.7589 -10.7703
# 2 29.0050 117.2514 42.8281 1.1823 7.4587 -2.2209
# 3 31.5253 42.8281 122.8956 -10.1040 9.4419 -6.1068
# 4 -3.1344 1.1823 -10.1040 37.0141 2.6720 9.5613
# 5 22.7589 7.4587 9.4419 2.6720 40.3158 -2.0888
# 6 -10.7703 -2.2209 -6.1068 9.5613 -2.0888 44.3406
#
#
#
# Elastic Compliance Matrix: (Units=1/GPa)
#
#
# Indices 1 2 3 4 5 6 
#
# 1 0.012910 -0.002034 -0.001958 0.000473 -0.006362 0.002363
# 2 -0.002034 0.010188 -0.003151 -0.001331 0.000083 -0.000127
# 3 -0.001958 -0.003151 0.010030 0.002700 -0.000833 0.000126
# 4 0.000473 -0.001331 0.002700 0.029625 -0.002933 -0.006106
# 5 -0.006362 0.000083 -0.000833 -0.002933 0.028787 0.000333
# 6 0.002363 -0.000127 0.000126 -0.006106 0.000333 0.024470
#
#
# Mechanical properties :
#
#
# Convention : Reuss Voigt Hill
#
# Bulk Modulus (GPa) = 53.07105 60.77521 56.92313
# Shear Modulus (GPa) = 36.60958 40.12754 38.36856
#
# Velocity S-wave (km/s) = 3.97285 4.15936 4.06717
# Velocity P-wave (km/s) = 6.62762 7.01920 6.82622
#
# Compressibility (1/GPa) = 0.01884266
#
# Stress axis : x y z
#
# Youngs Moduli (GPa) = 77.46127 98.14994 99.70478
#
# Poissons Ratio (x) = 0.19961 0.19521
# Poissons Ratio (y) = 0.15753 0.31417
# Poissons Ratio (z) = 0.15166 0.30927
#
# Static dielectric constant tensor:
#      x y z
#    x 4.270260 -0.044000 0.136790 
#    y -0.044000 4.258880 -0.090290 
#    z 0.136790 -0.090290 4.318850 
# 
# 
# High freq. dielectric constant tensor:
#      x y z
#    x 1.926400 0.000630 0.013410 
#    y 0.000630 1.914950 -0.003830 
#    z 0.013410 -0.003830 1.933090 
# 
# From -- ./inp_files/522467.got.cif
#   From: 2010.06.25/outbox.cif.g09.slc.cpg/sg2_262_cif.got.tgz:522467.got - 2010.06.27 13:26:56.
