data_PCOD8034295
_publ_section_title
;
Structure prediction by ZEFSAII (Michael W. Deem and Ramdas Pophale) SiO2 
 PCOD8034295
Probable space group: P -1
;
_chemical_formula_sum "Si O2"
_cell_formula_units_Z 10
_cell_length_a 11.218733
_cell_length_b 6.552599
_cell_length_c 11.518754
_cell_angle_alpha 68.615900
_cell_angle_beta 33.675811
_cell_angle_gamma 83.291087
_cell_volume 407.649223
_symmetry_space_group_name_H-M "P -1"
_symmetry_group_IT_number 2
_symmetry_cell_setting 'triclinic'
loop_
_space_group_symop_operation_xyz
x,y,z
-x,-y,-z
loop_
_atom_site_type_symbol
_atom_site_label
_atom_site_fract_x
_atom_site_fract_y
_atom_site_fract_z
Si Si1 0.828322 0.283205 0.021150
Si Si2 0.094373 0.309844 0.576153
Si Si3 0.669218 0.041491 0.531078
Si Si4 0.736072 0.504243 0.256600
Si Si5 0.724173 0.172355 0.720702
O O1 0.916361 0.353405 0.804264
O O2 0.048035 0.270112 0.920058
O O3 0.608195 0.040610 0.247049
O O4 0.741365 0.476367 0.117897
O O5 0.230060 0.154287 0.553996
O O6 0.280504 0.563678 0.337606
O O7 0.949651 0.181260 0.607790
O O8 0.783948 0.278456 0.317097
O O9 0.733807 0.075236 0.605913
O O10 0.500000 0.500000 0.500000
O O11 0.500000 0.000000 0.000000
#
# Coordination Sequence:
#
# PCOD8034295 Si02
#       5
#     2   2   2   2   2
#     4  11  24  44  71 101 135 183 226 280 341 402
#     4  11  25  45  70 105 138 175 234 274 340 412
#     4  12  25  44  72 102 138 181 225 282 340 400
#     4  11  26  46  69 103 140 179 230 279 338 407
#     4  11  24  47  69 102 139 180 223 285 341 401
#
# _framework density 24.530895000000001
#
# number of rings (size 3 to 8) (size 9 to 14) (size 15 to 20)
#    0.000    0.800    4.000    2.400    0.000    7.200 
#    0.000    0.000    0.000    0.000    0.000    0.000 
#    0.000    0.000    0.000    0.000    0.000    0.000 
#
# Total GULP energy -123917.904686 kJ/mol
# GULP energy per Si atom -12391.790469 kJ/mol
# Density = 2.447506 g / cm^3
# Si number density = 24.530895 Si / 1000 Ang^3
#
#
#
# Elastic Constant Matrix: (Units=GPa)
#
#
# Indices 1 2 3 4 5 6 
#
# 1 95.3090 41.6144 39.8274 10.9692 -4.2982 24.2308
# 2 41.6144 86.9999 55.3734 4.2497 -1.3361 0.5304
# 3 39.8274 55.3734 137.6732 7.5711 -8.2427 7.5518
# 4 10.9692 4.2497 7.5711 44.2327 0.3760 1.0797
# 5 -4.2982 -1.3361 -8.2427 0.3760 43.3960 -2.7334
# 6 24.2308 0.5304 7.5518 1.0797 -2.7334 59.6390
#
#
#
# Elastic Compliance Matrix: (Units=1/GPa)
#
#
# Indices 1 2 3 4 5 6 
#
# 1 0.015841 -0.006469 -0.001441 -0.002917 0.000737 -0.006110
# 2 -0.006469 0.018144 -0.005699 0.000768 -0.000974 0.003130
# 3 -0.001441 -0.005699 0.010144 -0.000831 0.001580 -0.000561
# 4 -0.002917 0.000768 -0.000831 0.023384 -0.000573 0.000834
# 5 0.000737 -0.000974 0.001580 -0.000573 0.023429 0.000593
# 6 -0.006110 0.003130 -0.000561 0.000834 0.000593 0.019305
#
#
# Mechanical properties :
#
#
# Convention : Reuss Voigt Hill
#
# Bulk Modulus (GPa) = 59.13154 65.95697 62.54426
# Shear Modulus (GPa) = 34.94028 41.66465 38.30246
#
# Velocity S-wave (km/s) = 3.77813 4.12570 3.95574
# Velocity P-wave (km/s) = 6.57188 7.04563 6.81288
#
# Compressibility (1/GPa) = 0.01691145
#
# Stress axis : x y z
#
# Youngs Moduli (GPa) = 63.12673 55.11484 98.58465
#
# Poissons Ratio (x) = 0.35653 0.14208
# Poissons Ratio (y) = 0.40836 0.56179
# Poissons Ratio (z) = 0.09098 0.31407
#
# Static dielectric constant tensor:
#      x y z
#    x 4.562240 0.539940 0.082520 
#    y 0.539940 4.543920 -0.006780 
#    z 0.082520 -0.006780 4.547440 
# 
# 
# High freq. dielectric constant tensor:
#      x y z
#    x 1.973230 0.038350 -0.002860 
#    y 0.038350 1.960690 -0.004240 
#    z -0.002860 -0.004240 1.993730 
# 
# From -- ./inp_files/2285.got.cif
#   From: 2010.06.25/outbox.cif.g09.slc.cpg/sg2_2_cif.got.tgz:2285.got - 2010.06.27 13:26:56.
