data_PCOD8034415
_publ_section_title
;
Structure prediction by ZEFSAII (Michael W. Deem and Ramdas Pophale) SiO2 
 PCOD8034415
Probable space group: P -1
;
_chemical_formula_sum "Si O2"
_cell_formula_units_Z 16
_cell_length_a 11.950862
_cell_length_b 20.414966
_cell_length_c 9.088082
_cell_angle_alpha 40.601165
_cell_angle_beta 140.793575
_cell_angle_gamma 140.877738
_cell_volume 811.909170
_symmetry_space_group_name_H-M "P -1"
_symmetry_group_IT_number 2
_symmetry_cell_setting 'triclinic'
loop_
_space_group_symop_operation_xyz
x,y,z
-x,-y,-z
loop_
_atom_site_type_symbol
_atom_site_label
_atom_site_fract_x
_atom_site_fract_y
_atom_site_fract_z
Si Si1 0.105976 0.272408 0.891350
Si Si2 0.020725 0.979548 0.887546
Si Si3 0.160565 0.627479 0.473881
Si Si4 0.203212 0.773037 0.991993
Si Si5 0.193018 0.000194 0.623719
Si Si6 0.772936 0.671848 0.739576
Si Si7 0.522100 0.437783 0.985248
Si Si8 0.389217 0.160959 0.787758
O O1 0.302310 0.346452 0.866163
O O2 0.942838 0.316737 0.621769
O O3 0.169271 0.286454 0.103865
O O4 0.004638 0.144636 0.953595
O O5 0.841707 0.992485 0.598651
O O6 0.242389 0.067111 0.910827
O O7 0.000000 0.000000 0.000000
O O8 0.000000 0.500000 0.500000
O O9 0.352591 0.630713 0.742276
O O10 0.231501 0.696889 0.276868
O O11 0.982313 0.705107 0.811683
O O12 0.218895 0.889834 0.875472
O O13 0.377170 0.796934 0.007302
O O14 0.374442 0.108669 0.696368
O O15 0.000000 0.000000 0.500000
O O16 0.634079 0.537263 0.810773
O O17 0.659548 0.733888 0.441500
O O18 0.500000 0.500000 0.000000
#
# Coordination Sequence:
#
# PCOD8034415 Si02
#       8
#     2   2   2   2   2   2   2   2
#     4  10  20  34  52  79 119 145 184 227 284 327
#     4  11  23  41  59  78 113 155 194 237 281 333
#     4  11  18  28  50  89 124 140 175 230 285 332
#     4  11  19  29  52  84 115 144 177 225 285 340
#     4  10  18  35  54  80 111 143 183 236 280 327
#     4  10  17  31  53  87 117 139 177 229 282 343
#     4  10  18  29  50  83 121 147 173 224 291 333
#     4  11  20  34  59  83 111 145 186 234 289 330
#
# _framework density 19.706638000000002
#
# number of rings (size 3 to 8) (size 9 to 14) (size 15 to 20)
#    0.000    1.500    7.500    4.125    0.000    0.000 
#    0.000    0.625    0.000    0.750    0.000    2.625 
#    0.000    0.000    0.000    0.000    0.000    0.000 
#
# Total GULP energy -198270.340278 kJ/mol
# GULP energy per Si atom -12391.896267 kJ/mol
# Density = 1.966178 g / cm^3
# Si number density = 19.706638 Si / 1000 Ang^3
#
#
#
# Elastic Constant Matrix: (Units=GPa)
#
#
# Indices 1 2 3 4 5 6 
#
# 1 94.3016 51.6803 54.1616 0.7781 18.8476 25.5250
# 2 51.6803 78.5156 49.9589 -27.6977 11.6477 25.2731
# 3 54.1616 49.9589 91.3965 -26.4968 26.3573 5.6360
# 4 0.7781 -27.6977 -26.4968 34.2298 -3.3705 3.5674
# 5 18.8476 11.6477 26.3573 -3.3705 37.9180 11.4269
# 6 25.5250 25.2731 5.6360 3.5674 11.4269 35.9215
#
#
#
# Elastic Compliance Matrix: (Units=1/GPa)
#
#
# Indices 1 2 3 4 5 6 
#
# 1 0.032038 -0.019916 -0.016331 -0.029149 -0.000058 -0.003278
# 2 -0.019916 0.052331 -0.005672 0.042481 0.010371 -0.029295
# 3 -0.016331 -0.005672 0.032496 0.018028 -0.015208 0.013544
# 4 -0.029149 0.042481 0.018028 0.080598 0.002325 -0.020748
# 5 -0.000058 0.010371 -0.015208 0.002325 0.039298 -0.017601
# 6 -0.003278 -0.029295 0.013544 -0.020748 -0.017601 0.056313
#
#
# Mechanical properties :
#
#
# Convention : Reuss Voigt Hill
#
# Bulk Modulus (GPa) = 30.27679 63.97948 47.12813
# Shear Modulus (GPa) = 12.88925 28.84138 20.86531
#
# Velocity S-wave (km/s) = 2.56023 3.82977 3.25744
# Velocity P-wave (km/s) = 4.91292 7.21752 6.17371
#
# Compressibility (1/GPa) = 0.03302860
#
# Stress axis : x y z
#
# Youngs Moduli (GPa) = 31.21325 19.10911 30.77270
#
# Poissons Ratio (x) = 0.38057 0.50255
# Poissons Ratio (y) = 0.62163 0.17453
# Poissons Ratio (z) = 0.50974 0.10838
#
# Static dielectric constant tensor:
#      x y z
#    x 3.744250 0.597900 0.500780 
#    y 0.597900 4.054730 -0.101290 
#    z 0.500780 -0.101290 3.941190 
# 
# 
# High freq. dielectric constant tensor:
#      x y z
#    x 1.732270 0.042410 0.040420 
#    y 0.042410 1.766120 -0.034280 
#    z 0.040420 -0.034280 1.755830 
# 
# From -- ./inp_files/282813.got.cif
#   From: 2010.06.25/outbox.cif.g09.slc.cpg/sg2_142_cif.got.tgz:282813.got - 2010.06.27 13:26:56.
