data_PCOD8034767
_publ_section_title
;
Structure prediction by ZEFSAII (Michael W. Deem and Ramdas Pophale) SiO2 
 PCOD8034767
Probable space group: P -1
;
_chemical_formula_sum "Si O2"
_cell_formula_units_Z 14
_cell_length_a 6.497973
_cell_length_b 9.289665
_cell_length_c 17.621510
_cell_angle_alpha 56.703897
_cell_angle_beta 122.688519
_cell_angle_gamma 131.780102
_cell_volume 636.548273
_symmetry_space_group_name_H-M "P -1"
_symmetry_group_IT_number 2
_symmetry_cell_setting 'triclinic'
loop_
_space_group_symop_operation_xyz
x,y,z
-x,-y,-z
loop_
_atom_site_type_symbol
_atom_site_label
_atom_site_fract_x
_atom_site_fract_y
_atom_site_fract_z
Si Si1 0.623780 0.629929 0.912128
Si Si2 0.251044 0.958060 0.903696
Si Si3 0.294611 0.643247 0.614150
Si Si4 0.211761 0.949515 0.600446
Si Si5 0.552820 0.415651 0.813859
Si Si6 0.148388 0.718230 0.798123
Si Si7 0.367225 0.629896 0.461304
O O1 0.615933 0.467782 0.899872
O O2 0.411766 0.704186 0.823081
O O3 0.500000 0.500000 0.000000
O O4 0.945756 0.829349 0.924028
O O5 0.322883 0.178175 0.825521
O O6 0.240399 0.838195 0.861121
O O7 0.500000 0.000000 0.000000
O O8 0.328004 0.842879 0.599508
O O9 0.440033 0.553728 0.720181
O O10 0.436950 0.689210 0.546425
O O11 0.962146 0.477192 0.591536
O O12 0.072485 0.829133 0.685595
O O13 0.485977 0.164230 0.617374
O O14 0.000000 0.000000 0.500000
O O15 0.865084 0.492933 0.816147
O O16 0.500000 0.500000 0.500000
#
# Coordination Sequence:
#
# PCOD8034767 Si02
#       7
#     2   2   2   2   2   2   2
#     4  11  24  46  70 100 136 175 230 281 342 420
#     4  11  26  45  69 103 136 181 224 289 351 403
#     4  11  25  43  65  98 134 182 224 288 339 398
#     4  12  24  44  70  96 141 186 227 280 346 401
#     4  11  25  43  69  97 138 175 226 279 344 406
#     4  11  26  43  68 103 136 180 233 278 340 416
#     4  11  25  42  66 100 134 177 235 277 335 410
#
# _framework density 21.993618999999999
#
# number of rings (size 3 to 8) (size 9 to 14) (size 15 to 20)
#    0.000    0.857    2.857    3.000    4.000    5.714 
#    0.000    0.000    0.000    0.000    0.000    0.000 
#    0.000    0.000    0.000    0.000    0.000    0.000 
#
# Total GULP energy -173580.994713 kJ/mol
# GULP energy per Si atom -12398.642479 kJ/mol
# Density = 2.194356 g / cm^3
# Si number density = 21.993619 Si / 1000 Ang^3
#
#
#
# Elastic Constant Matrix: (Units=GPa)
#
#
# Indices 1 2 3 4 5 6 
#
# 1 115.9088 45.1444 33.7060 -4.5597 -5.6010 12.6031
# 2 45.1444 140.3749 17.1784 -18.4465 -7.9202 15.7419
# 3 33.7060 17.1784 77.5415 -0.0672 -1.3447 11.9275
# 4 -4.5597 -18.4465 -0.0672 34.1471 1.3525 -2.7231
# 5 -5.6010 -7.9202 -1.3447 1.3525 41.0647 -2.3905
# 6 12.6031 15.7419 11.9275 -2.7231 -2.3905 44.5309
#
#
#
# Elastic Compliance Matrix: (Units=1/GPa)
#
#
# Indices 1 2 3 4 5 6 
#
# 1 0.011073 -0.002948 -0.003994 -0.000231 0.000761 -0.000995
# 2 -0.002948 0.008951 -0.000386 0.004247 0.001061 -0.001910
# 3 -0.003994 -0.000386 0.015153 -0.000930 -0.000259 -0.002863
# 4 -0.000231 0.004247 -0.000930 0.031615 -0.000241 0.000734
# 5 0.000761 0.001061 -0.000259 -0.000241 0.024706 0.000791
# 6 -0.000995 -0.001910 -0.002863 0.000734 0.000791 0.024267
#
#
# Mechanical properties :
#
#
# Convention : Reuss Voigt Hill
#
# Bulk Modulus (GPa) = 48.72955 58.43142 53.58049
# Shear Modulus (GPa) = 36.42699 39.80164 38.11431
#
# Velocity S-wave (km/s) = 4.07412 4.25866 4.16741
# Velocity P-wave (km/s) = 6.65850 7.12788 6.89719
#
# Compressibility (1/GPa) = 0.02052143
#
# Stress axis : x y z
#
# Youngs Moduli (GPa) = 90.30918 111.71680 65.99376
#
# Poissons Ratio (x) = 0.32936 0.26358
# Poissons Ratio (y) = 0.26625 0.02545
# Poissons Ratio (z) = 0.36070 0.04308
#
# Static dielectric constant tensor:
#      x y z
#    x 4.183650 0.089490 -0.073980 
#    y 0.089490 4.221620 -0.099120 
#    z -0.073980 -0.099120 4.051410 
# 
# 
# High freq. dielectric constant tensor:
#      x y z
#    x 1.876250 0.008980 -0.003260 
#    y 0.008980 1.874180 -0.002780 
#    z -0.003260 -0.002780 1.873440 
# 
# From -- ./inp_files/47678.got.cif
#   From: 2010.06.25/outbox.cif.g09.slc.cpg/sg2_24_cif.got.tgz:47678.got - 2010.06.27 13:26:56.
