data_PCOD8034257
_publ_section_title
;
Structure prediction by ZEFSAII (Michael W. Deem and Ramdas Pophale) SiO2 
 PCOD8034257
Probable space group: P -1
;
_chemical_formula_sum "Si O2"
_cell_formula_units_Z 12
_cell_length_a 7.998382
_cell_length_b 11.489108
_cell_length_c 8.721075
_cell_angle_alpha 39.707844
_cell_angle_beta 60.853210
_cell_angle_gamma 75.289985
_cell_volume 436.571834
_symmetry_space_group_name_H-M "P -1"
_symmetry_group_IT_number 2
_symmetry_cell_setting 'triclinic'
loop_
_space_group_symop_operation_xyz
x,y,z
-x,-y,-z
loop_
_atom_site_type_symbol
_atom_site_label
_atom_site_fract_x
_atom_site_fract_y
_atom_site_fract_z
Si Si1 0.396651 0.772718 0.892963
Si Si2 0.232781 0.122896 0.582943
Si Si3 0.787169 0.385319 0.175041
Si Si4 0.199564 0.443340 0.502094
Si Si5 0.853049 0.035830 0.658128
Si Si6 0.344479 0.363683 0.809858
O O1 0.624065 0.825776 0.682725
O O2 0.258889 0.661909 0.933204
O O3 0.304806 0.948429 0.803133
O O4 0.372812 0.636725 0.194301
O O5 0.263517 0.288039 0.524420
O O6 0.999685 0.081686 0.691747
O O7 0.749042 0.201149 0.485835
O O8 0.656482 0.529325 0.137397
O O9 0.000000 0.500000 0.000000
O O10 0.163094 0.371251 0.766560
O O11 0.000000 0.500000 0.500000
O O12 0.000000 0.000000 0.500000
O O13 0.669396 0.858705 0.938889
O O14 0.500000 0.500000 0.500000
#
# Coordination Sequence:
#
# PCOD8034257 Si02
#       6
#     2   2   2   2   2   2
#     4  11  25  42  72 102 132 186 232 288 339 406
#     4  11  24  44  70 101 135 179 242 279 338 421
#     4  12  23  45  74 102 137 185 239 277 337 423
#     4  12  26  44  67 101 145 181 219 286 360 402
#     4  12  24  43  74  99 134 184 232 279 342 407
#     4  12  29  45  68 106 143 178 228 290 351 405
#
# _framework density 27.486886999999999
#
# number of rings (size 3 to 8) (size 9 to 14) (size 15 to 20)
#    0.000    0.333    3.333    5.500    2.333    4.667 
#    0.000    0.000    0.000    0.000    0.000    0.000 
#    0.000    0.000    0.000    0.000    0.000    0.000 
#
# Total GULP energy -148665.356713 kJ/mol
# GULP energy per Si atom -12388.779726 kJ/mol
# Density = 2.742433 g / cm^3
# Si number density = 27.486887 Si / 1000 Ang^3
#
#
#
# Elastic Constant Matrix: (Units=GPa)
#
#
# Indices 1 2 3 4 5 6 
#
# 1 77.4855 13.6476 32.5949 -17.5004 11.9275 0.7662
# 2 13.6476 106.3066 31.9560 -30.4944 13.5048 -7.6130
# 3 32.5949 31.9560 174.2207 -43.5197 12.9414 6.9636
# 4 -17.5004 -30.4944 -43.5197 42.8465 0.5738 -3.5111
# 5 11.9275 13.5048 12.9414 0.5738 70.3285 -6.4594
# 6 0.7662 -7.6130 6.9636 -3.5111 -6.4594 30.0360
#
#
#
# Elastic Compliance Matrix: (Units=1/GPa)
#
#
# Indices 1 2 3 4 5 6 
#
# 1 0.014926 0.000198 -0.001462 0.004789 -0.002333 0.000066
# 2 0.000198 0.012634 0.000009 0.009425 -0.002187 0.003826
# 3 -0.001462 0.000009 0.008037 0.007489 -0.001409 -0.001251
# 4 0.004789 0.009425 0.007489 0.040021 -0.003926 0.004364
# 5 -0.002333 -0.002187 -0.001409 -0.003926 0.015576 0.002723
# 6 0.000066 0.003826 -0.001251 0.004364 0.002723 0.035647
#
#
# Mechanical properties :
#
#
# Convention : Reuss Voigt Hill
#
# Bulk Modulus (GPa) = 30.22174 57.15663 43.68918
# Shear Modulus (GPa) = 35.61799 47.29650 41.45725
#
# Velocity S-wave (km/s) = 3.60365 4.15262 3.88784
# Velocity P-wave (km/s) = 5.32296 6.62055 6.00690
#
# Compressibility (1/GPa) = 0.03308877
#
# Stress axis : x y z
#
# Youngs Moduli (GPa) = 66.99771 79.15201 124.42331
#
# Poissons Ratio (x) = -0.01570 0.18188
# Poissons Ratio (y) = -0.01329 -0.00117
# Poissons Ratio (z) = 0.09794 -0.00075
#
# Static dielectric constant tensor:
#      x y z
#    x -0.103660 -1.168070 -1.945820 
#    y -1.168070 4.564390 -0.900110 
#    z -1.945820 -0.900110 5.266040 
# 
# 
# High freq. dielectric constant tensor:
#      x y z
#    x 2.156830 0.009140 0.002040 
#    y 0.009140 2.095830 -0.021560 
#    z 0.002040 -0.021560 2.122210 
# 
# From -- ./inp_files/156374.got.cif
#   From: 2010.06.25/outbox.cif.g09.slc.cpg/sg2_79_cif.got.tgz:156374.got - 2010.06.27 13:26:56.
