data_PCOD8034297
_publ_section_title
;
Structure prediction by ZEFSAII (Michael W. Deem and Ramdas Pophale) SiO2 
 PCOD8034297
Probable space group: P -1
;
_chemical_formula_sum "Si O2"
_cell_formula_units_Z 12
_cell_length_a 15.379738
_cell_length_b 12.669561
_cell_length_c 8.723668
_cell_angle_alpha 49.928075
_cell_angle_beta 142.315907
_cell_angle_gamma 152.220653
_cell_volume 474.707997
_symmetry_space_group_name_H-M "P -1"
_symmetry_group_IT_number 2
_symmetry_cell_setting 'triclinic'
loop_
_space_group_symop_operation_xyz
x,y,z
-x,-y,-z
loop_
_atom_site_type_symbol
_atom_site_label
_atom_site_fract_x
_atom_site_fract_y
_atom_site_fract_z
Si Si1 0.623179 0.902905 0.111769
Si Si2 0.185438 0.709903 0.178027
Si Si3 0.548483 0.355248 0.334938
Si Si4 0.802182 0.822463 0.234720
Si Si5 0.174779 0.996250 0.393303
Si Si6 0.077559 0.423729 0.765559
O O1 0.820785 0.939960 0.297846
O O2 0.689927 0.988826 0.301004
O O3 0.359019 0.636406 0.986493
O O4 0.640871 0.053052 0.893493
O O5 0.346611 0.715960 0.470129
O O6 0.053849 0.690380 0.147417
O O7 0.000000 0.500000 0.000000
O O8 0.756736 0.628299 0.403823
O O9 0.364066 0.220765 0.342602
O O10 0.431048 0.297262 0.062770
O O11 0.022855 0.999954 0.258698
O O12 0.996226 0.762190 0.267583
O O13 0.000000 0.500000 0.500000
#
# Coordination Sequence:
#
# PCOD8034297 Si02
#       6
#     2   2   2   2   2   2
#     4  12  27  46  72 105 142 181 231 289 345 411
#     4  12  26  46  72 105 142 183 230 287 350 412
#     4  11  24  44  71 101 139 183 233 286 344 412
#     4  11  24  45  70 101 139 184 233 284 344 411
#     4  12  26  45  72 104 139 184 234 285 345 412
#     4  12  25  43  70 103 140 183 229 281 345 411
#
# _framework density 25.278697000000001
#
# number of rings (size 3 to 8) (size 9 to 14) (size 15 to 20)
#    0.000    0.333    0.000   10.000    0.000    6.000 
#    0.000    0.000    0.000    0.000    0.000    0.000 
#    0.000    0.000    0.000    0.000    0.000    0.000 
#
# Total GULP energy -148913.023893 kJ/mol
# GULP energy per Si atom -12409.418658 kJ/mol
# Density = 2.522116 g / cm^3
# Si number density = 25.278697 Si / 1000 Ang^3
#
#
#
# Elastic Constant Matrix: (Units=GPa)
#
#
# Indices 1 2 3 4 5 6 
#
# 1 142.0312 63.1817 35.6912 15.4327 -10.7437 0.9776
# 2 63.1817 108.6592 20.2688 2.4185 -10.9284 14.5076
# 3 35.6912 20.2688 70.6692 -3.9388 -6.2335 -2.7806
# 4 15.4327 2.4185 -3.9388 46.1129 -2.5959 -0.3836
# 5 -10.7437 -10.9284 -6.2335 -2.5959 48.1386 4.2713
# 6 0.9776 14.5076 -2.7806 -0.3836 4.2713 42.6249
#
#
#
# Elastic Compliance Matrix: (Units=1/GPa)
#
#
# Indices 1 2 3 4 5 6 
#
# 1 0.011020 -0.005720 -0.004050 -0.003705 0.000316 0.001365
# 2 -0.005720 0.013523 -0.000918 0.001209 0.002160 -0.004737
# 3 -0.004050 -0.000918 0.016773 0.002909 0.001091 0.001416
# 4 -0.003705 0.001209 0.002909 0.023171 0.001077 -0.000036
# 5 0.000316 0.002160 0.001091 0.001077 0.021786 -0.002845
# 6 0.001365 -0.004737 0.001416 -0.000036 -0.002845 0.025419
#
#
# Mechanical properties :
#
#
# Convention : Reuss Voigt Hill
#
# Bulk Modulus (GPa) = 50.15071 62.18256 56.16664
# Shear Modulus (GPa) = 35.78683 40.85645 38.32164
#
# Velocity S-wave (km/s) = 3.76665 4.02461 3.89776
# Velocity P-wave (km/s) = 6.22889 6.80065 6.52104
#
# Compressibility (1/GPa) = 0.01993990
#
# Stress axis : x y z
#
# Youngs Moduli (GPa) = 90.74267 73.94594 59.61863
#
# Poissons Ratio (x) = 0.42301 0.24145
# Poissons Ratio (y) = 0.51909 0.05473
# Poissons Ratio (z) = 0.36750 0.06789
#
# Static dielectric constant tensor:
#      x y z
#    x 4.848730 0.039360 -0.089740 
#    y 0.039360 4.604020 0.081620 
#    z -0.089740 0.081620 4.707410 
# 
# 
# High freq. dielectric constant tensor:
#      x y z
#    x 2.027180 0.007060 -0.005790 
#    y 0.007060 2.008420 0.010050 
#    z -0.005790 0.010050 2.023440 
# 
# From -- ./inp_files/306635.got.cif
#   From: 2010.06.25/outbox.cif.g09.slc.cpg/sg2_154_cif.got.tgz:306635.got - 2010.06.27 13:26:56.
