data_PCOD8034717
_publ_section_title
;
Structure prediction by ZEFSAII (Michael W. Deem and Ramdas Pophale) SiO2 
 PCOD8034717
Probable space group: P -1
;
_chemical_formula_sum "Si O2"
_cell_formula_units_Z 10
_cell_length_a 8.836292
_cell_length_b 8.982261
_cell_length_c 9.560078
_cell_angle_alpha 91.289336
_cell_angle_beta 134.408454
_cell_angle_gamma 115.494532
_cell_volume 423.150948
_symmetry_space_group_name_H-M "P -1"
_symmetry_group_IT_number 2
_symmetry_cell_setting 'triclinic'
loop_
_space_group_symop_operation_xyz
x,y,z
-x,-y,-z
loop_
_atom_site_type_symbol
_atom_site_label
_atom_site_fract_x
_atom_site_fract_y
_atom_site_fract_z
Si Si1 0.130712 0.415961 0.662123
Si Si2 0.617589 0.150273 0.458231
Si Si3 0.765081 0.524587 0.699392
Si Si4 0.642084 0.103362 0.950508
Si Si5 0.560324 0.385096 0.853461
O O1 0.307967 0.388424 0.672639
O O2 0.000000 0.500000 0.500000
O O3 0.893862 0.207102 0.568237
O O4 0.318373 0.554752 0.911850
O O5 0.707112 0.349361 0.574230
O O6 0.500000 0.000000 0.500000
O O7 0.395425 0.050857 0.186276
O O8 0.500000 0.500000 0.500000
O O9 0.786250 0.514943 0.882047
O O10 0.037171 0.721287 0.820844
O O11 0.483070 0.176756 0.783296
O O12 0.500000 0.000000 0.000000
#
# Coordination Sequence:
#
# PCOD8034717 Si02
#       5
#     2   2   2   2   2
#     4  11  24  45  76 110 148 200 252 309 381 452
#     4  12  25  45  75 105 152 196 253 308 382 447
#     4  12  27  49  77 109 156 203 252 318 384 446
#     4  12  27  46  77 113 153 197 261 314 377 459
#     4  11  24  46  75 107 152 200 250 311 378 452
#
# _framework density 23.632231000000001
#
# number of rings (size 3 to 8) (size 9 to 14) (size 15 to 20)
#    0.000    0.400    4.000    4.200    2.800    4.800 
#    0.000    0.000    0.000    0.000    0.000    0.000 
#    0.000    0.000    0.000    0.000    0.000    0.000 
#
# Total GULP energy -123903.049558 kJ/mol
# GULP energy per Si atom -12390.304956 kJ/mol
# Density = 2.357844 g / cm^3
# Si number density = 23.632231 Si / 1000 Ang^3
#
#
#
# Elastic Constant Matrix: (Units=GPa)
#
#
# Indices 1 2 3 4 5 6 
#
# 1 168.5540 77.8536 72.6318 7.4399 15.6613 27.3884
# 2 77.8536 107.2512 50.0886 11.1676 18.5791 41.1365
# 3 72.6318 50.0886 118.3252 17.6727 -5.3777 0.6239
# 4 7.4399 11.1676 17.6727 49.2908 -1.6338 2.4810
# 5 15.6613 18.5791 -5.3777 -1.6338 50.9568 -6.3701
# 6 27.3884 41.1365 0.6239 2.4810 -6.3701 53.2967
#
#
#
# Elastic Compliance Matrix: (Units=1/GPa)
#
#
# Indices 1 2 3 4 5 6 
#
# 1 0.010587 -0.003885 -0.005136 0.001174 -0.002686 -0.002757
# 2 -0.003885 0.025602 -0.008644 -0.001541 -0.011473 -0.018962
# 3 -0.005136 -0.008644 0.016045 -0.003280 0.007592 0.010184
# 4 0.001174 -0.001541 -0.003280 0.021669 0.000509 -0.000323
# 5 -0.002686 -0.011473 0.007592 0.000509 0.027121 0.013364
# 6 -0.002757 -0.018962 0.010184 -0.000323 0.013364 0.036309
#
#
# Mechanical properties :
#
#
# Convention : Reuss Voigt Hill
#
# Bulk Modulus (GPa) = 59.16658 88.36425 73.76542
# Shear Modulus (GPa) = 28.04293 43.61260 35.82777
#
# Velocity S-wave (km/s) = 3.44850 4.30056 3.89788
# Velocity P-wave (km/s) = 6.39898 7.88240 7.17911
#
# Compressibility (1/GPa) = 0.01690143
#
# Stress axis : x y z
#
# Youngs Moduli (GPa) = 94.45918 39.05908 62.32634
#
# Poissons Ratio (x) = 0.15176 0.32014
# Poissons Ratio (y) = 0.36701 0.53875
# Poissons Ratio (z) = 0.48519 0.33763
#
# Static dielectric constant tensor:
#      x y z
#    x 5.108140 0.100010 -0.473490 
#    y 0.100010 4.622560 0.439080 
#    z -0.473490 0.439080 5.204300 
# 
# 
# High freq. dielectric constant tensor:
#      x y z
#    x 1.961090 0.018590 -0.019030 
#    y 0.018590 1.932570 0.004840 
#    z -0.019030 0.004840 1.939550 
# 
# From -- ./inp_files/143956.got.cif
#   From: 2010.06.25/outbox.cif.g09.slc.cpg/sg2_72_cif.got.tgz:143956.got - 2010.06.27 13:26:56.
