data_PCOD8034483
_publ_section_title
;
Structure prediction by ZEFSAII (Michael W. Deem and Ramdas Pophale) SiO2 
 PCOD8034483
Probable space group: P -1
;
_chemical_formula_sum "Si O2"
_cell_formula_units_Z 16
_cell_length_a 8.966028
_cell_length_b 11.472624
_cell_length_c 15.099657
_cell_angle_alpha 131.105795
_cell_angle_beta 49.577243
_cell_angle_gamma 139.439646
_cell_volume 724.996583
_symmetry_space_group_name_H-M "P -1"
_symmetry_group_IT_number 2
_symmetry_cell_setting 'triclinic'
loop_
_space_group_symop_operation_xyz
x,y,z
-x,-y,-z
loop_
_atom_site_type_symbol
_atom_site_label
_atom_site_fract_x
_atom_site_fract_y
_atom_site_fract_z
Si Si1 0.380774 0.878281 0.254990
Si Si2 0.591351 0.658933 0.118125
Si Si3 0.545697 0.598803 0.304336
Si Si4 0.956180 0.551443 0.139566
Si Si5 0.401559 0.842764 0.831314
Si Si6 0.913865 0.025238 0.951897
Si Si7 0.696450 0.997470 0.478128
Si Si8 0.809614 0.811734 0.721027
O O1 0.555570 0.821013 0.187568
O O2 0.242450 0.886312 0.396435
O O3 0.202252 0.720808 0.173300
O O4 0.539113 0.094412 0.263380
O O5 0.469506 0.574262 0.217886
O O6 0.500000 0.500000 0.000000
O O7 0.879253 0.770101 0.067895
O O8 0.798514 0.629951 0.226838
O O9 0.341209 0.414596 0.345996
O O10 0.575693 0.775704 0.429671
O O11 0.821288 0.373412 0.171272
O O12 0.000000 0.500000 0.000000
O O13 0.650276 0.890076 0.798255
O O14 0.329908 0.983428 0.961565
O O15 0.872383 0.856724 0.822703
O O16 0.000000 0.000000 0.000000
O O17 0.948890 0.090089 0.378612
O O18 0.500000 0.000000 0.500000
#
# Coordination Sequence:
#
# PCOD8034483 Si02
#       8
#     2   2   2   2   2   2   2   2
#     4  12  26  45  72 101 140 192 235 289 355 415
#     4  12  23  43  66 104 144 181 231 292 356 415
#     4  11  24  45  69 100 138 184 235 289 349 414
#     4  11  26  44  71 108 146 181 230 293 357 426
#     4  11  26  43  69 107 143 180 233 288 362 424
#     4  12  22  40  67 104 144 179 232 291 354 424
#     4  12  26  51  70 100 144 190 245 291 342 426
#     4  11  26  44  71 101 138 190 235 291 357 417
#
# _framework density 22.069068000000001
#
# number of rings (size 3 to 8) (size 9 to 14) (size 15 to 20)
#    0.000    0.500    3.750    4.125    5.250    3.500 
#    0.000    2.500    0.000    0.000    0.000    0.000 
#    0.000    0.000    0.000    0.000    0.000    0.000 
#
# Total GULP energy -198311.812635 kJ/mol
# GULP energy per Si atom -12394.488290 kJ/mol
# Density = 2.201884 g / cm^3
# Si number density = 22.069068 Si / 1000 Ang^3
#
#
#
# Elastic Constant Matrix: (Units=GPa)
#
#
# Indices 1 2 3 4 5 6 
#
# 1 103.9014 43.3921 52.6380 -8.3786 -14.0460 -7.7982
# 2 43.3921 113.0388 49.2262 -12.9979 -12.3261 -3.2162
# 3 52.6380 49.2262 143.2912 4.0130 -2.6253 4.3876
# 4 -8.3786 -12.9979 4.0130 31.5559 -0.1459 -0.5191
# 5 -14.0460 -12.3261 -2.6253 -0.1459 36.0764 -2.9245
# 6 -7.7982 -3.2162 4.3876 -0.5191 -2.9245 38.2773
#
#
#
# Elastic Compliance Matrix: (Units=1/GPa)
#
#
# Indices 1 2 3 4 5 6 
#
# 1 0.014068 -0.002479 -0.004435 0.003358 0.004610 0.003564
# 2 -0.002479 0.012203 -0.003398 0.004835 0.003075 0.001210
# 3 -0.004435 -0.003398 0.009919 -0.003892 -0.002389 -0.002561
# 4 0.003358 0.004835 -0.003892 0.035119 0.003000 0.002242
# 5 0.004610 0.003075 -0.002389 0.003000 0.030716 0.003859
# 6 0.003564 0.001210 -0.002561 0.002242 0.003859 0.027572
#
#
# Mechanical properties :
#
#
# Convention : Reuss Voigt Hill
#
# Bulk Modulus (GPa) = 64.23810 72.30490 68.27150
# Shear Modulus (GPa) = 32.17324 35.51360 33.84342
#
# Velocity S-wave (km/s) = 3.82231 4.01584 3.92027
# Velocity P-wave (km/s) = 6.97503 7.37135 7.17592
#
# Compressibility (1/GPa) = 0.01556709
#
# Stress axis : x y z
#
# Youngs Moduli (GPa) = 71.08292 81.94453 100.81658
#
# Poissons Ratio (x) = 0.20311 0.44713
# Poissons Ratio (y) = 0.17619 0.34257
# Poissons Ratio (z) = 0.31526 0.27844
#
# Static dielectric constant tensor:
#      x y z
#    x 4.171040 -0.113330 -0.125960 
#    y -0.113330 4.035260 -0.033380 
#    z -0.125960 -0.033380 3.916810 
# 
# 
# High freq. dielectric constant tensor:
#      x y z
#    x 1.878600 -0.007330 -0.011920 
#    y -0.007330 1.875890 -0.007320 
#    z -0.011920 -0.007320 1.864590 
# 
# From -- ./inp_files/446710.got.cif
#   From: 2010.06.25/outbox.cif.g09.slc.cpg/sg2_224_cif.got.tgz:446710.got - 2010.06.27 13:26:56.
