data_PCOD8034476
_publ_section_title
;
Structure prediction by ZEFSAII (Michael W. Deem and Ramdas Pophale) SiO2 
 PCOD8034476
Probable space group: P -1
;
_chemical_formula_sum "Si O2"
_cell_formula_units_Z 16
_cell_length_a 11.382056
_cell_length_b 11.551039
_cell_length_c 5.520696
_cell_angle_alpha 72.590101
_cell_angle_beta 109.442522
_cell_angle_gamma 103.006832
_cell_volume 646.704917
_symmetry_space_group_name_H-M "P -1"
_symmetry_group_IT_number 2
_symmetry_cell_setting 'triclinic'
loop_
_space_group_symop_operation_xyz
x,y,z
-x,-y,-z
loop_
_atom_site_type_symbol
_atom_site_label
_atom_site_fract_x
_atom_site_fract_y
_atom_site_fract_z
Si Si1 0.712757 0.194893 0.020910
Si Si2 0.324404 0.464063 0.717462
Si Si3 0.929487 0.623230 0.157862
Si Si4 0.833138 0.445256 0.794517
Si Si5 0.497637 0.878706 0.418471
Si Si6 0.886923 0.891884 0.964331
Si Si7 0.482789 0.688689 0.908864
Si Si8 0.753936 0.941575 0.335841
O O1 0.811742 0.318447 0.009427
O O2 0.648377 0.152173 0.746520
O O3 0.589760 0.212378 0.078222
O O4 0.784993 0.089505 0.246684
O O5 0.177851 0.418041 0.695672
O O6 0.306808 0.533598 0.409055
O O7 0.388688 0.561921 0.891740
O O8 0.400656 0.348168 0.829083
O O9 0.064987 0.578099 0.331875
O O10 0.885611 0.564354 0.906759
O O11 0.949573 0.769195 0.060281
O O12 0.534986 0.757817 0.657529
O O13 0.602391 0.903280 0.262095
O O14 0.500000 0.000000 0.500000
O O15 0.811491 0.903989 0.653988
O O16 0.802776 0.884823 0.157330
O O17 0.000000 0.000000 0.000000
#
# Coordination Sequence:
#
# PCOD8034476 Si02
#       8
#     2   2   2   2   2   2   2   2
#     4  12  25  45  73 106 150 197 249 309 381 456
#     4  11  24  45  68 107 143 195 243 313 378 453
#     4  11  26  47  75 105 146 192 262 312 378 455
#     4  11  25  48  74 107 141 200 252 317 381 446
#     4  12  25  45  70 109 150 199 251 308 377 460
#     4  12  29  53  77 115 154 203 253 321 383 452
#     4  11  25  42  71 106 152 190 245 306 382 453
#     4  12  28  48  80 111 155 203 258 311 381 461
#
# _framework density 24.740805999999999
#
# number of rings (size 3 to 8) (size 9 to 14) (size 15 to 20)
#    0.000    0.500    3.750    3.375    5.250    2.500 
#    2.250    0.000    0.000    0.000    0.000    0.000 
#    0.000    0.000    0.000    0.000    0.000    0.000 
#
# Total GULP energy -198296.367789 kJ/mol
# GULP energy per Si atom -12393.522987 kJ/mol
# Density = 2.468450 g / cm^3
# Si number density = 24.740806 Si / 1000 Ang^3
#
#
#
# Elastic Constant Matrix: (Units=GPa)
#
#
# Indices 1 2 3 4 5 6 
#
# 1 85.7395 25.7021 13.1271 4.8493 -3.5067 -3.2207
# 2 25.7021 138.6518 19.7855 -7.7016 2.2719 -5.7634
# 3 13.1271 19.7855 90.9612 -0.3166 10.6259 -13.8296
# 4 4.8493 -7.7016 -0.3166 36.0628 -3.5055 -1.4383
# 5 -3.5067 2.2719 10.6259 -3.5055 42.0056 -4.2123
# 6 -3.2207 -5.7634 -13.8296 -1.4383 -4.2123 48.7481
#
#
#
# Elastic Compliance Matrix: (Units=1/GPa)
#
#
# Indices 1 2 3 4 5 6 
#
# 1 0.012758 -0.002282 -0.001485 -0.002070 0.001413 0.000213
# 2 -0.002282 0.007955 -0.001314 0.002006 -0.000074 0.000470
# 3 -0.001485 -0.001314 0.012282 -0.000134 -0.002872 0.002979
# 4 -0.002070 0.002006 -0.000134 0.028699 0.002258 0.001104
# 5 0.001413 -0.000074 -0.002872 0.002258 0.024993 0.001496
# 6 0.000213 0.000470 0.002979 0.001104 0.001496 0.021590
#
#
# Mechanical properties :
#
#
# Convention : Reuss Voigt Hill
#
# Bulk Modulus (GPa) = 43.79688 48.06466 45.93077
# Shear Modulus (GPa) = 39.66720 42.47915 41.07317
#
# Velocity S-wave (km/s) = 4.00848 4.14813 4.07890
# Velocity P-wave (km/s) = 6.25816 6.51245 6.38657
#
# Compressibility (1/GPa) = 0.02283268
#
# Stress axis : x y z
#
# Youngs Moduli (GPa) = 78.38490 125.70638 81.42212
#
# Poissons Ratio (x) = 0.28690 0.12087
# Poissons Ratio (y) = 0.17890 0.10698
# Poissons Ratio (z) = 0.11636 0.16517
#
# Static dielectric constant tensor:
#      x y z
#    x 4.721580 -0.075680 0.077410 
#    y -0.075680 4.445800 -0.191490 
#    z 0.077410 -0.191490 4.386730 
# 
# 
# High freq. dielectric constant tensor:
#      x y z
#    x 1.988740 0.002610 0.003870 
#    y 0.002610 2.001150 -0.015890 
#    z 0.003870 -0.015890 1.976340 
# 
# From -- ./inp_files/69356.got.cif
#   From: 2010.06.25/outbox.cif.g09.slc.cpg/sg2_35_cif.got.tgz:69356.got - 2010.06.27 13:26:56.
