data_PCOD8034831
_publ_section_title
;
Structure prediction by ZEFSAII (Michael W. Deem and Ramdas Pophale) SiO2 
 PCOD8034831
Probable space group: P -1
;
_chemical_formula_sum "Si O2"
_cell_formula_units_Z 14
_cell_length_a 14.364148
_cell_length_b 15.005162
_cell_length_c 6.501173
_cell_angle_alpha 109.501796
_cell_angle_beta 80.603643
_cell_angle_gamma 151.937743
_cell_volume 593.495024
_symmetry_space_group_name_H-M "P -1"
_symmetry_group_IT_number 2
_symmetry_cell_setting 'triclinic'
loop_
_space_group_symop_operation_xyz
x,y,z
-x,-y,-z
loop_
_atom_site_type_symbol
_atom_site_label
_atom_site_fract_x
_atom_site_fract_y
_atom_site_fract_z
Si Si1 0.313884 0.364484 0.119121
Si Si2 0.369892 0.627081 0.277237
Si Si3 0.934834 0.607198 0.146929
Si Si4 0.319895 0.725748 0.719880
Si Si5 0.264563 0.885065 0.916068
Si Si6 0.158330 0.927202 0.637520
Si Si7 0.971036 0.958819 0.717854
O O1 0.347759 0.502359 0.283788
O O2 0.267141 0.262497 0.273208
O O3 0.500000 0.500000 0.000000
O O4 0.093443 0.156586 0.923173
O O5 0.274376 0.620209 0.457552
O O6 0.606597 0.866426 0.358638
O O7 0.258988 0.528849 0.021454
O O8 0.868048 0.460596 0.200604
O O9 0.011961 0.763054 0.378532
O O10 0.117304 0.728686 0.037527
O O11 0.322413 0.838629 0.742565
O O12 0.530505 0.884383 0.884832
O O13 0.140009 0.843966 0.779751
O O14 0.092888 0.973742 0.757039
O O15 0.000000 0.000000 0.500000
#
# Coordination Sequence:
#
# PCOD8034831 Si02
#       7
#     2   2   2   2   2   2   2
#     4  11  24  46  72 102 139 184 237 294 363 421
#     4  12  25  47  72 105 143 191 235 295 355 430
#     4  12  24  44  72 101 141 193 235 289 357 417
#     4  11  25  45  71 105 142 189 244 287 357 417
#     4  11  25  45  72 104 142 191 238 295 347 430
#     4  12  25  47  73 105 147 186 236 293 358 423
#     4  11  25  47  73 107 140 187 237 296 361 434
#
# _framework density 23.589078000000001
#
# number of rings (size 3 to 8) (size 9 to 14) (size 15 to 20)
#    0.000    0.571    4.286    3.857    0.000    5.714 
#    2.571    0.000    0.000    0.000    0.000    0.000 
#    0.000    0.000    0.000    0.000    0.000    0.000 
#
# Total GULP energy -173528.092503 kJ/mol
# GULP energy per Si atom -12394.863750 kJ/mol
# Density = 2.353539 g / cm^3
# Si number density = 23.589078 Si / 1000 Ang^3
#
#
#
# Elastic Constant Matrix: (Units=GPa)
#
#
# Indices 1 2 3 4 5 6 
#
# 1 79.2370 14.4666 34.7491 -4.8748 -3.7161 -6.3851
# 2 14.4666 147.6601 46.7087 -21.8685 2.0464 0.0806
# 3 34.7491 46.7087 134.4533 -2.3419 3.1074 -9.6333
# 4 -4.8748 -21.8685 -2.3419 52.4177 1.7069 -3.8652
# 5 -3.7161 2.0464 3.1074 1.7069 32.1339 0.6717
# 6 -6.3851 0.0806 -9.6333 -3.8652 0.6717 29.9601
#
#
#
# Elastic Compliance Matrix: (Units=1/GPa)
#
#
# Indices 1 2 3 4 5 6 
#
# 1 0.014551 -0.000137 -0.003589 0.001225 0.001930 0.002062
# 2 -0.000137 0.008146 -0.002765 0.003238 -0.000429 -0.000513
# 3 -0.003589 -0.002765 0.009496 -0.000862 -0.001158 0.002211
# 4 0.001225 0.003238 -0.000862 0.020738 -0.001139 0.002676
# 5 0.001930 -0.000429 -0.001158 -0.001139 0.031560 -0.000814
# 6 0.002062 -0.000513 0.002211 0.002676 -0.000814 0.034893
#
#
# Mechanical properties :
#
#
# Convention : Reuss Voigt Hill
#
# Bulk Modulus (GPa) = 52.05087 61.46658 56.75873
# Shear Modulus (GPa) = 36.03099 40.59739 38.31419
#
# Velocity S-wave (km/s) = 3.91249 4.15302 4.03455
# Velocity P-wave (km/s) = 6.52102 7.00790 6.76884
#
# Compressibility (1/GPa) = 0.01921197
#
# Stress axis : x y z
#
# Youngs Moduli (GPa) = 68.72258 122.75660 105.31100
#
# Poissons Ratio (x) = 0.01680 0.37793
# Poissons Ratio (y) = 0.00941 0.29119
# Poissons Ratio (z) = 0.24662 0.33942
#
# Static dielectric constant tensor:
#      x y z
#    x 3.878450 -0.056430 -0.078750 
#    y -0.056430 4.761980 -0.073000 
#    z -0.078750 -0.073000 4.338940 
# 
# 
# High freq. dielectric constant tensor:
#      x y z
#    x 1.906440 -0.003730 -0.014730 
#    y -0.003730 1.966140 0.000890 
#    z -0.014730 0.000890 1.940940 
# 
# From -- ./inp_files/98429.got.cif
#   From: 2010.06.25/outbox.cif.g09.slc.cpg/sg2_50_cif.got.tgz:98429.got - 2010.06.27 13:26:56.
