data_PCOD8034166
_publ_section_title
;
Structure prediction by ZEFSAII (Michael W. Deem and Ramdas Pophale) SiO2 
 PCOD8034166
Probable space group: P -1
;
_chemical_formula_sum "Si O2"
_cell_formula_units_Z 16
_cell_length_a 8.000071
_cell_length_b 6.579858
_cell_length_c 28.745669
_cell_angle_alpha 118.782762
_cell_angle_beta 147.312587
_cell_angle_gamma 72.892648
_cell_volume 696.225174
_symmetry_space_group_name_H-M "P -1"
_symmetry_group_IT_number 2
_symmetry_cell_setting 'triclinic'
loop_
_space_group_symop_operation_xyz
x,y,z
-x,-y,-z
loop_
_atom_site_type_symbol
_atom_site_label
_atom_site_fract_x
_atom_site_fract_y
_atom_site_fract_z
Si Si1 0.267599 0.923552 0.756075
Si Si2 0.259723 0.758196 0.901995
Si Si3 0.643833 0.460917 0.896981
Si Si4 0.812289 0.133995 0.616041
Si Si5 0.830647 0.782889 0.379175
Si Si6 0.195683 0.711364 0.540055
Si Si7 0.297387 0.415883 0.184836
Si Si8 0.129687 0.341250 0.285600
O O1 0.512548 0.782084 0.775323
O O2 0.162912 0.782694 0.763813
O O3 0.466383 0.192179 0.836777
O O4 0.945134 0.933912 0.653178
O O5 0.462022 0.606684 0.904166
O O6 0.076077 0.649570 0.894685
O O7 0.969084 0.775568 0.801091
O O8 0.500000 0.000000 0.000000
O O9 0.660958 0.538834 0.855635
O O10 0.000000 0.500000 0.000000
O O11 0.779605 0.365805 0.664182
O O12 0.081546 0.261118 0.657617
O O13 0.500000 0.000000 0.500000
O O14 0.458978 0.648797 0.279585
O O15 0.068127 0.668162 0.452992
O O16 0.897004 0.057790 0.436163
O O17 0.568605 0.741237 0.633229
O O18 0.000000 0.500000 0.500000
#
# Coordination Sequence:
#
# PCOD8034166 Si02
#       8
#     2   2   2   2   2   2   2   2
#     4  12  24  48  75 104 156 196 238 321 369 439
#     4  12  28  50  77 113 146 194 250 306 376 446
#     4  12  28  52  77 111 148 194 249 314 375 443
#     4  12  25  43  73 107 148 198 254 298 372 443
#     4  11  24  44  63 109 143 192 252 295 369 447
#     4  11  26  41  68 101 150 195 243 312 368 438
#     4  12  27  49  78 107 154 192 251 308 372 454
#     4  12  26  47  71 111 149 194 250 310 369 439
#
# _framework density 22.981068
#
# number of rings (size 3 to 8) (size 9 to 14) (size 15 to 20)
#    0.000    0.250    5.000    3.000    8.750    5.500 
#    0.000    0.000    0.000    0.000    0.000    0.000 
#    0.000    0.000    0.000    0.000    0.000    0.000 
#
# Total GULP energy -198232.567353 kJ/mol
# GULP energy per Si atom -12389.535460 kJ/mol
# Density = 2.292876 g / cm^3
# Si number density = 22.981068 Si / 1000 Ang^3
#
#
#
# Elastic Constant Matrix: (Units=GPa)
#
#
# Indices 1 2 3 4 5 6 
#
# 1 117.9744 41.7034 40.0409 6.6421 8.2387 5.5857
# 2 41.7034 114.2628 52.1111 5.7426 -4.6920 8.6719
# 3 40.0409 52.1111 167.1142 10.6149 7.6963 1.6785
# 4 6.6421 5.7426 10.6149 49.1714 -0.4522 8.1726
# 5 8.2387 -4.6920 7.6963 -0.4522 39.7037 3.3805
# 6 5.5857 8.6719 1.6785 8.1726 3.3805 19.4556
#
#
#
# Elastic Compliance Matrix: (Units=1/GPa)
#
#
# Indices 1 2 3 4 5 6 
#
# 1 0.010262 -0.003136 -0.001333 -0.000620 -0.002181 -0.000794
# 2 -0.003136 0.011746 -0.003037 0.000538 0.003045 -0.004828
# 3 -0.001333 -0.003037 0.007398 -0.001408 -0.001701 0.001985
# 4 -0.000620 0.000538 -0.001408 0.022265 0.001533 -0.009559
# 5 -0.002181 0.003045 -0.001701 0.001533 0.026848 -0.005893
# 6 -0.000794 -0.004828 0.001985 -0.009559 -0.005893 0.058647
#
#
# Mechanical properties :
#
#
# Convention : Reuss Voigt Hill
#
# Bulk Modulus (GPa) = 69.47282 74.11803 71.79542
# Shear Modulus (GPa) = 31.85185 39.36586 35.60885
#
# Velocity S-wave (km/s) = 3.72695 4.14329 3.94062
# Velocity P-wave (km/s) = 6.98686 7.43041 7.21205
#
# Compressibility (1/GPa) = 0.01439412
#
# Stress axis : x y z
#
# Youngs Moduli (GPa) = 97.44547 85.13705 135.16522
#
# Poissons Ratio (x) = 0.26695 0.18021
# Poissons Ratio (y) = 0.30554 0.41054
# Poissons Ratio (z) = 0.12992 0.25859
#
# Static dielectric constant tensor:
#      x y z
#    x 4.190130 0.137940 -0.019740 
#    y 0.137940 4.031960 0.089200 
#    z -0.019740 0.089200 4.235970 
# 
# 
# High freq. dielectric constant tensor:
#      x y z
#    x 1.911570 0.005430 0.007070 
#    y 0.005430 1.911270 0.002920 
#    z 0.007070 0.002920 1.927600 
# 
# From -- ./inp_files/110752.got.cif
#   From: 2010.06.25/outbox.cif.g09.slc.cpg/sg2_56_cif.got.tgz:110752.got - 2010.06.27 13:26:56.
