data_PCOD8034273
_publ_section_title
;
Structure prediction by ZEFSAII (Michael W. Deem and Ramdas Pophale) SiO2 
 PCOD8034273
Probable space group: P -1
;
_chemical_formula_sum "Si O2"
_cell_formula_units_Z 16
_cell_length_a 11.900848
_cell_length_b 8.808551
_cell_length_c 17.579525
_cell_angle_alpha 48.088138
_cell_angle_beta 147.818315
_cell_angle_gamma 130.615678
_cell_volume 713.167611
_symmetry_space_group_name_H-M "P -1"
_symmetry_group_IT_number 2
_symmetry_cell_setting 'triclinic'
loop_
_space_group_symop_operation_xyz
x,y,z
-x,-y,-z
loop_
_atom_site_type_symbol
_atom_site_label
_atom_site_fract_x
_atom_site_fract_y
_atom_site_fract_z
Si Si1 0.450929 0.660177 0.071130
Si Si2 0.585881 0.806785 0.643607
Si Si3 0.032084 0.349366 0.895195
Si Si4 0.700191 0.640198 0.608034
Si Si5 0.959901 0.003586 0.086167
Si Si6 0.219881 0.993863 0.585403
Si Si7 0.765203 0.406673 0.364301
Si Si8 0.526989 0.037033 0.886098
O O1 0.674657 0.586415 0.207662
O O2 0.476160 0.754759 0.138700
O O3 0.259934 0.454844 0.028140
O O4 0.397558 0.828655 0.924328
O O5 0.641396 0.666462 0.653279
O O6 0.404315 0.672936 0.638497
O O7 0.500000 0.000000 0.500000
O O8 0.804168 0.901170 0.780766
O O9 0.898391 0.527649 0.751219
O O10 0.064365 0.239870 0.869923
O O11 0.907703 0.153243 0.938865
O O12 0.500000 0.500000 0.500000
O O13 0.757497 0.860987 0.524285
O O14 0.773760 0.011020 0.037418
O O15 0.422544 0.059057 0.736813
O O16 0.215602 0.764154 0.629954
O O17 0.000000 0.000000 0.500000
O O18 0.000000 0.500000 0.500000
#
# Coordination Sequence:
#
# PCOD8034273 Si02
#       8
#     2   2   2   2   2   2   2   2
#     4  11  25  47  70 105 137 185 235 284 352 417
#     4  12  26  48  71 104 145 184 233 293 351 421
#     4  11  24  44  70 104 139 180 232 285 344 415
#     4  12  27  43  73 105 143 185 235 284 354 414
#     4  11  25  43  71 103 141 179 230 290 347 409
#     4  12  27  48  69 106 145 187 235 293 344 420
#     4  12  28  47  74 103 141 187 237 288 355 420
#     4  11  26  45  73 101 143 181 233 292 347 415
#
# _framework density 22.435117999999999
#
# number of rings (size 3 to 8) (size 9 to 14) (size 15 to 20)
#    0.000    0.500    2.500    4.500    8.750    6.000 
#    0.000    0.000    0.000    0.000    0.000    0.000 
#    0.000    0.000    0.000    0.000    0.000    0.000 
#
# Total GULP energy -198435.038182 kJ/mol
# GULP energy per Si atom -12402.189886 kJ/mol
# Density = 2.238405 g / cm^3
# Si number density = 22.435118 Si / 1000 Ang^3
#
#
#
# Elastic Constant Matrix: (Units=GPa)
#
#
# Indices 1 2 3 4 5 6 
#
# 1 117.2882 54.0664 39.0535 2.4626 14.7903 -21.1330
# 2 54.0664 132.8533 52.9172 14.9695 11.4596 -34.3929
# 3 39.0535 52.9172 138.9712 8.8958 17.9618 -18.0326
# 4 2.4626 14.9695 8.8958 43.6138 -0.2458 7.0945
# 5 14.7903 11.4596 17.9618 -0.2458 41.3431 -2.2888
# 6 -21.1330 -34.3929 -18.0326 7.0945 -2.2888 44.6162
#
#
#
# Elastic Compliance Matrix: (Units=1/GPa)
#
#
# Indices 1 2 3 4 5 6 
#
# 1 0.011156 -0.003347 -0.001327 0.000455 -0.002375 0.001974
# 2 -0.003347 0.012479 -0.002379 -0.004884 -0.000825 0.007807
# 3 -0.001327 -0.002379 0.009066 -0.001176 -0.002743 0.001248
# 4 0.000455 -0.004884 -0.001176 0.026146 0.001408 -0.008110
# 5 -0.002375 -0.000825 -0.002743 0.001408 0.026370 -0.001741
# 6 0.001974 0.007807 0.001248 -0.008110 -0.001741 0.031071
#
#
# Mechanical properties :
#
#
# Convention : Reuss Voigt Hill
#
# Bulk Modulus (GPa) = 53.77460 75.68744 64.73102
# Shear Modulus (GPa) = 36.60496 42.11966 39.36231
#
# Velocity S-wave (km/s) = 4.04368 4.33760 4.19321
# Velocity P-wave (km/s) = 6.76925 7.67435 7.23597
#
# Compressibility (1/GPa) = 0.01859614
#
# Stress axis : x y z
#
# Youngs Moduli (GPa) = 89.63567 80.13181 110.29993
#
# Poissons Ratio (x) = 0.26822 0.14633
# Poissons Ratio (y) = 0.30003 0.26240
# Poissons Ratio (z) = 0.11891 0.19063
#
# Static dielectric constant tensor:
#      x y z
#    x 2.702480 -0.540340 0.485300 
#    y -0.540340 3.987800 0.038580 
#    z 0.485300 0.038580 3.925000 
# 
# 
# High freq. dielectric constant tensor:
#      x y z
#    x 1.887300 -0.007840 0.007860 
#    y -0.007840 1.900250 -0.005330 
#    z 0.007860 -0.005330 1.899070 
# 
# From -- ./inp_files/566594.got.cif
#   From: 2010.06.25/outbox.cif.g09.slc.cpg/sg2_284_cif.got.tgz:566594.got - 2010.06.27 13:26:56.
