data_PCOD8034766
_publ_section_title
;
Structure prediction by ZEFSAII (Michael W. Deem and Ramdas Pophale) SiO2 
 PCOD8034766
Probable space group: P -1
;
_chemical_formula_sum "Si O2"
_cell_formula_units_Z 16
_cell_length_a 22.338077
_cell_length_b 8.437875
_cell_length_c 6.721107
_cell_angle_alpha 91.446186
_cell_angle_beta 127.240778
_cell_angle_gamma 54.395610
_cell_volume 707.593699
_symmetry_space_group_name_H-M "P -1"
_symmetry_group_IT_number 2
_symmetry_cell_setting 'triclinic'
loop_
_space_group_symop_operation_xyz
x,y,z
-x,-y,-z
loop_
_atom_site_type_symbol
_atom_site_label
_atom_site_fract_x
_atom_site_fract_y
_atom_site_fract_z
Si Si1 0.583660 0.995532 0.071652
Si Si2 0.035968 0.769541 0.503023
Si Si3 0.513757 0.548451 0.242943
Si Si4 0.714485 0.625220 0.989225
Si Si5 0.335369 0.659231 0.137942
Si Si6 0.849628 0.834254 0.259897
Si Si7 0.914618 0.512391 0.733781
Si Si8 0.257332 0.209227 0.292598
O O1 0.672003 0.776999 0.104192
O O2 0.648607 0.992624 0.376590
O O3 0.500000 0.000000 0.000000
O O4 0.521278 0.214915 0.817305
O O5 0.158141 0.560933 0.796948
O O6 0.028817 0.732190 0.251453
O O7 0.966988 0.736546 0.473387
O O8 0.000000 0.000000 0.500000
O O9 0.439107 0.554400 0.227207
O O10 0.635671 0.354690 0.569791
O O11 0.500000 0.500000 0.000000
O O12 0.675269 0.508445 0.927274
O O13 0.677454 0.765364 0.715607
O O14 0.231264 0.901099 0.847725
O O15 0.852167 0.701211 0.436133
O O16 0.801646 0.835937 0.958386
O O17 0.833275 0.575303 0.741733
O O18 0.000000 0.500000 0.000000
#
# Coordination Sequence:
#
# PCOD8034766 Si02
#       8
#     2   2   2   2   2   2   2   2
#     4  12  26  45  73 106 142 188 239 300 359 434
#     4  12  24  47  70 105 150 184 234 303 361 426
#     4  11  24  46  69  99 138 180 239 293 356 425
#     4  12  25  45  69 105 145 182 239 294 365 426
#     4  11  25  43  69 101 138 184 231 296 358 425
#     4  12  24  44  74 101 143 189 241 292 364 432
#     4  12  24  45  74 107 139 191 246 293 355 440
#     4  12  23  42  73 101 140 186 241 293 354 431
#
# _framework density 22.611848999999999
#
# number of rings (size 3 to 8) (size 9 to 14) (size 15 to 20)
#    0.000    0.250    5.000    4.875    0.000    4.000 
#    0.000    5.000    0.000    0.000    0.000    0.000 
#    0.000    0.000    0.000    0.000    0.000    0.000 
#
# Total GULP energy -198242.210785 kJ/mol
# GULP energy per Si atom -12390.138174 kJ/mol
# Density = 2.256038 g / cm^3
# Si number density = 22.611849 Si / 1000 Ang^3
#
#
#
# Elastic Constant Matrix: (Units=GPa)
#
#
# Indices 1 2 3 4 5 6 
#
# 1 134.1645 40.5682 33.6193 1.7342 -1.8608 9.8852
# 2 40.5682 92.8650 35.5228 11.5298 -13.0470 10.5289
# 3 33.6193 35.5228 125.8281 8.0887 0.9598 -2.0479
# 4 1.7342 11.5298 8.0887 37.7043 -4.2640 3.1342
# 5 -1.8608 -13.0470 0.9598 -4.2640 27.6267 2.2310
# 6 9.8852 10.5289 -2.0479 3.1342 2.2310 39.1227
#
#
#
# Elastic Compliance Matrix: (Units=1/GPa)
#
#
# Indices 1 2 3 4 5 6 
#
# 1 0.008941 -0.003375 -0.001519 0.000994 -0.000667 -0.001472
# 2 -0.003375 0.015242 -0.003339 -0.002703 0.006961 -0.003605
# 3 -0.001519 -0.003339 0.009435 -0.001371 -0.002382 0.002022
# 4 0.000994 -0.002703 -0.001371 0.028145 0.003347 -0.002041
# 5 -0.000667 0.006961 -0.002382 0.003347 0.040394 -0.004401
# 6 -0.001472 -0.003605 0.002022 -0.002041 -0.004401 0.027423
#
#
# Mechanical properties :
#
#
# Convention : Reuss Voigt Hill
#
# Bulk Modulus (GPa) = 58.30253 63.58646 60.94450
# Shear Modulus (GPa) = 32.94578 37.10055 35.02317
#
# Velocity S-wave (km/s) = 3.82123 4.05502 3.93986
# Velocity P-wave (km/s) = 6.73120 7.07857 6.90707
#
# Compressibility (1/GPa) = 0.01715191
#
# Stress axis : x y z
#
# Youngs Moduli (GPa) = 111.84395 65.60692 105.98746
#
# Poissons Ratio (x) = 0.22143 0.16098
# Poissons Ratio (y) = 0.37748 0.35393
# Poissons Ratio (z) = 0.16987 0.21908
#
# Static dielectric constant tensor:
#      x y z
#    x 4.415720 0.148450 0.292910 
#    y 0.148450 4.424640 0.292290 
#    z 0.292910 0.292290 4.446210 
# 
# 
# High freq. dielectric constant tensor:
#      x y z
#    x 1.901930 -0.003250 0.010770 
#    y -0.003250 1.887970 0.009550 
#    z 0.010770 0.009550 1.902800 
# 
# From -- ./inp_files/122917.got.cif
#   From: 2010.06.25/outbox.cif.g09.slc.cpg/sg2_62_cif.got.tgz:122917.got - 2010.06.27 13:26:56.
