data_PCOD8034968
_publ_section_title
;
Structure prediction by ZEFSAII (Michael W. Deem and Ramdas Pophale) SiO2 
 PCOD8034968
Probable space group: P -1
;
_chemical_formula_sum "Si O2"
_cell_formula_units_Z 16
_cell_length_a 8.239548
_cell_length_b 11.644205
_cell_length_c 8.087134
_cell_angle_alpha 93.934573
_cell_angle_beta 88.469596
_cell_angle_gamma 123.380408
_cell_volume 646.323730
_symmetry_space_group_name_H-M "P -1"
_symmetry_group_IT_number 2
_symmetry_cell_setting 'triclinic'
loop_
_space_group_symop_operation_xyz
x,y,z
-x,-y,-z
loop_
_atom_site_type_symbol
_atom_site_label
_atom_site_fract_x
_atom_site_fract_y
_atom_site_fract_z
Si Si1 0.561922 0.005313 0.183359
Si Si2 0.709813 0.409669 0.222933
Si Si3 0.095684 0.171245 0.412059
Si Si4 0.188082 0.967024 0.320827
Si Si5 0.488127 0.278226 0.873720
Si Si6 0.865469 0.699806 0.127443
Si Si7 0.956882 0.296634 0.205598
Si Si8 0.510382 0.633302 0.459524
O O1 0.412350 0.015784 0.308302
O O2 0.557659 0.867704 0.201853
O O3 0.776350 0.138522 0.208358
O O4 0.500000 0.000000 0.000000
O O5 0.768192 0.567033 0.238405
O O6 0.898286 0.404772 0.255052
O O7 0.572751 0.328894 0.376425
O O8 0.619007 0.334328 0.041279
O O9 0.261783 0.241531 0.557872
O O10 0.884033 0.068770 0.490052
O O11 0.106604 0.298918 0.332603
O O12 0.150853 0.085905 0.279290
O O13 0.061265 0.830890 0.203634
O O14 0.289642 0.266180 0.921865
O O15 0.589033 0.378288 0.718060
O O16 0.934211 0.654335 0.964881
O O17 0.500000 0.500000 0.500000
#
# Coordination Sequence:
#
# PCOD8034968 Si02
#       8
#     2   2   2   2   2   2   2   2
#     4  12  25  45  69 107 143 187 240 295 363 426
#     4  12  26  48  71 109 146 189 239 296 361 429
#     4  11  26  45  70 105 138 187 237 294 354 424
#     4  11  24  47  68  99 146 181 238 295 351 426
#     4  12  26  46  78 105 145 193 236 302 357 429
#     4  12  24  46  72 102 140 187 242 291 354 427
#     4  12  27  43  73 103 143 189 237 297 359 427
#     4  12  26  49  75 109 143 191 245 289 364 432
#
# _framework density 24.755395
#
# number of rings (size 3 to 8) (size 9 to 14) (size 15 to 20)
#    0.000    0.250    5.000    3.000    7.000    1.500 
#    0.000    1.250    0.000    0.000    0.000    0.000 
#    0.000    0.000    0.000    0.000    0.000    0.000 
#
# Total GULP energy -198345.780688 kJ/mol
# GULP energy per Si atom -12396.611293 kJ/mol
# Density = 2.469905 g / cm^3
# Si number density = 24.755395 Si / 1000 Ang^3
#
#
#
# Elastic Constant Matrix: (Units=GPa)
#
#
# Indices 1 2 3 4 5 6 
#
# 1 113.8339 22.8058 22.1301 -8.8202 -25.3617 -25.5385
# 2 22.8058 53.7938 3.0114 -8.7917 -2.9279 -21.4018
# 3 22.1301 3.0114 107.8269 -10.5501 -10.8794 -0.1755
# 4 -8.8202 -8.7917 -10.5501 34.5493 2.8508 -0.4800
# 5 -25.3617 -2.9279 -10.8794 2.8508 42.5493 -5.0948
# 6 -25.5385 -21.4018 -0.1755 -0.4800 -5.0948 44.8390
#
#
#
# Elastic Compliance Matrix: (Units=1/GPa)
#
#
# Indices 1 2 3 4 5 6 
#
# 1 0.013074 -0.001704 -0.001631 0.001847 0.008040 0.007560
# 2 -0.001704 0.024792 0.000439 0.006019 0.001731 0.011125
# 3 -0.001631 0.000439 0.009992 0.002626 0.001377 -0.000496
# 4 0.001847 0.006019 0.002626 0.031762 0.000579 0.004341
# 5 0.008040 0.001731 0.001377 0.000579 0.029781 0.008801
# 6 0.007560 0.011125 -0.000496 0.004341 0.008801 0.032963
#
#
# Mechanical properties :
#
#
# Convention : Reuss Voigt Hill
#
# Bulk Modulus (GPa) = 23.77308 41.26102 32.51705
# Shear Modulus (GPa) = 30.83066 39.55465 35.19265
#
# Velocity S-wave (km/s) = 3.53287 4.00161 3.77452
# Velocity P-wave (km/s) = 5.12500 6.16881 5.67097
#
# Compressibility (1/GPa) = 0.04206439
#
# Stress axis : x y z
#
# Youngs Moduli (GPa) = 76.48979 40.33621 100.08244
#
# Poissons Ratio (x) = 0.06874 0.16327
# Poissons Ratio (y) = 0.13034 -0.04395
# Poissons Ratio (z) = 0.12478 -0.01771
#
# Static dielectric constant tensor:
#      x y z
#    x 4.074860 0.067600 0.023100 
#    y 0.067600 4.563730 -0.034940 
#    z 0.023100 -0.034940 4.730060 
# 
# 
# High freq. dielectric constant tensor:
#      x y z
#    x 1.993320 -0.010240 -0.014480 
#    y -0.010240 1.991140 -0.006670 
#    z -0.014480 -0.006670 1.985830 
# 
# From -- ./inp_files/187677.got.cif
#   From: 2010.06.25/outbox.cif.g09.slc.cpg/sg2_94_cif.got.tgz:187677.got - 2010.06.27 13:26:56.
