data_PCOD8034306
_publ_section_title
;
Structure prediction by ZEFSAII (Michael W. Deem and Ramdas Pophale) SiO2 
 PCOD8034306
Probable space group: P -1
;
_chemical_formula_sum "Si O2"
_cell_formula_units_Z 16
_cell_length_a 12.680444
_cell_length_b 11.197979
_cell_length_c 13.841223
_cell_angle_alpha 159.861478
_cell_angle_beta 90.086014
_cell_angle_gamma 87.029455
_cell_volume 669.371717
_symmetry_space_group_name_H-M "P -1"
_symmetry_group_IT_number 2
_symmetry_cell_setting 'triclinic'
loop_
_space_group_symop_operation_xyz
x,y,z
-x,-y,-z
loop_
_atom_site_type_symbol
_atom_site_label
_atom_site_fract_x
_atom_site_fract_y
_atom_site_fract_z
Si Si1 0.074124 0.700224 0.716599
Si Si2 0.426336 0.629124 0.818090
Si Si3 0.233987 0.277057 0.535336
Si Si4 0.731961 0.005124 0.134815
Si Si5 0.766974 0.774991 0.173986
Si Si6 0.607902 0.631369 0.694246
Si Si7 0.875007 0.055089 0.553043
Si Si8 0.600457 0.439178 0.022229
O O1 0.142767 0.384194 0.537149
O O2 0.147589 0.930199 0.831648
O O3 0.000000 0.500000 0.500000
O O4 0.000000 0.000000 0.000000
O O5 0.451266 0.479825 0.811545
O O6 0.442908 0.032907 0.112437
O O7 0.302079 0.600026 0.776455
O O8 0.517771 0.438215 0.601288
O O9 0.171057 0.246002 0.612659
O O10 0.323942 0.938559 0.262023
O O11 0.657949 0.382068 0.418217
O O12 0.719336 0.898816 0.165307
O O13 0.693400 0.733765 0.852174
O O14 0.828601 0.054085 0.442731
O O15 0.845634 0.415632 0.884047
O O16 0.671938 0.727941 0.210922
O O17 0.000000 0.000000 0.500000
O O18 0.500000 0.500000 0.000000
#
# Coordination Sequence:
#
# PCOD8034306 Si02
#       8
#     2   2   2   2   2   2   2   2
#     4  12  29  47  78 107 141 195 246 304 368 421
#     4  11  24  44  71 103 146 189 244 288 369 433
#     4  11  26  47  74 103 150 185 248 306 354 439
#     4  12  25  48  68 105 148 179 245 298 357 429
#     4  11  25  43  67 104 139 186 233 296 352 431
#     4  11  26  42  74 104 142 197 227 295 366 429
#     4  11  25  45  70  98 137 191 238 293 368 410
#     4  11  25  45  73 108 145 196 237 296 363 439
#
# _framework density 23.903012
#
# number of rings (size 3 to 8) (size 9 to 14) (size 15 to 20)
#    0.000    0.750    2.500    3.375    8.750    2.500 
#    0.000    0.000    0.000    0.000    0.000    0.000 
#    0.000    0.000    0.000    0.000    0.000    0.000 
#
# Total GULP energy -198283.675819 kJ/mol
# GULP energy per Si atom -12392.729739 kJ/mol
# Density = 2.384861 g / cm^3
# Si number density = 23.903012 Si / 1000 Ang^3
#
#
#
# Elastic Constant Matrix: (Units=GPa)
#
#
# Indices 1 2 3 4 5 6 
#
# 1 152.0947 37.7447 35.6719 -6.3237 5.4513 7.5925
# 2 37.7447 97.0431 6.0932 -0.8578 6.4156 -1.9021
# 3 35.6719 6.0932 61.7091 -13.7650 -3.9338 0.8180
# 4 -6.3237 -0.8578 -13.7650 35.1650 -6.4648 2.4982
# 5 5.4513 6.4156 -3.9338 -6.4648 41.7350 -3.1064
# 6 7.5925 -1.9021 0.8180 2.4982 -3.1064 63.4076
#
#
#
# Elastic Compliance Matrix: (Units=1/GPa)
#
#
# Indices 1 2 3 4 5 6 
#
# 1 0.008516 -0.002950 -0.004831 -0.000591 -0.001286 -0.001086
# 2 -0.002950 0.011527 0.000384 -0.000396 -0.001364 0.000643
# 3 -0.004831 0.000384 0.020995 0.008046 0.003811 0.000189
# 4 -0.000591 -0.000396 0.008046 0.032625 0.005872 -0.001043
# 5 -0.001286 -0.001364 0.003811 0.005872 0.025689 0.001091
# 6 -0.001086 0.000643 0.000189 -0.001043 0.001091 0.016012
#
#
# Mechanical properties :
#
#
# Convention : Reuss Voigt Hill
#
# Bulk Modulus (GPa) = 38.10542 52.20740 45.15641
# Shear Modulus (GPa) = 35.99543 43.48398 39.73971
#
# Velocity S-wave (km/s) = 3.88480 4.26982 4.08185
# Velocity P-wave (km/s) = 6.00820 6.79685 6.41466
#
# Compressibility (1/GPa) = 0.02624299
#
# Stress axis : x y z
#
# Youngs Moduli (GPa) = 117.42949 86.74976 47.63051
#
# Poissons Ratio (x) = 0.25594 0.23009
# Poissons Ratio (y) = 0.34645 -0.01827
# Poissons Ratio (z) = 0.56727 -0.03327
#
# Static dielectric constant tensor:
#      x y z
#    x 4.253920 -0.271500 0.340880 
#    y -0.271500 3.825220 0.580780 
#    z 0.340880 0.580780 3.830810 
# 
# 
# High freq. dielectric constant tensor:
#      x y z
#    x 1.963320 0.009170 0.002630 
#    y 0.009170 1.965110 -0.002300 
#    z 0.002630 -0.002300 1.936350 
# 
# From -- ./inp_files/519984.got.cif
#   From: 2010.06.25/outbox.cif.g09.slc.cpg/sg2_260_cif.got.tgz:519984.got - 2010.06.27 13:26:56.
