data_PCOD8034393
_publ_section_title
;
Structure prediction by ZEFSAII (Michael W. Deem and Ramdas Pophale) SiO2 
 PCOD8034393
Probable space group: P -1
;
_chemical_formula_sum "Si O2"
_cell_formula_units_Z 16
_cell_length_a 8.668949
_cell_length_b 19.652402
_cell_length_c 11.596546
_cell_angle_alpha 146.550844
_cell_angle_beta 43.927523
_cell_angle_gamma 141.103434
_cell_volume 669.308544
_symmetry_space_group_name_H-M "P -1"
_symmetry_group_IT_number 2
_symmetry_cell_setting 'triclinic'
loop_
_space_group_symop_operation_xyz
x,y,z
-x,-y,-z
loop_
_atom_site_type_symbol
_atom_site_label
_atom_site_fract_x
_atom_site_fract_y
_atom_site_fract_z
Si Si1 0.528982 0.232003 0.869602
Si Si2 0.148161 0.691562 0.982197
Si Si3 0.028007 0.000186 0.169536
Si Si4 0.312014 0.455385 0.801764
Si Si5 0.193744 0.974363 0.288525
Si Si6 0.741113 0.167788 0.291799
Si Si7 0.247176 0.619588 0.586630
Si Si8 0.970487 0.263228 0.531829
O O1 0.262162 0.105767 0.806531
O O2 0.718529 0.195390 0.645662
O O3 0.606155 0.244647 0.979575
O O4 0.539301 0.378235 0.032211
O O5 0.213430 0.611205 0.731586
O O6 0.115619 0.812597 0.107585
O O7 0.889665 0.600338 0.063604
O O8 0.192307 0.019822 0.222589
O O9 0.082480 0.154159 0.320404
O O10 0.132609 0.934389 0.924552
O O11 0.511255 0.395078 0.609926
O O12 0.162331 0.410460 0.695745
O O13 0.457282 0.069618 0.343278
O O14 0.000000 0.000000 0.500000
O O15 0.738715 0.238723 0.272296
O O16 0.897613 0.283418 0.469072
O O17 0.000000 0.500000 0.500000
#
# Coordination Sequence:
#
# PCOD8034393 Si02
#       8
#     2   2   2   2   2   2   2   2
#     4  11  25  47  70 104 139 185 237 288 347 420
#     4  11  25  46  72 101 141 182 235 290 346 417
#     4  12  24  43  70 107 138 181 234 287 354 415
#     4  11  27  48  74 102 142 189 237 290 350 416
#     4  12  24  44  71 100 141 184 228 291 353 417
#     4  12  26  44  69 107 141 178 234 292 349 420
#     4  12  28  46  70 104 143 187 234 285 352 422
#     4  11  24  44  74 100 140 185 232 290 350 414
#
# _framework density 23.905268
#
# number of rings (size 3 to 8) (size 9 to 14) (size 15 to 20)
#    0.000    0.500    1.250    7.875    7.000    1.000 
#    0.000    0.000    0.000    0.000    0.000    0.000 
#    0.000    0.000    0.000    0.000    0.000    0.000 
#
# Total GULP energy -198397.646577 kJ/mol
# GULP energy per Si atom -12399.852911 kJ/mol
# Density = 2.385086 g / cm^3
# Si number density = 23.905268 Si / 1000 Ang^3
#
#
#
# Elastic Constant Matrix: (Units=GPa)
#
#
# Indices 1 2 3 4 5 6 
#
# 1 89.3049 7.5811 11.9305 -11.0657 6.7048 -3.1891
# 2 7.5811 56.2155 10.8307 -8.9355 -0.1253 10.3332
# 3 11.9305 10.8307 78.2664 -13.4957 -3.5180 -6.7371
# 4 -11.0657 -8.9355 -13.4957 34.9796 1.2888 3.4881
# 5 6.7048 -0.1253 -3.5180 1.2888 47.1916 -7.6635
# 6 -3.1891 10.3332 -6.7371 3.4881 -7.6635 40.1278
#
#
#
# Elastic Compliance Matrix: (Units=1/GPa)
#
#
# Indices 1 2 3 4 5 6 
#
# 1 0.011975 -0.000963 -0.001205 0.003106 -0.001817 0.000380
# 2 -0.000963 0.020286 -0.002464 0.004601 -0.001147 -0.006333
# 3 -0.001205 -0.002464 0.014342 0.004176 0.001589 0.002887
# 4 0.003106 0.004601 0.004176 0.032752 -0.001561 -0.003382
# 5 -0.001817 -0.001147 0.001589 -0.001561 0.022391 0.004830
# 6 0.000380 -0.006333 0.002887 -0.003382 0.004830 0.028282
#
#
# Mechanical properties :
#
#
# Convention : Reuss Voigt Hill
#
# Bulk Modulus (GPa) = 26.78213 31.60795 29.19504
# Shear Modulus (GPa) = 32.95146 37.35611 35.15379
#
# Velocity S-wave (km/s) = 3.71673 3.95735 3.83893
# Velocity P-wave (km/s) = 5.44487 5.84224 5.64705
#
# Compressibility (1/GPa) = 0.03733833
#
# Stress axis : x y z
#
# Youngs Moduli (GPa) = 83.50548 49.29503 69.72732
#
# Poissons Ratio (x) = 0.04747 0.08406
# Poissons Ratio (y) = 0.08041 0.17180
# Poissons Ratio (z) = 0.10067 0.12146
#
# Static dielectric constant tensor:
#      x y z
#    x 2.600580 -0.546690 -1.885110 
#    y -0.546690 4.273540 -0.431120 
#    z -1.885110 -0.431120 2.833720 
# 
# 
# High freq. dielectric constant tensor:
#      x y z
#    x 1.957470 0.006630 -0.001660 
#    y 0.006630 1.942760 -0.002840 
#    z -0.001660 -0.002840 1.963210 
# 
# From -- ./inp_files/405669.got.cif
#   From: 2010.06.25/outbox.cif.g09.slc.cpg/sg2_203_cif.got.tgz:405669.got - 2010.06.27 13:26:56.
