data_PCOD8034728
_publ_section_title
;
Structure prediction by ZEFSAII (Michael W. Deem and Ramdas Pophale) SiO2 
 PCOD8034728
Probable space group: P -1
;
_chemical_formula_sum "Si O2"
_cell_formula_units_Z 16
_cell_length_a 9.729777
_cell_length_b 9.384823
_cell_length_c 11.439827
_cell_angle_alpha 126.334662
_cell_angle_beta 116.214523
_cell_angle_gamma 68.401389
_cell_volume 746.722088
_symmetry_space_group_name_H-M "P -1"
_symmetry_group_IT_number 2
_symmetry_cell_setting 'triclinic'
loop_
_space_group_symop_operation_xyz
x,y,z
-x,-y,-z
loop_
_atom_site_type_symbol
_atom_site_label
_atom_site_fract_x
_atom_site_fract_y
_atom_site_fract_z
Si Si1 0.300503 0.347580 0.625709
Si Si2 0.843424 0.520185 0.132113
Si Si3 0.874036 0.297394 0.677320
Si Si4 0.143714 0.038191 0.342026
Si Si5 0.613834 0.477303 0.820876
Si Si6 0.160060 0.705416 0.611927
Si Si7 0.402472 0.845202 0.907231
Si Si8 0.850890 0.134826 0.980605
O O1 0.234027 0.353309 0.733840
O O2 0.280769 0.154727 0.473019
O O3 0.483492 0.347994 0.705789
O O4 0.207362 0.510095 0.593178
O O5 0.977419 0.620254 0.175322
O O6 0.716561 0.464796 0.968910
O O7 0.910253 0.325562 0.113270
O O8 0.720967 0.425055 0.723668
O O9 0.875015 0.311411 0.545214
O O10 0.881629 0.092488 0.622444
O O11 0.990674 0.181884 0.329696
O O12 0.196172 0.906968 0.189982
O O13 0.531910 0.677235 0.885765
O O14 0.298820 0.820626 0.742236
O O15 0.295364 0.878426 0.997665
O O16 0.500000 0.000000 0.000000
O O17 0.000000 0.000000 0.000000
#
# Coordination Sequence:
#
# PCOD8034728 Si02
#       8
#     2   2   2   2   2   2   2   2
#     4  11  25  45  74  95 139 189 229 292 354 415
#     4  12  24  46  72  99 140 190 231 288 349 416
#     4  12  28  41  73 103 142 188 230 295 349 411
#     4  12  25  44  71 109 135 179 245 289 345 415
#     4  11  26  46  66 102 140 182 234 283 358 418
#     4  11  24  46  66 103 140 183 236 286 353 415
#     4  11  27  44  71 104 140 188 226 297 349 413
#     4  12  25  44  74 105 135 182 241 283 347 420
#
# _framework density 21.426981000000001
#
# number of rings (size 3 to 8) (size 9 to 14) (size 15 to 20)
#    0.000    0.500    6.250    1.500    5.250    3.500 
#    0.000    0.000    0.000    0.000    0.000    0.000 
#    0.000    0.000    0.000    0.000    0.000    0.000 
#
# Total GULP energy -198368.403124 kJ/mol
# GULP energy per Si atom -12398.025195 kJ/mol
# Density = 2.137821 g / cm^3
# Si number density = 21.426981 Si / 1000 Ang^3
#
#
#
# Elastic Constant Matrix: (Units=GPa)
#
#
# Indices 1 2 3 4 5 6 
#
# 1 126.5040 57.7433 53.2576 18.1326 23.6966 -3.8216
# 2 57.7433 71.0320 36.6151 9.7666 15.4464 10.4157
# 3 53.2576 36.6151 101.3934 22.0937 7.7137 12.7656
# 4 18.1326 9.7666 22.0937 34.1052 5.7530 8.6383
# 5 23.6966 15.4464 7.7137 5.7530 44.5696 12.2156
# 6 -3.8216 10.4157 12.7656 8.6383 12.2156 35.0127
#
#
#
# Elastic Compliance Matrix: (Units=1/GPa)
#
#
# Indices 1 2 3 4 5 6 
#
# 1 0.017110 -0.010818 -0.004931 -0.004271 -0.006765 0.010298
# 2 -0.010818 0.025377 -0.002977 0.002562 -0.000652 -0.008049
# 3 -0.004931 -0.002977 0.015128 -0.005616 0.003093 -0.004862
# 4 -0.004271 0.002562 -0.005616 0.036586 -0.000131 -0.008161
# 5 -0.006765 -0.000652 0.003093 -0.000131 0.028960 -0.011744
# 6 0.010298 -0.008049 -0.004862 -0.008161 -0.011744 0.039963
#
#
# Mechanical properties :
#
#
# Convention : Reuss Voigt Hill
#
# Bulk Modulus (GPa) = 49.59881 66.01793 57.80837
# Shear Modulus (GPa) = 24.11990 32.82505 28.47247
#
# Velocity S-wave (km/s) = 3.35875 3.91826 3.64924
# Velocity P-wave (km/s) = 6.18383 7.16574 6.69282
#
# Compressibility (1/GPa) = 0.02016177
#
# Stress axis : x y z
#
# Youngs Moduli (GPa) = 58.44672 39.40570 66.10057
#
# Poissons Ratio (x) = 0.42631 0.32597
# Poissons Ratio (y) = 0.63230 0.19678
# Poissons Ratio (z) = 0.28822 0.11731
#
# Static dielectric constant tensor:
#      x y z
#    x 3.970340 -0.119900 0.026590 
#    y -0.119900 3.851070 0.087330 
#    z 0.026590 0.087330 4.386710 
# 
# 
# High freq. dielectric constant tensor:
#      x y z
#    x 1.844590 -0.008010 0.001930 
#    y -0.008010 1.843190 0.008290 
#    z 0.001930 0.008290 1.858300 
# 
# From -- ./inp_files/279800.got.cif
#   From: 2010.06.25/outbox.cif.g09.slc.cpg/sg2_140_cif.got.tgz:279800.got - 2010.06.27 13:26:56.
