data_PCOD8034227
_publ_section_title
;
Structure prediction by ZEFSAII (Michael W. Deem and Ramdas Pophale) SiO2 
 PCOD8034227
Probable space group: P -1
;
_chemical_formula_sum "Si O2"
_cell_formula_units_Z 14
_cell_length_a 8.808584
_cell_length_b 13.728429
_cell_length_c 5.090397
_cell_angle_alpha 81.205946
_cell_angle_beta 83.075982
_cell_angle_gamma 77.498702
_cell_volume 591.466968
_symmetry_space_group_name_H-M "P -1"
_symmetry_group_IT_number 2
_symmetry_cell_setting 'triclinic'
loop_
_space_group_symop_operation_xyz
x,y,z
-x,-y,-z
loop_
_atom_site_type_symbol
_atom_site_label
_atom_site_fract_x
_atom_site_fract_y
_atom_site_fract_z
Si Si1 0.970543 0.134471 0.621958
Si Si2 0.646145 0.084463 0.829955
Si Si3 0.342543 0.460663 0.528432
Si Si4 0.652048 0.764782 0.234627
Si Si5 0.026861 0.245811 0.062856
Si Si6 0.848973 0.459644 0.974998
Si Si7 0.297731 0.040628 0.603863
O O1 0.797399 0.114734 0.660465
O O2 0.981715 0.223986 0.378577
O O3 0.115148 0.042219 0.557697
O O4 0.003216 0.158371 0.907789
O O5 0.512900 0.181859 0.884037
O O6 0.591838 0.016344 0.632468
O O7 0.674404 0.015264 0.103612
O O8 0.500000 0.500000 0.500000
O O9 0.370347 0.340192 0.596713
O O10 0.248732 0.485525 0.268781
O O11 0.252405 0.523964 0.753365
O O12 0.688438 0.842130 0.419757
O O13 0.791812 0.742326 0.999899
O O14 0.904904 0.342702 0.945981
O O15 0.000000 0.500000 0.000000
#
# Coordination Sequence:
#
# PCOD8034227 Si02
#       7
#     2   2   2   2   2   2   2
#     4  11  24  44  72 102 140 184 236 293 354 427
#     4  12  25  44  70 105 139 185 233 299 357 414
#     4  12  29  50  74 113 149 188 238 312 366 427
#     4  11  27  45  72 102 145 184 241 290 364 424
#     4  11  25  44  70 104 139 191 237 286 352 438
#     4  12  26  48  79 103 148 190 251 292 363 439
#     4  11  24  44  69 101 140 187 237 288 352 433
#
# _framework density 23.669958999999999
#
# number of rings (size 3 to 8) (size 9 to 14) (size 15 to 20)
#    0.000    0.571    1.429    6.000    8.000    4.571 
#    0.000    0.000    0.000    0.000    0.000    0.000 
#    0.000    0.000    0.000    0.000    0.000    0.000 
#
# Total GULP energy -173566.028771 kJ/mol
# GULP energy per Si atom -12397.573484 kJ/mol
# Density = 2.361608 g / cm^3
# Si number density = 23.669959 Si / 1000 Ang^3
#
#
#
# Elastic Constant Matrix: (Units=GPa)
#
#
# Indices 1 2 3 4 5 6 
#
# 1 144.4735 57.3497 56.5716 -17.0421 -11.4448 -2.7588
# 2 57.3497 151.5376 56.4577 -17.2200 -15.3732 -29.8979
# 3 56.5716 56.4577 128.4760 -17.2335 -6.0446 0.7239
# 4 -17.0421 -17.2200 -17.2335 36.9832 -7.8776 -2.0326
# 5 -11.4448 -15.3732 -6.0446 -7.8776 45.8453 -5.5246
# 6 -2.7588 -29.8979 0.7239 -2.0326 -5.5246 29.2997
#
#
#
# Elastic Compliance Matrix: (Units=1/GPa)
#
#
# Indices 1 2 3 4 5 6 
#
# 1 0.009240 -0.002291 -0.002695 0.002189 0.001442 -0.000977
# 2 -0.002291 0.012953 -0.003778 0.005281 0.005938 0.014581
# 3 -0.002695 -0.003778 0.010840 0.001647 -0.000758 -0.004405
# 4 0.002189 0.005281 0.001647 0.033834 0.009517 0.009696
# 5 0.001442 0.005938 -0.000758 0.009517 0.027144 0.011992
# 6 -0.000977 0.014581 -0.004405 0.009696 0.011992 0.051959
#
#
# Mechanical properties :
#
#
# Convention : Reuss Voigt Hill
#
# Bulk Modulus (GPa) = 64.49000 85.02723 74.75862
# Shear Modulus (GPa) = 29.64442 39.36619 34.50530
#
# Velocity S-wave (km/s) = 3.54278 4.08257 3.82221
# Velocity P-wave (km/s) = 6.63624 7.63041 7.15062
#
# Compressibility (1/GPa) = 0.01550628
#
# Stress axis : x y z
#
# Youngs Moduli (GPa) = 108.22497 77.20470 92.24730
#
# Poissons Ratio (x) = 0.17685 0.24862
# Poissons Ratio (y) = 0.24790 0.34848
# Poissons Ratio (z) = 0.29168 0.29165
#
# Static dielectric constant tensor:
#      x y z
#    x 4.804460 -0.140980 -0.115540 
#    y -0.140980 4.268400 0.105900 
#    z -0.115540 0.105900 4.170750 
# 
# 
# High freq. dielectric constant tensor:
#      x y z
#    x 1.962790 -0.015140 -0.007270 
#    y -0.015140 1.941660 0.006370 
#    z -0.007270 0.006370 1.943760 
# 
# From -- ./inp_files/34994.got.cif
#   From: 2010.06.25/outbox.cif.g09.slc.cpg/sg2_18_cif.got.tgz:34994.got - 2010.06.27 13:26:56.
