data_PCOD8034847
_publ_section_title
;
Structure prediction by ZEFSAII (Michael W. Deem and Ramdas Pophale) SiO2 
 PCOD8034847
Probable space group: P -1
;
_chemical_formula_sum "Si O2"
_cell_formula_units_Z 14
_cell_length_a 8.381198
_cell_length_b 16.841182
_cell_length_c 9.019140
_cell_angle_alpha 119.927862
_cell_angle_beta 101.054928
_cell_angle_gamma 128.699913
_cell_volume 574.658456
_symmetry_space_group_name_H-M "P -1"
_symmetry_group_IT_number 2
_symmetry_cell_setting 'triclinic'
loop_
_space_group_symop_operation_xyz
x,y,z
-x,-y,-z
loop_
_atom_site_type_symbol
_atom_site_label
_atom_site_fract_x
_atom_site_fract_y
_atom_site_fract_z
Si Si1 0.949448 0.221697 0.922181
Si Si2 0.212025 0.488361 0.407139
Si Si3 0.409999 0.913594 0.744873
Si Si4 0.317375 0.152940 0.280896
Si Si5 0.171225 0.391447 0.820853
Si Si6 0.268985 0.596576 0.824947
Si Si7 0.057991 0.067035 0.730299
O O1 0.981229 0.303320 0.860234
O O2 0.065088 0.179981 0.845764
O O3 0.612955 0.053759 0.777871
O O4 0.174982 0.366421 0.228861
O O5 0.531578 0.680289 0.584970
O O6 0.173499 0.479407 0.568338
O O7 0.946660 0.419379 0.215229
O O8 0.466282 0.831276 0.696580
O O9 0.057271 0.762113 0.488812
O O10 0.500000 0.000000 0.000000
O O11 0.222803 0.110600 0.395721
O O12 0.000000 0.000000 0.000000
O O13 0.252194 0.533688 0.918053
O O14 0.500000 0.500000 0.000000
O O15 0.600991 0.798622 0.033178
O O16 0.000000 0.000000 0.500000
#
# Coordination Sequence:
#
# PCOD8034847 Si02
#       7
#     2   2   2   2   2   2   2
#     4  11  27  45  73 112 141 198 244 308 371 445
#     4  11  25  46  75 105 146 188 257 300 366 443
#     4  11  26  49  75 105 151 197 253 307 371 446
#     4  11  24  46  72 107 140 192 248 305 367 436
#     4  12  25  46  72 111 152 191 250 305 379 439
#     4  11  24  47  72 105 145 197 238 305 373 433
#     4  11  26  47  69 102 148 189 241 298 371 440
#
# _framework density 24.362296000000001
#
# number of rings (size 3 to 8) (size 9 to 14) (size 15 to 20)
#    0.000    0.857    4.286    1.286    4.000    6.857 
#    0.000    0.000    0.000    0.000    0.000    0.000 
#    0.000    0.000    0.000    0.000    0.000    0.000 
#
# Total GULP energy -173527.460451 kJ/mol
# GULP energy per Si atom -12394.818604 kJ/mol
# Density = 2.430685 g / cm^3
# Si number density = 24.362296 Si / 1000 Ang^3
#
#
#
# Elastic Constant Matrix: (Units=GPa)
#
#
# Indices 1 2 3 4 5 6 
#
# 1 70.7462 30.2399 52.8392 -2.8131 0.1834 14.0874
# 2 30.2399 131.7004 11.4186 3.4939 -0.2484 9.1365
# 3 52.8392 11.4186 149.2859 3.2047 4.1908 18.2188
# 4 -2.8131 3.4939 3.2047 46.4028 5.5734 -1.9185
# 5 0.1834 -0.2484 4.1908 5.5734 52.1251 -1.6441
# 6 14.0874 9.1365 18.2188 -1.9185 -1.6441 30.0398
#
#
#
# Elastic Compliance Matrix: (Units=1/GPa)
#
#
# Indices 1 2 3 4 5 6 
#
# 1 0.022179 -0.004208 -0.006993 0.001935 0.000107 -0.004751
# 2 -0.004208 0.008590 0.001014 -0.001032 0.000043 -0.001318
# 3 -0.006993 0.001014 0.009496 -0.001192 -0.000698 -0.002902
# 4 0.001935 -0.001032 -0.001192 0.022156 -0.002240 0.001422
# 5 0.000107 0.000043 -0.000698 -0.002240 0.019521 0.001285
# 6 -0.004751 -0.001318 -0.002902 0.001422 0.001285 0.037839
#
#
# Mechanical properties :
#
#
# Convention : Reuss Voigt Hill
#
# Bulk Modulus (GPa) = 50.27385 60.08085 55.17735
# Shear Modulus (GPa) = 34.06343 42.86252 38.46297
#
# Velocity S-wave (km/s) = 3.74331 4.19905 3.97771
# Velocity P-wave (km/s) = 6.27407 6.94437 6.61771
#
# Compressibility (1/GPa) = 0.01989106
#
# Stress axis : x y z
#
# Youngs Moduli (GPa) = 45.08675 116.41279 105.31180
#
# Poissons Ratio (x) = 0.48985 0.73647
# Poissons Ratio (y) = 0.18972 -0.10680
# Poissons Ratio (z) = 0.31530 -0.11805
#
# Static dielectric constant tensor:
#      x y z
#    x 4.036240 0.713270 0.217340 
#    y 0.713270 4.441380 -0.092570 
#    z 0.217340 -0.092570 4.390810 
# 
# 
# High freq. dielectric constant tensor:
#      x y z
#    x 1.943570 0.009150 0.007730 
#    y 0.009150 1.993680 0.007530 
#    z 0.007730 0.007530 1.974490 
# 
# From -- ./inp_files/218356.got.cif
#   From: 2010.06.25/outbox.cif.g09.slc.cpg/sg2_110_cif.got.tgz:218356.got - 2010.06.27 13:26:56.
