data_PCOD8034094
_publ_section_title
;
Structure prediction by ZEFSAII (Michael W. Deem and Ramdas Pophale) SiO2 
 PCOD8034094
Probable space group: P -1
;
_chemical_formula_sum "Si O2"
_cell_formula_units_Z 12
_cell_length_a 11.650728
_cell_length_b 14.671805
_cell_length_c 10.204697
_cell_angle_alpha 113.823360
_cell_angle_beta 118.228735
_cell_angle_gamma 20.077363
_cell_volume 522.888561
_symmetry_space_group_name_H-M "P -1"
_symmetry_group_IT_number 2
_symmetry_cell_setting 'triclinic'
loop_
_space_group_symop_operation_xyz
x,y,z
-x,-y,-z
loop_
_atom_site_type_symbol
_atom_site_label
_atom_site_fract_x
_atom_site_fract_y
_atom_site_fract_z
Si Si1 0.707308 0.793376 0.381774
Si Si2 0.370827 0.846102 0.315771
Si Si3 0.411897 0.015516 0.822827
Si Si4 0.557242 0.721474 0.615768
Si Si5 0.622673 0.441661 0.174625
Si Si6 0.634114 0.483151 0.668436
O O1 0.692360 0.686953 0.347262
O O2 0.547684 0.925917 0.227513
O O3 0.104770 0.551658 0.447752
O O4 0.500000 0.000000 0.500000
O O5 0.270950 0.934941 0.468338
O O6 0.484626 0.651736 0.242725
O O7 0.037963 0.126083 0.219941
O O8 0.046829 0.213743 0.732752
O O9 0.673448 0.740214 0.764505
O O10 0.500000 0.000000 0.000000
O O11 0.441537 0.723047 0.662941
O O12 0.453061 0.487992 0.215829
O O13 0.500000 0.500000 0.000000
O O14 0.500000 0.500000 0.500000
#
# Coordination Sequence:
#
# PCOD8034094 Si02
#       6
#     2   2   2   2   2   2
#     4  11  24  43  72 108 142 191 250 308 368 451
#     4  12  25  45  75 105 147 191 252 305 375 445
#     4  11  27  44  70 108 147 194 245 312 378 434
#     4  11  24  44  76 106 143 199 252 305 373 444
#     4  12  29  46  72 110 146 196 247 315 378 440
#     4  11  25  47  73 103 145 194 253 300 366 459
#
# _framework density 22.949439000000002
#
# number of rings (size 3 to 8) (size 9 to 14) (size 15 to 20)
#    0.000    0.667    3.333    3.000    7.000    5.333 
#    0.000    0.000    0.000    0.000    0.000    0.000 
#    0.000    0.000    0.000    0.000    0.000    0.000 
#
# Total GULP energy -148693.051350 kJ/mol
# GULP energy per Si atom -12391.087612 kJ/mol
# Density = 2.289720 g / cm^3
# Si number density = 22.949439 Si / 1000 Ang^3
#
#
#
# Elastic Constant Matrix: (Units=GPa)
#
#
# Indices 1 2 3 4 5 6 
#
# 1 174.8936 23.8705 70.9981 1.1160 -18.8706 26.7118
# 2 23.8705 71.9911 37.2275 -4.0944 8.0740 13.6895
# 3 70.9981 37.2275 215.0828 -5.2791 -8.6255 19.9044
# 4 1.1160 -4.0944 -5.2791 32.7980 4.5914 -0.2913
# 5 -18.8706 8.0740 -8.6255 4.5914 45.2337 -0.0782
# 6 26.7118 13.6895 19.9044 -0.2913 -0.0782 46.8934
#
#
#
# Elastic Compliance Matrix: (Units=1/GPa)
#
#
# Indices 1 2 3 4 5 6 
#
# 1 0.007467 -0.001351 -0.001850 -0.001184 0.003118 -0.003076
# 2 -0.001351 0.016715 -0.002269 0.002331 -0.004222 -0.003139
# 3 -0.001850 -0.002269 0.005762 0.000607 0.000669 -0.000724
# 4 -0.001184 0.002331 0.000607 0.031476 -0.003990 -0.000074
# 5 0.003118 -0.004222 0.000669 -0.003990 0.024693 -0.000811
# 6 -0.003076 -0.003139 -0.000724 -0.000074 -0.000811 0.024299
#
#
# Mechanical properties :
#
#
# Convention : Reuss Voigt Hill
#
# Bulk Modulus (GPa) = 52.62324 80.68442 66.65383
# Shear Modulus (GPa) = 39.15824 46.97644 43.06734
#
# Velocity S-wave (km/s) = 4.13520 4.52924 4.33670
# Velocity P-wave (km/s) = 6.76607 7.91112 7.36089
#
# Compressibility (1/GPa) = 0.01900301
#
# Stress axis : x y z
#
# Youngs Moduli (GPa) = 133.91996 59.82723 173.56332
#
# Poissons Ratio (x) = 0.08085 0.32115
# Poissons Ratio (y) = 0.18097 0.39374
# Poissons Ratio (z) = 0.24780 0.13572
#
# Static dielectric constant tensor:
#      x y z
#    x 4.695980 0.231460 -0.209320 
#    y 0.231460 4.308700 -0.126090 
#    z -0.209320 -0.126090 4.214250 
# 
# 
# High freq. dielectric constant tensor:
#      x y z
#    x 1.926940 0.013180 -0.015150 
#    y 0.013180 1.909120 -0.005800 
#    z -0.015150 -0.005800 1.902380 
# 
# From -- ./inp_files/20995.got.cif
#   From: 2010.06.25/outbox.cif.g09.slc.cpg/sg2_11_cif.got.tgz:20995.got - 2010.06.27 13:26:56.
