data_PCOD8034821
_publ_section_title
;
Structure prediction by ZEFSAII (Michael W. Deem and Ramdas Pophale) SiO2 
 PCOD8034821
Probable space group: P -1
;
_chemical_formula_sum "Si O2"
_cell_formula_units_Z 16
_cell_length_a 13.485776
_cell_length_b 8.826693
_cell_length_c 10.784157
_cell_angle_alpha 133.162147
_cell_angle_beta 114.353932
_cell_angle_gamma 46.265828
_cell_volume 672.087449
_symmetry_space_group_name_H-M "P -1"
_symmetry_group_IT_number 2
_symmetry_cell_setting 'triclinic'
loop_
_space_group_symop_operation_xyz
x,y,z
-x,-y,-z
loop_
_atom_site_type_symbol
_atom_site_label
_atom_site_fract_x
_atom_site_fract_y
_atom_site_fract_z
Si Si1 0.142765 0.799699 0.531466
Si Si2 0.520027 0.644347 0.301976
Si Si3 0.753648 0.131828 0.829180
Si Si4 0.649552 0.053094 0.961272
Si Si5 0.578009 0.703372 0.644619
Si Si6 0.697316 0.988412 0.216724
Si Si7 0.721439 0.587187 0.189300
Si Si8 0.042132 0.684040 0.648418
O O1 0.267839 0.550805 0.374797
O O2 0.126222 0.670461 0.567955
O O3 0.187727 0.971743 0.695612
O O4 0.000000 0.000000 0.500000
O O5 0.355405 0.852638 0.310300
O O6 0.565750 0.358206 0.126187
O O7 0.557561 0.658545 0.468106
O O8 0.596343 0.725876 0.301160
O O9 0.764440 0.987160 0.882664
O O10 0.701577 0.424461 0.991489
O O11 0.901469 0.977637 0.755270
O O12 0.711579 0.882609 0.024880
O O13 0.558187 0.976606 0.809129
O O14 0.458568 0.736681 0.686118
O O15 0.724698 0.795147 0.231665
O O16 0.867268 0.395961 0.227170
O O17 0.000000 0.500000 0.500000
#
# Coordination Sequence:
#
# PCOD8034821 Si02
#       8
#     2   2   2   2   2   2   2   2
#     4  12  27  48  69 107 147 186 236 295 354 431
#     4  11  24  46  75 108 142 179 250 298 348 426
#     4  11  25  45  74 104 138 192 236 298 354 417
#     4  11  24  46  71 111 144 178 242 301 353 424
#     4  12  25  46  78 104 142 193 232 297 364 413
#     4  12  26  45  73 106 147 184 237 296 361 429
#     4  11  24  47  71 105 143 188 236 298 355 422
#     4  12  26  47  71 103 142 188 245 290 348 432
#
# _framework density 23.806425999999998
#
# number of rings (size 3 to 8) (size 9 to 14) (size 15 to 20)
#    0.000    0.500    2.500    6.375    3.500    2.000 
#    0.000    1.875    0.000    0.000    0.000    0.000 
#    0.000    0.000    0.000    0.000    0.000    0.000 
#
# Total GULP energy -198386.184581 kJ/mol
# GULP energy per Si atom -12399.136536 kJ/mol
# Density = 2.375224 g / cm^3
# Si number density = 23.806426 Si / 1000 Ang^3
#
#
#
# Elastic Constant Matrix: (Units=GPa)
#
#
# Indices 1 2 3 4 5 6 
#
# 1 130.3311 50.0085 36.4383 -8.4424 18.4304 -9.7437
# 2 50.0085 113.6357 28.5903 -11.3265 3.5868 -9.7398
# 3 36.4383 28.5903 108.2216 -14.8289 16.2351 -1.3261
# 4 -8.4424 -11.3265 -14.8289 20.6399 -8.5984 1.1046
# 5 18.4304 3.5868 16.2351 -8.5984 33.5314 4.9468
# 6 -9.7437 -9.7398 -1.3261 1.1046 4.9468 48.9067
#
#
#
# Elastic Compliance Matrix: (Units=1/GPa)
#
#
# Indices 1 2 3 4 5 6 
#
# 1 0.010480 -0.003966 -0.001900 -0.001456 -0.005054 0.001791
# 2 -0.003966 0.011374 -0.001421 0.004662 0.002691 0.001059
# 3 -0.001900 -0.001421 0.011438 0.005456 -0.002916 -0.000180
# 4 -0.001456 0.004662 0.005456 0.059986 0.013325 -0.001916
# 5 -0.005054 0.002691 -0.002916 0.013325 0.037832 -0.004678
# 6 0.001791 0.001059 -0.000180 -0.001916 -0.004678 0.021526
#
#
# Mechanical properties :
#
#
# Convention : Reuss Voigt Hill
#
# Bulk Modulus (GPa) = 53.42768 64.69585 59.06177
# Shear Modulus (GPa) = 28.82672 36.42567 32.62620
#
# Velocity S-wave (km/s) = 3.48354 3.91586 3.70601
# Velocity P-wave (km/s) = 6.21863 6.90508 6.57083
#
# Compressibility (1/GPa) = 0.01871689
#
# Stress axis : x y z
#
# Youngs Moduli (GPa) = 95.41949 87.92341 87.42478
#
# Poissons Ratio (x) = 0.34871 0.16614
# Poissons Ratio (y) = 0.37844 0.12424
# Poissons Ratio (z) = 0.18133 0.12495
#
# Static dielectric constant tensor:
#      x y z
#    x 5.468120 -0.251550 -0.566340 
#    y -0.251550 4.315100 0.065250 
#    z -0.566340 0.065250 4.794690 
# 
# 
# High freq. dielectric constant tensor:
#      x y z
#    x 1.960830 0.003190 0.010500 
#    y 0.003190 1.937020 -0.009390 
#    z 0.010500 -0.009390 1.946540 
# 
# From -- ./inp_files/154274.got.cif
#   From: 2010.06.25/outbox.cif.g09.slc.cpg/sg2_78_cif.got.tgz:154274.got - 2010.06.27 13:26:56.
