data_PCOD8034187
_publ_section_title
;
Structure prediction by ZEFSAII (Michael W. Deem and Ramdas Pophale) SiO2 
 PCOD8034187
Probable space group: P -1
;
_chemical_formula_sum "Si O2"
_cell_formula_units_Z 14
_cell_length_a 10.985656
_cell_length_b 24.116709
_cell_length_c 8.739458
_cell_angle_alpha 149.068216
_cell_angle_beta 140.476686
_cell_angle_gamma 30.913934
_cell_volume 605.913835
_symmetry_space_group_name_H-M "P -1"
_symmetry_group_IT_number 2
_symmetry_cell_setting 'triclinic'
loop_
_space_group_symop_operation_xyz
x,y,z
-x,-y,-z
loop_
_atom_site_type_symbol
_atom_site_label
_atom_site_fract_x
_atom_site_fract_y
_atom_site_fract_z
Si Si1 0.044262 0.413481 0.692584
Si Si2 0.425106 0.463049 0.634736
Si Si3 0.760392 0.876918 0.721133
Si Si4 0.589084 0.634428 0.299863
Si Si5 0.692860 0.026031 0.617207
Si Si6 0.271342 0.940353 0.622877
Si Si7 0.855945 0.188441 0.287362
O O1 0.213960 0.256223 0.523499
O O2 0.169167 0.438646 0.737317
O O3 0.782390 0.462797 0.513458
O O4 0.000000 0.500000 0.000000
O O5 0.350798 0.402316 0.549958
O O6 0.674844 0.345358 0.519638
O O7 0.438738 0.580319 0.981683
O O8 0.562453 0.953330 0.568870
O O9 0.010295 0.837694 0.805418
O O10 0.687416 0.967476 0.015557
O O11 0.424730 0.794065 0.501432
O O12 0.656221 0.063793 0.490976
O O13 0.706400 0.127504 0.979629
O O14 0.943174 0.879343 0.542588
O O15 0.000000 0.000000 0.500000
#
# Coordination Sequence:
#
# PCOD8034187 Si02
#       7
#     2   2   2   2   2   2   2
#     4  12  26  45  72 103 138 179 227 281 339 409
#     4  11  26  47  71  97 137 185 227 281 339 403
#     4  12  25  44  71 106 136 183 223 282 346 402
#     4  11  26  48  67 101 135 183 232 276 340 402
#     4  11  24  44  67 102 139 178 228 279 344 404
#     4  12  23  44  71 101 140 179 228 281 338 408
#     4  11  25  45  69 102 139 178 227 283 342 405
#
# _framework density 23.105594
#
# number of rings (size 3 to 8) (size 9 to 14) (size 15 to 20)
#    0.000    0.571    2.857    4.714    2.000    2.286 
#    5.143    0.000    0.000    0.000    0.000    0.000 
#    0.000    0.000    0.000    0.000    0.000    0.000 
#
# Total GULP energy -173593.997493 kJ/mol
# GULP energy per Si atom -12399.571249 kJ/mol
# Density = 2.305300 g / cm^3
# Si number density = 23.105594 Si / 1000 Ang^3
#
#
#
# Elastic Constant Matrix: (Units=GPa)
#
#
# Indices 1 2 3 4 5 6 
#
# 1 55.1235 11.3454 11.8790 10.0873 -16.7738 -16.8295
# 2 11.3454 132.2725 53.9208 -7.6383 -12.8811 -11.2259
# 3 11.8790 53.9208 118.4735 4.7666 -16.2238 -6.7165
# 4 10.0873 -7.6383 4.7666 45.0563 -3.7298 4.8458
# 5 -16.7738 -12.8811 -16.2238 -3.7298 31.2280 -3.7824
# 6 -16.8295 -11.2259 -6.7165 4.8458 -3.7824 36.5459
#
#
#
# Elastic Compliance Matrix: (Units=1/GPa)
#
#
# Indices 1 2 3 4 5 6 
#
# 1 0.029621 -0.000142 0.000689 -0.007061 0.017360 0.016456
# 2 -0.000142 0.009762 -0.004069 0.002080 0.002345 0.002152
# 3 0.000689 -0.004069 0.011002 -0.001836 0.004405 0.001789
# 4 -0.007061 0.002080 -0.001836 0.024873 -0.001696 -0.006424
# 5 0.017360 0.002345 0.004405 -0.001696 0.046160 0.014527
# 6 0.016456 0.002152 0.001789 -0.006424 0.014527 0.038286
#
#
# Mechanical properties :
#
#
# Convention : Reuss Voigt Hill
#
# Bulk Modulus (GPa) = 23.07320 51.12886 37.10103
# Shear Modulus (GPa) = 27.59443 37.81433 32.70438
#
# Velocity S-wave (km/s) = 3.45958 4.04986 3.76630
# Velocity P-wave (km/s) = 5.09567 6.63664 5.91654
#
# Compressibility (1/GPa) = 0.04334033
#
# Stress axis : x y z
#
# Youngs Moduli (GPa) = 33.76011 102.43372 90.89112
#
# Poissons Ratio (x) = 0.01456 -0.06262
# Poissons Ratio (y) = 0.00480 0.36987
# Poissons Ratio (z) = -0.02326 0.41684
#
# Static dielectric constant tensor:
#      x y z
#    x 4.952220 -0.373510 0.124890 
#    y -0.373510 4.442590 -0.144960 
#    z 0.124890 -0.144960 4.074050 
# 
# 
# High freq. dielectric constant tensor:
#      x y z
#    x 1.931240 -0.004360 0.002510 
#    y -0.004360 1.928160 -0.008160 
#    z 0.002510 -0.008160 1.911700 
# 
# From -- ./inp_files/285242.got.cif
#   From: 2010.06.25/outbox.cif.g09.slc.cpg/sg2_143_cif.got.tgz:285242.got - 2010.06.27 13:26:56.
