data_PCOD8034939
_publ_section_title
;
Structure prediction by ZEFSAII (Michael W. Deem and Ramdas Pophale) SiO2 
 PCOD8034939
Probable space group: P -1
;
_chemical_formula_sum "Si O2"
_cell_formula_units_Z 16
_cell_length_a 16.303597
_cell_length_b 12.955173
_cell_length_c 7.776440
_cell_angle_alpha 39.602403
_cell_angle_beta 137.882058
_cell_angle_gamma 135.882172
_cell_volume 659.748534
_symmetry_space_group_name_H-M "P -1"
_symmetry_group_IT_number 2
_symmetry_cell_setting 'triclinic'
loop_
_space_group_symop_operation_xyz
x,y,z
-x,-y,-z
loop_
_atom_site_type_symbol
_atom_site_label
_atom_site_fract_x
_atom_site_fract_y
_atom_site_fract_z
Si Si1 0.528190 0.256873 0.723145
Si Si2 0.553508 0.020560 0.756171
Si Si3 0.805953 0.435270 0.878060
Si Si4 0.885146 0.114576 0.448415
Si Si5 0.267211 0.256816 0.216358
Si Si6 0.033559 0.361748 0.846970
Si Si7 0.839796 0.034704 0.116810
Si Si8 0.168165 0.284982 0.689071
O O1 0.530749 0.168604 0.651855
O O2 0.662915 0.416528 0.753239
O O3 0.406558 0.326222 0.436753
O O4 0.513348 0.147997 0.015119
O O5 0.500000 0.000000 0.500000
O O6 0.706502 0.062540 0.922138
O O7 0.819165 0.525164 0.598227
O O8 0.807557 0.243011 0.125497
O O9 0.933904 0.555292 0.021315
O O10 0.922768 0.055745 0.395818
O O11 0.021827 0.199305 0.654458
O O12 0.787908 0.952045 0.604424
O O13 0.167886 0.338824 0.035215
O O14 0.281138 0.310684 0.970034
O O15 0.000000 0.500000 0.500000
O O16 0.915806 0.178433 0.908399
O O17 0.809180 0.839264 0.261302
#
# Coordination Sequence:
#
# PCOD8034939 Si02
#       8
#     2   2   2   2   2   2   2   2
#     4  11  25  48  71 109 150 197 249 302 369 442
#     4  11  24  46  78 108 148 200 250 300 364 447
#     4  12  27  45  71 106 151 191 242 309 369 430
#     4  12  22  44  72 100 144 185 238 304 360 436
#     4  12  26  48  73 103 149 191 245 304 367 447
#     4  12  29  46  72 112 146 189 245 309 377 436
#     4  12  24  46  74 101 143 189 250 295 370 441
#     4  12  26  43  72 108 141 193 242 304 376 435
#
# _framework density 24.251664000000002
#
# number of rings (size 3 to 8) (size 9 to 14) (size 15 to 20)
#    0.000    0.250    5.000    4.125    5.250    1.000 
#    0.000    0.000    0.000    0.000    0.000    0.000 
#    0.000    0.000    0.000    0.000    0.000    0.000 
#
# Total GULP energy -198287.813728 kJ/mol
# GULP energy per Si atom -12392.988358 kJ/mol
# Density = 2.419647 g / cm^3
# Si number density = 24.251664 Si / 1000 Ang^3
#
#
#
# Elastic Constant Matrix: (Units=GPa)
#
#
# Indices 1 2 3 4 5 6 
#
# 1 80.0737 5.3823 22.6229 5.3856 1.1834 7.1760
# 2 5.3823 50.1077 18.8030 7.2955 -5.7349 15.9015
# 3 22.6229 18.8030 133.4853 -2.5174 -13.7407 -3.9679
# 4 5.3856 7.2955 -2.5174 33.8045 -3.4062 2.4277
# 5 1.1834 -5.7349 -13.7407 -3.4062 47.1187 6.6422
# 6 7.1760 15.9015 -3.9679 2.4277 6.6422 42.8995
#
#
#
# Elastic Compliance Matrix: (Units=1/GPa)
#
#
# Indices 1 2 3 4 5 6 
#
# 1 0.013573 0.000533 -0.002581 -0.002381 -0.000857 -0.002439
# 2 0.000533 0.025586 -0.003770 -0.004850 0.003078 -0.010124
# 3 -0.002581 -0.003770 0.008767 0.001918 0.001988 0.002224
# 4 -0.002381 -0.004850 0.001918 0.031361 0.002261 0.000249
# 5 -0.000857 0.003078 0.001988 0.002261 0.022997 -0.004502
# 6 -0.002439 -0.010124 0.002224 0.000249 -0.004502 0.028360
#
#
# Mechanical properties :
#
#
# Convention : Reuss Voigt Hill
#
# Bulk Modulus (GPa) = 27.55569 39.69812 33.62691
# Shear Modulus (GPa) = 32.38859 39.22177 35.80518
#
# Velocity S-wave (km/s) = 3.65844 4.02591 3.84656
# Velocity P-wave (km/s) = 5.40672 6.16566 5.79862
#
# Compressibility (1/GPa) = 0.03629014
#
# Stress axis : x y z
#
# Youngs Moduli (GPa) = 73.67403 39.08447 114.06602
#
# Poissons Ratio (x) = -0.02084 0.29442
# Poissons Ratio (y) = -0.03929 0.43003
# Poissons Ratio (z) = 0.19016 0.14735
#
# Static dielectric constant tensor:
#      x y z
#    x 4.492070 -0.208940 0.006980 
#    y -0.208940 4.628920 0.249300 
#    z 0.006980 0.249300 4.572800 
# 
# 
# High freq. dielectric constant tensor:
#      x y z
#    x 1.965270 0.004190 0.006130 
#    y 0.004190 1.954410 0.008660 
#    z 0.006130 0.008660 1.975570 
# 
# From -- ./inp_files/335588.got.cif
#   From: 2010.06.25/outbox.cif.g09.slc.cpg/sg2_168_cif.got.tgz:335588.got - 2010.06.27 13:26:56.
