data_PCOD8034291
_publ_section_title
;
Structure prediction by ZEFSAII (Michael W. Deem and Ramdas Pophale) SiO2 
 PCOD8034291
Probable space group: P -1
;
_chemical_formula_sum "Si O2"
_cell_formula_units_Z 16
_cell_length_a 11.668372
_cell_length_b 10.943312
_cell_length_c 6.346887
_cell_angle_alpha 107.307986
_cell_angle_beta 99.230507
_cell_angle_gamma 71.107169
_cell_volume 730.212195
_symmetry_space_group_name_H-M "P -1"
_symmetry_group_IT_number 2
_symmetry_cell_setting 'triclinic'
loop_
_space_group_symop_operation_xyz
x,y,z
-x,-y,-z
loop_
_atom_site_type_symbol
_atom_site_label
_atom_site_fract_x
_atom_site_fract_y
_atom_site_fract_z
Si Si1 0.040273 0.905731 0.260685
Si Si2 0.049523 0.468448 0.722999
Si Si3 0.519937 0.707316 0.567628
Si Si4 0.424374 0.501757 0.186216
Si Si5 0.174996 0.056474 0.094704
Si Si6 0.143849 0.611473 0.123109
Si Si7 0.733338 0.779216 0.442044
Si Si8 0.388857 0.991673 0.817686
O O1 0.136290 0.952190 0.175957
O O2 0.112839 0.759092 0.286990
O O3 0.000000 0.000000 0.500000
O O4 0.932537 0.883278 0.073532
O O5 0.155854 0.326622 0.698488
O O6 0.000000 0.500000 0.500000
O O7 0.927219 0.474441 0.815297
O O8 0.099394 0.593944 0.863350
O O9 0.448298 0.613990 0.398092
O O10 0.548500 0.646294 0.779618
O O11 0.640985 0.704190 0.471472
O O12 0.431669 0.857705 0.623952
O O13 0.284234 0.542248 0.120900
O O14 0.500000 0.500000 0.000000
O O15 0.210793 0.161710 0.312181
O O16 0.288012 0.978645 0.946042
O O17 0.662591 0.887856 0.302708
O O18 0.500000 0.000000 0.000000
#
# Coordination Sequence:
#
# PCOD8034291 Si02
#       8
#     2   2   2   2   2   2   2   2
#     4  11  25  45  68 104 141 182 230 294 356 427
#     4  11  24  44  71 100 135 179 234 288 350 418
#     4  11  27  46  68 104 140 185 243 283 361 420
#     4  11  27  46  71 101 144 189 233 294 348 430
#     4  11  25  43  69 102 139 181 234 289 358 422
#     4  11  25  42  70  98 135 179 231 280 353 409
#     4  12  25  46  73 101 143 183 243 301 350 426
#     4  12  27  43  73 104 140 188 239 300 359 419
#
# _framework density 21.911439999999999
#
# number of rings (size 3 to 8) (size 9 to 14) (size 15 to 20)
#    0.000    0.750    1.250    4.875    8.750    4.000 
#    0.000    0.000    0.000    0.000    0.000    0.000 
#    0.000    0.000    0.000    0.000    0.000    0.000 
#
# Total GULP energy -198296.086168 kJ/mol
# GULP energy per Si atom -12393.505385 kJ/mol
# Density = 2.186157 g / cm^3
# Si number density = 21.911440 Si / 1000 Ang^3
#
#
#
# Elastic Constant Matrix: (Units=GPa)
#
#
# Indices 1 2 3 4 5 6 
#
# 1 169.2803 43.0278 48.2092 -10.7121 -16.8189 -0.4870
# 2 43.0278 116.6828 45.7375 -3.4083 -1.5139 -8.4507
# 3 48.2092 45.7375 119.3609 -5.7799 4.6696 -4.4426
# 4 -10.7121 -3.4083 -5.7799 40.9614 -0.1493 -3.9073
# 5 -16.8189 -1.5139 4.6696 -0.1493 42.7690 4.1598
# 6 -0.4870 -8.4507 -4.4426 -3.9073 4.1598 29.1020
#
#
#
# Elastic Compliance Matrix: (Units=1/GPa)
#
#
# Indices 1 2 3 4 5 6 
#
# 1 0.007460 -0.001794 -0.002425 0.001372 0.003241 -0.001045
# 2 -0.001794 0.010704 -0.003260 0.000213 -0.000227 0.002642
# 3 -0.002425 -0.003260 0.010773 0.000710 -0.002349 0.001088
# 4 0.001372 0.000213 0.000710 0.025229 0.000212 0.003550
# 5 0.003241 -0.000227 -0.002349 0.000212 0.025290 -0.003957
# 6 -0.001045 0.002642 0.001088 0.003550 -0.003957 0.036320
#
#
# Mechanical properties :
#
#
# Convention : Reuss Voigt Hill
#
# Bulk Modulus (GPa) = 71.52973 75.47477 73.50225
# Shear Modulus (GPa) = 36.92959 40.45644 38.69302
#
# Velocity S-wave (km/s) = 4.10982 4.30159 4.20680
# Velocity P-wave (km/s) = 7.43213 7.69362 7.56401
#
# Compressibility (1/GPa) = 0.01398020
#
# Stress axis : x y z
#
# Youngs Moduli (GPa) = 134.05303 93.42246 92.82349
#
# Poissons Ratio (x) = 0.16760 0.22508
# Poissons Ratio (y) = 0.24049 0.30257
# Poissons Ratio (z) = 0.32506 0.30452
#
# Static dielectric constant tensor:
#      x y z
#    x 4.232810 0.165200 0.271130 
#    y 0.165200 4.721510 -0.216510 
#    z 0.271130 -0.216510 4.261780 
# 
# 
# High freq. dielectric constant tensor:
#      x y z
#    x 1.885850 0.001810 0.003070 
#    y 0.001810 1.856950 0.003780 
#    z 0.003070 0.003780 1.879330 
# 
# From -- ./inp_files/71920.got.cif
#   From: 2010.06.25/outbox.cif.g09.slc.cpg/sg2_36_cif.got.tgz:71920.got - 2010.06.27 13:26:56.
