data_PCOD8034803
_publ_section_title
;
Structure prediction by ZEFSAII (Michael W. Deem and Ramdas Pophale) SiO2 
 PCOD8034803
Probable space group: P -1
;
_chemical_formula_sum "Si O2"
_cell_formula_units_Z 12
_cell_length_a 8.017193
_cell_length_b 12.527088
_cell_length_c 7.538656
_cell_angle_alpha 68.236142
_cell_angle_beta 128.945867
_cell_angle_gamma 85.511051
_cell_volume 493.462803
_symmetry_space_group_name_H-M "P -1"
_symmetry_group_IT_number 2
_symmetry_cell_setting 'triclinic'
loop_
_space_group_symop_operation_xyz
x,y,z
-x,-y,-z
loop_
_atom_site_type_symbol
_atom_site_label
_atom_site_fract_x
_atom_site_fract_y
_atom_site_fract_z
Si Si1 0.388867 0.074591 0.202188
Si Si2 0.055136 0.681280 0.863290
Si Si3 0.804606 0.471200 0.288747
Si Si4 0.151476 0.724237 0.273306
Si Si5 0.471697 0.187994 0.655865
Si Si6 0.557572 0.258953 0.037811
O O1 0.537884 0.156405 0.218396
O O2 0.500000 0.000000 0.500000
O O3 0.431946 0.963899 0.154560
O O4 0.109950 0.162272 0.964942
O O5 0.123709 0.562185 0.849262
O O6 0.168320 0.774420 0.803871
O O7 0.774015 0.759734 0.649406
O O8 0.164546 0.637205 0.161477
O O9 0.785063 0.356207 0.453780
O O10 0.000000 0.500000 0.500000
O O11 0.555779 0.597391 0.047229
O O12 0.340137 0.782900 0.349741
O O13 0.415507 0.256982 0.765779
#
# Coordination Sequence:
#
# PCOD8034803 Si02
#       6
#     2   2   2   2   2   2
#     4  12  24  45  72 100 140 184 229 283 344 408
#     4  11  25  46  72 106 139 180 229 290 343 411
#     4  12  24  48  73 101 141 183 228 287 348 408
#     4  11  26  47  72 105 138 181 233 283 348 409
#     4  11  24  46  71 103 139 184 228 286 345 408
#     4  11  26  48  69 104 138 183 232 282 347 408
#
# _framework density 24.317943
#
# number of rings (size 3 to 8) (size 9 to 14) (size 15 to 20)
#    0.000    0.667    5.000    1.500    2.333    4.000 
#    9.000    0.000    0.000    0.000    0.000    0.000 
#    0.000    0.000    0.000    0.000    0.000    0.000 
#
# Total GULP energy -148815.174372 kJ/mol
# GULP energy per Si atom -12401.264531 kJ/mol
# Density = 2.426259 g / cm^3
# Si number density = 24.317943 Si / 1000 Ang^3
#
#
#
# Elastic Constant Matrix: (Units=GPa)
#
#
# Indices 1 2 3 4 5 6 
#
# 1 83.5668 19.3265 20.1681 -8.2764 20.1625 14.2050
# 2 19.3265 108.8681 25.6382 -15.5954 7.9417 -13.8519
# 3 20.1681 25.6382 81.2828 -6.3125 5.8735 5.4146
# 4 -8.2764 -15.5954 -6.3125 43.7072 7.3844 -3.1359
# 5 20.1625 7.9417 5.8735 7.3844 37.7279 7.6454
# 6 14.2050 -13.8519 5.4146 -3.1359 7.6454 51.1925
#
#
#
# Elastic Compliance Matrix: (Units=1/GPa)
#
#
# Indices 1 2 3 4 5 6 
#
# 1 0.015587 -0.001625 -0.002355 0.003083 -0.007577 -0.003195
# 2 -0.001625 0.011578 -0.003023 0.004198 -0.002849 0.004586
# 3 -0.002355 -0.003023 0.013980 0.000384 -0.000029 -0.001615
# 4 0.003083 0.004198 0.000384 0.026668 -0.008446 0.003135
# 5 -0.007577 -0.002849 -0.000029 -0.008446 0.033666 -0.004211
# 6 -0.003195 0.004586 -0.001615 0.003135 -0.004211 0.022653
#
#
# Mechanical properties :
#
#
# Convention : Reuss Voigt Hill
#
# Bulk Modulus (GPa) = 36.84512 44.88703 40.86608
# Shear Modulus (GPa) = 33.97093 40.43120 37.20106
#
# Velocity S-wave (km/s) = 3.74163 4.08193 3.91548
# Velocity P-wave (km/s) = 5.81814 6.38081 6.10596
#
# Compressibility (1/GPa) = 0.02714064
#
# Stress axis : x y z
#
# Youngs Moduli (GPa) = 64.15478 86.36844 71.53074
#
# Poissons Ratio (x) = 0.14032 0.16848
# Poissons Ratio (y) = 0.10423 0.21620
# Poissons Ratio (z) = 0.15111 0.26105
#
# Static dielectric constant tensor:
#      x y z
#    x 4.507470 -0.074440 0.029250 
#    y -0.074440 5.094300 0.015030 
#    z 0.029250 0.015030 4.230840 
# 
# 
# High freq. dielectric constant tensor:
#      x y z
#    x 1.979230 -0.000390 0.007330 
#    y -0.000390 1.987630 0.022560 
#    z 0.007330 0.022560 1.950220 
# 
# From -- ./inp_files/175603.got.cif
#   From: 2010.06.25/outbox.cif.g09.slc.cpg/sg2_88_cif.got.tgz:175603.got - 2010.06.27 13:26:56.
