data_PCOD8034912
_publ_section_title
;
Structure prediction by ZEFSAII (Michael W. Deem and Ramdas Pophale) SiO2 
 PCOD8034912
Probable space group: P -1
;
_chemical_formula_sum "Si O2"
_cell_formula_units_Z 12
_cell_length_a 11.132011
_cell_length_b 19.042509
_cell_length_c 6.051525
_cell_angle_alpha 77.770939
_cell_angle_beta 102.930743
_cell_angle_gamma 156.974894
_cell_volume 488.969655
_symmetry_space_group_name_H-M "P -1"
_symmetry_group_IT_number 2
_symmetry_cell_setting 'triclinic'
loop_
_space_group_symop_operation_xyz
x,y,z
-x,-y,-z
loop_
_atom_site_type_symbol
_atom_site_label
_atom_site_fract_x
_atom_site_fract_y
_atom_site_fract_z
Si Si1 0.155940 0.481365 0.126914
Si Si2 0.211550 0.647063 0.305415
Si Si3 0.331938 0.353992 0.688258
Si Si4 0.328943 0.871409 0.716449
Si Si5 0.913740 0.150790 0.029579
Si Si6 0.901324 0.029790 0.426981
O O1 0.292956 0.629802 0.167077
O O2 0.431128 0.572990 0.147919
O O3 0.909794 0.319802 0.319049
O O4 0.977153 0.391583 0.876507
O O5 0.000000 0.500000 0.500000
O O6 0.530794 0.843649 0.418148
O O7 0.500000 0.500000 0.500000
O O8 0.064997 0.163347 0.595077
O O9 0.165760 0.310041 0.846026
O O10 0.099022 0.803473 0.794774
O O11 0.500000 0.000000 0.500000
O O12 0.572968 0.966169 0.915335
O O13 0.001125 0.117348 0.174101
O O14 0.000000 0.000000 0.500000
#
# Coordination Sequence:
#
# PCOD8034912 Si02
#       6
#     2   2   2   2   2   2
#     4  11  25  47  71 106 145 190 250 302 368 437
#     4  11  27  46  74 105 143 196 248 304 363 443
#     4  12  28  48  75 113 151 194 247 309 371 440
#     4  11  24  46  75 106 142 193 246 309 367 442
#     4  11  26  45  76 106 147 192 250 299 376 438
#     4  12  26  49  72 109 146 198 244 308 371 437
#
# _framework density 24.541398999999998
#
# number of rings (size 3 to 8) (size 9 to 14) (size 15 to 20)
#    0.000    0.667    3.333    3.000    7.000    4.667 
#    0.000    0.000    0.000    0.000    0.000    0.000 
#    0.000    0.000    0.000    0.000    0.000    0.000 
#
# Total GULP energy -148752.743850 kJ/mol
# GULP energy per Si atom -12396.061988 kJ/mol
# Density = 2.448554 g / cm^3
# Si number density = 24.541399 Si / 1000 Ang^3
#
#
#
# Elastic Constant Matrix: (Units=GPa)
#
#
# Indices 1 2 3 4 5 6 
#
# 1 123.1123 43.9174 59.3845 1.1921 19.9241 16.3933
# 2 43.9174 168.7880 65.7110 3.6082 3.0629 1.9283
# 3 59.3845 65.7110 131.6323 -19.1720 16.8193 11.2067
# 4 1.1921 3.6082 -19.1720 55.6658 11.7014 0.9420
# 5 19.9241 3.0629 16.8193 11.7014 46.7009 3.3355
# 6 16.3933 1.9283 11.2067 0.9420 3.3355 41.4714
#
#
#
# Elastic Compliance Matrix: (Units=1/GPa)
#
#
# Indices 1 2 3 4 5 6 
#
# 1 0.011404 -0.001311 -0.003980 -0.000866 -0.002906 -0.003118
# 2 -0.001311 0.007821 -0.003995 -0.002290 0.001978 0.001127
# 3 -0.003980 -0.003995 0.012842 0.005627 -0.003967 -0.001520
# 4 -0.000866 -0.002290 0.005627 0.021521 -0.006827 -0.001011
# 5 -0.002906 0.001978 -0.003967 -0.006827 0.025646 0.000221
# 6 -0.003118 0.001127 -0.001520 -0.001011 0.000221 0.025709
#
#
# Mechanical properties :
#
#
# Convention : Reuss Voigt Hill
#
# Bulk Modulus (GPa) = 74.09622 84.61759 79.35691
# Shear Modulus (GPa) = 39.05794 45.73560 42.39677
#
# Velocity S-wave (km/s) = 3.99370 4.32164 4.16090
# Velocity P-wave (km/s) = 7.17803 7.71080 7.44918
#
# Compressibility (1/GPa) = 0.01349597
#
# Stress axis : x y z
#
# Youngs Moduli (GPa) = 87.68949 127.85681 77.86661
#
# Poissons Ratio (x) = 0.16762 0.30988
# Poissons Ratio (y) = 0.11496 0.31109
# Poissons Ratio (z) = 0.34897 0.51081
#
# Static dielectric constant tensor:
#      x y z
#    x 4.562710 -0.084730 0.234450 
#    y -0.084730 4.812430 0.161360 
#    z 0.234450 0.161360 4.515480 
# 
# 
# High freq. dielectric constant tensor:
#      x y z
#    x 1.973120 0.000530 0.023950 
#    y 0.000530 1.996380 0.005900 
#    z 0.023950 0.005900 1.974670 
# 
# From -- ./inp_files/39382.got.cif
#   From: 2010.06.25/outbox.cif.g09.slc.cpg/sg2_20_cif.got.tgz:39382.got - 2010.06.27 13:26:56.
