data_PCOD8034761
_publ_section_title
;
Structure prediction by ZEFSAII (Michael W. Deem and Ramdas Pophale) SiO2 
 PCOD8034761
Probable space group: P -1
;
_chemical_formula_sum "Si O2"
_cell_formula_units_Z 14
_cell_length_a 5.293687
_cell_length_b 27.179976
_cell_length_c 9.249215
_cell_angle_alpha 30.555328
_cell_angle_beta 59.173852
_cell_angle_gamma 61.322707
_cell_volume 578.685644
_symmetry_space_group_name_H-M "P -1"
_symmetry_group_IT_number 2
_symmetry_cell_setting 'triclinic'
loop_
_space_group_symop_operation_xyz
x,y,z
-x,-y,-z
loop_
_atom_site_type_symbol
_atom_site_label
_atom_site_fract_x
_atom_site_fract_y
_atom_site_fract_z
Si Si1 0.665965 0.295213 0.476110
Si Si2 0.225339 0.893282 0.940097
Si Si3 0.041247 0.399268 0.325299
Si Si4 0.859859 0.255312 0.234170
Si Si5 0.394575 0.111657 0.742658
Si Si6 0.802413 0.440621 0.602530
Si Si7 0.644185 0.892745 0.566672
O O1 0.380881 0.355080 0.337416
O O2 0.924239 0.297452 0.269912
O O3 0.805688 0.334850 0.481795
O O4 0.577855 0.187152 0.821047
O O5 0.333116 0.889648 0.749923
O O6 0.249418 0.000230 0.725142
O O7 0.888922 0.868282 0.121323
O O8 0.978155 0.413616 0.475415
O O9 0.000000 0.500000 0.000000
O O10 0.628202 0.182702 0.546766
O O11 0.117357 0.192303 0.228665
O O12 0.728661 0.340705 0.952565
O O13 0.359175 0.138912 0.516797
O O14 0.500000 0.000000 0.000000
O O15 0.500000 0.500000 0.500000
O O16 0.000000 0.500000 0.500000
#
# Coordination Sequence:
#
# PCOD8034761 Si02
#       7
#     2   2   2   2   2   2   2
#     4  12  25  44  75 106 149 198 251 315 385 458
#     4  11  24  46  69 108 151 201 261 318 390 461
#     4  12  26  48  74 108 149 195 254 317 393 461
#     4  12  26  46  75 107 152 206 259 319 398 460
#     4  12  24  44  71 105 152 202 256 320 387 461
#     4  12  28  49  78 113 154 200 260 327 394 467
#     4  11  25  45  70 105 151 201 263 318 386 465
#
# _framework density 24.192754999999998
#
# number of rings (size 3 to 8) (size 9 to 14) (size 15 to 20)
#    0.000    0.286    2.857    6.000    4.000    0.571 
#    2.571    0.000    0.000    0.000    0.000    0.000 
#    0.000    0.000    0.000    0.000    0.000    0.000 
#
# Total GULP energy -173491.341773 kJ/mol
# GULP energy per Si atom -12392.238698 kJ/mol
# Density = 2.413769 g / cm^3
# Si number density = 24.192755 Si / 1000 Ang^3
#
#
#
# Elastic Constant Matrix: (Units=GPa)
#
#
# Indices 1 2 3 4 5 6 
#
# 1 119.1723 48.8898 36.5894 -7.2984 8.7367 -1.9945
# 2 48.8898 149.4122 57.6992 12.8003 5.5749 -7.7255
# 3 36.5894 57.6992 153.6649 -10.9843 19.2886 -6.1764
# 4 -7.2984 12.8003 -10.9843 53.9145 -15.3768 4.9744
# 5 8.7367 5.5749 19.2886 -15.3768 32.1029 0.6797
# 6 -1.9945 -7.7255 -6.1764 4.9744 0.6797 37.7624
#
#
#
# Elastic Compliance Matrix: (Units=1/GPa)
#
#
# Indices 1 2 3 4 5 6 
#
# 1 0.010119 -0.003039 -0.001070 0.001701 -0.000758 -0.000473
# 2 -0.003039 0.009200 -0.002812 -0.003565 -0.000826 0.001746
# 3 -0.001070 -0.002812 0.008394 0.001102 -0.003750 0.000664
# 4 0.001701 -0.003565 0.001102 0.023245 0.010707 -0.003714
# 5 -0.000758 -0.000826 -0.003750 0.010707 0.038944 -0.002934
# 6 -0.000473 0.001746 0.000664 -0.003714 -0.002934 0.027464
#
#
# Mechanical properties :
#
#
# Convention : Reuss Voigt Hill
#
# Bulk Modulus (GPa) = 72.09865 78.73399 75.41632
# Shear Modulus (GPa) = 36.81009 43.36068 40.08539
#
# Velocity S-wave (km/s) = 3.90492 4.23815 4.07494
# Velocity P-wave (km/s) = 7.08503 7.52093 7.30623
#
# Compressibility (1/GPa) = 0.01386989
#
# Stress axis : x y z
#
# Youngs Moduli (GPa) = 98.82803 108.69833 119.12581
#
# Poissons Ratio (x) = 0.33039 0.12750
# Poissons Ratio (y) = 0.30038 0.33494
# Poissons Ratio (z) = 0.10578 0.30562
#
# Static dielectric constant tensor:
#      x y z
#    x 4.249350 0.269570 -0.036040 
#    y 0.269570 4.669130 0.179030 
#    z -0.036040 0.179030 4.199740 
# 
# 
# High freq. dielectric constant tensor:
#      x y z
#    x 1.941620 -0.000230 0.014320 
#    y -0.000230 1.989770 -0.005410 
#    z 0.014320 -0.005410 1.979910 
# 
# From -- ./inp_files/107596.got.cif
#   From: 2010.06.25/outbox.cif.g09.slc.cpg/sg2_54_cif.got.tgz:107596.got - 2010.06.27 13:26:56.
