data_PCOD8034537
_publ_section_title
;
Structure prediction by ZEFSAII (Michael W. Deem and Ramdas Pophale) SiO2 
 PCOD8034537
Probable space group: P -1
;
_chemical_formula_sum "Si O2"
_cell_formula_units_Z 16
_cell_length_a 8.260980
_cell_length_b 9.560203
_cell_length_c 11.540058
_cell_angle_alpha 121.206377
_cell_angle_beta 120.796858
_cell_angle_gamma 75.501311
_cell_volume 669.462154
_symmetry_space_group_name_H-M "P -1"
_symmetry_group_IT_number 2
_symmetry_cell_setting 'triclinic'
loop_
_space_group_symop_operation_xyz
x,y,z
-x,-y,-z
loop_
_atom_site_type_symbol
_atom_site_label
_atom_site_fract_x
_atom_site_fract_y
_atom_site_fract_z
Si Si1 0.727201 0.315601 0.137774
Si Si2 0.745748 0.372482 0.599986
Si Si3 0.381549 0.470638 0.605119
Si Si4 0.105930 0.475855 0.905713
Si Si5 0.030928 0.974425 0.865420
Si Si6 0.679375 0.894144 0.554049
Si Si7 0.782112 0.005910 0.419445
Si Si8 0.674574 0.831496 0.085189
O O1 0.686214 0.475608 0.269515
O O2 0.783360 0.368524 0.048047
O O3 0.896663 0.210065 0.207378
O O4 0.546855 0.191232 0.031356
O O5 0.609540 0.482055 0.678797
O O6 0.722895 0.416330 0.475910
O O7 0.703609 0.178187 0.512606
O O8 0.957805 0.412997 0.729895
O O9 0.344434 0.282687 0.473678
O O10 0.263337 0.342618 0.920455
O O11 0.000000 0.500000 0.000000
O O12 0.835723 0.996419 0.731664
O O13 0.189564 0.110655 0.945271
O O14 0.000000 0.000000 0.000000
O O15 0.500000 0.000000 0.500000
O O16 0.745057 0.858781 0.432527
O O17 0.690509 0.972686 0.247920
O O18 0.000000 0.000000 0.500000
#
# Coordination Sequence:
#
# PCOD8034537 Si02
#       8
#     2   2   2   2   2   2   2   2
#     4  12  28  47  72 109 149 197 241 304 372 445
#     4  11  24  45  70 105 145 192 237 309 361 436
#     4  11  26  45  73 105 147 188 250 297 373 435
#     4  12  25  45  72 103 149 189 244 299 367 436
#     4  12  28  49  74 109 152 195 244 307 374 437
#     4  12  26  47  77 108 141 194 248 303 365 442
#     4  12  23  45  75 105 143 187 250 303 364 429
#     4  12  26  46  73 107 146 195 245 300 365 441
#
# _framework density 23.899784
#
# number of rings (size 3 to 8) (size 9 to 14) (size 15 to 20)
#    0.000    0.250    3.750    4.500    1.750    4.000 
#    0.000    0.000    0.000    0.000    0.000    0.000 
#    0.000    0.000    0.000    0.000    0.000    0.000 
#
# Total GULP energy -198235.249864 kJ/mol
# GULP energy per Si atom -12389.703116 kJ/mol
# Density = 2.384539 g / cm^3
# Si number density = 23.899784 Si / 1000 Ang^3
#
#
#
# Elastic Constant Matrix: (Units=GPa)
#
#
# Indices 1 2 3 4 5 6 
#
# 1 115.8384 36.7075 55.2244 -12.7191 -6.9969 11.6070
# 2 36.7075 119.8886 24.9865 -6.3675 5.7833 1.4559
# 3 55.2244 24.9865 105.8760 -7.1641 2.2258 -3.4342
# 4 -12.7191 -6.3675 -7.1641 35.8383 1.4934 -0.1653
# 5 -6.9969 5.7833 2.2258 1.4934 39.7557 -2.5540
# 6 11.6070 1.4559 -3.4342 -0.1653 -2.5540 56.8405
#
#
#
# Elastic Compliance Matrix: (Units=1/GPa)
#
#
# Indices 1 2 3 4 5 6 
#
# 1 0.013220 -0.002700 -0.006218 0.002840 0.002776 -0.002873
# 2 -0.002700 0.009440 -0.000731 0.000650 -0.001820 0.000185
# 3 -0.006218 -0.000731 0.012982 0.000334 -0.001599 0.002002
# 4 0.002840 0.000650 0.000334 0.029122 -0.000741 -0.000525
# 5 0.002776 -0.001820 -0.001599 -0.000741 0.026060 0.000552
# 6 -0.002873 0.000185 0.002002 -0.000525 0.000552 0.018319
#
#
# Mechanical properties :
#
#
# Convention : Reuss Voigt Hill
#
# Bulk Modulus (GPa) = 61.18431 63.93775 62.56103
# Shear Modulus (GPa) = 37.34445 41.46589 39.40517
#
# Velocity S-wave (km/s) = 3.95719 4.16984 4.06491
# Velocity P-wave (km/s) = 6.82166 7.07064 6.94727
#
# Compressibility (1/GPa) = 0.01634406
#
# Stress axis : x y z
#
# Youngs Moduli (GPa) = 75.64359 105.92966 77.03071
#
# Poissons Ratio (x) = 0.28601 0.47895
# Poissons Ratio (y) = 0.20424 0.05634
# Poissons Ratio (z) = 0.47032 0.07747
#
# Static dielectric constant tensor:
#      x y z
#    x 4.593770 0.074490 0.114380 
#    y 0.074490 4.216440 -0.253130 
#    z 0.114380 -0.253130 3.980940 
# 
# 
# High freq. dielectric constant tensor:
#      x y z
#    x 1.971760 0.001380 0.002570 
#    y 0.001380 1.963930 -0.008610 
#    z 0.002570 -0.008610 1.926860 
# 
# From -- ./inp_files/383380.got.cif
#   From: 2010.06.25/outbox.cif.g09.slc.cpg/sg2_192_cif.got.tgz:383380.got - 2010.06.27 13:26:56.
