data_PCOD8034621
_publ_section_title
;
Structure prediction by ZEFSAII (Michael W. Deem and Ramdas Pophale) SiO2 
 PCOD8034621
Probable space group: P -1
;
_chemical_formula_sum "Si O2"
_cell_formula_units_Z 14
_cell_length_a 8.710411
_cell_length_b 6.868701
_cell_length_c 23.115940
_cell_angle_alpha 135.926966
_cell_angle_beta 37.830945
_cell_angle_gamma 123.899332
_cell_volume 589.865222
_symmetry_space_group_name_H-M "P -1"
_symmetry_group_IT_number 2
_symmetry_cell_setting 'triclinic'
loop_
_space_group_symop_operation_xyz
x,y,z
-x,-y,-z
loop_
_atom_site_type_symbol
_atom_site_label
_atom_site_fract_x
_atom_site_fract_y
_atom_site_fract_z
Si Si1 0.185113 0.788554 0.768341
Si Si2 0.899056 0.077758 0.300128
Si Si3 0.646969 0.853437 0.978065
Si Si4 0.684386 0.062605 0.675009
Si Si5 0.061094 0.603355 0.423475
Si Si6 0.492015 0.245748 0.601407
Si Si7 0.334272 0.789139 0.159202
O O1 0.308002 0.497229 0.690054
O O2 0.072516 0.743460 0.728275
O O3 0.946394 0.895139 0.899526
O O4 0.384111 0.034816 0.758294
O O5 0.948113 0.295504 0.384675
O O6 0.095880 0.819886 0.194067
O O7 0.630067 0.928333 0.346856
O O8 0.584896 0.527685 0.919856
O O9 0.550065 0.947342 0.091395
O O10 0.500000 0.000000 0.000000
O O11 0.778876 0.330155 0.668136
O O12 0.746398 0.069754 0.726143
O O13 0.818810 0.799994 0.547266
O O14 0.243808 0.628035 0.430346
O O15 0.500000 0.000000 0.500000
#
# Coordination Sequence:
#
# PCOD8034621 Si02
#       7
#     2   2   2   2   2   2   2
#     4  12  25  45  72 103 143 184 241 294 350 424
#     4  12  24  44  73 103 143 189 233 292 352 425
#     4  11  24  45  74 102 134 187 238 297 358 413
#     4  11  25  45  69 105 143 190 235 293 353 425
#     4  11  26  45  70 104 152 188 235 287 355 427
#     4  12  26  43  70 105 142 190 237 287 354 422
#     4  11  24  45  73 101 138 183 238 295 360 416
#
# _framework density 23.734235999999999
#
# number of rings (size 3 to 8) (size 9 to 14) (size 15 to 20)
#    0.000    0.571    4.286    3.429    4.000    3.429 
#    0.000    0.714    0.000    0.000    0.000    0.000 
#    0.000    0.000    0.000    0.000    0.000    0.000 
#
# Total GULP energy -173463.212069 kJ/mol
# GULP energy per Si atom -12390.229434 kJ/mol
# Density = 2.368022 g / cm^3
# Si number density = 23.734236 Si / 1000 Ang^3
#
#
#
# Elastic Constant Matrix: (Units=GPa)
#
#
# Indices 1 2 3 4 5 6 
#
# 1 83.8484 18.7676 3.8699 -1.6421 -10.9947 -6.1376
# 2 18.7676 77.1967 8.4145 -1.7371 -3.0124 -3.2585
# 3 3.8699 8.4145 59.7478 -17.3701 -11.0837 -7.3628
# 4 -1.6421 -1.7371 -17.3701 46.5672 -6.4316 -4.6153
# 5 -10.9947 -3.0124 -11.0837 -6.4316 42.6349 -6.8150
# 6 -6.1376 -3.2585 -7.3628 -4.6153 -6.8150 47.5400
#
#
#
# Elastic Compliance Matrix: (Units=1/GPa)
#
#
# Indices 1 2 3 4 5 6 
#
# 1 0.013309 -0.003056 0.001088 0.001571 0.004123 0.002421
# 2 -0.003056 0.013891 -0.001886 -0.000318 -0.000314 0.000190
# 3 0.001088 -0.001886 0.022018 0.009872 0.008249 0.005562
# 4 0.001571 -0.000318 0.009872 0.026826 0.007865 0.005442
# 5 0.004123 -0.000314 0.008249 0.007865 0.028897 0.006694
# 6 0.002421 0.000190 0.005562 0.005442 0.006694 0.023710
#
#
# Mechanical properties :
#
#
# Convention : Reuss Voigt Hill
#
# Bulk Modulus (GPa) = 24.09016 31.43298 27.76157
# Shear Modulus (GPa) = 33.29040 39.99782 36.64411
#
# Velocity S-wave (km/s) = 3.74924 4.10962 3.93356
# Velocity P-wave (km/s) = 5.37721 5.98257 5.68795
#
# Compressibility (1/GPa) = 0.04151073
#
# Stress axis : x y z
#
# Youngs Moduli (GPa) = 75.13945 71.98941 45.41785
#
# Poissons Ratio (x) = 0.21998 -0.04942
# Poissons Ratio (y) = 0.22960 0.08564
# Poissons Ratio (z) = -0.08176 0.13575
#
# Static dielectric constant tensor:
#      x y z
#    x 4.119210 -0.162040 -0.048550 
#    y -0.162040 4.710060 -0.502530 
#    z -0.048550 -0.502530 4.426030 
# 
# 
# High freq. dielectric constant tensor:
#      x y z
#    x 1.933020 -0.019550 -0.011370 
#    y -0.019550 1.956830 -0.024140 
#    z -0.011370 -0.024140 1.938200 
# 
# From -- ./inp_files/34455.got.cif
#   From: 2010.06.25/outbox.cif.g09.slc.cpg/sg2_18_cif.got.tgz:34455.got - 2010.06.27 13:26:56.
