data_PCOD8034837
_publ_section_title
;
Structure prediction by ZEFSAII (Michael W. Deem and Ramdas Pophale) SiO2 
 PCOD8034837
Probable space group: P -1
;
_chemical_formula_sum "Si O2"
_cell_formula_units_Z 14
_cell_length_a 8.078315
_cell_length_b 12.389406
_cell_length_c 8.256738
_cell_angle_alpha 63.575341
_cell_angle_beta 127.015538
_cell_angle_gamma 106.338413
_cell_volume 590.797781
_symmetry_space_group_name_H-M "P -1"
_symmetry_group_IT_number 2
_symmetry_cell_setting 'triclinic'
loop_
_space_group_symop_operation_xyz
x,y,z
-x,-y,-z
loop_
_atom_site_type_symbol
_atom_site_label
_atom_site_fract_x
_atom_site_fract_y
_atom_site_fract_z
Si Si1 0.701526 0.159557 0.560561
Si Si2 0.314856 0.522046 0.999265
Si Si3 0.989124 0.371042 0.492272
Si Si4 0.353039 0.906070 0.065978
Si Si5 0.545162 0.667513 0.297885
Si Si6 0.672477 0.714036 0.690547
Si Si7 0.078572 0.049082 0.346370
O O1 0.884594 0.262131 0.608533
O O2 0.615051 0.107287 0.714841
O O3 0.499193 0.228073 0.327535
O O4 0.756787 0.044774 0.562285
O O5 0.412965 0.564508 0.198928
O O6 0.212335 0.390738 0.071352
O O7 0.500000 0.500000 0.000000
O O8 0.140089 0.608799 0.764536
O O9 0.000000 0.500000 0.500000
O O10 0.217930 0.325623 0.625875
O O11 0.417176 0.784701 0.094521
O O12 0.113967 0.940885 0.892935
O O13 0.500000 0.000000 0.000000
O O14 0.550431 0.654222 0.504541
O O15 0.832001 0.817337 0.658615
O O16 0.000000 0.000000 0.500000
#
# Coordination Sequence:
#
# PCOD8034837 Si02
#       7
#     2   2   2   2   2   2   2
#     4  11  24  46  72 103 148 187 238 300 362 428
#     4  12  25  45  72 107 143 191 240 295 366 426
#     4  12  25  45  75 107 145 188 242 298 363 430
#     4  11  26  47  70 103 145 193 241 298 363 427
#     4  11  26  47  70 103 150 185 244 301 357 431
#     4  11  25  46  70 106 145 190 240 301 358 429
#     4  12  26  45  74 108 141 188 246 296 365 433
#
# _framework density 23.696774000000001
#
# number of rings (size 3 to 8) (size 9 to 14) (size 15 to 20)
#    0.000    0.571    2.857    4.714    6.000    2.857 
#    0.000    0.000    0.000    0.000    0.000    0.000 
#    0.000    0.000    0.000    0.000    0.000    0.000 
#
# Total GULP energy -173503.449807 kJ/mol
# GULP energy per Si atom -12393.103558 kJ/mol
# Density = 2.364284 g / cm^3
# Si number density = 23.696774 Si / 1000 Ang^3
#
#
#
# Elastic Constant Matrix: (Units=GPa)
#
#
# Indices 1 2 3 4 5 6 
#
# 1 113.2371 44.2577 30.0658 -16.8483 -3.3726 -2.6254
# 2 44.2577 126.8513 39.5408 -12.5590 -26.2392 8.2740
# 3 30.0658 39.5408 85.7423 -8.2734 0.6759 5.5510
# 4 -16.8483 -12.5590 -8.2734 40.3646 8.6705 -3.6287
# 5 -3.3726 -26.2392 0.6759 8.6705 39.1278 -7.0011
# 6 -2.6254 8.2740 5.5510 -3.6287 -7.0011 43.9982
#
#
#
# Elastic Compliance Matrix: (Units=1/GPa)
#
#
# Indices 1 2 3 4 5 6 
#
# 1 0.011251 -0.003370 -0.002119 0.003743 -0.001798 0.001595
# 2 -0.003370 0.012075 -0.004433 -0.000302 0.007827 -0.000692
# 3 -0.002119 -0.004433 0.014732 0.001472 -0.004035 -0.001672
# 4 0.003743 -0.000302 0.001472 0.027929 -0.005831 0.001470
# 5 -0.001798 0.007827 -0.004035 -0.005831 0.032665 0.003647
# 6 0.001595 -0.000692 -0.001672 0.001470 0.003647 0.023866
#
#
# Mechanical properties :
#
#
# Convention : Reuss Voigt Hill
#
# Bulk Modulus (GPa) = 54.90133 61.50658 58.20395
# Shear Modulus (GPa) = 33.68489 38.82921 36.25705
#
# Velocity S-wave (km/s) = 3.77436 4.05234 3.91582
# Velocity P-wave (km/s) = 6.49715 6.92151 6.71268
#
# Compressibility (1/GPa) = 0.01821450
#
# Stress axis : x y z
#
# Youngs Moduli (GPa) = 88.87907 82.81513 67.87859
#
# Poissons Ratio (x) = 0.27912 0.14383
# Poissons Ratio (y) = 0.29955 0.30089
# Poissons Ratio (z) = 0.18833 0.36710
#
# Static dielectric constant tensor:
#      x y z
#    x 4.640420 -0.351460 0.430680 
#    y -0.351460 4.664940 -0.413770 
#    z 0.430680 -0.413770 4.664110 
# 
# 
# High freq. dielectric constant tensor:
#      x y z
#    x 1.946270 -0.001860 0.007700 
#    y -0.001860 1.946920 -0.021990 
#    z 0.007700 -0.021990 1.939760 
# 
# From -- ./inp_files/185516.got.cif
#   From: 2010.06.25/outbox.cif.g09.slc.cpg/sg2_93_cif.got.tgz:185516.got - 2010.06.27 13:26:56.
