data_PCOD8034190
_publ_section_title
;
Structure prediction by ZEFSAII (Michael W. Deem and Ramdas Pophale) SiO2 
 PCOD8034190
Probable space group: P -1
;
_chemical_formula_sum "Si O2"
_cell_formula_units_Z 14
_cell_length_a 23.254248
_cell_length_b 12.397258
_cell_length_c 10.222706
_cell_angle_alpha 49.080415
_cell_angle_beta 32.751696
_cell_angle_gamma 26.297618
_cell_volume 643.314433
_symmetry_space_group_name_H-M "P -1"
_symmetry_group_IT_number 2
_symmetry_cell_setting 'triclinic'
loop_
_space_group_symop_operation_xyz
x,y,z
-x,-y,-z
loop_
_atom_site_type_symbol
_atom_site_label
_atom_site_fract_x
_atom_site_fract_y
_atom_site_fract_z
Si Si1 0.447634 0.398645 0.649943
Si Si2 0.602557 0.677909 0.457550
Si Si3 0.959756 0.142817 0.338310
Si Si4 0.839293 0.798938 0.023777
Si Si5 0.035263 0.865346 0.165199
Si Si6 0.173270 0.320041 0.116683
Si Si7 0.798532 0.865087 0.541334
O O1 0.500000 0.500000 0.500000
O O2 0.414657 0.426415 0.535235
O O3 0.623913 0.095503 0.593569
O O4 0.261174 0.553809 0.968091
O O5 0.734432 0.461663 0.496917
O O6 0.388261 0.977520 0.677393
O O7 0.712802 0.684187 0.172498
O O8 0.000000 0.000000 0.500000
O O9 0.015713 0.984541 0.234073
O O10 0.108985 0.106300 0.091772
O O11 0.848095 0.788069 0.857486
O O12 0.000000 0.500000 0.000000
O O13 0.885201 0.903758 0.421420
O O14 0.000000 0.000000 0.000000
O O15 0.282749 0.145695 0.178909
O O16 0.955442 0.615366 0.342984
#
# Coordination Sequence:
#
# PCOD8034190 Si02
#       7
#     2   2   2   2   2   2   2
#     4  12  23  38  70  98 129 179 226 277 346 398
#     4  12  25  45  70 100 137 185 233 282 344 424
#     4  12  27  46  71 106 140 182 232 292 349 410
#     4  12  26  45  73  98 138 188 230 276 352 419
#     4  12  22  44  70  98 138 177 231 281 342 411
#     4  11  24  46  67  99 142 179 227 287 339 415
#     4  11  24  44  67 103 139 174 231 289 339 406
#
# _framework density 21.762297
#
# number of rings (size 3 to 8) (size 9 to 14) (size 15 to 20)
#    0.000    0.286    5.714    3.000    0.000    2.286 
#    2.571    0.000    0.000    0.000    0.000    0.000 
#    0.000    0.000    0.000    0.000    0.000    0.000 
#
# Total GULP energy -173569.944167 kJ/mol
# GULP energy per Si atom -12397.853155 kJ/mol
# Density = 2.171276 g / cm^3
# Si number density = 21.762297 Si / 1000 Ang^3
#
#
#
# Elastic Constant Matrix: (Units=GPa)
#
#
# Indices 1 2 3 4 5 6 
#
# 1 132.1098 29.5862 41.7777 1.1300 18.2346 1.8765
# 2 29.5862 99.9424 50.1844 -5.7407 14.3723 -29.8273
# 3 41.7777 50.1844 102.4913 4.4744 17.1495 -16.7496
# 4 1.1300 -5.7407 4.4744 35.2431 4.4084 1.0095
# 5 18.2346 14.3723 17.1495 4.4084 35.8972 4.1059
# 6 1.8765 -29.8273 -16.7496 1.0095 4.1059 43.1084
#
#
#
# Elastic Compliance Matrix: (Units=1/GPa)
#
#
# Indices 1 2 3 4 5 6 
#
# 1 0.009236 -0.001619 -0.002988 0.000185 -0.002356 -0.002463
# 2 -0.001619 0.017237 -0.005405 0.003895 -0.005152 0.010296
# 3 -0.002988 -0.005405 0.014683 -0.002303 -0.003332 0.002466
# 4 0.000185 0.003895 -0.002303 0.029801 -0.004386 0.001513
# 5 -0.002356 -0.005152 -0.003332 -0.004386 0.034152 -0.007907
# 6 -0.002463 0.010296 0.002466 0.001513 -0.007907 0.032105
#
#
# Mechanical properties :
#
#
# Convention : Reuss Voigt Hill
#
# Bulk Modulus (GPa) = 47.32601 64.18224 55.75413
# Shear Modulus (GPa) = 30.43564 37.04941 33.74253
#
# Velocity S-wave (km/s) = 3.74378 4.13056 3.94192
# Velocity P-wave (km/s) = 6.36253 7.23223 6.81128
#
# Compressibility (1/GPa) = 0.02113003
#
# Stress axis : x y z
#
# Youngs Moduli (GPa) = 108.27520 58.01535 68.10766
#
# Poissons Ratio (x) = 0.09395 0.20351
# Poissons Ratio (y) = 0.17533 0.36813
# Poissons Ratio (z) = 0.32354 0.31358
#
# Static dielectric constant tensor:
#      x y z
#    x 4.522850 -0.176630 -0.676240 
#    y -0.176630 4.298250 0.275560 
#    z -0.676240 0.275560 10.038090 
# 
# 
# High freq. dielectric constant tensor:
#      x y z
#    x 1.878130 0.003130 0.001540 
#    y 0.003130 1.863140 0.009310 
#    z 0.001540 0.009310 1.846450 
# 
# From -- ./inp_files/283342.got.cif
#   From: 2010.06.25/outbox.cif.g09.slc.cpg/sg2_142_cif.got.tgz:283342.got - 2010.06.27 13:26:56.
