data_PCOD8034755
_publ_section_title
;
Structure prediction by ZEFSAII (Michael W. Deem and Ramdas Pophale) SiO2 
 PCOD8034755
Probable space group: P -1
;
_chemical_formula_sum "Si O2"
_cell_formula_units_Z 16
_cell_length_a 12.246972
_cell_length_b 8.824059
_cell_length_c 10.993450
_cell_angle_alpha 120.481710
_cell_angle_beta 90.862264
_cell_angle_gamma 52.024696
_cell_volume 725.805027
_symmetry_space_group_name_H-M "P -1"
_symmetry_group_IT_number 2
_symmetry_cell_setting 'triclinic'
loop_
_space_group_symop_operation_xyz
x,y,z
-x,-y,-z
loop_
_atom_site_type_symbol
_atom_site_label
_atom_site_fract_x
_atom_site_fract_y
_atom_site_fract_z
Si Si1 0.174624 0.201491 0.210332
Si Si2 0.133737 0.292337 0.652015
Si Si3 0.383045 0.089863 0.378774
Si Si4 0.713202 0.623368 0.141910
Si Si5 0.381056 0.028208 0.931645
Si Si6 0.925289 0.070832 0.892660
Si Si7 0.100841 0.944545 0.594494
Si Si8 0.420200 0.416643 0.418135
O O1 0.311293 0.128012 0.262207
O O2 0.029790 0.499642 0.333485
O O3 0.121323 0.072797 0.202783
O O4 0.241774 0.103476 0.036553
O O5 0.272660 0.136184 0.496080
O O6 0.154948 0.433446 0.798803
O O7 0.143707 0.100304 0.647078
O O8 0.409112 0.271985 0.459646
O O9 0.548231 0.807077 0.282593
O O10 0.699432 0.746882 0.069209
O O11 0.769932 0.362806 0.008437
O O12 0.472156 0.766396 0.764633
O O13 0.500000 0.000000 0.000000
O O14 0.032021 0.006441 0.754721
O O15 0.000000 0.000000 0.000000
O O16 0.249852 0.653467 0.466500
O O17 0.000000 0.000000 0.500000
O O18 0.500000 0.500000 0.500000
#
# Coordination Sequence:
#
# PCOD8034755 Si02
#       8
#     2   2   2   2   2   2   2   2
#     4  12  24  44  74  98 142 193 234 295 357 429
#     4  12  25  43  72 102 142 188 238 295 357 424
#     4  11  24  46  69 103 141 188 239 288 363 429
#     4  11  25  44  72 101 142 184 240 294 353 435
#     4  11  24  47  73 105 141 187 234 294 365 426
#     4  12  28  46  70 108 146 186 241 301 362 421
#     4  12  27  45  70 104 141 184 242 300 354 428
#     4  11  25  43  73 104 145 184 234 298 360 429
#
# _framework density 22.044487
#
# number of rings (size 3 to 8) (size 9 to 14) (size 15 to 20)
#    0.000    0.500    3.750    5.250    5.250    2.500 
#    0.000    0.000    0.000    0.000    0.000    0.000 
#    0.000    0.000    0.000    0.000    0.000    0.000 
#
# Total GULP energy -198418.019747 kJ/mol
# GULP energy per Si atom -12401.126234 kJ/mol
# Density = 2.199431 g / cm^3
# Si number density = 22.044487 Si / 1000 Ang^3
#
#
#
# Elastic Constant Matrix: (Units=GPa)
#
#
# Indices 1 2 3 4 5 6 
#
# 1 107.0002 33.8478 58.5298 1.6622 -16.3137 12.6083
# 2 33.8478 112.6199 69.5615 19.5738 -11.2325 -2.6537
# 3 58.5298 69.5615 114.7116 3.1654 -14.4239 21.5867
# 4 1.6622 19.5738 3.1654 50.4563 0.2178 2.7714
# 5 -16.3137 -11.2325 -14.4239 0.2178 42.4686 -9.5749
# 6 12.6083 -2.6537 21.5867 2.7714 -9.5749 46.1054
#
#
#
# Elastic Compliance Matrix: (Units=1/GPa)
#
#
# Indices 1 2 3 4 5 6 
#
# 1 0.013320 0.000520 -0.006764 -0.000240 0.003001 0.000192
# 2 0.000520 0.017560 -0.011792 -0.006502 0.002519 0.007304
# 3 -0.006764 -0.011792 0.020807 0.003987 -0.000689 -0.008954
# 4 -0.000240 -0.006502 0.003987 0.022315 -0.001432 -0.003814
# 5 0.003001 0.002519 -0.000689 -0.001432 0.026311 0.005197
# 6 0.000192 0.007304 -0.008954 -0.003814 0.005197 0.027558
#
#
# Mechanical properties :
#
#
# Convention : Reuss Voigt Hill
#
# Bulk Modulus (GPa) = 64.03657 73.13443 68.58550
# Shear Modulus (GPa) = 29.55995 39.29891 34.42943
#
# Velocity S-wave (km/s) = 3.66583 4.22679 3.95627
# Velocity P-wave (km/s) = 6.85782 7.55440 7.21452
#
# Compressibility (1/GPa) = 0.01561608
#
# Stress axis : x y z
#
# Youngs Moduli (GPa) = 75.07658 56.94763 48.05963
#
# Poissons Ratio (x) = -0.02961 0.32505
# Poissons Ratio (y) = -0.03903 0.56672
# Poissons Ratio (z) = 0.50778 0.67152
#
# Static dielectric constant tensor:
#      x y z
#    x 4.055140 -0.016190 -0.111870 
#    y -0.016190 4.006290 0.207070 
#    z -0.111870 0.207070 3.850780 
# 
# 
# High freq. dielectric constant tensor:
#      x y z
#    x 1.877800 -0.001870 -0.006730 
#    y -0.001870 1.878330 0.003380 
#    z -0.006730 0.003380 1.877660 
# 
# From -- ./inp_files/419737.got.cif
#   From: 2010.06.25/outbox.cif.g09.slc.cpg/sg2_210_cif.got.tgz:419737.got - 2010.06.27 13:26:56.
