data_PCOD8034764
_publ_section_title
;
Structure prediction by ZEFSAII (Michael W. Deem and Ramdas Pophale) SiO2 
 PCOD8034764
Probable space group: P -1
;
_chemical_formula_sum "Si O2"
_cell_formula_units_Z 12
_cell_length_a 11.418440
_cell_length_b 8.438042
_cell_length_c 15.595777
_cell_angle_alpha 120.602149
_cell_angle_beta 39.544093
_cell_angle_gamma 144.131078
_cell_volume 532.853667
_symmetry_space_group_name_H-M "P -1"
_symmetry_group_IT_number 2
_symmetry_cell_setting 'triclinic'
loop_
_space_group_symop_operation_xyz
x,y,z
-x,-y,-z
loop_
_atom_site_type_symbol
_atom_site_label
_atom_site_fract_x
_atom_site_fract_y
_atom_site_fract_z
Si Si1 0.789408 0.101930 0.653833
Si Si2 0.520543 0.044548 0.638964
Si Si3 0.238283 0.436370 0.776131
Si Si4 0.219638 0.711892 0.120242
Si Si5 0.984608 0.197963 0.037917
Si Si6 0.400933 0.624031 0.465921
O O1 0.793478 0.184102 0.576749
O O2 0.761093 0.246511 0.777705
O O3 0.114325 0.278475 0.534189
O O4 0.537711 0.764309 0.719004
O O5 0.581772 0.263504 0.604845
O O6 0.318216 0.950178 0.805911
O O7 0.390800 0.772847 0.585437
O O8 0.325463 0.298914 0.655580
O O9 0.058616 0.400247 0.794576
O O10 0.040977 0.272597 0.926244
O O11 0.213078 0.488055 0.044291
O O12 0.500000 0.000000 0.000000
O O13 0.000000 0.000000 0.000000
#
# Coordination Sequence:
#
# PCOD8034764 Si02
#       6
#     2   2   2   2   2   2
#     4  12  23  43  72  99 140 182 232 278 349 411
#     4  11  24  46  69  97 145 178 230 291 344 405
#     4  12  25  43  74 102 140 177 237 288 343 413
#     4  12  25  46  73 105 138 183 233 290 348 408
#     4  12  23  47  71  99 138 182 229 289 343 403
#     4  11  25  44  68 104 138 185 225 285 350 412
#
# _framework density 22.520254000000001
#
# number of rings (size 3 to 8) (size 9 to 14) (size 15 to 20)
#    0.000    0.333    6.667    2.500    0.000    4.000 
#    0.000    6.667    0.000    0.000    0.000    0.000 
#    0.000    0.000    0.000    0.000    0.000    0.000 
#
# Total GULP energy -148715.190293 kJ/mol
# GULP energy per Si atom -12392.932524 kJ/mol
# Density = 2.246900 g / cm^3
# Si number density = 22.520254 Si / 1000 Ang^3
#
#
#
# Elastic Constant Matrix: (Units=GPa)
#
#
# Indices 1 2 3 4 5 6 
#
# 1 104.4955 39.7650 38.4675 6.9354 12.2824 -3.5932
# 2 39.7650 112.9698 31.5804 -5.4074 -4.9037 -2.0842
# 3 38.4675 31.5804 114.2067 -4.8053 -1.6252 -1.2037
# 4 6.9354 -5.4074 -4.8053 31.4088 -2.0895 -6.5518
# 5 12.2824 -4.9037 -1.6252 -2.0895 39.0648 0.6651
# 6 -3.5932 -2.0842 -1.2037 -6.5518 0.6651 34.2368
#
#
#
# Elastic Compliance Matrix: (Units=1/GPa)
#
#
# Indices 1 2 3 4 5 6 
#
# 1 0.013388 -0.004132 -0.003627 -0.004509 -0.005124 0.000263
# 2 -0.004132 0.010991 -0.001479 0.002905 0.002761 0.000686
# 3 -0.003627 -0.001479 0.010509 0.002320 0.001511 0.000313
# 4 -0.004509 0.002905 0.002320 0.035281 0.003656 0.006466
# 5 -0.005124 0.002761 0.001511 0.003656 0.027817 -0.000157
# 6 0.000263 0.000686 0.000313 0.006466 -0.000157 0.030529
#
#
# Mechanical properties :
#
#
# Convention : Reuss Voigt Hill
#
# Bulk Modulus (GPa) = 60.92659 61.25531 61.09095
# Shear Modulus (GPa) = 32.79520 35.73269 34.26395
#
# Velocity S-wave (km/s) = 3.82023 3.98765 3.90484
# Velocity P-wave (km/s) = 6.82435 6.96139 6.89321
#
# Compressibility (1/GPa) = 0.01641319
#
# Stress axis : x y z
#
# Youngs Moduli (GPa) = 74.69451 90.98065 95.15750
#
# Poissons Ratio (x) = 0.37594 0.34510
# Poissons Ratio (y) = 0.30864 0.14072
# Poissons Ratio (z) = 0.27089 0.13454
#
# Static dielectric constant tensor:
#      x y z
#    x 3.499300 0.017350 -0.262670 
#    y 0.017350 4.236410 -0.014340 
#    z -0.262670 -0.014340 4.058910 
# 
# 
# High freq. dielectric constant tensor:
#      x y z
#    x 1.876740 -0.000010 0.012400 
#    y -0.000010 1.893180 -0.005530 
#    z 0.012400 -0.005530 1.906350 
# 
# From -- ./inp_files/22194.got.cif
#   From: 2010.06.25/outbox.cif.g09.slc.cpg/sg2_12_cif.got.tgz:22194.got - 2010.06.27 13:26:56.
