data_PCOD8034298
_publ_section_title
;
Structure prediction by ZEFSAII (Michael W. Deem and Ramdas Pophale) SiO2 
 PCOD8034298
Probable space group: P -1
;
_chemical_formula_sum "Si O2"
_cell_formula_units_Z 16
_cell_length_a 10.189322
_cell_length_b 11.526602
_cell_length_c 21.469718
_cell_angle_alpha 31.463253
_cell_angle_beta 143.463220
_cell_angle_gamma 125.261564
_cell_volume 734.670930
_symmetry_space_group_name_H-M "P -1"
_symmetry_group_IT_number 2
_symmetry_cell_setting 'triclinic'
loop_
_space_group_symop_operation_xyz
x,y,z
-x,-y,-z
loop_
_atom_site_type_symbol
_atom_site_label
_atom_site_fract_x
_atom_site_fract_y
_atom_site_fract_z
Si Si1 0.193938 0.841333 0.370747
Si Si2 0.244454 0.331587 0.139457
Si Si3 0.888058 0.903447 0.445835
Si Si4 0.600593 0.693235 0.928320
Si Si5 0.226510 0.032408 0.043169
Si Si6 0.713867 0.338153 0.377149
Si Si7 0.753280 0.843903 0.147980
Si Si8 0.372013 0.408346 0.544815
O O1 0.310531 0.732704 0.529481
O O2 0.260235 0.635491 0.440124
O O3 0.911345 0.922648 0.223001
O O4 0.281551 0.056565 0.289126
O O5 0.251936 0.376225 0.047797
O O6 0.463829 0.384721 0.228034
O O7 0.000000 0.500000 0.000000
O O8 0.840780 0.653407 0.542582
O O9 0.072472 0.882810 0.469552
O O10 0.622164 0.071690 0.264764
O O11 0.000000 0.000000 0.500000
O O12 0.766666 0.730570 0.028554
O O13 0.500000 0.500000 0.000000
O O14 0.456644 0.803202 0.250550
O O15 0.195229 0.082543 0.935128
O O16 0.000000 0.000000 0.000000
O O17 0.783847 0.569751 0.291737
O O18 0.500000 0.000000 0.000000
O O19 0.500000 0.500000 0.500000
#
# Coordination Sequence:
#
# PCOD8034298 Si02
#       8
#     2   2   2   2   2   2   2   2
#     4  12  26  46  70 103 141 187 239 293 355 423
#     4  12  27  49  69 105 147 186 236 298 363 431
#     4  11  24  44  71 101 140 181 241 293 352 424
#     4  11  25  44  71 100 137 184 234 291 355 426
#     4  11  25  43  67 104 140 182 228 287 359 414
#     4  12  26  45  73 105 140 192 242 294 360 423
#     4  12  25  44  71 103 142 182 235 294 354 422
#     4  11  24  44  73 102 142 185 236 294 351 427
#
# _framework density 21.778458000000001
#
# number of rings (size 3 to 8) (size 9 to 14) (size 15 to 20)
#    0.000    0.500    2.500    6.000    5.250    1.000 
#    0.000    0.000    0.000    0.000    0.000    0.000 
#    0.000    0.000    0.000    0.000    0.000    0.000 
#
# Total GULP energy -198253.759892 kJ/mol
# GULP energy per Si atom -12390.859993 kJ/mol
# Density = 2.172889 g / cm^3
# Si number density = 21.778458 Si / 1000 Ang^3
#
#
#
# Elastic Constant Matrix: (Units=GPa)
#
#
# Indices 1 2 3 4 5 6 
#
# 1 126.5264 19.9180 19.2855 -12.8105 3.4583 1.3060
# 2 19.9180 117.5109 4.6506 -8.6835 -11.0166 6.4064
# 3 19.2855 4.6506 46.7216 -8.1090 -7.7239 -2.0373
# 4 -12.8105 -8.6835 -8.1090 41.6649 7.0870 -0.6685
# 5 3.4583 -11.0166 -7.7239 7.0870 47.4441 -1.8744
# 6 1.3060 6.4064 -2.0373 -0.6685 -1.8744 38.8203
#
#
#
# Elastic Compliance Matrix: (Units=1/GPa)
#
#
# Indices 1 2 3 4 5 6 
#
# 1 0.008920 -0.001377 -0.003505 0.002086 -0.001864 -0.000311
# 2 -0.001377 0.009082 0.000135 0.001133 0.002010 -0.001329
# 3 -0.003505 0.000135 0.024059 0.003009 0.003817 0.001594
# 4 0.002086 0.001133 0.003009 0.026025 -0.003279 0.000191
# 5 -0.001864 0.002010 0.003817 -0.003279 0.022830 0.000977
# 6 -0.000311 -0.001329 0.001594 0.000191 0.000977 0.026124
#
#
# Mechanical properties :
#
#
# Convention : Reuss Voigt Hill
#
# Bulk Modulus (GPa) = 30.70404 42.05190 36.37797
# Shear Modulus (GPa) = 36.39306 42.04617 39.21962
#
# Velocity S-wave (km/s) = 4.09229 4.39866 4.24824
# Velocity P-wave (km/s) = 6.03805 6.71926 6.38775
#
# Compressibility (1/GPa) = 0.03256900
#
# Stress axis : x y z
#
# Youngs Moduli (GPa) = 112.11089 110.10263 41.56376
#
# Poissons Ratio (x) = 0.15160 0.14566
# Poissons Ratio (y) = 0.15437 -0.00562
# Poissons Ratio (z) = 0.39290 -0.01488
#
# Static dielectric constant tensor:
#      x y z
#    x 3.747110 -0.003610 0.076950 
#    y -0.003610 3.179260 0.018460 
#    z 0.076950 0.018460 3.853500 
# 
# 
# High freq. dielectric constant tensor:
#      x y z
#    x 1.869200 0.002790 0.012510 
#    y 0.002790 1.885610 0.000390 
#    z 0.012510 0.000390 1.852590 
# 
# From -- ./inp_files/184181.got.cif
#   From: 2010.06.25/outbox.cif.g09.slc.cpg/sg2_93_cif.got.tgz:184181.got - 2010.06.27 13:26:56.
