data_PCOD8034615
_publ_section_title
;
Structure prediction by ZEFSAII (Michael W. Deem and Ramdas Pophale) SiO2 
 PCOD8034615
Probable space group: P -1
;
_chemical_formula_sum "Si O2"
_cell_formula_units_Z 12
_cell_length_a 11.623338
_cell_length_b 6.492957
_cell_length_c 8.464227
_cell_angle_alpha 71.033141
_cell_angle_beta 88.675218
_cell_angle_gamma 55.148793
_cell_volume 484.752729
_symmetry_space_group_name_H-M "P -1"
_symmetry_group_IT_number 2
_symmetry_cell_setting 'triclinic'
loop_
_space_group_symop_operation_xyz
x,y,z
-x,-y,-z
loop_
_atom_site_type_symbol
_atom_site_label
_atom_site_fract_x
_atom_site_fract_y
_atom_site_fract_z
Si Si1 0.192721 0.655364 0.225524
Si Si2 0.565690 0.996344 0.174271
Si Si3 0.288591 0.444465 0.943024
Si Si4 0.397290 0.760796 0.332035
Si Si5 0.752613 0.839795 0.490371
Si Si6 0.070485 0.996382 0.660714
O O1 0.312068 0.710072 0.218791
O O2 0.222192 0.443044 0.412977
O O3 0.192650 0.541970 0.081103
O O4 0.034318 0.923205 0.206562
O O5 0.700592 0.794376 0.100727
O O6 0.484506 0.853990 0.221636
O O7 0.613960 0.022430 0.336525
O O8 0.453450 0.300896 0.032932
O O9 0.220968 0.702591 0.765801
O O10 0.500000 0.500000 0.500000
O O11 0.275599 0.003467 0.385697
O O12 0.889219 0.794775 0.411480
O O13 0.000000 0.000000 0.500000
#
# Coordination Sequence:
#
# PCOD8034615 Si02
#       6
#     2   2   2   2   2   2
#     4  12  25  46  73 108 142 186 236 292 352 421
#     4  11  24  45  72 110 142 185 234 294 360 412
#     4  11  26  46  71 106 147 184 237 294 355 418
#     4  12  22  41  75 107 142 180 238 288 347 422
#     4  12  24  47  74 105 140 186 240 291 349 425
#     4  12  26  49  71 102 142 194 241 284 353 427
#
# _framework density 24.754888000000001
#
# number of rings (size 3 to 8) (size 9 to 14) (size 15 to 20)
#    0.000    0.333    5.000    4.500    0.000    4.000 
#    0.000    4.167    0.000    0.000    0.000    0.000 
#    0.000    0.000    0.000    0.000    0.000    0.000 
#
# Total GULP energy -148699.763153 kJ/mol
# GULP energy per Si atom -12391.646929 kJ/mol
# Density = 2.469854 g / cm^3
# Si number density = 24.754888 Si / 1000 Ang^3
#
#
#
# Elastic Constant Matrix: (Units=GPa)
#
#
# Indices 1 2 3 4 5 6 
#
# 1 113.9223 30.5593 30.2403 -4.3702 -2.5456 12.3074
# 2 30.5593 116.3858 40.9995 6.6714 2.9090 -21.5922
# 3 30.2403 40.9995 121.8020 -0.6338 13.2131 -2.9001
# 4 -4.3702 6.6714 -0.6338 48.9375 -17.1951 -7.3465
# 5 -2.5456 2.9090 13.2131 -17.1951 17.3433 5.3530
# 6 12.3074 -21.5922 -2.9001 -7.3465 5.3530 34.1471
#
#
#
# Elastic Compliance Matrix: (Units=1/GPa)
#
#
# Indices 1 2 3 4 5 6 
#
# 1 0.011993 -0.004128 -0.003026 0.004497 0.011704 -0.008057
# 2 -0.004128 0.012628 -0.002232 -0.003182 -0.007180 0.009724
# 3 -0.003026 -0.002232 0.011182 -0.004241 -0.013352 0.001810
# 4 0.004497 -0.003182 -0.004241 0.034767 0.039741 -0.002743
# 5 0.011704 -0.007180 -0.013352 0.039741 0.116192 -0.019557
# 6 -0.008057 0.009724 0.001810 -0.002743 -0.019557 0.040967
#
#
# Mechanical properties :
#
#
# Convention : Reuss Voigt Hill
#
# Bulk Modulus (GPa) = 58.71630 61.74534 60.23082
# Shear Modulus (GPa) = 19.82724 36.77299 28.30012
#
# Velocity S-wave (km/s) = 2.83316 3.85838 3.38481
# Velocity P-wave (km/s) = 5.87137 6.69674 6.29759
#
# Compressibility (1/GPa) = 0.01703105
#
# Stress axis : x y z
#
# Youngs Moduli (GPa) = 83.38218 79.18757 89.42818
#
# Poissons Ratio (x) = 0.32689 0.27062
# Poissons Ratio (y) = 0.34421 0.19961
# Poissons Ratio (z) = 0.25232 0.17675
#
# Static dielectric constant tensor:
#      x y z
#    x 4.255250 -0.145640 -0.026820 
#    y -0.145640 4.651360 0.039790 
#    z -0.026820 0.039790 4.584410 
# 
# 
# High freq. dielectric constant tensor:
#      x y z
#    x 1.954430 -0.013440 -0.000500 
#    y -0.013440 1.995850 0.005600 
#    z -0.000500 0.005600 2.000740 
# 
# From -- ./inp_files/21073.got.cif
#   From: 2010.06.25/outbox.cif.g09.slc.cpg/sg2_11_cif.got.tgz:21073.got - 2010.06.27 13:26:56.
