data_PCOD8034150
_publ_section_title
;
Structure prediction by ZEFSAII (Michael W. Deem and Ramdas Pophale) SiO2 
 PCOD8034150
Probable space group: P -1
;
_chemical_formula_sum "Si O2"
_cell_formula_units_Z 16
_cell_length_a 12.504509
_cell_length_b 18.553260
_cell_length_c 9.736799
_cell_angle_alpha 78.479590
_cell_angle_beta 135.041754
_cell_angle_gamma 138.718349
_cell_volume 739.165154
_symmetry_space_group_name_H-M "P -1"
_symmetry_group_IT_number 2
_symmetry_cell_setting 'triclinic'
loop_
_space_group_symop_operation_xyz
x,y,z
-x,-y,-z
loop_
_atom_site_type_symbol
_atom_site_label
_atom_site_fract_x
_atom_site_fract_y
_atom_site_fract_z
Si Si1 0.223114 0.781747 0.036125
Si Si2 0.208764 0.019343 0.718990
Si Si3 0.622742 0.241039 0.266353
Si Si4 0.710458 0.431679 0.380547
Si Si5 0.219854 0.539188 0.267622
Si Si6 0.674130 0.153288 0.589778
Si Si7 0.784077 0.714207 0.545984
Si Si8 0.594876 0.552009 0.909889
O O1 0.935848 0.606370 0.801992
O O2 0.062126 0.792260 0.857162
O O3 0.531330 0.892847 0.188256
O O4 0.339310 0.818383 0.282327
O O5 0.385998 0.108340 0.988866
O O6 0.000000 0.000000 0.500000
O O7 0.967114 0.848310 0.563903
O O8 0.550467 0.296873 0.201108
O O9 0.540344 0.154726 0.356580
O O10 0.993391 0.400742 0.491636
O O11 0.783139 0.426485 0.596496
O O12 0.453881 0.384225 0.197421
O O13 0.563954 0.670304 0.462046
O O14 0.000000 0.500000 0.000000
O O15 0.500000 0.000000 0.500000
O O16 0.033853 0.299635 0.815721
O O17 0.582563 0.575538 0.314096
O O18 0.500000 0.500000 0.000000
#
# Coordination Sequence:
#
# PCOD8034150 Si02
#       8
#     2   2   2   2   2   2   2   2
#     4  12  24  47  70 101 145 183 241 294 350 425
#     4  12  28  46  72 105 142 191 238 294 365 427
#     4  11  25  47  68 106 144 189 235 294 363 425
#     4  11  24  43  76 101 145 186 237 295 352 432
#     4  12  23  42  70 107 139 183 234 291 356 420
#     4  12  27  45  72 106 146 187 237 299 365 423
#     4  12  26  45  73 104 145 185 244 295 352 433
#     4  12  25  43  72 106 137 190 245 285 356 429
#
# _framework density 21.646042000000001
#
# number of rings (size 3 to 8) (size 9 to 14) (size 15 to 20)
#    0.000    0.250    5.000    3.750    3.500    0.000 
#    0.000    1.875    0.000    0.000    0.000    0.000 
#    0.000    0.000    0.000    0.000    0.000    0.000 
#
# Total GULP energy -198304.964471 kJ/mol
# GULP energy per Si atom -12394.060279 kJ/mol
# Density = 2.159677 g / cm^3
# Si number density = 21.646042 Si / 1000 Ang^3
#
#
#
# Elastic Constant Matrix: (Units=GPa)
#
#
# Indices 1 2 3 4 5 6 
#
# 1 121.5040 40.4606 37.1607 -1.3875 9.3196 17.0710
# 2 40.4606 121.3592 30.3700 -1.5133 16.9941 13.0582
# 3 37.1607 30.3700 103.9822 -19.6475 -9.6845 0.2888
# 4 -1.3875 -1.5133 -19.6475 49.5520 5.3631 3.4410
# 5 9.3196 16.9941 -9.6845 5.3631 52.2957 -1.4205
# 6 17.0710 13.0582 0.2888 3.4410 -1.4205 47.2416
#
#
#
# Elastic Compliance Matrix: (Units=1/GPa)
#
#
# Indices 1 2 3 4 5 6 
#
# 1 0.010567 -0.002051 -0.003479 -0.000719 -0.001875 -0.003234
# 2 -0.002051 0.010309 -0.002648 -0.000262 -0.003507 -0.002179
# 3 -0.003479 -0.002648 0.012781 0.004399 0.003442 0.001694
# 4 -0.000719 -0.000262 0.004399 0.022129 -0.001278 -0.001345
# 5 -0.001875 -0.003507 0.003442 -0.001278 0.021429 0.002363
# 6 -0.003234 -0.002179 0.001694 -0.001345 0.002363 0.023097
#
#
# Mechanical properties :
#
#
# Convention : Reuss Voigt Hill
#
# Bulk Modulus (GPa) = 57.79929 62.53644 60.16786
# Shear Modulus (GPa) = 40.83842 45.74147 43.28994
#
# Velocity S-wave (km/s) = 4.34827 4.60189 4.47688
# Velocity P-wave (km/s) = 7.20901 7.56239 7.38782
#
# Compressibility (1/GPa) = 0.01730125
#
# Stress axis : x y z
#
# Youngs Moduli (GPa) = 94.63314 97.00598 78.24240
#
# Poissons Ratio (x) = 0.19894 0.27220
# Poissons Ratio (y) = 0.19407 0.20718
# Poissons Ratio (z) = 0.32922 0.25687
#
# Static dielectric constant tensor:
#      x y z
#    x 2.529630 -1.540070 0.450720 
#    y -1.540070 2.605420 0.437200 
#    z 0.450720 0.437200 3.814950 
# 
# 
# High freq. dielectric constant tensor:
#      x y z
#    x 1.866260 0.002280 -0.003870 
#    y 0.002280 1.864940 -0.009050 
#    z -0.003870 -0.009050 1.851240 
# 
# From -- ./inp_files/207830.got.cif
#   From: 2010.06.25/outbox.cif.g09.slc.cpg/sg2_104_cif.got.tgz:207830.got - 2010.06.27 13:26:56.
