data_PCOD8034000
_publ_section_title
;
Structure prediction by ZEFSAII (Michael W. Deem and Ramdas Pophale) SiO2 
 PCOD8034000
Probable space group: P -1
;
_chemical_formula_sum "Si O2"
_cell_formula_units_Z 16
_cell_length_a 6.815008
_cell_length_b 19.119994
_cell_length_c 9.293618
_cell_angle_alpha 125.436264
_cell_angle_beta 47.508960
_cell_angle_gamma 100.743825
_cell_volume 683.788055
_symmetry_space_group_name_H-M "P -1"
_symmetry_group_IT_number 2
_symmetry_cell_setting 'triclinic'
loop_
_space_group_symop_operation_xyz
x,y,z
-x,-y,-z
loop_
_atom_site_type_symbol
_atom_site_label
_atom_site_fract_x
_atom_site_fract_y
_atom_site_fract_z
Si Si1 0.792255 0.262625 0.581978
Si Si2 0.420083 0.776131 0.635668
Si Si3 0.679149 0.340045 0.221381
Si Si4 0.677206 0.054821 0.905667
Si Si5 0.709281 0.995420 0.522487
Si Si6 0.074542 0.397589 0.492109
Si Si7 0.829494 0.601484 0.877041
Si Si8 0.039820 0.195906 0.670325
O O1 0.790144 0.199275 0.369235
O O2 0.904978 0.193155 0.575892
O O3 0.002119 0.320506 0.526511
O O4 0.475719 0.333271 0.843957
O O5 0.368703 0.688775 0.627222
O O6 0.739786 0.749813 0.388893
O O7 0.362848 0.855037 0.876528
O O8 0.376675 0.405781 0.394650
O O9 0.913074 0.388309 0.143912
O O10 0.783486 0.248290 0.964050
O O11 0.009962 0.993965 0.671966
O O12 0.587003 0.073517 0.801189
O O13 0.500000 0.000000 0.000000
O O14 0.787063 0.901898 0.463915
O O15 0.500000 0.000000 0.500000
O O16 0.097649 0.370275 0.282252
O O17 0.838179 0.496967 0.754665
#
# Coordination Sequence:
#
# PCOD8034000 Si02
#       8
#     2   2   2   2   2   2   2   2
#     4  12  25  44  72 103 142 188 242 291 346 423
#     4  12  25  44  72 102 141 185 236 287 355 417
#     4  12  23  46  68 104 139 186 237 288 352 420
#     4  11  25  49  72 107 141 179 233 288 355 426
#     4  11  27  50  75 106 142 184 232 291 357 423
#     4  11  24  43  70 104 143 186 235 297 350 416
#     4  11  24  43  69 104 144 187 235 292 358 412
#     4  12  25  46  71 103 142 183 236 293 347 420
#
# _framework density 23.399063000000002
#
# number of rings (size 3 to 8) (size 9 to 14) (size 15 to 20)
#    0.000    0.500    7.500    0.750    0.000    3.500 
#    2.250    1.250    0.000    0.000    0.000    0.000 
#    0.000    0.000    0.000    0.000    0.000    0.000 
#
# Total GULP energy -198300.894774 kJ/mol
# GULP energy per Si atom -12393.805923 kJ/mol
# Density = 2.334581 g / cm^3
# Si number density = 23.399063 Si / 1000 Ang^3
#
#
#
# Elastic Constant Matrix: (Units=GPa)
#
#
# Indices 1 2 3 4 5 6 
#
# 1 173.8937 31.6452 44.3308 -7.5780 8.5206 -8.4098
# 2 31.6452 75.8138 35.4112 -14.5442 0.2254 -4.6690
# 3 44.3308 35.4112 96.9216 -13.1019 -0.3240 -0.5234
# 4 -7.5780 -14.5442 -13.1019 29.0227 7.2760 -7.1965
# 5 8.5206 0.2254 -0.3240 7.2760 39.4975 -6.8396
# 6 -8.4098 -4.6690 -0.5234 -7.1965 -6.8396 38.2557
#
#
#
# Elastic Compliance Matrix: (Units=1/GPa)
#
#
# Indices 1 2 3 4 5 6 
#
# 1 0.006804 -0.001502 -0.002491 0.000526 -0.001381 0.001130
# 2 -0.001502 0.017604 -0.004760 0.007178 -0.000620 0.002993
# 3 -0.002491 -0.004760 0.013599 0.002997 0.000060 -0.000368
# 4 0.000526 0.007178 0.002997 0.043199 -0.006709 0.007960
# 5 -0.001381 -0.000620 0.000060 -0.006709 0.027421 0.003262
# 6 0.001130 0.002993 -0.000368 0.007960 0.003262 0.028829
#
#
# Mechanical properties :
#
#
# Convention : Reuss Voigt Hill
#
# Bulk Modulus (GPa) = 48.77760 63.26703 56.02232
# Shear Modulus (GPa) = 30.90303 37.03797 33.97050
#
# Velocity S-wave (km/s) = 3.63808 3.98286 3.81437
# Velocity P-wave (km/s) = 6.20796 6.94607 6.58736
#
# Compressibility (1/GPa) = 0.02050121
#
# Stress axis : x y z
#
# Youngs Moduli (GPa) = 146.96766 56.80584 73.53251
#
# Poissons Ratio (x) = 0.08533 0.18315
# Poissons Ratio (y) = 0.22076 0.35003
# Poissons Ratio (z) = 0.36606 0.27041
#
# Static dielectric constant tensor:
#      x y z
#    x 4.381060 0.020890 0.139440 
#    y 0.020890 4.174710 -0.208790 
#    z 0.139440 -0.208790 4.478760 
# 
# 
# High freq. dielectric constant tensor:
#      x y z
#    x 1.935490 0.011900 0.007960 
#    y 0.011900 1.915570 -0.019600 
#    z 0.007960 -0.019600 1.933270 
# 
# From -- ./inp_files/141474.got.cif
#   From: 2010.06.25/outbox.cif.g09.slc.cpg/sg2_71_cif.got.tgz:141474.got - 2010.06.27 13:26:56.
