data_PCOD8034287
_publ_section_title
;
Structure prediction by ZEFSAII (Michael W. Deem and Ramdas Pophale) SiO2 
 PCOD8034287
Probable space group: P -1
;
_chemical_formula_sum "Si O2"
_cell_formula_units_Z 14
_cell_length_a 19.024259
_cell_length_b 8.153324
_cell_length_c 12.087393
_cell_angle_alpha 119.202375
_cell_angle_beta 32.538257
_cell_angle_gamma 138.625518
_cell_volume 608.824834
_symmetry_space_group_name_H-M "P -1"
_symmetry_group_IT_number 2
_symmetry_cell_setting 'triclinic'
loop_
_space_group_symop_operation_xyz
x,y,z
-x,-y,-z
loop_
_atom_site_type_symbol
_atom_site_label
_atom_site_fract_x
_atom_site_fract_y
_atom_site_fract_z
Si Si1 0.996832 0.137507 0.946680
Si Si2 0.205365 0.176491 0.497560
Si Si3 0.023047 0.529833 0.778806
Si Si4 0.911595 0.569608 0.710961
Si Si5 0.616707 0.313786 0.683564
Si Si6 0.262213 0.075129 0.974672
Si Si7 0.563674 0.366554 0.013080
O O1 0.010563 0.370238 0.038953
O O2 0.800545 0.921051 0.063872
O O3 0.181848 0.275708 0.673723
O O4 0.000000 0.000000 0.000000
O O5 0.251455 0.364670 0.398459
O O6 0.373976 0.197782 0.282482
O O7 0.006744 0.864384 0.642899
O O8 0.246268 0.723780 0.525683
O O9 0.940832 0.563791 0.798409
O O10 0.916313 0.220818 0.834273
O O11 0.689238 0.349991 0.910314
O O12 0.000000 0.500000 0.500000
O O13 0.448852 0.133802 0.754134
O O14 0.524633 0.233003 0.901245
O O15 0.324817 0.319802 0.045144
#
# Coordination Sequence:
#
# PCOD8034287 Si02
#       7
#     2   2   2   2   2   2   2
#     4  12  24  48  69  94 138 180 226 271 329 402
#     4  11  24  45  68  94 138 175 224 274 331 396
#     4  12  25  44  68 100 136 177 223 279 328 392
#     4  12  25  41  69 101 137 179 218 273 341 394
#     4  11  25  43  71 103 133 174 222 281 335 396
#     4  11  24  44  70  98 133 175 226 273 336 393
#     4  11  24  45  69 102 135 174 225 273 338 400
#
# _framework density 22.99512
#
# number of rings (size 3 to 8) (size 9 to 14) (size 15 to 20)
#    0.000    0.571    5.714    2.143    4.000    3.429 
#    2.571    3.571    0.000    0.000    0.000    0.000 
#    0.000    0.000    0.000    0.000    0.000    0.000 
#
# Total GULP energy -173501.956990 kJ/mol
# GULP energy per Si atom -12392.996928 kJ/mol
# Density = 2.294278 g / cm^3
# Si number density = 22.995120 Si / 1000 Ang^3
#
#
#
# Elastic Constant Matrix: (Units=GPa)
#
#
# Indices 1 2 3 4 5 6 
#
# 1 152.5614 0.5684 59.7710 -3.8671 -25.1194 12.0594
# 2 0.5684 50.6543 14.4641 11.9785 9.7538 13.1204
# 3 59.7710 14.4641 148.0267 29.5134 -17.5233 15.5318
# 4 -3.8671 11.9785 29.5134 40.9051 -0.4016 0.5629
# 5 -25.1194 9.7538 -17.5233 -0.4016 40.2756 -0.2166
# 6 12.0594 13.1204 15.5318 0.5629 -0.2166 22.1348
#
#
#
# Elastic Compliance Matrix: (Units=1/GPa)
#
#
# Indices 1 2 3 4 5 6 
#
# 1 0.008887 -0.000082 -0.003554 0.003500 0.004038 -0.002349
# 2 -0.000082 0.026979 -0.000266 -0.007569 -0.006860 -0.015635
# 3 -0.003554 -0.000266 0.010587 -0.007803 0.002349 -0.005114
# 4 0.003500 -0.007569 -0.007803 0.032534 0.000984 0.007237
# 5 0.004038 -0.006860 0.002349 0.000984 0.030043 0.000487
# 6 -0.002349 -0.015635 -0.005114 0.007237 0.000487 0.059135
#
#
# Mechanical properties :
#
#
# Convention : Reuss Voigt Hill
#
# Bulk Modulus (GPa) = 25.87300 55.64993 40.76147
# Shear Modulus (GPa) = 26.47603 39.09235 32.78419
#
# Velocity S-wave (km/s) = 3.39687 4.12761 3.77994
# Velocity P-wave (km/s) = 5.16342 6.85343 6.06756
#
# Compressibility (1/GPa) = 0.03865033
#
# Stress axis : x y z
#
# Youngs Moduli (GPa) = 112.52885 37.06585 94.45752
#
# Poissons Ratio (x) = 0.00303 0.33566
# Poissons Ratio (y) = 0.00921 0.02509
# Poissons Ratio (z) = 0.39988 0.00984
#
# Static dielectric constant tensor:
#      x y z
#    x 3.926870 0.129460 -0.248360 
#    y 0.129460 4.097080 0.161850 
#    z -0.248360 0.161850 4.361510 
# 
# 
# High freq. dielectric constant tensor:
#      x y z
#    x 1.915300 -0.011730 -0.021600 
#    y -0.011730 1.895440 0.013830 
#    z -0.021600 0.013830 1.909570 
# 
# From -- ./inp_files/332126.got.cif
#   From: 2010.06.25/outbox.cif.g09.slc.cpg/sg2_167_cif.got.tgz:332126.got - 2010.06.27 13:26:56.
