data_PCOD8034132
_publ_section_title
;
Structure prediction by ZEFSAII (Michael W. Deem and Ramdas Pophale) SiO2 
 PCOD8034132
Probable space group: P -1
;
_chemical_formula_sum "Si O2"
_cell_formula_units_Z 16
_cell_length_a 19.189683
_cell_length_b 16.069971
_cell_length_c 10.995157
_cell_angle_alpha 34.784029
_cell_angle_beta 136.700727
_cell_angle_gamma 158.229829
_cell_volume 707.553833
_symmetry_space_group_name_H-M "P -1"
_symmetry_group_IT_number 2
_symmetry_cell_setting 'triclinic'
loop_
_space_group_symop_operation_xyz
x,y,z
-x,-y,-z
loop_
_atom_site_type_symbol
_atom_site_label
_atom_site_fract_x
_atom_site_fract_y
_atom_site_fract_z
Si Si1 0.625091 0.292217 0.830105
Si Si2 0.881275 0.736825 0.237976
Si Si3 0.586037 0.475925 0.356726
Si Si4 0.196165 0.095094 0.389963
Si Si5 0.646438 0.400117 0.989976
Si Si6 0.258392 0.037955 0.980379
Si Si7 0.048926 0.715792 0.859837
Si Si8 0.934781 0.583183 0.285001
O O1 0.585347 0.337417 0.607904
O O2 0.849442 0.550953 0.822075
O O3 0.557722 0.276695 0.890948
O O4 0.500000 0.000000 0.000000
O O5 0.678875 0.552446 0.251047
O O6 0.852416 0.562502 0.324600
O O7 0.995530 0.823060 0.397477
O O8 0.000000 0.000000 0.000000
O O9 0.365781 0.253107 0.324651
O O10 0.692803 0.733726 0.257947
O O11 0.191516 0.987043 0.633190
O O12 0.215689 0.290956 0.207084
O O13 0.765444 0.402950 0.185806
O O14 0.455810 0.193299 0.076840
O O15 0.147712 0.823508 0.987567
O O16 0.128589 0.888370 0.114997
O O17 0.000000 0.500000 0.000000
O O18 0.000000 0.500000 0.500000
#
# Coordination Sequence:
#
# PCOD8034132 Si02
#       8
#     2   2   2   2   2   2   2   2
#     4  12  25  42  71 105 142 180 228 289 364 428
#     4  12  24  45  71 101 137 187 252 281 340 414
#     4  11  24  44  73 106 139 184 234 298 343 420
#     4  11  24  43  74 105 138 186 235 290 353 417
#     4  11  24  46  71 101 141 182 236 290 351 429
#     4  11  24  45  72 101 141 184 236 286 359 420
#     4  12  25  42  69 105 147 182 225 292 362 427
#     4  12  28  45  69 102 142 189 240 298 346 409
#
# _framework density 22.613122000000001
#
# number of rings (size 3 to 8) (size 9 to 14) (size 15 to 20)
#    0.000    0.500    5.000    3.000    1.750    7.000 
#    0.000    0.000    0.000    0.000    0.000    0.000 
#    0.000    0.000    0.000    0.000    0.000    0.000 
#
# Total GULP energy -198340.624003 kJ/mol
# GULP energy per Si atom -12396.289000 kJ/mol
# Density = 2.256165 g / cm^3
# Si number density = 22.613122 Si / 1000 Ang^3
#
#
#
# Elastic Constant Matrix: (Units=GPa)
#
#
# Indices 1 2 3 4 5 6 
#
# 1 123.0103 29.5298 32.0574 -8.0116 -1.6873 9.2336
# 2 29.5298 68.1432 29.3693 -11.8305 -0.9519 14.2974
# 3 32.0574 29.3693 110.3135 6.2006 9.8788 7.1112
# 4 -8.0116 -11.8305 6.2006 31.0358 3.3377 -1.8704
# 5 -1.6873 -0.9519 9.8788 3.3377 35.9319 -4.2103
# 6 9.2336 14.2974 7.1112 -1.8704 -4.2103 46.9943
#
#
#
# Elastic Compliance Matrix: (Units=1/GPa)
#
#
# Indices 1 2 3 4 5 6 
#
# 1 0.009521 -0.002769 -0.002156 0.001719 0.000740 -0.000567
# 2 -0.002769 0.020203 -0.004752 0.007611 0.000473 -0.004538
# 3 -0.002156 -0.004752 0.011492 -0.004358 -0.003019 -0.000314
# 4 0.001719 0.007611 -0.004358 0.036609 -0.002004 -0.000716
# 5 0.000740 0.000473 -0.003019 -0.002004 0.029211 0.002705
# 6 -0.000567 -0.004538 -0.000314 -0.000716 0.002705 0.023033
#
#
# Mechanical properties :
#
#
# Convention : Reuss Voigt Hill
#
# Bulk Modulus (GPa) = 45.73950 53.70891 49.72421
# Shear Modulus (GPa) = 31.90633 36.82642 34.36638
#
# Velocity S-wave (km/s) = 3.76036 4.03990 3.90263
# Velocity P-wave (km/s) = 6.25497 6.75010 6.50724
#
# Compressibility (1/GPa) = 0.02186294
#
# Stress axis : x y z
#
# Youngs Moduli (GPa) = 105.03521 49.49762 87.01561
#
# Poissons Ratio (x) = 0.13704 0.18760
# Poissons Ratio (y) = 0.29081 0.41348
# Poissons Ratio (z) = 0.22645 0.23520
#
# Static dielectric constant tensor:
#      x y z
#    x 4.437770 0.267000 -0.127750 
#    y 0.267000 4.102010 -0.017310 
#    z -0.127750 -0.017310 4.032160 
# 
# 
# High freq. dielectric constant tensor:
#      x y z
#    x 1.902520 0.019460 -0.003540 
#    y 0.019460 1.896600 -0.003160 
#    z -0.003540 -0.003160 1.883290 
# 
# From -- ./inp_files/297390.got.cif
#   From: 2010.06.25/outbox.cif.g09.slc.cpg/sg2_149_cif.got.tgz:297390.got - 2010.06.27 13:26:56.
