data_PCOD8034326
_publ_section_title
;
Structure prediction by ZEFSAII (Michael W. Deem and Ramdas Pophale) SiO2 
 PCOD8034326
Probable space group: P -1
;
_chemical_formula_sum "Si O2"
_cell_formula_units_Z 14
_cell_length_a 9.478898
_cell_length_b 15.264180
_cell_length_c 15.141536
_cell_angle_alpha 38.995468
_cell_angle_beta 144.170118
_cell_angle_gamma 149.112286
_cell_volume 633.726983
_symmetry_space_group_name_H-M "P -1"
_symmetry_group_IT_number 2
_symmetry_cell_setting 'triclinic'
loop_
_space_group_symop_operation_xyz
x,y,z
-x,-y,-z
loop_
_atom_site_type_symbol
_atom_site_label
_atom_site_fract_x
_atom_site_fract_y
_atom_site_fract_z
Si Si1 0.306703 0.138203 0.270472
Si Si2 0.653578 0.631255 0.557055
Si Si3 0.665746 0.196269 0.702308
Si Si4 0.650853 0.417643 0.879159
Si Si5 0.305892 0.928017 0.584619
Si Si6 0.610710 0.520033 0.141181
Si Si7 0.647438 0.974684 0.012645
O O1 0.524834 0.152685 0.294425
O O2 0.494845 0.327656 0.266576
O O3 0.193443 0.976691 0.405219
O O4 0.014052 0.104468 0.103410
O O5 0.500000 0.500000 0.500000
O O6 0.496709 0.723641 0.410282
O O7 0.600698 0.528319 0.700936
O O8 0.016718 0.781615 0.611218
O O9 0.026444 0.347274 0.769417
O O10 0.549891 0.114464 0.610852
O O11 0.555748 0.029155 0.837830
O O12 0.529554 0.412443 0.919109
O O13 0.467937 0.223238 0.898504
O O14 0.000000 0.500000 0.000000
O O15 0.500000 0.500000 0.000000
O O16 0.500000 0.000000 0.000000
#
# Coordination Sequence:
#
# PCOD8034326 Si02
#       7
#     2   2   2   2   2   2   2
#     4  11  24  44  71  99 142 184 233 286 359 420
#     4  12  26  46  73 105 145 186 233 295 362 424
#     4  12  26  44  72  99 141 185 235 291 356 411
#     4  12  28  45  74 106 144 188 240 292 355 425
#     4  11  25  44  70 104 140 182 235 293 350 430
#     4  12  27  46  72 102 145 186 242 294 352 421
#     4  12  25  44  70 103 142 183 237 290 354 423
#
# _framework density 22.091531
#
# number of rings (size 3 to 8) (size 9 to 14) (size 15 to 20)
#    0.000    0.286    1.429    7.286    6.000    5.714 
#    0.000    0.000    0.000    0.000    0.000    0.000 
#    0.000    0.000    0.000    0.000    0.000    0.000 
#
# Total GULP energy -173696.492816 kJ/mol
# GULP energy per Si atom -12406.892344 kJ/mol
# Density = 2.204125 g / cm^3
# Si number density = 22.091531 Si / 1000 Ang^3
#
#
#
# Elastic Constant Matrix: (Units=GPa)
#
#
# Indices 1 2 3 4 5 6 
#
# 1 153.8200 54.3316 47.3174 5.3234 22.7206 -6.4493
# 2 54.3316 149.8764 31.3125 7.3955 15.4468 -3.0643
# 3 47.3174 31.3125 111.8926 -0.0092 7.8291 7.7940
# 4 5.3234 7.3955 -0.0092 44.6992 0.8300 1.0598
# 5 22.7206 15.4468 7.8291 0.8300 43.4049 0.1177
# 6 -6.4493 -3.0643 7.7940 1.0598 0.1177 43.5435
#
#
#
# Elastic Compliance Matrix: (Units=1/GPa)
#
#
# Indices 1 2 3 4 5 6 
#
# 1 0.008757 -0.002144 -0.002993 -0.000669 -0.003273 0.001707
# 2 -0.002144 0.007920 -0.001242 -0.001040 -0.001454 0.000491
# 3 -0.002993 -0.001242 0.010717 0.000621 0.000071 -0.002464
# 4 -0.000669 -0.001040 0.000621 0.022640 0.000177 -0.000835
# 5 -0.003273 -0.001454 0.000071 0.000177 0.025255 -0.000672
# 6 0.001707 0.000491 -0.002464 -0.000835 -0.000672 0.023716
#
#
# Mechanical properties :
#
#
# Convention : Reuss Voigt Hill
#
# Bulk Modulus (GPa) = 68.32679 75.72358 72.02518
# Shear Modulus (GPa) = 42.86542 45.17135 44.01839
#
# Velocity S-wave (km/s) = 4.40973 4.52678 4.46864
# Velocity P-wave (km/s) = 7.54478 7.85328 7.70057
#
# Compressibility (1/GPa) = 0.01463555
#
# Stress axis : x y z
#
# Youngs Moduli (GPa) = 114.18971 126.26056 93.30645
#
# Poissons Ratio (x) = 0.27071 0.27929
# Poissons Ratio (y) = 0.24483 0.11592
# Poissons Ratio (z) = 0.34180 0.15686
#
# Static dielectric constant tensor:
#      x y z
#    x 4.114530 -0.114280 -0.016970 
#    y -0.114280 4.094060 -0.232750 
#    z -0.016970 -0.232750 4.186510 
# 
# 
# High freq. dielectric constant tensor:
#      x y z
#    x 1.880830 -0.002450 0.006320 
#    y -0.002450 1.886690 -0.003240 
#    z 0.006320 -0.003240 1.884670 
# 
# From -- ./inp_files/152840.got.cif
#   From: 2010.06.25/outbox.cif.g09.slc.cpg/sg2_77_cif.got.tgz:152840.got - 2010.06.27 13:26:56.
