data_PCOD8034677
_publ_section_title
;
Structure prediction by ZEFSAII (Michael W. Deem and Ramdas Pophale) SiO2 
 PCOD8034677
Probable space group: P -1
;
_chemical_formula_sum "Si O2"
_cell_formula_units_Z 14
_cell_length_a 8.435508
_cell_length_b 12.484487
_cell_length_c 15.059716
_cell_angle_alpha 153.116109
_cell_angle_beta 122.725970
_cell_angle_gamma 48.107478
_cell_volume 526.689277
_symmetry_space_group_name_H-M "P -1"
_symmetry_group_IT_number 2
_symmetry_cell_setting 'triclinic'
loop_
_space_group_symop_operation_xyz
x,y,z
-x,-y,-z
loop_
_atom_site_type_symbol
_atom_site_label
_atom_site_fract_x
_atom_site_fract_y
_atom_site_fract_z
Si Si1 0.662222 0.888760 0.049048
Si Si2 0.747120 0.986534 0.563319
Si Si3 0.792918 0.250669 0.446955
Si Si4 0.564860 0.172305 0.832699
Si Si5 0.762375 0.596100 0.532559
Si Si6 0.163178 0.545999 0.898589
Si Si7 0.424560 0.560200 0.297988
O O1 0.595902 0.689708 0.937245
O O2 0.912915 0.740382 0.986844
O O3 0.500000 0.000000 0.000000
O O4 0.629409 0.141817 0.287080
O O5 0.825284 0.677510 0.331861
O O6 0.961387 0.996030 0.666745
O O7 0.589307 0.068101 0.659936
O O8 0.632027 0.196438 0.605130
O O9 0.764424 0.499109 0.561221
O O10 0.747378 0.346486 0.605072
O O11 0.310235 0.404085 0.927543
O O12 0.617593 0.923018 0.729411
O O13 0.725058 0.291051 0.993130
O O14 0.661718 0.458845 0.335357
O O15 0.000000 0.500000 0.500000
#
# Coordination Sequence:
#
# PCOD8034677 Si02
#       7
#     2   2   2   2   2   2   2
#     4  12  26  47  73 108 147 193 252 300 368 441
#     4  12  24  47  77 108 147 193 244 300 369 437
#     4  12  26  49  77 104 152 194 240 311 363 437
#     4  11  25  47  74 110 149 191 247 304 363 436
#     4  12  24  47  76 105 148 195 242 305 372 426
#     4  11  24  45  74 107 147 192 246 302 361 437
#     4  12  28  46  75 109 146 199 243 298 373 438
#
# _framework density 26.581136999999998
#
# number of rings (size 3 to 8) (size 9 to 14) (size 15 to 20)
#    0.000    0.286    7.143    1.286    0.000    1.714 
#    0.000    2.143    0.000    0.000    0.000    0.000 
#    0.000    0.000    0.000    0.000    0.000    0.000 
#
# Total GULP energy -173614.761226 kJ/mol
# GULP energy per Si atom -12401.054373 kJ/mol
# Density = 2.652064 g / cm^3
# Si number density = 26.581137 Si / 1000 Ang^3
#
#
#
# Elastic Constant Matrix: (Units=GPa)
#
#
# Indices 1 2 3 4 5 6 
#
# 1 112.5962 48.3612 20.1516 12.6004 26.7775 -25.6043
# 2 48.3612 120.2209 0.3580 10.1163 0.3320 -11.6233
# 3 20.1516 0.3580 85.8835 -0.2535 23.8166 16.2632
# 4 12.6004 10.1163 -0.2535 36.1915 -2.8997 0.7868
# 5 26.7775 0.3320 23.8166 -2.8997 42.5339 3.5045
# 6 -25.6043 -11.6233 16.2632 0.7868 3.5045 63.1693
#
#
#
# Elastic Compliance Matrix: (Units=1/GPa)
#
#
# Indices 1 2 3 4 5 6 
#
# 1 0.015934 -0.005311 -0.002342 -0.004991 -0.009569 0.006677
# 2 -0.005311 0.010465 0.000467 -0.000823 0.002985 -0.000503
# 3 -0.002342 0.000467 0.014794 0.000367 -0.006432 -0.004320
# 4 -0.004991 -0.000823 0.000367 0.030085 0.005236 -0.002934
# 5 -0.009569 0.002985 -0.006432 0.005236 0.033768 -0.003612
# 6 0.006677 -0.000503 -0.004320 -0.002934 -0.003612 0.019794
#
#
# Mechanical properties :
#
#
# Convention : Reuss Voigt Hill
#
# Bulk Modulus (GPa) = 37.28240 50.71582 43.99911
# Shear Modulus (GPa) = 33.74916 45.03427 39.39171
#
# Velocity S-wave (km/s) = 3.56710 4.12055 3.85378
# Velocity P-wave (km/s) = 5.56974 6.46217 6.03248
#
# Compressibility (1/GPa) = 0.02682231
#
# Stress axis : x y z
#
# Youngs Moduli (GPa) = 62.75777 95.55268 67.59454
#
# Poissons Ratio (x) = 0.50747 0.15832
# Poissons Ratio (y) = 0.33330 -0.03159
# Poissons Ratio (z) = 0.14700 -0.04466
#
# Static dielectric constant tensor:
#      x y z
#    x 5.101890 -0.375540 0.361150 
#    y -0.375540 4.958460 0.080660 
#    z 0.361150 0.080660 5.185750 
# 
# 
# High freq. dielectric constant tensor:
#      x y z
#    x 2.082060 -0.021210 0.016420 
#    y -0.021210 2.072260 0.001430 
#    z 0.016420 0.001430 2.082460 
# 
# From -- ./inp_files/501285.got.cif
#   From: 2010.06.25/outbox.cif.g09.slc.cpg/sg2_251_cif.got.tgz:501285.got - 2010.06.27 13:26:56.
