data_PCOD8034056
_publ_section_title
;
Structure prediction by ZEFSAII (Michael W. Deem and Ramdas Pophale) SiO2 
 PCOD8034056
Probable space group: P -1
;
_chemical_formula_sum "Si O2"
_cell_formula_units_Z 16
_cell_length_a 5.050756
_cell_length_b 9.217370
_cell_length_c 16.322538
_cell_angle_alpha 107.618875
_cell_angle_beta 70.718065
_cell_angle_gamma 87.849161
_cell_volume 675.588671
_symmetry_space_group_name_H-M "P -1"
_symmetry_group_IT_number 2
_symmetry_cell_setting 'triclinic'
loop_
_space_group_symop_operation_xyz
x,y,z
-x,-y,-z
loop_
_atom_site_type_symbol
_atom_site_label
_atom_site_fract_x
_atom_site_fract_y
_atom_site_fract_z
Si Si1 0.496779 0.683087 0.529080
Si Si2 0.276998 0.650544 0.072818
Si Si3 0.728150 0.137932 0.731331
Si Si4 0.139762 0.505198 0.822238
Si Si5 0.136339 0.213561 0.350896
Si Si6 0.345207 0.336365 0.194455
Si Si7 0.714417 0.104536 0.025945
Si Si8 0.713494 0.755817 0.346549
O O1 0.500000 0.500000 0.500000
O O2 0.746290 0.734751 0.566452
O O3 0.540198 0.750971 0.446608
O O4 0.201445 0.770693 0.607550
O O5 0.344192 0.752038 0.162656
O O6 0.975162 0.591464 0.109139
O O7 0.500000 0.500000 0.000000
O O8 0.230695 0.761439 0.018767
O O9 0.485281 0.180289 0.697056
O O10 0.028638 0.146657 0.657799
O O11 0.736708 0.958013 0.721632
O O12 0.460576 0.528578 0.814303
O O13 0.144485 0.417244 0.719833
O O14 0.897776 0.652253 0.850057
O O15 0.215406 0.336076 0.297574
O O16 0.571590 0.182145 0.135477
O O17 0.500000 0.000000 0.000000
O O18 0.000000 0.000000 0.000000
#
# Coordination Sequence:
#
# PCOD8034056 Si02
#       8
#     2   2   2   2   2   2   2   2
#     4  12  26  45  73 107 138 187 246 298 360 445
#     4  11  25  49  78 109 147 191 260 302 359 442
#     4  11  26  46  70 106 145 194 235 299 378 430
#     4  11  24  43  71 104 138 187 232 308 356 422
#     4  12  26  44  72 101 151 191 234 302 369 437
#     4  12  24  44  67  99 141 187 239 287 373 419
#     4  12  28  46  70 105 147 190 240 304 365 439
#     4  11  24  44  70 102 144 177 240 297 360 436
#
# _framework density 23.683047999999999
#
# number of rings (size 3 to 8) (size 9 to 14) (size 15 to 20)
#    0.000    0.500    1.250    7.125    0.000    9.500 
#    0.000    0.000    0.000    0.000    0.000    0.000 
#    0.000    0.000    0.000    0.000    0.000    0.000 
#
# Total GULP energy -198339.151517 kJ/mol
# GULP energy per Si atom -12396.196970 kJ/mol
# Density = 2.362914 g / cm^3
# Si number density = 23.683048 Si / 1000 Ang^3
#
#
#
# Elastic Constant Matrix: (Units=GPa)
#
#
# Indices 1 2 3 4 5 6 
#
# 1 110.8409 24.9515 14.6206 -11.0706 -16.4415 -6.4098
# 2 24.9515 121.5332 37.0027 -0.5149 -10.4100 -6.4175
# 3 14.6206 37.0027 111.9277 -12.6984 -20.0409 -3.8832
# 4 -11.0706 -0.5149 -12.6984 40.3183 6.1080 0.0214
# 5 -16.4415 -10.4100 -20.0409 6.1080 32.3091 -4.3499
# 6 -6.4098 -6.4175 -3.8832 0.0214 -4.3499 46.9906
#
#
#
# Elastic Compliance Matrix: (Units=1/GPa)
#
#
# Indices 1 2 3 4 5 6 
#
# 1 0.010389 -0.001745 0.000383 0.002228 0.004763 0.001650
# 2 -0.001745 0.009586 -0.002931 -0.001397 0.000768 0.000901
# 3 0.000383 -0.002931 0.011251 0.002722 0.005866 0.001124
# 4 0.002228 -0.001397 0.002722 0.026656 -0.002656 0.000080
# 5 0.004763 0.000768 0.005866 -0.002656 0.038409 0.004796
# 6 0.001650 0.000901 0.001124 0.000080 0.004796 0.022166
#
#
# Mechanical properties :
#
#
# Convention : Reuss Voigt Hill
#
# Bulk Modulus (GPa) = 44.16922 55.27236 49.72079
# Shear Modulus (GPa) = 37.14985 41.77209 39.46097
#
# Velocity S-wave (km/s) = 3.96489 4.20431 4.08635
# Velocity P-wave (km/s) = 6.29691 6.85255 6.58059
#
# Compressibility (1/GPa) = 0.02264020
#
# Stress axis : x y z
#
# Youngs Moduli (GPa) = 96.25826 104.31641 88.87748
#
# Poissons Ratio (x) = 0.18201 -0.03401
# Poissons Ratio (y) = 0.16795 0.26049
# Poissons Ratio (z) = -0.03683 0.30574
#
# Static dielectric constant tensor:
#      x y z
#    x 4.503220 -0.086250 -0.032960 
#    y -0.086250 4.617750 0.051730 
#    z -0.032960 0.051730 4.522460 
# 
# 
# High freq. dielectric constant tensor:
#      x y z
#    x 1.950510 0.001310 -0.011240 
#    y 0.001310 1.948500 0.001500 
#    z -0.011240 0.001500 1.944500 
# 
# From -- ./inp_files/480625.got.cif
#   From: 2010.06.25/outbox.cif.g09.slc.cpg/sg2_241_cif.got.tgz:480625.got - 2010.06.27 13:26:56.
