data_PCOD8034863
_publ_section_title
;
Structure prediction by ZEFSAII (Michael W. Deem and Ramdas Pophale) SiO2 
 PCOD8034863
Probable space group: P -1
;
_chemical_formula_sum "Si O2"
_cell_formula_units_Z 16
_cell_length_a 9.837339
_cell_length_b 8.627811
_cell_length_c 15.364776
_cell_angle_alpha 108.180845
_cell_angle_beta 144.506636
_cell_angle_gamma 79.929543
_cell_volume 711.911074
_symmetry_space_group_name_H-M "P -1"
_symmetry_group_IT_number 2
_symmetry_cell_setting 'triclinic'
loop_
_space_group_symop_operation_xyz
x,y,z
-x,-y,-z
loop_
_atom_site_type_symbol
_atom_site_label
_atom_site_fract_x
_atom_site_fract_y
_atom_site_fract_z
Si Si1 0.714784 0.225254 0.628161
Si Si2 0.868814 0.567298 0.022971
Si Si3 0.427825 0.657548 0.040392
Si Si4 0.339185 0.561425 0.502895
Si Si5 0.284454 0.121122 0.486225
Si Si6 0.717955 0.956194 0.335499
Si Si7 0.455721 0.714141 0.765050
Si Si8 0.107780 0.684734 0.727823
O O1 0.692522 0.258015 0.519073
O O2 0.481041 0.259598 0.568001
O O3 0.742889 0.035478 0.619930
O O4 0.939977 0.347575 0.796136
O O5 0.717532 0.409128 0.961791
O O6 0.713642 0.710575 0.940123
O O7 0.000000 0.500000 0.000000
O O8 0.647113 0.794117 0.209073
O O9 0.500000 0.500000 0.000000
O O10 0.271704 0.749041 0.907030
O O11 0.500000 0.500000 0.500000
O O12 0.455826 0.588289 0.662515
O O13 0.079043 0.462480 0.359368
O O14 0.377727 0.088075 0.625104
O O15 0.026218 0.174771 0.359441
O O16 0.592777 0.103995 0.255655
O O17 0.000000 0.000000 0.500000
O O18 0.264514 0.629828 0.720848
#
# Coordination Sequence:
#
# PCOD8034863 Si02
#       8
#     2   2   2   2   2   2   2   2
#     4  11  24  46  73 102 150 195 243 304 366 436
#     4  12  27  49  73 105 151 196 247 311 369 438
#     4  12  29  48  73 111 146 190 246 305 369 445
#     4  12  24  45  73 107 143 194 251 300 368 441
#     4  11  25  46  73 110 143 194 248 301 368 441
#     4  12  28  48  74 106 151 193 244 302 373 444
#     4  12  28  45  72 109 147 195 249 304 377 435
#     4  12  26  44  75 108 147 187 246 310 366 438
#
# _framework density 22.474716999999998
#
# number of rings (size 3 to 8) (size 9 to 14) (size 15 to 20)
#    0.000    0.250    6.250    1.875    7.000    0.500 
#    0.000    1.250    0.000    0.000    0.000    0.000 
#    0.000    0.000    0.000    0.000    0.000    0.000 
#
# Total GULP energy -198331.311676 kJ/mol
# GULP energy per Si atom -12395.706980 kJ/mol
# Density = 2.242356 g / cm^3
# Si number density = 22.474717 Si / 1000 Ang^3
#
#
#
# Elastic Constant Matrix: (Units=GPa)
#
#
# Indices 1 2 3 4 5 6 
#
# 1 157.7886 42.1542 42.4352 -0.6477 -2.0807 9.7877
# 2 42.1542 89.8689 43.6852 -7.9693 0.4085 0.8798
# 3 42.4352 43.6852 126.6641 2.9873 -1.6647 3.2846
# 4 -0.6477 -7.9693 2.9873 48.0194 -0.3013 -1.5707
# 5 -2.0807 0.4085 -1.6647 -0.3013 36.1901 -3.9879
# 6 9.7877 0.8798 3.2846 -1.5707 -3.9879 40.2079
#
#
#
# Elastic Compliance Matrix: (Units=1/GPa)
#
#
# Indices 1 2 3 4 5 6 
#
# 1 0.007610 -0.002847 -0.001514 -0.000329 0.000215 -0.001658
# 2 -0.002847 0.014748 -0.004222 0.002695 -0.000416 0.000779
# 3 -0.001514 -0.004222 0.009904 -0.001347 0.000365 -0.000365
# 4 -0.000329 0.002695 -0.001347 0.021385 0.000175 0.000984
# 5 0.000215 -0.000416 0.000365 0.000175 0.027966 0.002708
# 6 -0.001658 0.000779 -0.000365 0.000984 0.002708 0.025594
#
#
# Mechanical properties :
#
#
# Convention : Reuss Voigt Hill
#
# Bulk Modulus (GPa) = 66.24243 70.09674 68.16958
# Shear Modulus (GPa) = 38.63840 41.28661 39.96251
#
# Velocity S-wave (km/s) = 4.15081 4.29070 4.22134
# Velocity P-wave (km/s) = 7.24642 7.47019 7.35915
#
# Compressibility (1/GPa) = 0.01509606
#
# Stress axis : x y z
#
# Youngs Moduli (GPa) = 131.41016 67.80386 100.96785
#
# Poissons Ratio (x) = 0.19307 0.15285
# Poissons Ratio (y) = 0.37419 0.42627
# Poissons Ratio (z) = 0.19893 0.28626
#
# Static dielectric constant tensor:
#      x y z
#    x 4.276270 0.217090 -0.044470 
#    y 0.217090 4.355570 -0.244220 
#    z -0.044470 -0.244220 4.135930 
# 
# 
# High freq. dielectric constant tensor:
#      x y z
#    x 1.905910 0.011210 -0.003870 
#    y 0.011210 1.890920 -0.014360 
#    z -0.003870 -0.014360 1.884310 
# 
# From -- ./inp_files/208264.got.cif
#   From: 2010.06.25/outbox.cif.g09.slc.cpg/sg2_105_cif.got.tgz:208264.got - 2010.06.27 13:26:56.
