data_PCOD8034662
_publ_section_title
;
Structure prediction by ZEFSAII (Michael W. Deem and Ramdas Pophale) SiO2 
 PCOD8034662
Probable space group: P -1
;
_chemical_formula_sum "Si O2"
_cell_formula_units_Z 14
_cell_length_a 10.015147
_cell_length_b 18.179790
_cell_length_c 9.212873
_cell_angle_alpha 113.284131
_cell_angle_beta 53.318874
_cell_angle_gamma 150.210574
_cell_volume 635.618651
_symmetry_space_group_name_H-M "P -1"
_symmetry_group_IT_number 2
_symmetry_cell_setting 'triclinic'
loop_
_space_group_symop_operation_xyz
x,y,z
-x,-y,-z
loop_
_atom_site_type_symbol
_atom_site_label
_atom_site_fract_x
_atom_site_fract_y
_atom_site_fract_z
Si Si1 0.671890 0.866405 0.693053
Si Si2 0.809958 0.387161 0.725675
Si Si3 0.806503 0.126021 0.295665
Si Si4 0.818223 0.309872 0.376592
Si Si5 0.563488 0.691655 0.844074
Si Si6 0.803681 0.571755 0.309044
Si Si7 0.491670 0.926728 0.063554
O O1 0.415130 0.790090 0.684987
O O2 0.601078 0.749330 0.708678
O O3 0.670559 0.924728 0.876422
O O4 0.000000 0.000000 0.500000
O O5 0.650009 0.271909 0.605900
O O6 0.893526 0.510113 0.707774
O O7 0.114056 0.460823 0.646036
O O8 0.557796 0.294782 0.947396
O O9 0.942134 0.270899 0.289027
O O10 0.092414 0.198856 0.247140
O O11 0.500000 0.000000 0.500000
O O12 0.709959 0.040397 0.146467
O O13 0.297511 0.512836 0.843589
O O14 0.500000 0.500000 0.500000
O O15 0.120774 0.756287 0.218392
O O16 0.500000 0.000000 0.000000
#
# Coordination Sequence:
#
# PCOD8034662 Si02
#       7
#     2   2   2   2   2   2   2
#     4  12  26  45  73 103 146 191 243 298 362 433
#     4  11  24  45  74 103 140 186 244 304 356 424
#     4  12  27  48  70 107 150 189 235 298 370 436
#     4  11  24  46  69 102 146 184 241 298 357 434
#     4  12  26  46  77 104 141 194 248 297 362 432
#     4  12  25  47  76 107 145 191 243 301 367 436
#     4  12  27  47  73 106 149 191 240 298 367 437
#
# _framework density 22.025784000000002
#
# number of rings (size 3 to 8) (size 9 to 14) (size 15 to 20)
#    0.000    0.286    4.286    4.714    4.000    1.143 
#    2.571    0.000    0.000    0.000    0.000    0.000 
#    0.000    0.000    0.000    0.000    0.000    0.000 
#
# Total GULP energy -173600.665251 kJ/mol
# GULP energy per Si atom -12400.047518 kJ/mol
# Density = 2.197565 g / cm^3
# Si number density = 22.025784 Si / 1000 Ang^3
#
#
#
# Elastic Constant Matrix: (Units=GPa)
#
#
# Indices 1 2 3 4 5 6 
#
# 1 117.4445 17.9998 39.2766 -3.4066 -7.5498 -5.7902
# 2 17.9998 85.0218 35.8760 15.8689 -0.7840 -12.3416
# 3 39.2766 35.8760 131.1265 11.5152 -4.8170 -3.0783
# 4 -3.4066 15.8689 11.5152 46.7179 5.0221 8.9934
# 5 -7.5498 -0.7840 -4.8170 5.0221 38.9908 0.3861
# 6 -5.7902 -12.3416 -3.0783 8.9934 0.3861 29.1260
#
#
#
# Elastic Compliance Matrix: (Units=1/GPa)
#
#
# Indices 1 2 3 4 5 6 
#
# 1 0.009742 -0.001084 -0.002683 0.001456 0.001338 0.000726
# 2 -0.001084 0.015667 -0.003215 -0.006192 0.000426 0.007990
# 3 -0.002683 -0.003215 0.009452 -0.001427 0.000772 -0.000466
# 4 0.001456 -0.006192 -0.001427 0.026359 -0.003309 -0.010580
# 5 0.001338 0.000426 0.000772 -0.003309 0.026424 0.001200
# 6 0.000726 0.007990 -0.000466 -0.010580 0.001200 0.041065
#
#
# Mechanical properties :
#
#
# Convention : Reuss Voigt Hill
#
# Bulk Modulus (GPa) = 47.85328 57.76637 52.80983
# Shear Modulus (GPa) = 33.41347 38.99631 36.20489
#
# Velocity S-wave (km/s) = 3.89911 4.21228 4.05872
# Velocity P-wave (km/s) = 6.48413 7.06692 6.78179
#
# Compressibility (1/GPa) = 0.02089721
#
# Stress axis : x y z
#
# Youngs Moduli (GPa) = 102.64579 63.82749 105.79621
#
# Poissons Ratio (x) = 0.06921 0.28386
# Poissons Ratio (y) = 0.11131 0.34010
# Poissons Ratio (z) = 0.27541 0.20519
#
# Static dielectric constant tensor:
#      x y z
#    x 4.209160 -0.276910 0.066200 
#    y -0.276910 4.244330 0.444480 
#    z 0.066200 0.444480 4.095070 
# 
# 
# High freq. dielectric constant tensor:
#      x y z
#    x 1.882030 -0.008110 0.010660 
#    y -0.008110 1.870200 0.020470 
#    z 0.010660 0.020470 1.873360 
# 
# From -- ./inp_files/159509.got.cif
#   From: 2010.06.25/outbox.cif.g09.slc.cpg/sg2_80_cif.got.tgz:159509.got - 2010.06.27 13:26:56.
