data_PCOD8034508
_publ_section_title
;
Structure prediction by ZEFSAII (Michael W. Deem and Ramdas Pophale) SiO2 
 PCOD8034508
Probable space group: P -1
;
_chemical_formula_sum "Si O2"
_cell_formula_units_Z 16
_cell_length_a 7.866102
_cell_length_b 10.585427
_cell_length_c 16.002997
_cell_angle_alpha 56.752231
_cell_angle_beta 53.563647
_cell_angle_gamma 44.127221
_cell_volume 728.500166
_symmetry_space_group_name_H-M "P -1"
_symmetry_group_IT_number 2
_symmetry_cell_setting 'triclinic'
loop_
_space_group_symop_operation_xyz
x,y,z
-x,-y,-z
loop_
_atom_site_type_symbol
_atom_site_label
_atom_site_fract_x
_atom_site_fract_y
_atom_site_fract_z
Si Si1 0.292474 0.888345 0.921492
Si Si2 0.569669 0.562106 0.231471
Si Si3 0.338122 0.211057 0.998653
Si Si4 0.000197 0.877420 0.318770
Si Si5 0.816217 0.254187 0.150900
Si Si6 0.731429 0.478735 0.389251
Si Si7 0.138032 0.086630 0.468231
Si Si8 0.332864 0.146693 0.697072
O O1 0.513671 0.774798 0.969633
O O2 0.311293 0.745206 0.899829
O O3 0.342213 0.032556 0.815406
O O4 0.000000 0.000000 0.000000
O O5 0.300806 0.713288 0.301485
O O6 0.575613 0.421056 0.214643
O O7 0.746487 0.431017 0.304148
O O8 0.671205 0.669140 0.118101
O O9 0.036202 0.293467 0.070015
O O10 0.500000 0.000000 0.000000
O O11 0.845989 0.941352 0.427212
O O12 0.908854 0.786354 0.315664
O O13 0.960033 0.055021 0.223793
O O14 0.500000 0.500000 0.500000
O O15 0.700432 0.670378 0.330126
O O16 0.996465 0.304633 0.413285
O O17 0.419511 0.984612 0.384981
O O18 0.000000 0.000000 0.500000
#
# Coordination Sequence:
#
# PCOD8034508 Si02
#       8
#     2   2   2   2   2   2   2   2
#     4  11  24  46  73 103 141 186 234 288 355 415
#     4  12  25  45  68 102 139 182 236 283 351 418
#     4  12  22  43  73  98 140 186 232 295 350 412
#     4  11  24  45  69  96 141 181 223 293 351 413
#     4  11  26  44  70 104 141 185 235 292 350 419
#     4  12  25  44  69 101 138 182 229 287 342 414
#     4  12  24  43  71 100 134 182 234 282 348 419
#     4  11  26  44  70 104 135 182 232 288 353 417
#
# _framework density 21.962934000000001
#
# number of rings (size 3 to 8) (size 9 to 14) (size 15 to 20)
#    0.000    0.500    5.000    3.000    3.500    3.000 
#    0.000    0.000    0.000    0.000    0.000    0.000 
#    0.000    0.000    0.000    0.000    0.000    0.000 
#
# Total GULP energy -198377.989788 kJ/mol
# GULP energy per Si atom -12398.624362 kJ/mol
# Density = 2.191295 g / cm^3
# Si number density = 21.962934 Si / 1000 Ang^3
#
#
#
# Elastic Constant Matrix: (Units=GPa)
#
#
# Indices 1 2 3 4 5 6 
#
# 1 88.1629 10.1278 47.0597 -10.4913 5.9786 11.8520
# 2 10.1278 82.7261 13.5912 14.8692 -5.1942 17.3554
# 3 47.0597 13.5912 127.6008 8.5718 5.5793 6.1141
# 4 -10.4913 14.8692 8.5718 24.0892 0.9568 5.9601
# 5 5.9786 -5.1942 5.5793 0.9568 39.6186 3.0521
# 6 11.8520 17.3554 6.1141 5.9601 3.0521 35.4259
#
#
#
# Elastic Compliance Matrix: (Units=1/GPa)
#
#
# Indices 1 2 3 4 5 6 
#
# 1 0.017667 -0.002325 -0.006790 0.013013 -0.001896 -0.005626
# 2 -0.002325 0.015375 -0.000028 -0.009264 0.003014 -0.005451
# 3 -0.006790 -0.000028 0.010765 -0.007166 -0.000451 0.001672
# 4 0.013013 -0.009264 -0.007166 0.057546 -0.002942 -0.008006
# 5 -0.001896 0.003014 -0.000451 -0.002942 0.026251 -0.002531
# 6 -0.005626 -0.005451 0.001672 -0.008006 -0.002531 0.034057
#
#
# Mechanical properties :
#
#
# Convention : Reuss Voigt Hill
#
# Bulk Modulus (GPa) = 39.18353 48.89413 44.03883
# Shear Modulus (GPa) = 26.53139 35.00747 30.76943
#
# Velocity S-wave (km/s) = 3.47941 3.99674 3.74702
# Velocity P-wave (km/s) = 5.83277 6.60371 6.23018
#
# Compressibility (1/GPa) = 0.02552093
#
# Stress axis : x y z
#
# Youngs Moduli (GPa) = 56.60132 65.03921 92.89279
#
# Poissons Ratio (x) = 0.15122 0.63073
# Poissons Ratio (y) = 0.13161 0.00264
# Poissons Ratio (z) = 0.38432 0.00185
#
# Static dielectric constant tensor:
#      x y z
#    x 4.024190 0.217500 0.143650 
#    y 0.217500 4.007550 -0.017460 
#    z 0.143650 -0.017460 4.114950 
# 
# 
# High freq. dielectric constant tensor:
#      x y z
#    x 1.863300 0.008010 0.006530 
#    y 0.008010 1.869300 0.002610 
#    z 0.006530 0.002610 1.883170 
# 
# From -- ./inp_files/499995.got.cif
#   From: 2010.06.25/outbox.cif.g09.slc.cpg/sg2_250_cif.got.tgz:499995.got - 2010.06.27 13:26:56.
