data_PCOD8034497
_publ_section_title
;
Structure prediction by ZEFSAII (Michael W. Deem and Ramdas Pophale) SiO2 
 PCOD8034497
Probable space group: P -1
;
_chemical_formula_sum "Si O2"
_cell_formula_units_Z 14
_cell_length_a 7.112264
_cell_length_b 11.757268
_cell_length_c 11.169127
_cell_angle_alpha 48.596829
_cell_angle_beta 112.843354
_cell_angle_gamma 98.941835
_cell_volume 638.631687
_symmetry_space_group_name_H-M "P -1"
_symmetry_group_IT_number 2
_symmetry_cell_setting 'triclinic'
loop_
_space_group_symop_operation_xyz
x,y,z
-x,-y,-z
loop_
_atom_site_type_symbol
_atom_site_label
_atom_site_fract_x
_atom_site_fract_y
_atom_site_fract_z
Si Si1 0.687957 0.798992 0.213570
Si Si2 0.897090 0.161318 0.410258
Si Si3 0.362600 0.968919 0.166740
Si Si4 0.843393 0.610536 0.802693
Si Si5 0.454425 0.140397 0.299929
Si Si6 0.138353 0.750836 0.401105
Si Si7 0.497408 0.487607 0.651448
O O1 0.540375 0.684030 0.203410
O O2 0.913882 0.702565 0.356028
O O3 0.589803 0.872474 0.263052
O O4 0.714334 0.937658 0.035168
O O5 0.665803 0.202362 0.272923
O O6 0.880366 0.141462 0.562315
O O7 0.026215 0.295427 0.316497
O O8 0.000000 0.000000 0.500000
O O9 0.360230 0.085205 0.194097
O O10 0.208514 0.846700 0.240173
O O11 0.700285 0.722502 0.777126
O O12 0.708176 0.518047 0.745947
O O13 0.000000 0.500000 0.000000
O O14 0.500000 0.000000 0.500000
O O15 0.305686 0.604214 0.572998
O O16 0.500000 0.500000 0.500000
#
# Coordination Sequence:
#
# PCOD8034497 Si02
#       7
#     2   2   2   2   2   2   2
#     4  11  26  43  71 103 140 184 233 295 362 414
#     4  12  24  42  77 101 136 188 242 287 355 422
#     4  11  24  45  69 104 144 174 239 301 352 414
#     4  12  29  48  69 110 149 188 237 303 363 423
#     4  12  23  46  74 103 141 186 241 295 349 435
#     4  12  23  44  72 101 135 185 238 287 354 424
#     4  12  25  48  70  98 147 188 237 287 349 438
#
# _framework density 21.921869999999998
#
# number of rings (size 3 to 8) (size 9 to 14) (size 15 to 20)
#    0.000    0.286    5.714    2.571    2.000    2.857 
#    2.571    0.000    0.000    0.000    0.000    0.000 
#    0.000    0.000    0.000    0.000    0.000    0.000 
#
# Total GULP energy -173623.161420 kJ/mol
# GULP energy per Si atom -12401.654387 kJ/mol
# Density = 2.187198 g / cm^3
# Si number density = 21.921870 Si / 1000 Ang^3
#
#
#
# Elastic Constant Matrix: (Units=GPa)
#
#
# Indices 1 2 3 4 5 6 
#
# 1 130.7909 43.3173 41.8012 -2.4751 13.8509 -4.1991
# 2 43.3173 113.9887 35.5337 3.8903 4.8281 -3.8975
# 3 41.8012 35.5337 89.4763 -8.7445 8.2488 -4.6537
# 4 -2.4751 3.8903 -8.7445 35.8784 3.3560 -0.3314
# 5 13.8509 4.8281 8.2488 3.3560 42.1895 1.9630
# 6 -4.1991 -3.8975 -4.6537 -0.3314 1.9630 47.1495
#
#
#
# Elastic Compliance Matrix: (Units=1/GPa)
#
#
# Indices 1 2 3 4 5 6 
#
# 1 0.009827 -0.002612 -0.003278 0.000385 -0.002337 0.000436
# 2 -0.002612 0.010873 -0.003338 -0.002210 0.000427 0.000303
# 3 -0.003278 -0.003338 0.014624 0.003873 -0.001755 0.000976
# 4 0.000385 -0.002210 0.003873 0.029367 -0.002993 0.000565
# 5 -0.002337 0.000427 -0.001755 -0.002993 0.025068 -0.001411
# 6 0.000436 0.000303 0.000976 0.000565 -0.001411 0.021432
#
#
# Mechanical properties :
#
#
# Convention : Reuss Voigt Hill
#
# Bulk Modulus (GPa) = 59.27740 63.95117 61.61429
# Shear Modulus (GPa) = 36.96303 39.28371 38.12337
#
# Velocity S-wave (km/s) = 4.11070 4.23778 4.17472
# Velocity P-wave (km/s) = 7.04482 7.29251 7.16973
#
# Compressibility (1/GPa) = 0.01686984
#
# Stress axis : x y z
#
# Youngs Moduli (GPa) = 101.75707 91.96708 68.38047
#
# Poissons Ratio (x) = 0.24021 0.22416
# Poissons Ratio (y) = 0.26578 0.22822
# Poissons Ratio (z) = 0.33357 0.30694
#
# Static dielectric constant tensor:
#      x y z
#    x 4.253480 -0.045090 0.099660 
#    y -0.045090 4.034910 -0.017830 
#    z 0.099660 -0.017830 3.627820 
# 
# 
# High freq. dielectric constant tensor:
#      x y z
#    x 1.888420 -0.002910 -0.003690 
#    y -0.002910 1.870060 -0.004110 
#    z -0.003690 -0.004110 1.843900 
# 
# From -- ./inp_files/363741.got.cif
#   From: 2010.06.25/outbox.cif.g09.slc.cpg/sg2_182_cif.got.tgz:363741.got - 2010.06.27 13:26:56.
