data_PCOD8034751
_publ_section_title
;
Structure prediction by ZEFSAII (Michael W. Deem and Ramdas Pophale) SiO2 
 PCOD8034751
Probable space group: P -1
;
_chemical_formula_sum "Si O2"
_cell_formula_units_Z 12
_cell_length_a 6.861010
_cell_length_b 8.737333
_cell_length_c 18.090019
_cell_angle_alpha 52.917173
_cell_angle_beta 132.393857
_cell_angle_gamma 95.495430
_cell_volume 542.811503
_symmetry_space_group_name_H-M "P -1"
_symmetry_group_IT_number 2
_symmetry_cell_setting 'triclinic'
loop_
_space_group_symop_operation_xyz
x,y,z
-x,-y,-z
loop_
_atom_site_type_symbol
_atom_site_label
_atom_site_fract_x
_atom_site_fract_y
_atom_site_fract_z
Si Si1 0.311365 0.711293 0.943695
Si Si2 0.391468 0.928846 0.386202
Si Si3 0.829973 0.740154 0.425892
Si Si4 0.739890 0.315400 0.896180
Si Si5 0.603999 0.242727 0.407520
Si Si6 0.566511 0.996386 0.881945
O O1 0.493650 0.843362 0.960124
O O2 0.500000 0.500000 0.000000
O O3 0.313245 0.609121 0.053903
O O4 0.963627 0.879943 0.776582
O O5 0.561472 0.770219 0.404745
O O6 0.423517 0.763455 0.508763
O O7 0.585094 0.043960 0.423035
O O8 0.677091 0.927536 0.268915
O O9 0.000000 0.500000 0.500000
O O10 0.068863 0.781907 0.520083
O O11 0.665093 0.520026 0.763383
O O12 0.528501 0.210569 0.853968
O O13 0.097607 0.132986 0.030680
#
# Coordination Sequence:
#
# PCOD8034751 Si02
#       6
#     2   2   2   2   2   2
#     4  12  26  44  73 104 137 182 228 278 347 407
#     4  11  26  46  69 102 142 177 229 286 335 409
#     4  12  24  46  72 102 135 184 227 281 346 403
#     4  11  25  46  71 101 139 180 230 283 338 404
#     4  11  25  45  72 102 135 183 229 280 344 401
#     4  11  24  46  69 101 140 181 228 282 340 402
#
# _framework density 22.107120999999999
#
# number of rings (size 3 to 8) (size 9 to 14) (size 15 to 20)
#    0.000    0.667    5.000    2.000    2.333    6.000 
#    6.000    0.000    0.000    0.000    0.000    0.000 
#    0.000    0.000    0.000    0.000    0.000    0.000 
#
# Total GULP energy -148827.082322 kJ/mol
# GULP energy per Si atom -12402.256860 kJ/mol
# Density = 2.205680 g / cm^3
# Si number density = 22.107121 Si / 1000 Ang^3
#
#
#
# Elastic Constant Matrix: (Units=GPa)
#
#
# Indices 1 2 3 4 5 6 
#
# 1 123.8167 48.7924 55.2076 -9.5768 -6.0702 -19.0321
# 2 48.7924 79.2174 41.2181 -2.0341 0.1026 -4.1609
# 3 55.2076 41.2181 123.3898 -5.8502 -16.6456 -14.7619
# 4 -9.5768 -2.0341 -5.8502 32.8557 5.8411 3.0569
# 5 -6.0702 0.1026 -16.6456 5.8411 42.1605 0.5121
# 6 -19.0321 -4.1609 -14.7619 3.0569 0.5121 45.6459
#
#
#
# Elastic Compliance Matrix: (Units=1/GPa)
#
#
# Indices 1 2 3 4 5 6 
#
# 1 0.012484 -0.005848 -0.003068 0.002362 0.000230 0.003519
# 2 -0.005848 0.018219 -0.004064 -0.000691 -0.002370 -0.002019
# 3 -0.003068 -0.004064 0.011640 -0.000002 0.004139 0.002068
# 4 0.002362 -0.000691 -0.000002 0.031913 -0.004066 -0.001170
# 5 0.000230 -0.002370 0.004139 -0.004066 0.025941 0.001200
# 6 0.003519 -0.002019 0.002068 -0.001170 0.001200 0.023925
#
#
# Mechanical properties :
#
#
# Convention : Reuss Voigt Hill
#
# Bulk Modulus (GPa) = 61.03401 68.54002 64.78701
# Shear Modulus (GPa) = 32.14569 36.21282 34.17926
#
# Velocity S-wave (km/s) = 3.81739 4.05169 3.93628
# Velocity P-wave (km/s) = 6.86281 7.27730 7.07309
#
# Compressibility (1/GPa) = 0.01638431
#
# Stress axis : x y z
#
# Youngs Moduli (GPa) = 80.10445 54.88817 85.90797
#
# Poissons Ratio (x) = 0.32096 0.26357
# Poissons Ratio (y) = 0.46841 0.34910
# Poissons Ratio (z) = 0.24577 0.22305
#
# Static dielectric constant tensor:
#      x y z
#    x 4.005750 0.148380 -0.031710 
#    y 0.148380 3.964180 0.188690 
#    z -0.031710 0.188690 4.076640 
# 
# 
# High freq. dielectric constant tensor:
#      x y z
#    x 1.875990 0.006460 -0.000250 
#    y 0.006460 1.866780 0.008960 
#    z -0.000250 0.008960 1.881070 
# 
# From -- ./inp_files/21753.got.cif
#   From: 2010.06.25/outbox.cif.g09.slc.cpg/sg2_11_cif.got.tgz:21753.got - 2010.06.27 13:26:56.
