data_PCOD8034648
_publ_section_title
;
Structure prediction by ZEFSAII (Michael W. Deem and Ramdas Pophale) SiO2 
 PCOD8034648
Probable space group: P -1
;
_chemical_formula_sum "Si O2"
_cell_formula_units_Z 16
_cell_length_a 8.839046
_cell_length_b 7.864160
_cell_length_c 18.242759
_cell_angle_alpha 111.402156
_cell_angle_beta 112.339106
_cell_angle_gamma 34.668991
_cell_volume 663.889401
_symmetry_space_group_name_H-M "P -1"
_symmetry_group_IT_number 2
_symmetry_cell_setting 'triclinic'
loop_
_space_group_symop_operation_xyz
x,y,z
-x,-y,-z
loop_
_atom_site_type_symbol
_atom_site_label
_atom_site_fract_x
_atom_site_fract_y
_atom_site_fract_z
Si Si1 0.626075 0.480066 0.949796
Si Si2 0.656051 0.833306 0.799411
Si Si3 0.811515 0.654156 0.096083
Si Si4 0.094787 0.032407 0.867487
Si Si5 0.932221 0.574127 0.583823
Si Si6 0.508116 0.169762 0.678063
Si Si7 0.735856 0.338516 0.717196
Si Si8 0.784802 0.301926 0.552843
O O1 0.876842 0.150869 0.906398
O O2 0.390434 0.687987 0.878265
O O3 0.500000 0.500000 0.000000
O O4 0.722167 0.595070 0.007461
O O5 0.622302 0.645137 0.750868
O O6 0.943766 0.634538 0.854325
O O7 0.433848 0.092141 0.855642
O O8 0.626358 0.973664 0.741942
O O9 0.898281 0.756985 0.084492
O O10 0.003059 0.075008 0.774312
O O11 0.825556 0.479797 0.580733
O O12 0.000000 0.500000 0.500000
O O13 0.198237 0.391365 0.648590
O O14 0.694656 0.931760 0.608086
O O15 0.521019 0.379024 0.712546
O O16 0.816125 0.221759 0.630689
O O17 0.500000 0.500000 0.500000
O O18 0.000000 0.000000 0.500000
#
# Coordination Sequence:
#
# PCOD8034648 Si02
#       8
#     2   2   2   2   2   2   2   2
#     4  12  26  43  71 105 143 183 240 295 357 427
#     4  11  25  45  72 107 138 191 236 299 351 432
#     4  11  24  45  73  97 144 183 241 289 357 420
#     4  11  25  45  69 103 138 192 233 296 354 433
#     4  12  25  47  71 107 144 184 241 293 362 428
#     4  12  26  44  73 100 147 183 234 300 355 426
#     4  11  27  47  74 106 146 186 245 292 367 424
#     4  12  26  46  74 106 144 190 239 294 352 425
#
# _framework density 24.100401000000002
#
# number of rings (size 3 to 8) (size 9 to 14) (size 15 to 20)
#    0.000    0.500    1.250    6.750    5.250    4.000 
#    0.000    0.000    0.000    0.000    0.000    0.000 
#    0.000    0.000    0.000    0.000    0.000    0.000 
#
# Total GULP energy -198452.800447 kJ/mol
# GULP energy per Si atom -12403.300028 kJ/mol
# Density = 2.404555 g / cm^3
# Si number density = 24.100401 Si / 1000 Ang^3
#
#
#
# Elastic Constant Matrix: (Units=GPa)
#
#
# Indices 1 2 3 4 5 6 
#
# 1 137.4421 33.5044 35.4809 -19.9473 2.7104 -6.5274
# 2 33.5044 113.0501 49.1920 -4.8187 12.0346 -30.5990
# 3 35.4809 49.1920 109.4579 -15.4279 -4.1152 -12.2321
# 4 -19.9473 -4.8187 -15.4279 46.9845 -5.2486 -0.8731
# 5 2.7104 12.0346 -4.1152 -5.2486 42.3607 -3.3163
# 6 -6.5274 -30.5990 -12.2321 -0.8731 -3.3163 43.3209
#
#
#
# Elastic Compliance Matrix: (Units=1/GPa)
#
#
# Indices 1 2 3 4 5 6 
#
# 1 0.008533 -0.001847 -0.001560 0.002932 0.000160 -0.000388
# 2 -0.001847 0.014178 -0.005225 -0.001341 -0.003963 0.007930
# 3 -0.001560 -0.005225 0.012566 0.003285 0.003207 -0.000066
# 4 0.002932 -0.001341 0.003285 0.023889 0.003565 0.001176
# 5 0.000160 -0.003963 0.003207 0.003565 0.025487 0.000154
# 6 -0.000388 0.007930 -0.000066 0.001176 0.000154 0.028643
#
#
# Mechanical properties :
#
#
# Convention : Reuss Voigt Hill
#
# Bulk Modulus (GPa) = 55.51643 66.25609 60.88626
# Shear Modulus (GPa) = 36.61285 42.65141 39.63213
#
# Velocity S-wave (km/s) = 3.90189 4.21139 4.05959
# Velocity P-wave (km/s) = 6.58674 7.15536 6.87693
#
# Compressibility (1/GPa) = 0.01801268
#
# Stress axis : x y z
#
# Youngs Moduli (GPa) = 117.19706 70.53365 79.58087
#
# Poissons Ratio (x) = 0.13029 0.12414
# Poissons Ratio (y) = 0.21649 0.41578
# Poissons Ratio (z) = 0.18281 0.36851
#
# Static dielectric constant tensor:
#      x y z
#    x 4.043900 0.441970 1.150890 
#    y 0.441970 4.018200 -1.023990 
#    z 1.150890 -1.023990 4.340230 
# 
# 
# High freq. dielectric constant tensor:
#      x y z
#    x 1.972610 -0.009950 -0.002190 
#    y -0.009950 1.958150 -0.003410 
#    z -0.002190 -0.003410 1.971340 
# 
# From -- ./inp_files/217592.got.cif
#   From: 2010.06.25/outbox.cif.g09.slc.cpg/sg2_109_cif.got.tgz:217592.got - 2010.06.27 13:26:56.
