data_PCOD8034477
_publ_section_title
;
Structure prediction by ZEFSAII (Michael W. Deem and Ramdas Pophale) SiO2 
 PCOD8034477
Probable space group: P -1
;
_chemical_formula_sum "Si O2"
_cell_formula_units_Z 12
_cell_length_a 6.936110
_cell_length_b 6.936192
_cell_length_c 13.752438
_cell_angle_alpha 90.480793
_cell_angle_beta 90.478322
_cell_angle_gamma 62.959507
_cell_volume 589.277984
_symmetry_space_group_name_H-M "P -1"
_symmetry_group_IT_number 2
_symmetry_cell_setting 'triclinic'
loop_
_space_group_symop_operation_xyz
x,y,z
-x,-y,-z
loop_
_atom_site_type_symbol
_atom_site_label
_atom_site_fract_x
_atom_site_fract_y
_atom_site_fract_z
Si Si1 0.883558 0.865461 0.788758
Si Si2 0.397026 0.684746 0.127736
Si Si3 0.634749 0.616526 0.711217
Si Si4 0.087708 0.658775 0.460563
Si Si5 0.815033 0.103019 0.372314
Si Si6 0.158712 0.587782 0.960542
O O1 0.805459 0.694736 0.749940
O O2 0.002420 0.925392 0.704447
O O3 0.048409 0.762714 0.877133
O O4 0.677073 0.083377 0.822170
O O5 0.425301 0.502009 0.204365
O O6 0.628680 0.618102 0.079216
O O7 0.220248 0.706438 0.046934
O O8 0.737579 0.451311 0.622960
O O9 0.416925 0.822943 0.677676
O O10 0.206525 0.720082 0.546964
O O11 0.000000 0.500000 0.500000
O O12 0.881738 0.871474 0.420948
O O13 0.000000 0.500000 0.000000
#
# Coordination Sequence:
#
# PCOD8034477 Si02
#       6
#     2   2   2   2   2   2
#     4  12  24  42  68  98 132 173 219 264 325 389
#     4  11  25  43  67  98 132 172 217 269 326 382
#     4  12  24  42  68  98 132 173 219 264 325 389
#     4  11  24  45  68  96 134 171 217 272 323 383
#     4  11  25  43  67  98 132 172 217 269 326 382
#     4  11  24  45  68  96 134 171 217 272 323 383
#
# _framework density 20.363902
#
# number of rings (size 3 to 8) (size 9 to 14) (size 15 to 20)
#    0.000    0.667    6.667    1.000    0.000    5.333 
#    0.000    0.000    0.000    0.000    0.000    0.000 
#    0.000    0.000    0.000    0.000    0.000    0.000 
#
# Total GULP energy -148895.061762 kJ/mol
# GULP energy per Si atom -12407.921814 kJ/mol
# Density = 2.031755 g / cm^3
# Si number density = 20.363902 Si / 1000 Ang^3
#
#
#
# Elastic Constant Matrix: (Units=GPa)
#
#
# Indices 1 2 3 4 5 6 
#
# 1 103.1938 36.2912 42.1043 -2.3410 -4.5306 -3.4933
# 2 36.2912 105.2231 41.9434 0.8328 2.6234 0.6573
# 3 42.1043 41.9434 118.5335 -1.1435 -1.3920 0.2035
# 4 -2.3410 0.8328 -1.1435 36.3653 -10.9808 -6.2908
# 5 -4.5306 2.6234 -1.3920 -10.9808 28.4245 -8.4675
# 6 -3.4933 0.6573 0.2035 -6.2908 -8.4675 29.0371
#
#
#
# Elastic Compliance Matrix: (Units=1/GPa)
#
#
# Indices 1 2 3 4 5 6 
#
# 1 0.012479 -0.003153 -0.003249 0.002602 0.004128 0.003363
# 2 -0.003153 0.011952 -0.003159 -0.001821 -0.003032 -0.001907
# 3 -0.003249 -0.003159 0.010715 0.000256 0.000324 -0.000244
# 4 0.002602 -0.001821 0.000256 0.035569 0.018329 0.013403
# 5 0.004128 -0.003032 0.000324 0.018329 0.048806 0.018766
# 6 0.003363 -0.001907 -0.000244 0.013403 0.018766 0.043264
#
#
# Mechanical properties :
#
#
# Convention : Reuss Voigt Hill
#
# Bulk Modulus (GPa) = 62.40877 63.06979 62.73928
# Shear Modulus (GPa) = 26.70225 32.53948 29.62086
#
# Velocity S-wave (km/s) = 3.62505 4.00171 3.81803
# Velocity P-wave (km/s) = 6.94512 7.23811 7.09312
#
# Compressibility (1/GPa) = 0.01602339
#
# Stress axis : x y z
#
# Youngs Moduli (GPa) = 80.13297 83.66491 93.32591
#
# Poissons Ratio (x) = 0.26383 0.30323
# Poissons Ratio (y) = 0.25269 0.29483
# Poissons Ratio (z) = 0.26036 0.26431
#
# Static dielectric constant tensor:
#      x y z
#    x 3.555040 -0.134980 0.007120 
#    y -0.134980 3.653320 0.004540 
#    z 0.007120 0.004540 4.117180 
# 
# 
# High freq. dielectric constant tensor:
#      x y z
#    x 1.794620 -0.007180 -0.002510 
#    y -0.007180 1.799850 -0.001770 
#    z -0.002510 -0.001770 1.821070 
# 
# From -- ./inp_files/3392.got.cif
#   From: 2010.06.25/outbox.cif.g09.slc.cpg/sg2_2_cif.got.tgz:3392.got - 2010.06.27 13:26:56.
