data_PCOD8034612
_publ_section_title
;
Structure prediction by ZEFSAII (Michael W. Deem and Ramdas Pophale) SiO2 
 PCOD8034612
Probable space group: P -1
;
_chemical_formula_sum "Si O2"
_cell_formula_units_Z 16
_cell_length_a 9.115214
_cell_length_b 11.225933
_cell_length_c 17.492220
_cell_angle_alpha 32.730189
_cell_angle_beta 48.313896
_cell_angle_gamma 61.158585
_cell_volume 709.451730
_symmetry_space_group_name_H-M "P -1"
_symmetry_group_IT_number 2
_symmetry_cell_setting 'triclinic'
loop_
_space_group_symop_operation_xyz
x,y,z
-x,-y,-z
loop_
_atom_site_type_symbol
_atom_site_label
_atom_site_fract_x
_atom_site_fract_y
_atom_site_fract_z
Si Si1 0.475338 0.092235 0.160614
Si Si2 0.909904 0.570723 0.616172
Si Si3 0.496722 0.619216 0.355174
Si Si4 0.796324 0.504500 0.204698
Si Si5 0.547261 0.484295 0.149085
Si Si6 0.843914 0.148139 0.493166
Si Si7 0.131667 0.270827 0.615428
Si Si8 0.774844 0.206311 0.115806
O O1 0.697011 0.196385 0.060257
O O2 0.467223 0.874039 0.229503
O O3 0.351687 0.018343 0.320176
O O4 0.384267 0.276140 0.045893
O O5 0.690822 0.551768 0.737884
O O6 0.940814 0.740060 0.441534
O O7 0.075102 0.666284 0.570687
O O8 0.958954 0.331004 0.699501
O O9 0.500000 0.500000 0.500000
O O10 0.709642 0.640031 0.228443
O O11 0.324238 0.471741 0.444046
O O12 0.656131 0.488987 0.188869
O O13 0.792677 0.256859 0.372773
O O14 0.019573 0.618340 0.043615
O O15 0.610998 0.288009 0.182772
O O16 0.000000 0.000000 0.500000
O O17 0.190774 0.037609 0.741335
#
# Coordination Sequence:
#
# PCOD8034612 Si02
#       8
#     2   2   2   2   2   2   2   2
#     4  12  26  45  75 102 147 185 237 297 353 425
#     4  11  25  45  72 104 144 180 243 285 364 412
#     4  12  22  47  72 105 138 187 241 293 351 422
#     4  12  27  46  72 107 144 187 241 291 358 420
#     4  12  28  47  72 109 147 186 236 299 355 423
#     4  12  25  45  73 101 142 189 237 289 355 426
#     4  11  24  45  72 106 137 188 236 298 343 427
#     4  12  27  46  74 103 150 187 242 285 361 422
#
# _framework density 22.552627000000001
#
# number of rings (size 3 to 8) (size 9 to 14) (size 15 to 20)
#    0.000    0.250    5.000    3.000    5.250    1.500 
#    0.000    0.000    0.000    0.000    0.000    0.000 
#    0.000    0.000    0.000    0.000    0.000    0.000 
#
# Total GULP energy -198432.531973 kJ/mol
# GULP energy per Si atom -12402.033248 kJ/mol
# Density = 2.250130 g / cm^3
# Si number density = 22.552627 Si / 1000 Ang^3
#
#
#
# Elastic Constant Matrix: (Units=GPa)
#
#
# Indices 1 2 3 4 5 6 
#
# 1 121.9735 18.5777 48.5272 -8.1273 24.9970 -1.5950
# 2 18.5777 152.2073 54.4277 -5.5448 21.3098 -27.5778
# 3 48.5272 54.4277 78.3383 -5.2593 20.1378 -2.8995
# 4 -8.1273 -5.5448 -5.2593 33.8236 -22.2407 0.0993
# 5 24.9970 21.3098 20.1378 -22.2407 43.6306 0.2311
# 6 -1.5950 -27.5778 -2.8995 0.0993 0.2311 38.4606
#
#
#
# Elastic Compliance Matrix: (Units=1/GPa)
#
#
# Indices 1 2 3 4 5 6 
#
# 1 0.011856 0.002212 -0.007621 -0.001275 -0.005013 0.001537
# 2 0.002212 0.010890 -0.007800 -0.001364 -0.003720 0.007338
# 3 -0.007621 -0.007800 0.023556 -0.001796 -0.003590 -0.004107
# 4 -0.001275 -0.001364 -0.001796 0.045469 0.025411 -0.001436
# 5 -0.005013 -0.003720 -0.003590 0.025411 0.042237 -0.003465
# 6 0.001537 0.007338 -0.004107 -0.001436 -0.003465 0.031041
#
#
# Mechanical properties :
#
#
# Convention : Reuss Voigt Hill
#
# Bulk Modulus (GPa) = 50.29314 66.17603 58.23458
# Shear Modulus (GPa) = 25.24035 38.58206 31.91120
#
# Velocity S-wave (km/s) = 3.34904 4.14062 3.76568
# Velocity P-wave (km/s) = 6.10766 7.22954 6.69215
#
# Compressibility (1/GPa) = 0.01988343
#
# Stress axis : x y z
#
# Youngs Moduli (GPa) = 84.34317 91.82830 42.45256
#
# Poissons Ratio (x) = -0.20313 0.32354
# Poissons Ratio (y) = -0.18657 0.33113
# Poissons Ratio (z) = 0.64281 0.71626
#
# Static dielectric constant tensor:
#      x y z
#    x 4.785790 0.164050 0.091380 
#    y 0.164050 4.440780 0.092930 
#    z 0.091380 0.092930 3.997740 
# 
# 
# High freq. dielectric constant tensor:
#      x y z
#    x 1.906120 -0.010800 0.005920 
#    y -0.010800 1.905450 0.004480 
#    z 0.005920 0.004480 1.878590 
# 
# From -- ./inp_files/446953.got.cif
#   From: 2010.06.25/outbox.cif.g09.slc.cpg/sg2_224_cif.got.tgz:446953.got - 2010.06.27 13:26:56.
