data_PCOD8034585
_publ_section_title
;
Structure prediction by ZEFSAII (Michael W. Deem and Ramdas Pophale) SiO2 
 PCOD8034585
Probable space group: P -1
;
_chemical_formula_sum "Si O2"
_cell_formula_units_Z 16
_cell_length_a 9.255078
_cell_length_b 12.868953
_cell_length_c 9.709931
_cell_angle_alpha 84.161722
_cell_angle_beta 132.893146
_cell_angle_gamma 68.506626
_cell_volume 675.739454
_symmetry_space_group_name_H-M "P -1"
_symmetry_group_IT_number 2
_symmetry_cell_setting 'triclinic'
loop_
_space_group_symop_operation_xyz
x,y,z
-x,-y,-z
loop_
_atom_site_type_symbol
_atom_site_label
_atom_site_fract_x
_atom_site_fract_y
_atom_site_fract_z
Si Si1 0.050791 0.576920 0.924281
Si Si2 0.479493 0.021200 0.643891
Si Si3 0.221175 0.354843 0.524138
Si Si4 0.943905 0.367426 0.589859
Si Si5 0.444243 0.604529 0.841069
Si Si6 0.051418 0.892596 0.656647
Si Si7 0.738776 0.148548 0.904777
Si Si8 0.041357 0.220531 0.951462
O O1 0.838781 0.675316 0.661967
O O2 0.286894 0.448921 0.024326
O O3 0.000000 0.500000 0.000000
O O4 0.085400 0.670279 0.025668
O O5 0.588733 0.096201 0.757196
O O6 0.198874 0.095353 0.500452
O O7 0.500000 0.000000 0.500000
O O8 0.662431 0.874025 0.839636
O O9 0.058947 0.510740 0.389081
O O10 0.503292 0.300509 0.743371
O O11 0.134967 0.300347 0.594485
O O12 0.681449 0.409031 0.368499
O O13 0.000591 0.274473 0.765600
O O14 0.280863 0.750832 0.774217
O O15 0.500000 0.500000 0.000000
O O16 0.124426 0.914614 0.852201
O O17 0.000000 0.000000 0.500000
O O18 0.931021 0.137110 0.919204
#
# Coordination Sequence:
#
# PCOD8034585 Si02
#       8
#     2   2   2   2   2   2   2   2
#     4  12  26  45  75 114 156 204 259 331 395 470
#     4  12  28  53  81 110 161 206 265 329 398 475
#     4  11  24  45  71 110 156 201 258 316 400 461
#     4  11  25  42  74 109 149 207 254 327 389 469
#     4  12  26  49  74 106 158 203 263 321 392 476
#     4  12  31  51  80 119 158 215 267 328 404 481
#     4  12  28  49  77 111 159 210 264 325 392 474
#     4  12  27  47  78 115 155 207 265 324 401 469
#
# _framework density 23.677766999999999
#
# number of rings (size 3 to 8) (size 9 to 14) (size 15 to 20)
#    0.000    0.250    3.750    4.125    8.750    1.500 
#    0.000    0.000    0.000    0.000    0.000    0.000 
#    0.000    0.000    0.000    0.000    0.000    0.000 
#
# Total GULP energy -198234.851828 kJ/mol
# GULP energy per Si atom -12389.678239 kJ/mol
# Density = 2.362388 g / cm^3
# Si number density = 23.677767 Si / 1000 Ang^3
#
#
#
# Elastic Constant Matrix: (Units=GPa)
#
#
# Indices 1 2 3 4 5 6 
#
# 1 151.5019 29.6362 79.8263 -3.4550 -17.7241 3.9513
# 2 29.6362 91.4875 38.7585 3.7911 -5.3071 4.0326
# 3 79.8263 38.7585 198.7633 1.1087 -22.5169 3.6842
# 4 -3.4550 3.7911 1.1087 46.0578 -1.9283 7.5248
# 5 -17.7241 -5.3071 -22.5169 -1.9283 58.3341 -9.4040
# 6 3.9513 4.0326 3.6842 7.5248 -9.4040 33.5217
#
#
#
# Elastic Compliance Matrix: (Units=1/GPa)
#
#
# Indices 1 2 3 4 5 6 
#
# 1 0.008678 -0.001467 -0.003051 0.000959 0.001299 -0.000362
# 2 -0.001467 0.012235 -0.001798 -0.000927 -0.000211 -0.000952
# 3 -0.003051 -0.001798 0.006780 -0.000231 0.001571 0.000323
# 4 0.000959 -0.000927 -0.000231 0.022694 0.000053 -0.005055
# 5 0.001299 -0.000211 0.001571 0.000053 0.018932 0.004999
# 6 -0.000362 -0.000952 0.000323 -0.005055 0.004999 0.032490
#
#
# Mechanical properties :
#
#
# Convention : Reuss Voigt Hill
#
# Bulk Modulus (GPa) = 66.38907 82.02163 74.20535
# Shear Modulus (GPa) = 41.85421 47.15151 44.50286
#
# Velocity S-wave (km/s) = 4.20891 4.46733 4.34005
# Velocity P-wave (km/s) = 7.19162 7.83105 7.51814
#
# Compressibility (1/GPa) = 0.01506272
#
# Stress axis : x y z
#
# Youngs Moduli (GPa) = 115.23026 81.72940 147.48943
#
# Poissons Ratio (x) = 0.11991 0.44994
# Poissons Ratio (y) = 0.16907 0.26514
# Poissons Ratio (z) = 0.35153 0.14692
#
# Static dielectric constant tensor:
#      x y z
#    x 4.157930 0.376130 -0.010350 
#    y 0.376130 2.547880 0.307150 
#    z -0.010350 0.307150 4.548710 
# 
# 
# High freq. dielectric constant tensor:
#      x y z
#    x 1.940300 -0.005950 0.001900 
#    y -0.005950 1.945340 -0.003150 
#    z 0.001900 -0.003150 1.963220 
# 
# From -- ./inp_files/207182.got.cif
#   From: 2010.06.25/outbox.cif.g09.slc.cpg/sg2_104_cif.got.tgz:207182.got - 2010.06.27 13:26:56.
