data_PCOD8034029
_publ_section_title
;
Structure prediction by ZEFSAII (Michael W. Deem and Ramdas Pophale) SiO2 
 PCOD8034029
Probable space group: P -1
;
_chemical_formula_sum "Si O2"
_cell_formula_units_Z 16
_cell_length_a 8.638657
_cell_length_b 14.698159
_cell_length_c 9.723301
_cell_angle_alpha 45.872871
_cell_angle_beta 99.430963
_cell_angle_gamma 73.003375
_cell_volume 715.886887
_symmetry_space_group_name_H-M "P -1"
_symmetry_group_IT_number 2
_symmetry_cell_setting 'triclinic'
loop_
_space_group_symop_operation_xyz
x,y,z
-x,-y,-z
loop_
_atom_site_type_symbol
_atom_site_label
_atom_site_fract_x
_atom_site_fract_y
_atom_site_fract_z
Si Si1 0.879466 0.949491 0.112332
Si Si2 0.036642 0.610408 0.081967
Si Si3 0.402068 0.827504 0.925787
Si Si4 0.293765 0.109551 0.107482
Si Si5 0.759885 0.289057 0.438603
Si Si6 0.569271 0.477321 0.685130
Si Si7 0.586074 0.155755 0.399597
Si Si8 0.796853 0.512557 0.050187
O O1 0.035324 0.785977 0.379262
O O2 0.749466 0.066524 0.091053
O O3 0.752346 0.935599 0.996719
O O4 0.000000 0.000000 0.000000
O O5 0.232913 0.536507 0.270675
O O6 0.935879 0.519127 0.173421
O O7 0.077854 0.605662 0.930459
O O8 0.896227 0.780666 0.945220
O O9 0.602398 0.807017 0.006389
O O10 0.344086 0.901682 0.686104
O O11 0.423951 0.665205 0.095066
O O12 0.427657 0.963166 0.381858
O O13 0.584423 0.356944 0.445923
O O14 0.754377 0.165498 0.476219
O O15 0.701690 0.438229 0.186595
O O16 0.500000 0.500000 0.500000
O O17 0.373532 0.315880 0.204842
#
# Coordination Sequence:
#
# PCOD8034029 Si02
#       8
#     2   2   2   2   2   2   2   2
#     4  12  27  49  67 104 142 187 236 288 353 419
#     4  11  24  43  71 104 141 175 237 281 358 405
#     4  12  27  46  71 107 139 187 240 284 357 416
#     4  12  26  47  73 103 145 188 233 293 346 424
#     4  12  24  45  70  99 143 181 238 288 353 412
#     4  12  25  44  72  97 144 189 233 292 350 419
#     4  12  24  45  74 102 148 182 235 291 350 416
#     4  11  24  43  70 105 138 182 230 296 343 422
#
# _framework density 22.349902
#
# number of rings (size 3 to 8) (size 9 to 14) (size 15 to 20)
#    0.000    0.250    5.000    4.125    1.750    2.500 
#    0.000    2.500    0.000    0.000    0.000    0.000 
#    0.000    0.000    0.000    0.000    0.000    0.000 
#
# Total GULP energy -198320.991918 kJ/mol
# GULP energy per Si atom -12395.061995 kJ/mol
# Density = 2.229903 g / cm^3
# Si number density = 22.349902 Si / 1000 Ang^3
#
#
#
# Elastic Constant Matrix: (Units=GPa)
#
#
# Indices 1 2 3 4 5 6 
#
# 1 86.5005 37.3125 20.9980 21.7765 10.3362 1.0897
# 2 37.3125 149.1410 33.8048 16.9313 10.3839 -17.4248
# 3 20.9980 33.8048 70.6683 9.6238 10.8612 -0.8549
# 4 21.7765 16.9313 9.6238 28.3330 4.0651 14.5426
# 5 10.3362 10.3839 10.8612 4.0651 28.9586 3.5029
# 6 1.0897 -17.4248 -0.8549 14.5426 3.5029 47.5853
#
#
#
# Elastic Compliance Matrix: (Units=1/GPa)
#
#
# Indices 1 2 3 4 5 6 
#
# 1 0.016014 -0.001736 -0.001837 -0.011609 -0.003107 0.002741
# 2 -0.001736 0.009108 -0.002797 -0.005591 -0.001434 0.005139
# 3 -0.001837 -0.002797 0.017027 -0.002233 -0.004455 0.000334
# 4 -0.011609 -0.005591 -0.002233 0.058264 0.001191 -0.019715
# 5 -0.003107 -0.001434 -0.004455 0.001191 0.038107 -0.003703
# 6 0.002741 0.005139 0.000334 -0.019715 -0.003703 0.029138
#
#
# Mechanical properties :
#
#
# Convention : Reuss Voigt Hill
#
# Bulk Modulus (GPa) = 34.00154 54.50449 44.25302
# Shear Modulus (GPa) = 26.28791 35.25503 30.77147
#
# Velocity S-wave (km/s) = 3.43329 3.97597 3.71456
# Velocity P-wave (km/s) = 5.56444 6.74668 6.18388
#
# Compressibility (1/GPa) = 0.02941043
#
# Stress axis : x y z
#
# Youngs Moduli (GPa) = 62.44399 109.78971 58.72967
#
# Poissons Ratio (x) = 0.19057 0.10786
# Poissons Ratio (y) = 0.10839 0.16429
# Poissons Ratio (z) = 0.11468 0.30712
#
# Static dielectric constant tensor:
#      x y z
#    x 4.906600 0.519930 -0.427990 
#    y 0.519930 4.518710 -0.157720 
#    z -0.427990 -0.157720 4.370010 
# 
# 
# High freq. dielectric constant tensor:
#      x y z
#    x 1.891510 0.003390 0.007950 
#    y 0.003390 1.902610 0.009240 
#    z 0.007950 0.009240 1.862720 
# 
# From -- ./inp_files/205651.got.cif
#   From: 2010.06.25/outbox.cif.g09.slc.cpg/sg2_103_cif.got.tgz:205651.got - 2010.06.27 13:26:56.
