data_PCOD8034439
_publ_section_title
;
Structure prediction by ZEFSAII (Michael W. Deem and Ramdas Pophale) SiO2 
 PCOD8034439
Probable space group: P -1
;
_chemical_formula_sum "Si O2"
_cell_formula_units_Z 16
_cell_length_a 25.448655
_cell_length_b 11.383325
_cell_length_c 5.711326
_cell_angle_alpha 114.484126
_cell_angle_beta 124.690433
_cell_angle_gamma 31.643325
_cell_volume 704.227040
_symmetry_space_group_name_H-M "P -1"
_symmetry_group_IT_number 2
_symmetry_cell_setting 'triclinic'
loop_
_space_group_symop_operation_xyz
x,y,z
-x,-y,-z
loop_
_atom_site_type_symbol
_atom_site_label
_atom_site_fract_x
_atom_site_fract_y
_atom_site_fract_z
Si Si1 0.959769 0.706564 0.502508
Si Si2 0.404296 0.762679 0.508969
Si Si3 0.048471 0.034570 0.999886
Si Si4 0.277464 0.258722 0.219069
Si Si5 0.494005 0.880471 0.737777
Si Si6 0.253701 0.532374 0.073498
Si Si7 0.282676 0.978313 0.867585
Si Si8 0.887419 0.406841 0.558470
O O1 0.000000 0.500000 0.500000
O O2 0.040628 0.613925 0.424592
O O3 0.974681 0.785495 0.809887
O O4 0.828780 0.919212 0.282052
O O5 0.500000 0.500000 0.500000
O O6 0.452868 0.825205 0.735976
O O7 0.338044 0.835591 0.643929
O O8 0.344501 0.862918 0.182845
O O9 0.181471 0.784445 0.108912
O O10 0.000000 0.000000 0.000000
O O11 0.978714 0.153857 0.682141
O O12 0.239211 0.462761 0.201592
O O13 0.186967 0.376886 0.287577
O O14 0.408284 0.048486 0.447367
O O15 0.261856 0.166183 0.921174
O O16 0.617503 0.640194 0.760900
O O17 0.500000 0.000000 0.000000
O O18 0.208607 0.522004 0.738822
#
# Coordination Sequence:
#
# PCOD8034439 Si02
#       8
#     2   2   2   2   2   2   2   2
#     4  12  29  46  75 105 148 202 255 304 382 461
#     4  11  27  52  74 108 152 195 248 318 377 445
#     4  12  26  46  68 109 147 192 242 316 380 443
#     4  11  24  45  73 106 151 191 247 315 369 450
#     4  11  24  44  76 107 138 196 249 304 374 449
#     4  12  24  43  70 109 147 188 246 307 383 445
#     4  11  27  48  76 106 151 198 253 306 379 454
#     4  12  24  45  74 105 152 190 250 308 381 446
#
# _framework density 22.719947000000001
#
# number of rings (size 3 to 8) (size 9 to 14) (size 15 to 20)
#    0.000    0.500    3.750    3.375    8.750    2.000 
#    2.250    0.000    0.000    0.000    0.000    0.000 
#    0.000    0.000    0.000    0.000    0.000    0.000 
#
# Total GULP energy -198220.171477 kJ/mol
# GULP energy per Si atom -12388.760717 kJ/mol
# Density = 2.266824 g / cm^3
# Si number density = 22.719947 Si / 1000 Ang^3
#
#
#
# Elastic Constant Matrix: (Units=GPa)
#
#
# Indices 1 2 3 4 5 6 
#
# 1 63.0932 44.8767 47.0628 -13.3588 -5.1058 -11.7289
# 2 44.8767 150.7328 42.7898 -5.7802 -2.1054 -12.9464
# 3 47.0628 42.7898 94.6213 -8.7441 1.5257 -6.3486
# 4 -13.3588 -5.7802 -8.7441 41.6446 -1.1054 3.3551
# 5 -5.1058 -2.1054 1.5257 -1.1054 39.5220 3.0085
# 6 -11.7289 -12.9464 -6.3486 3.3551 3.0085 50.4291
#
#
#
# Elastic Compliance Matrix: (Units=1/GPa)
#
#
# Indices 1 2 3 4 5 6 
#
# 1 0.031126 -0.005129 -0.012382 0.006486 0.004127 0.003686
# 2 -0.005129 0.008586 -0.001342 -0.000815 -0.000246 0.000911
# 3 -0.012382 -0.001342 0.017263 -0.000523 -0.002285 -0.000880
# 4 0.006486 -0.000815 -0.000523 0.025960 0.001585 -0.000588
# 5 0.004127 -0.000246 -0.002285 0.001585 0.026035 -0.001050
# 6 0.003686 0.000911 -0.000880 -0.000588 -0.001050 0.020912
#
#
# Mechanical properties :
#
#
# Convention : Reuss Voigt Hill
#
# Bulk Modulus (GPa) = 51.89549 64.21178 58.05363
# Shear Modulus (GPa) = 28.73388 37.90033 33.31710
#
# Velocity S-wave (km/s) = 3.56012 4.08873 3.83355
# Velocity P-wave (km/s) = 6.30795 7.11435 6.72325
#
# Compressibility (1/GPa) = 0.01926950
#
# Stress axis : x y z
#
# Youngs Moduli (GPa) = 32.12734 116.47160 57.92651
#
# Poissons Ratio (x) = 0.59739 0.71724
# Poissons Ratio (y) = 0.16478 0.07773
# Poissons Ratio (z) = 0.39780 0.15628
#
# Static dielectric constant tensor:
#      x y z
#    x 3.170290 -0.537700 -0.209370 
#    y -0.537700 4.702800 -0.265770 
#    z -0.209370 -0.265770 4.176550 
# 
# 
# High freq. dielectric constant tensor:
#      x y z
#    x 1.895120 -0.003500 0.006350 
#    y -0.003500 1.918470 -0.008470 
#    z 0.006350 -0.008470 1.899240 
# 
# From -- ./inp_files/126913.got.cif
#   From: 2010.06.25/outbox.cif.g09.slc.cpg/sg2_64_cif.got.tgz:126913.got - 2010.06.27 13:26:56.
