data_PCOD8034465
_publ_section_title
;
Structure prediction by ZEFSAII (Michael W. Deem and Ramdas Pophale) SiO2 
 PCOD8034465
Probable space group: P -1
;
_chemical_formula_sum "Si O2"
_cell_formula_units_Z 16
_cell_length_a 6.661011
_cell_length_b 10.062398
_cell_length_c 17.642509
_cell_angle_alpha 81.091409
_cell_angle_beta 87.431861
_cell_angle_gamma 138.319663
_cell_volume 753.316992
_symmetry_space_group_name_H-M "P -1"
_symmetry_group_IT_number 2
_symmetry_cell_setting 'triclinic'
loop_
_space_group_symop_operation_xyz
x,y,z
-x,-y,-z
loop_
_atom_site_type_symbol
_atom_site_label
_atom_site_fract_x
_atom_site_fract_y
_atom_site_fract_z
Si Si1 0.325176 0.732003 0.586963
Si Si2 0.836937 0.588538 0.787799
Si Si3 0.394064 0.339129 0.954757
Si Si4 0.573713 0.967654 0.778105
Si Si5 0.303122 0.038170 0.585807
Si Si6 0.287531 0.201498 0.306542
Si Si7 0.270423 0.676013 0.317492
Si Si8 0.293925 0.995435 0.052632
O O1 0.536049 0.813798 0.502911
O O2 0.404057 0.680048 0.663090
O O3 0.979764 0.499744 0.598892
O O4 0.340255 0.895854 0.596751
O O5 0.671061 0.464061 0.879079
O O6 0.696180 0.657328 0.756168
O O7 0.724164 0.425635 0.741687
O O8 0.209407 0.785242 0.775263
O O9 0.073272 0.224527 0.931084
O O10 0.500000 0.500000 0.000000
O O11 0.353243 0.177402 0.010950
O O12 0.768713 0.946758 0.738950
O O13 0.768793 0.197370 0.729176
O O14 0.593399 0.964322 0.867558
O O15 0.419678 0.160171 0.652224
O O16 0.948306 0.903327 0.608935
O O17 0.500000 0.000000 0.000000
#
# Coordination Sequence:
#
# PCOD8034465 Si02
#       8
#     2   2   2   2   2   2   2   2
#     4  11  24  45  67  97 135 177 224 277 341 389
#     4  12  26  44  68  97 140 175 219 279 330 394
#     4  11  26  46  70 103 134 175 223 272 329 397
#     4  12  26  44  68  97 140 175 219 279 330 394
#     4  11  24  45  67  95 139 174 220 288 329 399
#     4  12  22  45  65 100 131 179 222 274 336 391
#     4  12  22  45  65 100 131 179 222 274 336 391
#     4  11  26  46  70 103 134 175 223 272 329 397
#
# _framework density 21.2394
#
# number of rings (size 3 to 8) (size 9 to 14) (size 15 to 20)
#    0.000    0.500    5.000    3.000    3.500    6.000 
#    0.000    1.250    0.000    0.000    0.000    0.000 
#    0.000    0.000    0.000    0.000    0.000    0.000 
#
# Total GULP energy -198309.901955 kJ/mol
# GULP energy per Si atom -12394.368872 kJ/mol
# Density = 2.119106 g / cm^3
# Si number density = 21.239400 Si / 1000 Ang^3
#
#
#
# Elastic Constant Matrix: (Units=GPa)
#
#
# Indices 1 2 3 4 5 6 
#
# 1 81.7552 27.3198 23.6714 6.2047 11.6044 -9.8319
# 2 27.3198 122.4624 38.7449 8.8075 -10.4390 -19.3763
# 3 23.6714 38.7449 115.8145 1.6575 -3.2926 -6.5631
# 4 6.2047 8.8075 1.6575 45.7174 -8.5936 -10.1812
# 5 11.6044 -10.4390 -3.2926 -8.5936 54.5130 -0.4511
# 6 -9.8319 -19.3763 -6.5631 -10.1812 -0.4511 30.9368
#
#
#
# Elastic Compliance Matrix: (Units=1/GPa)
#
#
# Indices 1 2 3 4 5 6 
#
# 1 0.014615 -0.002482 -0.002131 -0.001726 -0.003971 0.002012
# 2 -0.002482 0.010616 -0.002672 0.000039 0.002450 0.005342
# 3 -0.002131 -0.002672 0.009972 0.000551 0.000631 -0.000045
# 4 -0.001726 0.000039 0.000551 0.024627 0.004355 0.007761
# 5 -0.003971 0.002450 0.000631 0.004355 0.020401 0.002137
# 6 0.002012 0.005342 -0.000045 0.007761 0.002137 0.038885
#
#
# Mechanical properties :
#
#
# Convention : Reuss Voigt Hill
#
# Bulk Modulus (GPa) = 48.46944 55.50047 51.98495
# Shear Modulus (GPa) = 35.57112 41.58651 38.57881
#
# Velocity S-wave (km/s) = 4.09684 4.42972 4.26652
# Velocity P-wave (km/s) = 6.72672 7.23539 6.98569
#
# Compressibility (1/GPa) = 0.02063156
#
# Stress axis : x y z
#
# Youngs Moduli (GPa) = 68.42470 94.19474 100.28516
#
# Poissons Ratio (x) = 0.23380 0.21369
# Poissons Ratio (y) = 0.16984 0.26801
# Poissons Ratio (z) = 0.14580 0.25173
#
# Static dielectric constant tensor:
#      x y z
#    x 3.898020 -0.040230 -0.044680 
#    y -0.040230 3.566870 0.129950 
#    z -0.044680 0.129950 3.905700 
# 
# 
# High freq. dielectric constant tensor:
#      x y z
#    x 1.836900 -0.001980 -0.003160 
#    y -0.001980 1.840570 -0.000450 
#    z -0.003160 -0.000450 1.853380 
# 
# From -- ./inp_files/48055.got.cif
#   From: 2010.06.25/outbox.cif.g09.slc.cpg/sg2_25_cif.got.tgz:48055.got - 2010.06.27 13:26:56.
