data_PCOD8034993
_publ_section_title
;
Structure prediction by ZEFSAII (Michael W. Deem and Ramdas Pophale) SiO2 
 PCOD8034993
Probable space group: P -1
;
_chemical_formula_sum "Si O2"
_cell_formula_units_Z 14
_cell_length_a 9.330970
_cell_length_b 8.977647
_cell_length_c 20.683777
_cell_angle_alpha 131.591506
_cell_angle_beta 29.633541
_cell_angle_gamma 131.794906
_cell_volume 621.704860
_symmetry_space_group_name_H-M "P -1"
_symmetry_group_IT_number 2
_symmetry_cell_setting 'triclinic'
loop_
_space_group_symop_operation_xyz
x,y,z
-x,-y,-z
loop_
_atom_site_type_symbol
_atom_site_label
_atom_site_fract_x
_atom_site_fract_y
_atom_site_fract_z
Si Si1 0.252243 0.538696 0.966203
Si Si2 0.165928 0.803749 0.192780
Si Si3 0.801141 0.661073 0.410250
Si Si4 0.182512 0.890518 0.623160
Si Si5 0.465143 0.970340 0.357168
Si Si6 0.822252 0.471970 0.669068
Si Si7 0.309181 0.135314 0.895125
O O1 0.570259 0.593168 0.820546
O O2 0.238974 0.346148 0.961720
O O3 0.209599 0.720855 0.081014
O O4 0.000000 0.500000 0.000000
O O5 0.469425 0.839454 0.123930
O O6 0.895635 0.652239 0.295365
O O7 0.078814 0.019001 0.277726
O O8 0.500000 0.500000 0.500000
O O9 0.070021 0.615095 0.332435
O O10 0.772334 0.890840 0.502957
O O11 0.085223 0.640933 0.579003
O O12 0.500000 0.000000 0.500000
O O13 0.233825 0.933703 0.692274
O O14 0.314611 0.739032 0.377877
O O15 0.560121 0.970791 0.245773
O O16 0.000000 0.000000 0.000000
#
# Coordination Sequence:
#
# PCOD8034993 Si02
#       7
#     2   2   2   2   2   2   2
#     4  11  26  48  71 103 140 185 237 290 360 417
#     4  12  25  45  71 106 139 179 243 289 349 429
#     4  12  23  43  73 105 139 190 230 293 352 420
#     4  12  26  46  69 108 140 187 238 286 360 422
#     4  11  24  47  71 103 150 178 243 285 359 419
#     4  11  25  45  73  98 145 189 226 300 354 408
#     4  11  27  44  71 106 135 186 236 291 346 420
#
# _framework density 22.518722
#
# number of rings (size 3 to 8) (size 9 to 14) (size 15 to 20)
#    0.000    0.571    5.714    2.571    6.000    1.143 
#    0.000    1.429    0.000    0.000    0.000    0.000 
#    0.000    0.000    0.000    0.000    0.000    0.000 
#
# Total GULP energy -173559.977425 kJ/mol
# GULP energy per Si atom -12397.141245 kJ/mol
# Density = 2.246747 g / cm^3
# Si number density = 22.518722 Si / 1000 Ang^3
#
#
#
# Elastic Constant Matrix: (Units=GPa)
#
#
# Indices 1 2 3 4 5 6 
#
# 1 135.8882 28.6783 33.6893 4.9611 -29.3351 2.6343
# 2 28.6783 149.5744 51.8842 -9.5732 -6.3920 2.4787
# 3 33.6893 51.8842 116.6792 -0.2922 -8.4928 2.1574
# 4 4.9611 -9.5732 -0.2922 40.7930 -4.4756 -6.9706
# 5 -29.3351 -6.3920 -8.4928 -4.4756 39.6699 6.9011
# 6 2.6343 2.4787 2.1574 -6.9706 6.9011 33.8484
#
#
#
# Elastic Compliance Matrix: (Units=1/GPa)
#
#
# Indices 1 2 3 4 5 6 
#
# 1 0.009549 -0.000944 -0.001807 -0.001019 0.006782 -0.002152
# 2 -0.000944 0.008160 -0.003344 0.002033 0.000116 0.000084
# 3 -0.001807 -0.003344 0.010618 -0.000526 0.000424 -0.000486
# 4 -0.001019 0.002033 -0.000526 0.026140 0.001535 0.005034
# 5 0.006782 0.000116 0.000424 0.001535 0.031672 -0.006705
# 6 -0.002152 0.000084 -0.000486 0.005034 -0.006705 0.032139
#
#
# Mechanical properties :
#
#
# Convention : Reuss Voigt Hill
#
# Bulk Modulus (GPa) = 61.96682 70.07173 66.01927
# Shear Modulus (GPa) = 36.80619 42.05492 39.43056
#
# Velocity S-wave (km/s) = 4.04724 4.32621 4.18905
# Velocity P-wave (km/s) = 7.02979 7.49262 7.26489
#
# Compressibility (1/GPa) = 0.01613767
#
# Stress axis : x y z
#
# Youngs Moduli (GPa) = 104.72267 122.54435 94.18258
#
# Poissons Ratio (x) = 0.11568 0.17014
# Poissons Ratio (y) = 0.09886 0.31496
# Poissons Ratio (z) = 0.18918 0.40981
#
# Static dielectric constant tensor:
#      x y z
#    x 4.548260 0.196380 -0.297820 
#    y 0.196380 4.530170 -0.297750 
#    z -0.297820 -0.297750 4.411630 
# 
# 
# High freq. dielectric constant tensor:
#      x y z
#    x 1.898880 -0.007200 -0.012410 
#    y -0.007200 1.888680 -0.001420 
#    z -0.012410 -0.001420 1.889910 
# 
# From -- ./inp_files/398047.got.cif
#   From: 2010.06.25/outbox.cif.g09.slc.cpg/sg2_200_cif.got.tgz:398047.got - 2010.06.27 13:26:56.
