data_PCOD8034674
_publ_section_title
;
Structure prediction by ZEFSAII (Michael W. Deem and Ramdas Pophale) SiO2 
 PCOD8034674
Probable space group: P -1
;
_chemical_formula_sum "Si O2"
_cell_formula_units_Z 14
_cell_length_a 13.527537
_cell_length_b 11.742849
_cell_length_c 11.600739
_cell_angle_alpha 109.678602
_cell_angle_beta 112.402191
_cell_angle_gamma 21.929725
_cell_volume 635.536339
_symmetry_space_group_name_H-M "P -1"
_symmetry_group_IT_number 2
_symmetry_cell_setting 'triclinic'
loop_
_space_group_symop_operation_xyz
x,y,z
-x,-y,-z
loop_
_atom_site_type_symbol
_atom_site_label
_atom_site_fract_x
_atom_site_fract_y
_atom_site_fract_z
Si Si1 0.857873 0.080505 0.857096
Si Si2 0.014035 0.117231 0.592879
Si Si3 0.559788 0.059182 0.614641
Si Si4 0.594108 0.557923 0.759836
Si Si5 0.166592 0.148713 0.127517
Si Si6 0.426966 0.209367 0.001003
Si Si7 0.981855 0.251399 0.379387
O O1 0.640755 0.400647 0.818869
O O2 0.741431 0.077731 0.858231
O O3 0.029305 0.858584 0.744175
O O4 0.000000 0.000000 0.000000
O O5 0.943110 0.273545 0.505769
O O6 0.809121 0.344336 0.682293
O O7 0.307839 0.839838 0.673118
O O8 0.000000 0.000000 0.500000
O O9 0.276062 0.403263 0.653151
O O10 0.500000 0.000000 0.500000
O O11 0.731813 0.854916 0.738129
O O12 0.733945 0.973141 0.586652
O O13 0.615580 0.665291 0.864196
O O14 0.845493 0.499020 0.095656
O O15 0.312605 0.010265 0.024014
O O16 0.500000 0.000000 0.000000
#
# Coordination Sequence:
#
# PCOD8034674 Si02
#       7
#     2   2   2   2   2   2   2
#     4  11  24  45  74 106 142 177 234 287 354 411
#     4  12  26  45  69 102 147 176 230 279 344 417
#     4  11  25  45  71 101 137 180 236 279 348 402
#     4  12  27  44  73 105 137 193 227 283 354 409
#     4  11  25  45  72 102 138 180 227 300 341 408
#     4  12  27  48  69 101 140 182 238 281 346 415
#     4  11  25  44  70 106 136 184 227 287 341 409
#
# _framework density 22.028637
#
# number of rings (size 3 to 8) (size 9 to 14) (size 15 to 20)
#    0.000    0.571    2.857    4.714    4.000    5.143 
#    0.000    0.000    0.000    0.000    0.000    0.000 
#    0.000    0.000    0.000    0.000    0.000    0.000 
#
# Total GULP energy -173517.642033 kJ/mol
# GULP energy per Si atom -12394.117288 kJ/mol
# Density = 2.197850 g / cm^3
# Si number density = 22.028637 Si / 1000 Ang^3
#
#
#
# Elastic Constant Matrix: (Units=GPa)
#
#
# Indices 1 2 3 4 5 6 
#
# 1 109.6140 44.2442 49.9263 9.0731 -12.3003 1.7985
# 2 44.2442 116.5880 54.8656 -0.2056 8.5146 -3.8438
# 3 49.9263 54.8656 170.9878 -2.1727 18.1068 5.4709
# 4 9.0731 -0.2056 -2.1727 41.4128 0.2043 5.2286
# 5 -12.3003 8.5146 18.1068 0.2043 52.0901 1.6282
# 6 1.7985 -3.8438 5.4709 5.2286 1.6282 41.1762
#
#
#
# Elastic Compliance Matrix: (Units=1/GPa)
#
#
# Indices 1 2 3 4 5 6 
#
# 1 0.012828 -0.003790 -0.003058 -0.002973 0.004733 -0.000317
# 2 -0.003790 0.011322 -0.002359 0.000578 -0.001976 0.001541
# 3 -0.003058 -0.002359 0.007873 0.001234 -0.003042 -0.001169
# 4 -0.002973 0.000578 0.001234 0.025269 -0.001226 -0.003140
# 5 0.004733 -0.001976 -0.003042 -0.001226 0.021722 -0.000690
# 6 -0.000317 0.001541 -0.001169 -0.003140 -0.000690 0.025025
#
#
# Mechanical properties :
#
#
# Convention : Reuss Voigt Hill
#
# Bulk Modulus (GPa) = 73.48360 77.25132 75.36746
# Shear Modulus (GPa) = 39.37306 43.47942 41.42624
#
# Velocity S-wave (km/s) = 4.23230 4.44753 4.34125
# Velocity P-wave (km/s) = 7.57059 7.84339 7.70820
#
# Compressibility (1/GPa) = 0.01360848
#
# Stress axis : x y z
#
# Youngs Moduli (GPa) = 77.95247 88.32508 127.00924
#
# Poissons Ratio (x) = 0.33479 0.38844
# Poissons Ratio (y) = 0.29547 0.29959
# Poissons Ratio (z) = 0.23841 0.20834
#
# Static dielectric constant tensor:
#      x y z
#    x 3.897970 0.142820 0.087270 
#    y 0.142820 3.948500 -0.134320 
#    z 0.087270 -0.134320 4.260570 
# 
# 
# High freq. dielectric constant tensor:
#      x y z
#    x 1.864820 -0.006300 -0.004620 
#    y -0.006300 1.868920 -0.002360 
#    z -0.004620 -0.002360 1.895220 
# 
# From -- ./inp_files/433640.got.cif
#   From: 2010.06.25/outbox.cif.g09.slc.cpg/sg2_217_cif.got.tgz:433640.got - 2010.06.27 13:26:56.
