data_PCOD8034036
_publ_section_title
;
Structure prediction by ZEFSAII (Michael W. Deem and Ramdas Pophale) SiO2 
 PCOD8034036
Probable space group: P -1
;
_chemical_formula_sum "Si O2"
_cell_formula_units_Z 12
_cell_length_a 25.553491
_cell_length_b 27.800880
_cell_length_c 30.118698
_cell_angle_alpha 171.078345
_cell_angle_beta 169.591143
_cell_angle_gamma 10.171579
_cell_volume 535.052475
_symmetry_space_group_name_H-M "P -1"
_symmetry_group_IT_number 2
_symmetry_cell_setting 'triclinic'
loop_
_space_group_symop_operation_xyz
x,y,z
-x,-y,-z
loop_
_atom_site_type_symbol
_atom_site_label
_atom_site_fract_x
_atom_site_fract_y
_atom_site_fract_z
Si Si1 0.090808 0.602006 0.496033
Si Si2 0.115771 0.792455 0.362470
Si Si3 0.846591 0.059323 0.790580
Si Si4 0.161241 0.855090 0.295614
Si Si5 0.873560 0.331642 0.573326
Si Si6 0.169685 0.105480 0.275137
O O1 0.454065 0.298351 0.515057
O O2 0.090520 0.738799 0.671188
O O3 0.966725 0.949404 0.679658
O O4 0.860519 0.423428 0.125700
O O5 0.502336 0.619942 0.523891
O O6 0.000000 0.000000 0.500000
O O7 0.939433 0.053010 0.412779
O O8 0.000000 0.500000 0.000000
O O9 0.524386 0.018618 0.474863
O O10 0.884452 0.051816 0.868226
O O11 0.965792 0.135223 0.424858
O O12 0.091134 0.525992 0.940662
O O13 0.000000 0.500000 0.500000
O O14 0.000000 0.000000 0.000000
#
# Coordination Sequence:
#
# PCOD8034036 Si02
#       6
#     2   2   2   2   2   2
#     4  12  26  44  70  98 136 174 242 281 340 401
#     4  12  24  42  70 105 136 177 224 277 336 397
#     4  11  26  43  66 103 130 177 224 299 340 429
#     4  12  26  45  68  99 132 190 226 279 338 399
#     4  12  24  45  68  96 144 177 226 277 336 399
#     4  11  24  43  70  95 135 174 222 275 380 411
#
# _framework density 22.427707000000002
#
# number of rings (size 3 to 8) (size 9 to 14) (size 15 to 20)
#    0.000    0.333    0.000    9.000    7.000    2.667 
#    0.000    0.000    0.000    0.000    0.000    0.000 
#    0.000    0.000    0.000    0.000    0.000    0.000 
#
# Total GULP energy -148738.076387 kJ/mol
# GULP energy per Si atom -12394.839699 kJ/mol
# Density = 2.237666 g / cm^3
# Si number density = 22.427707 Si / 1000 Ang^3
#
#
#
# Elastic Constant Matrix: (Units=GPa)
#
#
# Indices 1 2 3 4 5 6 
#
# 1 169.8494 27.7988 33.8485 21.0582 -10.5284 -1.8059
# 2 27.7988 121.0252 32.3420 -7.2732 -4.3315 -10.5807
# 3 33.8485 32.3420 160.5701 2.9296 -22.2484 -16.8863
# 4 21.0582 -7.2732 2.9296 51.2638 2.5066 0.2807
# 5 -10.5284 -4.3315 -22.2484 2.5066 45.9964 9.7905
# 6 -1.8059 -10.5807 -16.8863 0.2807 9.7905 51.5972
#
#
#
# Elastic Compliance Matrix: (Units=1/GPa)
#
#
# Indices 1 2 3 4 5 6 
#
# 1 0.006763 -0.001484 -0.000965 -0.002991 0.001233 -0.000601
# 2 -0.001484 0.009236 -0.001518 0.002029 -0.000624 0.001453
# 3 -0.000965 -0.001518 0.007299 -0.000385 0.002868 0.001502
# 4 -0.002991 0.002029 -0.000385 0.021137 -0.001924 0.000436
# 5 0.001233 -0.000624 0.002868 -0.001924 0.024252 -0.003737
# 6 -0.000601 0.001453 0.001502 0.000436 -0.003737 0.020856
#
#
# Mechanical properties :
#
#
# Convention : Reuss Voigt Hill
#
# Bulk Modulus (GPa) = 65.08258 71.04702 68.06480
# Shear Modulus (GPa) = 48.73341 53.60184 51.16762
#
# Velocity S-wave (km/s) = 4.66651 4.89405 4.78163
# Velocity P-wave (km/s) = 7.62344 7.98014 7.80383
#
# Compressibility (1/GPa) = 0.01536509
#
# Stress axis : x y z
#
# Youngs Moduli (GPa) = 147.85258 108.27304 136.99897
#
# Poissons Ratio (x) = 0.16066 0.13216
# Poissons Ratio (y) = 0.21940 0.20800
# Poissons Ratio (z) = 0.14263 0.16438
#
# Static dielectric constant tensor:
#      x y z
#    x 5.444230 0.285210 0.896620 
#    y 0.285210 4.341120 0.210880 
#    z 0.896620 0.210880 4.696960 
# 
# 
# High freq. dielectric constant tensor:
#      x y z
#    x 1.901110 -0.011840 -0.001270 
#    y -0.011840 1.892660 0.006330 
#    z -0.001270 0.006330 1.908310 
# 
# From -- ./inp_files/12501.got.cif
#   From: 2010.06.25/outbox.cif.g09.slc.cpg/sg2_7_cif.got.tgz:12501.got - 2010.06.27 13:26:56.
