data_PCOD8034614
_publ_section_title
;
Structure prediction by ZEFSAII (Michael W. Deem and Ramdas Pophale) SiO2 
 PCOD8034614
Probable space group: P -1
;
_chemical_formula_sum "Si O2"
_cell_formula_units_Z 14
_cell_length_a 15.268666
_cell_length_b 24.242619
_cell_length_c 29.924357
_cell_angle_alpha 9.650019
_cell_angle_beta 160.622286
_cell_angle_gamma 161.122369
_cell_volume 589.322273
_symmetry_space_group_name_H-M "P -1"
_symmetry_group_IT_number 2
_symmetry_cell_setting 'triclinic'
loop_
_space_group_symop_operation_xyz
x,y,z
-x,-y,-z
loop_
_atom_site_type_symbol
_atom_site_label
_atom_site_fract_x
_atom_site_fract_y
_atom_site_fract_z
Si Si1 0.529379 0.147527 0.463288
Si Si2 0.076722 0.274736 0.753995
Si Si3 0.833362 0.636916 0.002944
Si Si4 0.524229 0.950206 0.239624
Si Si5 0.507268 0.735228 0.934727
Si Si6 0.278892 0.173882 0.736742
Si Si7 0.936522 0.847226 0.448993
O O1 0.784922 0.458731 0.354377
O O2 0.503935 0.325871 0.260643
O O3 0.241855 0.107317 0.382774
O O4 0.593158 0.782938 0.791378
O O5 0.000000 0.500000 0.500000
O O6 0.807984 0.992504 0.867719
O O7 0.300323 0.086988 0.995495
O O8 0.696178 0.283661 0.190402
O O9 0.029548 0.529008 0.220063
O O10 0.992382 0.958513 0.791989
O O11 0.376371 0.558486 0.495192
O O12 0.787057 0.990341 0.302415
O O13 0.619969 0.160918 0.163686
O O14 0.246377 0.189618 0.654608
O O15 0.500000 0.000000 0.000000
#
# Coordination Sequence:
#
# PCOD8034614 Si02
#       7
#     2   2   2   2   2   2   2
#     4  11  24  45  72 107 147 192 245 301 356 440
#     4  11  25  44  72 108 145 193 245 302 368 428
#     4  12  25  46  76 104 149 194 246 303 358 433
#     4  11  26  46  73 102 153 187 250 302 355 447
#     4  11  24  47  72 105 144 198 242 301 371 421
#     4  12  26  49  73 106 146 193 242 305 367 430
#     4  12  27  45  73 113 142 193 252 292 374 428
#
# _framework density 23.756101999999998
#
# number of rings (size 3 to 8) (size 9 to 14) (size 15 to 20)
#    0.000    0.571    2.857    5.571    4.000    4.000 
#    0.000    0.000    0.000    0.000    0.000    0.000 
#    0.000    0.000    0.000    0.000    0.000    0.000 
#
# Total GULP energy -173466.076292 kJ/mol
# GULP energy per Si atom -12390.434021 kJ/mol
# Density = 2.370203 g / cm^3
# Si number density = 23.756102 Si / 1000 Ang^3
#
#
#
# Elastic Constant Matrix: (Units=GPa)
#
#
# Indices 1 2 3 4 5 6 
#
# 1 89.3686 53.0792 57.7528 15.9091 -5.4040 10.9126
# 2 53.0792 118.8613 51.2065 4.8735 -3.0045 1.4869
# 3 57.7528 51.2065 168.3156 19.4499 -8.1057 -7.4699
# 4 15.9091 4.8735 19.4499 43.4397 5.7268 -3.4653
# 5 -5.4040 -3.0045 -8.1057 5.7268 36.1114 1.3335
# 6 10.9126 1.4869 -7.4699 -3.4653 1.3335 38.1418
#
#
#
# Elastic Compliance Matrix: (Units=1/GPa)
#
#
# Indices 1 2 3 4 5 6 
#
# 1 0.019929 -0.006643 -0.004365 -0.005488 0.002575 -0.006886
# 2 -0.006643 0.011934 -0.001557 0.001992 -0.000716 0.001337
# 3 -0.004365 -0.001557 0.008315 -0.001902 0.001285 0.002720
# 4 -0.005488 0.001992 -0.001902 0.026675 -0.005451 0.003734
# 5 0.002575 -0.000716 0.001285 -0.005451 0.029244 -0.001975
# 6 -0.006886 0.001337 0.002720 0.003734 -0.001975 0.029077
#
#
# Mechanical properties :
#
#
# Convention : Reuss Voigt Hill
#
# Bulk Modulus (GPa) = 66.44841 77.84696 72.14768
# Shear Modulus (GPa) = 32.19195 37.83906 35.01550
#
# Velocity S-wave (km/s) = 3.68516 3.99534 3.84338
# Velocity P-wave (km/s) = 6.79257 7.35690 7.08036
#
# Compressibility (1/GPa) = 0.01504927
#
# Stress axis : x y z
#
# Youngs Moduli (GPa) = 50.17753 83.79525 120.26804
#
# Poissons Ratio (x) = 0.55666 0.52492
# Poissons Ratio (y) = 0.33334 0.18720
# Poissons Ratio (z) = 0.21900 0.13043
#
# Static dielectric constant tensor:
#      x y z
#    x 4.413590 0.147910 -0.495330 
#    y 0.147910 4.063340 0.015750 
#    z -0.495330 0.015750 4.515680 
# 
# 
# High freq. dielectric constant tensor:
#      x y z
#    x 1.933100 0.004050 -0.019800 
#    y 0.004050 1.956450 0.002490 
#    z -0.019800 0.002490 1.954590 
# 
# From -- ./inp_files/623701.got.cif
#   From: 2010.06.25/outbox.cif.g09.slc.cpg/sg2_312_cif.got.tgz:623701.got - 2010.06.27 13:26:56.
