data_PCOD8034953
_publ_section_title
;
Structure prediction by ZEFSAII (Michael W. Deem and Ramdas Pophale) SiO2 
 PCOD8034953
Probable space group: P -1
;
_chemical_formula_sum "Si O2"
_cell_formula_units_Z 16
_cell_length_a 8.388590
_cell_length_b 25.448800
_cell_length_c 9.230768
_cell_angle_alpha 136.467065
_cell_angle_beta 32.734954
_cell_angle_gamma 129.520757
_cell_volume 732.090851
_symmetry_space_group_name_H-M "P -1"
_symmetry_group_IT_number 2
_symmetry_cell_setting 'triclinic'
loop_
_space_group_symop_operation_xyz
x,y,z
-x,-y,-z
loop_
_atom_site_type_symbol
_atom_site_label
_atom_site_fract_x
_atom_site_fract_y
_atom_site_fract_z
Si Si1 0.554994 0.615120 0.682901
Si Si2 0.515302 0.784100 0.113269
Si Si3 0.214745 0.812535 0.118453
Si Si4 0.231097 0.945948 0.152074
Si Si5 0.419470 0.420852 0.723596
Si Si6 0.124793 0.501489 0.648961
Si Si7 0.558935 0.734590 0.480707
Si Si8 0.815385 0.182855 0.291530
O O1 0.691706 0.620133 0.424905
O O2 0.797978 0.585856 0.552772
O O3 0.431013 0.693425 0.991746
O O4 0.272049 0.553147 0.772225
O O5 0.326993 0.827352 0.225026
O O6 0.426299 0.824122 0.410192
O O7 0.867306 0.790433 0.831985
O O8 0.300201 0.889267 0.116031
O O9 0.866861 0.785213 0.320105
O O10 0.418600 0.748373 0.773174
O O11 0.133807 0.896771 0.986595
O O12 0.000000 0.000000 0.500000
O O13 0.500000 0.000000 0.000000
O O14 0.405001 0.356254 0.731684
O O15 0.742134 0.464682 0.538590
O O16 0.222053 0.488521 0.062674
O O17 0.309916 0.755972 0.600068
#
# Coordination Sequence:
#
# PCOD8034953 Si02
#       8
#     2   2   2   2   2   2   2   2
#     4   9  20  31  55  83 121 157 200 259 308 341
#     4  12  23  39  61  95 133 154 197 264 319 345
#     4  11  22  39  67  95 117 161 211 243 283 373
#     4  11  23  46  71  89 120 165 204 235 291 376
#     4  10  17  31  54  82 108 153 215 257 283 336
#     4   9  19  29  51  87 114 153 214 261 286 353
#     4  11  20  39  61  87 123 165 214 248 295 361
#     4  11  26  40  61  95 129 157 195 254 317 367
#
# _framework density 21.855211000000001
#
# number of rings (size 3 to 8) (size 9 to 14) (size 15 to 20)
#    0.750    0.750    1.250    6.375    1.750    0.000 
#    0.000    3.750    0.000    4.500    0.000    0.000 
#    0.000    0.000    0.000    0.000    0.000    0.000 
#
# Total GULP energy -198269.572404 kJ/mol
# GULP energy per Si atom -12391.848275 kJ/mol
# Density = 2.180547 g / cm^3
# Si number density = 21.855211 Si / 1000 Ang^3
#
#
#
# Elastic Constant Matrix: (Units=GPa)
#
#
# Indices 1 2 3 4 5 6 
#
# 1 63.6823 27.1724 18.7238 -1.9438 -9.0891 -8.2239
# 2 27.1724 81.6775 24.6097 -0.7189 -3.1498 -13.6082
# 3 18.7238 24.6097 132.8897 -3.2015 -7.1216 -3.2291
# 4 -1.9438 -0.7189 -3.2015 35.4378 3.0365 -4.2080
# 5 -9.0891 -3.1498 -7.1216 3.0365 35.3132 -2.6463
# 6 -8.2239 -13.6082 -3.2291 -4.2080 -2.6463 24.0280
#
#
#
# Elastic Compliance Matrix: (Units=1/GPa)
#
#
# Indices 1 2 3 4 5 6 
#
# 1 0.019556 -0.005189 -0.001427 0.000953 0.004518 0.004227
# 2 -0.005189 0.015748 -0.001992 0.000676 0.000135 0.007009
# 3 -0.001427 -0.001992 0.008154 0.000491 0.001033 -0.000320
# 4 0.000953 0.000676 0.000491 0.029149 -0.001675 0.005695
# 5 0.004518 0.000135 0.001033 -0.001675 0.030204 0.004795
# 6 0.004227 0.007009 -0.000320 0.005695 0.004795 0.048517
#
#
# Mechanical properties :
#
#
# Convention : Reuss Voigt Hill
#
# Bulk Modulus (GPa) = 38.10340 46.58458 42.34399
# Shear Modulus (GPa) = 28.20209 32.80538 30.50374
#
# Velocity S-wave (km/s) = 3.59612 3.87852 3.73999
# Velocity P-wave (km/s) = 5.89195 6.43573 6.16983
#
# Compressibility (1/GPa) = 0.02624438
#
# Stress axis : x y z
#
# Youngs Moduli (GPa) = 51.13416 63.49813 122.63486
#
# Poissons Ratio (x) = 0.32951 0.17496
# Poissons Ratio (y) = 0.26535 0.24423
# Poissons Ratio (z) = 0.07295 0.12646
#
# Static dielectric constant tensor:
#      x y z
#    x 3.732650 -0.060920 0.067430 
#    y -0.060920 4.136490 0.294960 
#    z 0.067430 0.294960 4.109600 
# 
# 
# High freq. dielectric constant tensor:
#      x y z
#    x 1.840620 -0.017290 -0.005790 
#    y -0.017290 1.843640 -0.002820 
#    z -0.005790 -0.002820 1.871280 
# 
# From -- ./inp_files/226416.got.cif
#   From: 2010.06.25/outbox.cif.g09.slc.cpg/sg2_114_cif.got.tgz:226416.got - 2010.06.27 13:26:56.
