data_PCOD8034136
_publ_section_title
;
Structure prediction by ZEFSAII (Michael W. Deem and Ramdas Pophale) SiO2 
 PCOD8034136
Probable space group: P -1
;
_chemical_formula_sum "Si O2"
_cell_formula_units_Z 14
_cell_length_a 8.594362
_cell_length_b 16.792035
_cell_length_c 22.520927
_cell_angle_alpha 158.217989
_cell_angle_beta 31.220828
_cell_angle_gamma 138.044976
_cell_volume 603.257242
_symmetry_space_group_name_H-M "P -1"
_symmetry_group_IT_number 2
_symmetry_cell_setting 'triclinic'
loop_
_space_group_symop_operation_xyz
x,y,z
-x,-y,-z
loop_
_atom_site_type_symbol
_atom_site_label
_atom_site_fract_x
_atom_site_fract_y
_atom_site_fract_z
Si Si1 0.882680 0.878254 0.586937
Si Si2 0.196527 0.774100 0.910974
Si Si3 0.254063 0.633006 0.004347
Si Si4 0.305934 0.508789 0.129111
Si Si5 0.403013 0.486866 0.310844
Si Si6 0.782327 0.579932 0.517147
Si Si7 0.681975 0.184067 0.331204
O O1 0.903887 0.672939 0.483397
O O2 0.557674 0.948632 0.705937
O O3 0.162721 0.769635 0.374844
O O4 0.915803 0.101480 0.763890
O O5 0.405885 0.748996 0.885742
O O6 0.440825 0.733199 0.749045
O O7 0.972937 0.608180 0.868799
O O8 0.996491 0.024620 0.143045
O O9 0.456397 0.614634 0.984276
O O10 0.465520 0.516120 0.800044
O O11 0.000000 0.500000 0.000000
O O12 0.500000 0.500000 0.000000
O O13 0.480125 0.661469 0.453706
O O14 0.028773 0.550499 0.471194
O O15 0.746651 0.326607 0.351218
#
# Coordination Sequence:
#
# PCOD8034136 Si02
#       7
#     2   2   2   2   2   2   2
#     4  12  26  48  75 107 141 191 242 297 362 429
#     4  11  24  43  74 109 147 195 236 291 362 424
#     4  12  29  49  73 106 143 190 245 302 362 423
#     4  12  26  49  75 106 141 188 247 300 354 431
#     4  11  25  45  68 110 150 187 244 291 356 426
#     4  11  25  43  72 112 153 183 240 297 358 429
#     4  11  24  43  74 107 148 194 232 291 358 434
#
# _framework density 23.207346999999999
#
# number of rings (size 3 to 8) (size 9 to 14) (size 15 to 20)
#    0.000    0.571    5.714    3.000    4.000    4.000 
#    0.000    0.000    0.000    0.000    0.000    0.000 
#    0.000    0.000    0.000    0.000    0.000    0.000 
#
# Total GULP energy -173460.762738 kJ/mol
# GULP energy per Si atom -12390.054481 kJ/mol
# Density = 2.315453 g / cm^3
# Si number density = 23.207347 Si / 1000 Ang^3
#
#
#
# Elastic Constant Matrix: (Units=GPa)
#
#
# Indices 1 2 3 4 5 6 
#
# 1 106.7585 34.0112 41.7642 -5.3978 -11.0095 -10.3046
# 2 34.0112 94.8408 65.3532 -6.0166 12.6757 -1.5321
# 3 41.7642 65.3532 149.3733 1.0197 -15.0922 -8.4210
# 4 -5.3978 -6.0166 1.0197 32.9431 3.2320 2.2382
# 5 -11.0095 12.6757 -15.0922 3.2320 39.1268 1.6030
# 6 -10.3046 -1.5321 -8.4210 2.2382 1.6030 35.4103
#
#
#
# Elastic Compliance Matrix: (Units=1/GPa)
#
#
# Indices 1 2 3 4 5 6 
#
# 1 0.011740 -0.003999 -0.000970 0.000636 0.004058 0.002789
# 2 -0.003999 0.019825 -0.008845 0.004491 -0.011241 -0.002184
# 3 -0.000970 -0.008845 0.011702 -0.002984 0.007272 0.001977
# 4 0.000636 0.004491 -0.002984 0.032006 -0.004984 -0.002128
# 5 0.004058 -0.011241 0.007272 -0.004984 0.033508 0.001222
# 6 0.002789 -0.002184 0.001977 -0.002128 0.001222 0.029507
#
#
# Mechanical properties :
#
#
# Convention : Reuss Voigt Hill
#
# Bulk Modulus (GPa) = 63.94085 70.35885 67.14985
# Shear Modulus (GPa) = 29.21757 35.48563 32.35160
#
# Velocity S-wave (km/s) = 3.55206 3.91457 3.73771
# Velocity P-wave (km/s) = 6.66593 7.12847 6.90108
#
# Compressibility (1/GPa) = 0.01563945
#
# Stress axis : x y z
#
# Youngs Moduli (GPa) = 85.17779 50.44094 85.45187
#
# Poissons Ratio (x) = 0.20169 0.08290
# Poissons Ratio (y) = 0.34059 0.75586
# Poissons Ratio (z) = 0.08264 0.44617
#
# Static dielectric constant tensor:
#      x y z
#    x 4.344960 0.108080 -0.268040 
#    y 0.108080 3.984520 -0.157500 
#    z -0.268040 -0.157500 4.308040 
# 
# 
# High freq. dielectric constant tensor:
#      x y z
#    x 1.934930 0.003080 -0.016080 
#    y 0.003080 1.896610 -0.008950 
#    z -0.016080 -0.008950 1.926900 
# 
# From -- ./inp_files/608456.got.cif
#   From: 2010.06.25/outbox.cif.g09.slc.cpg/sg2_305_cif.got.tgz:608456.got - 2010.06.27 13:26:56.
