data_PCOD8034352
_publ_section_title
;
Structure prediction by ZEFSAII (Michael W. Deem and Ramdas Pophale) SiO2 
 PCOD8034352
Probable space group: P -1
;
_chemical_formula_sum "Si O2"
_cell_formula_units_Z 14
_cell_length_a 21.508147
_cell_length_b 21.296713
_cell_length_c 12.198790
_cell_angle_alpha 151.641668
_cell_angle_beta 19.439516
_cell_angle_gamma 161.245179
_cell_volume 593.531923
_symmetry_space_group_name_H-M "P -1"
_symmetry_group_IT_number 2
_symmetry_cell_setting 'triclinic'
loop_
_space_group_symop_operation_xyz
x,y,z
-x,-y,-z
loop_
_atom_site_type_symbol
_atom_site_label
_atom_site_fract_x
_atom_site_fract_y
_atom_site_fract_z
Si Si1 0.519182 0.948589 0.771602
Si Si2 0.462049 0.756756 0.869523
Si Si3 0.591122 0.793600 0.153192
Si Si4 0.870915 0.443604 0.290536
Si Si5 0.719414 0.434739 0.890924
Si Si6 0.850441 0.780228 0.126245
Si Si7 0.136980 0.252799 0.194587
O O1 0.269004 0.710213 0.814081
O O2 0.816877 0.030828 0.386114
O O3 0.500000 0.000000 0.000000
O O4 0.500752 0.065742 0.901070
O O5 0.713601 0.835206 0.497188
O O6 0.433849 0.680752 0.919442
O O7 0.189180 0.570801 0.969667
O O8 0.304076 0.702675 0.538659
O O9 0.524863 0.707811 0.011119
O O10 0.681246 0.728159 0.989620
O O11 0.818818 0.027003 0.128889
O O12 0.851822 0.591405 0.542706
O O13 0.000000 0.500000 0.500000
O O14 0.797082 0.628748 0.060587
O O15 0.744340 0.699505 0.053568
#
# Coordination Sequence:
#
# PCOD8034352 Si02
#       7
#     2   2   2   2   2   2   2
#     4  11  25  45  72 108 146 183 231 291 351 423
#     4  11  27  47  69 109 146 184 236 291 347 420
#     4  12  25  42  78 102 136 192 233 290 351 414
#     4  11  24  46  73 102 142 191 228 283 357 414
#     4  12  26  49  71 102 143 187 244 287 348 422
#     4  12  26  45  74 105 144 183 236 299 348 419
#     4  11  24  44  72 109 141 182 242 286 354 423
#
# _framework density 23.587609
#
# number of rings (size 3 to 8) (size 9 to 14) (size 15 to 20)
#    0.000    0.571    4.286    3.000    2.000    6.857 
#    0.000    0.000    0.000    0.000    0.000    0.000 
#    0.000    0.000    0.000    0.000    0.000    0.000 
#
# Total GULP energy -173567.034115 kJ/mol
# GULP energy per Si atom -12397.645294 kJ/mol
# Density = 2.353392 g / cm^3
# Si number density = 23.587609 Si / 1000 Ang^3
#
#
#
# Elastic Constant Matrix: (Units=GPa)
#
#
# Indices 1 2 3 4 5 6 
#
# 1 133.9702 29.5268 18.1032 11.0288 7.7469 -7.1128
# 2 29.5268 111.7825 -9.2500 4.2606 -9.4376 14.2481
# 3 18.1032 -9.2500 63.9283 4.3012 8.9570 7.3163
# 4 11.0288 4.2606 4.3012 21.2005 4.3509 3.4048
# 5 7.7469 -9.4376 8.9570 4.3509 34.3265 -1.6350
# 6 -7.1128 14.2481 7.3163 3.4048 -1.6350 37.2888
#
#
#
# Elastic Compliance Matrix: (Units=1/GPa)
#
#
# Indices 1 2 3 4 5 6 
#
# 1 0.009169 -0.003138 -0.003024 -0.003838 -0.001474 0.003827
# 2 -0.003138 0.010925 0.002710 -0.000884 0.002874 -0.005098
# 3 -0.003024 0.002710 0.018034 -0.001100 -0.003387 -0.005199
# 4 -0.003838 -0.000884 -0.001100 0.051599 -0.005875 -0.005147
# 5 -0.001474 0.002874 -0.003387 -0.005875 0.031942 0.001222
# 6 0.003827 -0.005098 -0.005199 -0.005147 0.001222 0.031039
#
#
# Mechanical properties :
#
#
# Convention : Reuss Voigt Hill
#
# Bulk Modulus (GPa) = 32.02645 42.93789 37.48217
# Shear Modulus (GPa) = 29.40823 36.64989 33.02906
#
# Velocity S-wave (km/s) = 3.53479 3.94607 3.74608
# Velocity P-wave (km/s) = 5.50152 6.24541 5.88523
#
# Compressibility (1/GPa) = 0.03122419
#
# Stress axis : x y z
#
# Youngs Moduli (GPa) = 109.06345 91.53092 55.44965
#
# Poissons Ratio (x) = 0.28724 0.16767
# Poissons Ratio (y) = 0.34226 -0.15025
# Poissons Ratio (z) = 0.32978 -0.24802
#
# Static dielectric constant tensor:
#      x y z
#    x 4.325180 -0.038370 -0.006090 
#    y -0.038370 5.284090 -0.169050 
#    z -0.006090 -0.169050 4.379640 
# 
# 
# High freq. dielectric constant tensor:
#      x y z
#    x 1.930190 -0.003650 0.011070 
#    y -0.003650 1.954830 -0.006410 
#    z 0.011070 -0.006410 1.930860 
# 
# From -- ./inp_files/472702.got.cif
#   From: 2010.06.25/outbox.cif.g09.slc.cpg/sg2_237_cif.got.tgz:472702.got - 2010.06.27 13:26:56.
