data_PCOD8034064
_publ_section_title
;
Structure prediction by ZEFSAII (Michael W. Deem and Ramdas Pophale) SiO2 
 PCOD8034064
Probable space group: P -1
;
_chemical_formula_sum "Si O2"
_cell_formula_units_Z 16
_cell_length_a 9.465547
_cell_length_b 11.927885
_cell_length_c 8.924628
_cell_angle_alpha 73.617327
_cell_angle_beta 87.442745
_cell_angle_gamma 49.116992
_cell_volume 717.142089
_symmetry_space_group_name_H-M "P -1"
_symmetry_group_IT_number 2
_symmetry_cell_setting 'triclinic'
loop_
_space_group_symop_operation_xyz
x,y,z
-x,-y,-z
loop_
_atom_site_type_symbol
_atom_site_label
_atom_site_fract_x
_atom_site_fract_y
_atom_site_fract_z
Si Si1 0.807785 0.786997 0.198073
Si Si2 0.286246 0.160768 0.483413
Si Si3 0.636051 0.537237 0.978865
Si Si4 0.050014 0.745281 0.738109
Si Si5 0.471386 0.249212 0.846808
Si Si6 0.313526 0.545093 0.554740
Si Si7 0.191194 0.475387 0.320869
Si Si8 0.110538 0.034227 0.075700
O O1 0.776180 0.850713 0.345599
O O2 0.616012 0.832148 0.129782
O O3 0.865659 0.862653 0.062643
O O4 0.968735 0.596139 0.241986
O O5 0.274562 0.307456 0.437589
O O6 0.144710 0.199261 0.342476
O O7 0.500000 0.000000 0.500000
O O8 0.669423 0.554629 0.801339
O O9 0.500000 0.500000 0.000000
O O10 0.838849 0.406161 0.101220
O O11 0.529889 0.705043 0.998787
O O12 0.193819 0.698427 0.611819
O O13 0.000376 0.882824 0.793676
O O14 0.359059 0.402220 0.693866
O O15 0.686338 0.127517 0.824796
O O16 0.500000 0.500000 0.500000
O O17 0.183926 0.578285 0.410712
O O18 0.000000 0.000000 0.000000
#
# Coordination Sequence:
#
# PCOD8034064 Si02
#       8
#     2   2   2   2   2   2   2   2
#     4  12  25  48  70 101 142 189 240 296 357 427
#     4  12  27  45  70 106 144 185 237 295 356 426
#     4  11  24  43  71 106 141 184 243 292 351 430
#     4  11  24  46  70 103 138 182 241 285 353 431
#     4  11  25  44  71 104 140 190 238 288 360 422
#     4  11  24  44  74 102 142 189 240 292 348 427
#     4  12  23  44  73 100 144 186 235 296 355 413
#     4  12  28  47  72 102 148 185 231 303 366 424
#
# _framework density 22.310782
#
# number of rings (size 3 to 8) (size 9 to 14) (size 15 to 20)
#    0.000    0.500    3.750    5.250    5.250    1.000 
#    0.000    1.250    0.000    0.000    0.000    0.000 
#    0.000    0.000    0.000    0.000    0.000    0.000 
#
# Total GULP energy -198369.060726 kJ/mol
# GULP energy per Si atom -12398.066295 kJ/mol
# Density = 2.226000 g / cm^3
# Si number density = 22.310782 Si / 1000 Ang^3
#
#
#
# Elastic Constant Matrix: (Units=GPa)
#
#
# Indices 1 2 3 4 5 6 
#
# 1 136.3219 42.3481 38.3309 16.9375 14.5768 -3.5616
# 2 42.3481 128.1626 37.0770 35.6571 9.8642 -17.5054
# 3 38.3309 37.0770 104.2160 37.3792 3.9411 -0.1859
# 4 16.9375 35.6571 37.3792 47.7717 -4.5229 5.2611
# 5 14.5768 9.8642 3.9411 -4.5229 37.8892 6.1452
# 6 -3.5616 -17.5054 -0.1859 5.2611 6.1452 37.8532
#
#
#
# Elastic Compliance Matrix: (Units=1/GPa)
#
#
# Indices 1 2 3 4 5 6 
#
# 1 0.008950 -0.001956 -0.002458 -0.000093 -0.002752 0.000385
# 2 -0.001956 0.012759 0.000057 -0.010234 -0.005089 0.007965
# 3 -0.002458 0.000057 0.014468 -0.010887 -0.002154 0.001729
# 4 -0.000093 -0.010234 -0.010887 0.039434 0.010483 -0.011978
# 5 -0.002752 -0.005089 -0.002154 0.010483 0.031749 -0.009234
# 6 0.000385 0.007965 0.001729 -0.011978 -0.009234 0.033310
#
#
# Mechanical properties :
#
#
# Convention : Reuss Voigt Hill
#
# Bulk Modulus (GPa) = 36.41037 67.13470 51.77253
# Shear Modulus (GPa) = 31.53790 41.43245 36.48518
#
# Velocity S-wave (km/s) = 3.76383 4.31404 4.04829
# Velocity P-wave (km/s) = 5.93663 7.41421 6.71618
#
# Compressibility (1/GPa) = 0.02746470
#
# Stress axis : x y z
#
# Youngs Moduli (GPa) = 111.72925 78.37488 69.11667
#
# Poissons Ratio (x) = 0.15330 0.16988
# Poissons Ratio (y) = 0.21854 -0.00396
# Poissons Ratio (z) = 0.27461 -0.00449
#
# Static dielectric constant tensor:
#      x y z
#    x 3.852850 0.335390 -0.694580 
#    y 0.335390 -1.580220 8.950390 
#    z -0.694580 8.950390 -8.239140 
# 
# 
# High freq. dielectric constant tensor:
#      x y z
#    x 1.874550 -0.018070 0.012450 
#    y -0.018070 1.887670 0.016970 
#    z 0.012450 0.016970 1.887550 
# 
# From -- ./inp_files/186698.got.cif
#   From: 2010.06.25/outbox.cif.g09.slc.cpg/sg2_94_cif.got.tgz:186698.got - 2010.06.27 13:26:56.
