data_PCOD8034040
_publ_section_title
;
Structure prediction by ZEFSAII (Michael W. Deem and Ramdas Pophale) SiO2 
 PCOD8034040
Probable space group: P -1
;
_chemical_formula_sum "Si O2"
_cell_formula_units_Z 16
_cell_length_a 9.013871
_cell_length_b 18.391809
_cell_length_c 17.347959
_cell_angle_alpha 150.633985
_cell_angle_beta 32.200741
_cell_angle_gamma 139.071728
_cell_volume 749.750895
_symmetry_space_group_name_H-M "P -1"
_symmetry_group_IT_number 2
_symmetry_cell_setting 'triclinic'
loop_
_space_group_symop_operation_xyz
x,y,z
-x,-y,-z
loop_
_atom_site_type_symbol
_atom_site_label
_atom_site_fract_x
_atom_site_fract_y
_atom_site_fract_z
Si Si1 0.459476 0.343564 0.568534
Si Si2 0.757467 0.606326 0.456097
Si Si3 0.001709 0.160705 0.687397
Si Si4 0.148125 0.848932 0.579152
Si Si5 0.752851 0.842502 0.263311
Si Si6 0.733322 0.584930 0.925807
Si Si7 0.968966 0.157118 0.198010
Si Si8 0.471948 0.345611 0.089094
O O1 0.291717 0.347445 0.566600
O O2 0.285331 0.243827 0.612686
O O3 0.749697 0.265325 0.355995
O O4 0.480675 0.508145 0.745417
O O5 0.500000 0.500000 0.500000
O O6 0.858809 0.758637 0.596967
O O7 0.011275 0.512040 0.273636
O O8 0.019821 0.153982 0.765327
O O9 0.000000 0.000000 0.500000
O O10 0.741829 0.255675 0.867991
O O11 0.444653 0.776333 0.367512
O O12 0.114303 0.880190 0.712632
O O13 0.211873 0.994231 0.635056
O O14 0.838901 0.739820 0.060982
O O15 0.649450 0.610951 0.899109
O O16 0.500000 0.500000 0.000000
O O17 0.268336 0.242441 0.136287
O O18 0.000000 0.000000 0.000000
#
# Coordination Sequence:
#
# PCOD8034040 Si02
#       8
#     2   2   2   2   2   2   2   2
#     4  12  24  45  67  99 139 178 229 279 337 406
#     4  12  25  44  69 102 139 180 226 285 345 403
#     4  12  25  43  68 103 137 176 229 284 336 399
#     4  11  24  44  69  98 135 183 223 283 340 409
#     4  11  24  43  70  99 136 177 233 278 338 402
#     4  12  23  43  70 102 136 182 234 276 339 410
#     4  12  25  46  69 101 136 181 225 278 353 413
#     4  12  26  43  70 102 139 181 226 283 343 407
#
# _framework density 21.340422
#
# number of rings (size 3 to 8) (size 9 to 14) (size 15 to 20)
#    0.000    0.250    2.500    7.500    3.500    0.000 
#    0.000    1.875    0.000    0.000    0.000    0.000 
#    0.000    0.000    0.000    0.000    0.000    0.000 
#
# Total GULP energy -198293.828585 kJ/mol
# GULP energy per Si atom -12393.364287 kJ/mol
# Density = 2.129185 g / cm^3
# Si number density = 21.340422 Si / 1000 Ang^3
#
#
#
# Elastic Constant Matrix: (Units=GPa)
#
#
# Indices 1 2 3 4 5 6 
#
# 1 154.1358 19.8096 34.0928 14.4442 5.8275 -7.9362
# 2 19.8096 131.1166 25.5644 -0.2547 7.4685 15.6244
# 3 34.0928 25.5644 137.3192 12.5161 2.1163 21.9089
# 4 14.4442 -0.2547 12.5161 40.5210 2.7045 1.8010
# 5 5.8275 7.4685 2.1163 2.7045 28.2651 -2.7126
# 6 -7.9362 15.6244 21.9089 1.8010 -2.7126 44.1231
#
#
#
# Elastic Compliance Matrix: (Units=1/GPa)
#
#
# Indices 1 2 3 4 5 6 
#
# 1 0.007397 -0.001040 -0.001864 -0.002143 -0.000649 0.002671
# 2 -0.001040 0.008441 -0.000903 0.000987 -0.002322 -0.002911
# 3 -0.001864 -0.000903 0.008773 -0.001841 -0.000272 -0.004313
# 4 -0.002143 0.000987 -0.001841 0.026216 -0.002288 -0.001031
# 5 -0.000649 -0.002322 -0.000272 -0.002288 0.036672 0.003188
# 6 0.002671 -0.002911 -0.004313 -0.001031 0.003188 0.026555
#
#
# Mechanical properties :
#
#
# Convention : Reuss Voigt Hill
#
# Bulk Modulus (GPa) = 58.83077 64.61171 61.72124
# Shear Modulus (GPa) = 39.26722 45.45551 42.36136
#
# Velocity S-wave (km/s) = 4.29422 4.62022 4.46020
# Velocity P-wave (km/s) = 7.22598 7.66840 7.45047
#
# Compressibility (1/GPa) = 0.01699791
#
# Stress axis : x y z
#
# Youngs Moduli (GPa) = 135.19832 118.46950 113.98165
#
# Poissons Ratio (x) = 0.12317 0.21243
# Poissons Ratio (y) = 0.14056 0.10294
# Poissons Ratio (z) = 0.25197 0.10699
#
# Static dielectric constant tensor:
#      x y z
#    x 4.249280 0.144830 -0.167770 
#    y 0.144830 4.103700 -0.115670 
#    z -0.167770 -0.115670 4.274690 
# 
# 
# High freq. dielectric constant tensor:
#      x y z
#    x 1.852680 -0.001360 0.001070 
#    y -0.001360 1.857080 0.007760 
#    z 0.001070 0.007760 1.844680 
# 
# From -- ./inp_files/244262.got.cif
#   From: 2010.06.25/outbox.cif.g09.slc.cpg/sg2_123_cif.got.tgz:244262.got - 2010.06.27 13:26:56.
