data_PCOD8034586
_publ_section_title
;
Structure prediction by ZEFSAII (Michael W. Deem and Ramdas Pophale) SiO2 
 PCOD8034586
Probable space group: P -1
;
_chemical_formula_sum "Si O2"
_cell_formula_units_Z 16
_cell_length_a 9.878114
_cell_length_b 8.801539
_cell_length_c 21.494025
_cell_angle_alpha 151.488080
_cell_angle_beta 58.247389
_cell_angle_gamma 123.207513
_cell_volume 741.601960
_symmetry_space_group_name_H-M "P -1"
_symmetry_group_IT_number 2
_symmetry_cell_setting 'triclinic'
loop_
_space_group_symop_operation_xyz
x,y,z
-x,-y,-z
loop_
_atom_site_type_symbol
_atom_site_label
_atom_site_fract_x
_atom_site_fract_y
_atom_site_fract_z
Si Si1 0.467690 0.952744 0.823456
Si Si2 0.743284 0.861145 0.254755
Si Si3 0.239600 0.659306 0.038953
Si Si4 0.171416 0.926894 0.448422
Si Si5 0.892860 0.931642 0.062570
Si Si6 0.377393 0.241953 0.619998
Si Si7 0.453605 0.118678 0.361383
Si Si8 0.947903 0.789054 0.753322
O O1 0.480286 0.608902 0.726528
O O2 0.543688 0.974076 0.744367
O O3 0.576871 0.230920 0.939872
O O4 0.283747 0.997412 0.882602
O O5 0.738913 0.798434 0.306471
O O6 0.576097 0.955154 0.311439
O O7 0.761629 0.543119 0.097034
O O8 0.895326 0.156353 0.310113
O O9 0.165932 0.968757 0.152210
O O10 0.129173 0.436242 0.037665
O O11 0.155323 0.576427 0.359148
O O12 0.261665 0.196999 0.571808
O O13 0.273974 0.957580 0.371063
O O14 0.000000 0.000000 0.500000
O O15 0.988469 0.173551 0.177973
O O16 0.000000 0.000000 0.000000
O O17 0.500000 0.000000 0.500000
O O18 0.500000 0.500000 0.500000
#
# Coordination Sequence:
#
# PCOD8034586 Si02
#       8
#     2   2   2   2   2   2   2   2
#     4  12  25  44  72 102 136 182 234 278 344 411
#     4  11  24  45  71  94 145 182 223 283 345 411
#     4  11  26  45  68 105 140 179 232 280 351 409
#     4  12  26  44  72 106 136 176 241 287 340 405
#     4  11  25  44  69 100 138 182 229 279 342 410
#     4  12  25  45  69 100 134 183 231 277 342 411
#     4  12  23  45  71  96 140 184 225 286 341 404
#     4  11  25  46  68 103 141 179 224 289 348 405
#
# _framework density 21.574916000000002
#
# number of rings (size 3 to 8) (size 9 to 14) (size 15 to 20)
#    0.000    0.500    5.000    4.125    5.250    2.000 
#    0.000    0.000    0.000    0.000    0.000    0.000 
#    0.000    0.000    0.000    0.000    0.000    0.000 
#
# Total GULP energy -198473.750378 kJ/mol
# GULP energy per Si atom -12404.609399 kJ/mol
# Density = 2.152581 g / cm^3
# Si number density = 21.574916 Si / 1000 Ang^3
#
#
#
# Elastic Constant Matrix: (Units=GPa)
#
#
# Indices 1 2 3 4 5 6 
#
# 1 86.7572 33.7222 16.0889 -14.0031 -14.7814 6.7768
# 2 33.7222 165.9703 63.4942 -26.8392 -3.9567 6.8226
# 3 16.0889 63.4942 76.8191 -4.0113 -8.8875 3.3865
# 4 -14.0031 -26.8392 -4.0113 52.4168 -3.4667 -0.0970
# 5 -14.7814 -3.9567 -8.8875 -3.4667 44.3172 1.6920
# 6 6.7768 6.8226 3.3865 -0.0970 1.6920 33.8140
#
#
#
# Elastic Compliance Matrix: (Units=1/GPa)
#
#
# Indices 1 2 3 4 5 6 
#
# 1 0.013845 -0.001923 -0.000501 0.002980 0.004677 -0.002562
# 2 -0.001923 0.010037 -0.007762 0.003966 -0.000961 -0.000803
# 3 -0.000501 -0.007762 0.019773 -0.002402 0.002935 -0.000468
# 4 0.002980 0.003966 -0.002402 0.021893 0.002626 -0.001226
# 5 0.004677 -0.000961 0.002935 0.002626 0.024920 -0.002277
# 6 -0.002562 -0.000803 -0.000468 -0.001226 -0.002277 0.030406
#
#
# Mechanical properties :
#
#
# Convention : Reuss Voigt Hill
#
# Bulk Modulus (GPa) = 42.94879 61.79527 52.37203
# Shear Modulus (GPa) = 33.55616 40.52567 37.04092
#
# Velocity S-wave (km/s) = 3.94805 4.33872 4.14799
# Velocity P-wave (km/s) = 6.38223 7.33510 6.87519
#
# Compressibility (1/GPa) = 0.02328354
#
# Stress axis : x y z
#
# Youngs Moduli (GPa) = 72.23058 99.63448 50.57489
#
# Poissons Ratio (x) = 0.19156 0.02533
# Poissons Ratio (y) = 0.13887 0.39255
# Poissons Ratio (z) = 0.03618 0.77333
#
# Static dielectric constant tensor:
#      x y z
#    x 3.950330 0.222580 -0.190020 
#    y 0.222580 3.664120 0.942270 
#    z -0.190020 0.942270 2.575610 
# 
# 
# High freq. dielectric constant tensor:
#      x y z
#    x 1.857420 -0.001420 -0.004420 
#    y -0.001420 1.862750 0.004530 
#    z -0.004420 0.004530 1.845650 
# 
# From -- ./inp_files/245147.got.cif
#   From: 2010.06.25/outbox.cif.g09.slc.cpg/sg2_123_cif.got.tgz:245147.got - 2010.06.27 13:26:56.
