data_PCOD8034039
_publ_section_title
;
Structure prediction by ZEFSAII (Michael W. Deem and Ramdas Pophale) SiO2 
 PCOD8034039
Probable space group: P -1
;
_chemical_formula_sum "Si O2"
_cell_formula_units_Z 16
_cell_length_a 10.026689
_cell_length_b 10.370035
_cell_length_c 15.798036
_cell_angle_alpha 39.221062
_cell_angle_beta 81.712412
_cell_angle_gamma 108.758410
_cell_volume 741.574799
_symmetry_space_group_name_H-M "P -1"
_symmetry_group_IT_number 2
_symmetry_cell_setting 'triclinic'
loop_
_space_group_symop_operation_xyz
x,y,z
-x,-y,-z
loop_
_atom_site_type_symbol
_atom_site_label
_atom_site_fract_x
_atom_site_fract_y
_atom_site_fract_z
Si Si1 0.421772 0.967116 0.706981
Si Si2 0.654657 0.829569 0.799852
Si Si3 0.054887 0.842112 0.540083
Si Si4 0.812977 0.116104 0.082209
Si Si5 0.723065 0.224810 0.866644
Si Si6 0.197904 0.610041 0.749894
Si Si7 0.729211 0.577103 0.326915
Si Si8 0.068717 0.760119 0.304419
O O1 0.553335 0.942440 0.754730
O O2 0.250145 0.855812 0.837273
O O3 0.365415 0.821502 0.693576
O O4 0.532504 0.293360 0.522615
O O5 0.768608 0.930094 0.651871
O O6 0.810836 0.964395 0.788713
O O7 0.500000 0.500000 0.000000
O O8 0.132672 0.758772 0.642575
O O9 0.859458 0.559510 0.658734
O O10 0.000000 0.000000 0.500000
O O11 0.718290 0.809533 0.212422
O O12 0.770764 0.235426 0.953619
O O13 0.035663 0.329263 0.961306
O O14 0.790115 0.128714 0.842721
O O15 0.500000 0.000000 0.000000
O O16 0.245792 0.496625 0.730389
O O17 0.888925 0.680751 0.324617
O O18 0.000000 0.500000 0.500000
#
# Coordination Sequence:
#
# PCOD8034039 Si02
#       8
#     2   2   2   2   2   2   2   2
#     4  12  25  46  69 100 141 175 231 285 337 409
#     4  12  28  43  71 103 136 182 228 280 345 406
#     4  11  25  46  66 100 140 177 226 279 343 403
#     4  11  26  43  68 104 132 177 234 277 342 407
#     4  11  24  43  70  98 136 178 224 285 336 405
#     4  11  24  47  68  98 142 181 219 286 343 404
#     4  12  24  45  72  98 136 186 225 280 345 403
#     4  12  22  47  70  93 138 179 226 283 339 399
#
# _framework density 21.575706
#
# number of rings (size 3 to 8) (size 9 to 14) (size 15 to 20)
#    0.000    0.500    6.250    2.250    7.000    2.000 
#    0.000    0.000    0.000    0.000    0.000    0.000 
#    0.000    0.000    0.000    0.000    0.000    0.000 
#
# Total GULP energy -198243.245137 kJ/mol
# GULP energy per Si atom -12390.202821 kJ/mol
# Density = 2.152660 g / cm^3
# Si number density = 21.575706 Si / 1000 Ang^3
#
#
#
# Elastic Constant Matrix: (Units=GPa)
#
#
# Indices 1 2 3 4 5 6 
#
# 1 46.0786 30.6758 17.7050 1.1916 -11.4495 -5.0223
# 2 30.6758 117.7765 32.4787 -1.2848 2.8416 5.5340
# 3 17.7050 32.4787 149.9089 -9.7245 -16.6026 0.2725
# 4 1.1916 -1.2848 -9.7245 40.8641 -1.9740 -6.6484
# 5 -11.4495 2.8416 -16.6026 -1.9740 28.2737 -9.3742
# 6 -5.0223 5.5340 0.2725 -6.6484 -9.3742 43.7594
#
#
#
# Elastic Compliance Matrix: (Units=1/GPa)
#
#
# Indices 1 2 3 4 5 6 
#
# 1 0.033325 -0.009550 0.000133 0.001066 0.017578 0.008959
# 2 -0.009550 0.012044 -0.002435 -0.001043 -0.008069 -0.004491
# 3 0.000133 -0.002435 0.007974 0.002401 0.005770 0.001874
# 4 0.001066 -0.001043 0.002401 0.026126 0.005561 0.005400
# 5 0.017578 -0.008069 0.005770 0.005561 0.052046 0.014996
# 6 0.008959 -0.004491 0.001874 0.005400 0.014996 0.028470
#
#
# Mechanical properties :
#
#
# Convention : Reuss Voigt Hill
#
# Bulk Modulus (GPa) = 33.73879 52.83145 43.28512
# Shear Modulus (GPa) = 25.83077 38.10639 31.96858
#
# Velocity S-wave (km/s) = 3.46383 4.20714 3.85345
# Velocity P-wave (km/s) = 5.62751 6.93828 6.31699
#
# Compressibility (1/GPa) = 0.02963948
#
# Stress axis : x y z
#
# Youngs Moduli (GPa) = 30.00729 83.03108 125.41002
#
# Poissons Ratio (x) = 0.79293 -0.01665
# Poissons Ratio (y) = 0.28657 0.30532
# Poissons Ratio (z) = -0.00398 0.20215
#
# Static dielectric constant tensor:
#      x y z
#    x 3.939090 0.224120 -0.258010 
#    y 0.224120 4.080310 -0.066390 
#    z -0.258010 -0.066390 4.725940 
# 
# 
# High freq. dielectric constant tensor:
#      x y z
#    x 1.830370 0.002970 -0.014450 
#    y 0.002970 1.852910 -0.000200 
#    z -0.014450 -0.000200 1.874730 
# 
# From -- ./inp_files/299303.got.cif
#   From: 2010.06.25/outbox.cif.g09.slc.cpg/sg2_150_cif.got.tgz:299303.got - 2010.06.27 13:26:56.
