data_PCOD8034542
_publ_section_title
;
Structure prediction by ZEFSAII (Michael W. Deem and Ramdas Pophale) SiO2 
 PCOD8034542
Probable space group: P -1
;
_chemical_formula_sum "Si O2"
_cell_formula_units_Z 16
_cell_length_a 15.363111
_cell_length_b 8.200383
_cell_length_c 13.181560
_cell_angle_alpha 116.224323
_cell_angle_beta 153.246966
_cell_angle_gamma 74.199604
_cell_volume 639.100394
_symmetry_space_group_name_H-M "P -1"
_symmetry_group_IT_number 2
_symmetry_cell_setting 'triclinic'
loop_
_space_group_symop_operation_xyz
x,y,z
-x,-y,-z
loop_
_atom_site_type_symbol
_atom_site_label
_atom_site_fract_x
_atom_site_fract_y
_atom_site_fract_z
Si Si1 0.315714 0.259900 0.165510
Si Si2 0.305896 0.821217 0.495876
Si Si3 0.843363 0.437646 0.011114
Si Si4 0.414876 0.783253 0.159892
Si Si5 0.959229 0.806745 0.967920
Si Si6 0.149220 0.725208 0.526923
Si Si7 0.318998 0.418600 0.712897
Si Si8 0.897781 0.138961 0.274425
O O1 0.254164 0.452101 0.138263
O O2 0.257091 0.216646 0.211322
O O3 0.175719 0.078886 0.902792
O O4 0.560389 0.325799 0.418109
O O5 0.117032 0.801024 0.221149
O O6 0.246814 0.837933 0.556650
O O7 0.487567 0.995793 0.693192
O O8 0.928953 0.582147 0.232618
O O9 0.677568 0.253263 0.833425
O O10 0.028947 0.370680 0.138916
O O11 0.587884 0.681813 0.304941
O O12 0.233520 0.729690 0.872303
O O13 0.000000 0.000000 0.000000
O O14 0.281532 0.599297 0.672198
O O15 0.127566 0.871377 0.632069
O O16 0.129473 0.254169 0.517878
O O17 0.500000 0.500000 0.000000
#
# Coordination Sequence:
#
# PCOD8034542 Si02
#       8
#     2   2   2   2   2   2   2   2
#     4  11  26  49  75 110 145 192 243 307 367 437
#     4  11  27  48  73 110 144 193 249 297 372 437
#     4  12  26  48  77 105 148 194 246 305 370 429
#     4  11  24  45  70 107 148 189 243 296 366 435
#     4  12  27  51  76 106 146 193 246 311 370 429
#     4  12  25  46  72 109 148 194 240 303 360 439
#     4  12  23  42  74 107 148 202 241 290 364 436
#     4  11  24  46  71 107 154 187 240 298 364 436
#
# _framework density 25.035191000000001
#
# number of rings (size 3 to 8) (size 9 to 14) (size 15 to 20)
#    0.000    0.500    3.750    4.500    1.750    5.000 
#    2.250    0.000    0.000    0.000    0.000    0.000 
#    0.000    0.000    0.000    0.000    0.000    0.000 
#
# Total GULP energy -198219.479633 kJ/mol
# GULP energy per Si atom -12388.717477 kJ/mol
# Density = 2.497821 g / cm^3
# Si number density = 25.035191 Si / 1000 Ang^3
#
#
#
# Elastic Constant Matrix: (Units=GPa)
#
#
# Indices 1 2 3 4 5 6 
#
# 1 174.8917 32.1385 16.3475 5.2422 8.2429 7.1590
# 2 32.1385 100.5877 5.2533 -12.8765 -3.8062 5.3817
# 3 16.3475 5.2533 65.1130 -4.2577 11.3099 8.4935
# 4 5.2422 -12.8765 -4.2577 30.8891 -0.7290 4.5477
# 5 8.2429 -3.8062 11.3099 -0.7290 38.8314 0.4377
# 6 7.1590 5.3817 8.4935 4.5477 0.4377 48.6208
#
#
#
# Elastic Compliance Matrix: (Units=1/GPa)
#
#
# Indices 1 2 3 4 5 6 
#
# 1 0.006397 -0.002293 -0.001320 -0.002217 -0.001237 -0.000239
# 2 -0.002293 0.011519 -0.000118 0.005429 0.001768 -0.001440
# 3 -0.001320 -0.000118 0.017080 0.002862 -0.004618 -0.003002
# 4 -0.002217 0.005429 0.002862 0.036040 0.000893 -0.004153
# 5 -0.001237 0.001768 -0.004618 0.000893 0.027545 0.000462
# 6 -0.000239 -0.001440 -0.003002 -0.004153 0.000462 0.021671
#
#
# Mechanical properties :
#
#
# Convention : Reuss Voigt Hill
#
# Bulk Modulus (GPa) = 36.31820 49.78569 43.05194
# Shear Modulus (GPa) = 36.52515 42.79182 39.65848
#
# Velocity S-wave (km/s) = 3.82377 4.13881 3.98441
# Velocity P-wave (km/s) = 5.83380 6.53981 6.19687
#
# Compressibility (1/GPa) = 0.02753441
#
# Stress axis : x y z
#
# Youngs Moduli (GPa) = 156.32063 86.81138 58.54855
#
# Poissons Ratio (x) = 0.19905 0.07729
# Poissons Ratio (y) = 0.35842 0.00691
# Poissons Ratio (z) = 0.20635 0.01024
#
# Static dielectric constant tensor:
#      x y z
#    x 5.019410 -0.267740 0.309570 
#    y -0.267740 5.225620 -0.662250 
#    z 0.309570 -0.662250 4.963960 
# 
# 
# High freq. dielectric constant tensor:
#      x y z
#    x 2.010560 -0.001310 0.010310 
#    y -0.001310 2.009320 -0.013660 
#    z 0.010310 -0.013660 1.990800 
# 
# From -- ./inp_files/447966.got.cif
#   From: 2010.06.25/outbox.cif.g09.slc.cpg/sg2_224_cif.got.tgz:447966.got - 2010.06.27 13:26:56.
