data_PCOD8034309
_publ_section_title
;
Structure prediction by ZEFSAII (Michael W. Deem and Ramdas Pophale) SiO2 
 PCOD8034309
Probable space group: P -1
;
_chemical_formula_sum "Si O2"
_cell_formula_units_Z 14
_cell_length_a 11.532293
_cell_length_b 15.363022
_cell_length_c 9.168045
_cell_angle_alpha 76.133731
_cell_angle_beta 94.702706
_cell_angle_gamma 27.895066
_cell_volume 562.676498
_symmetry_space_group_name_H-M "P -1"
_symmetry_group_IT_number 2
_symmetry_cell_setting 'triclinic'
loop_
_space_group_symop_operation_xyz
x,y,z
-x,-y,-z
loop_
_atom_site_type_symbol
_atom_site_label
_atom_site_fract_x
_atom_site_fract_y
_atom_site_fract_z
Si Si1 0.194072 0.015054 0.336619
Si Si2 0.380932 0.390012 0.219797
Si Si3 0.699649 0.787173 0.012203
Si Si4 0.771321 0.407741 0.372151
Si Si5 0.774178 0.003519 0.204391
Si Si6 0.160592 0.749753 0.066787
Si Si7 0.270458 0.356211 0.670694
O O1 0.014685 0.217486 0.336527
O O2 0.425036 0.782940 0.546716
O O3 0.407344 0.909837 0.275320
O O4 0.931926 0.153562 0.147730
O O5 0.335801 0.527560 0.175599
O O6 0.039175 0.584476 0.077787
O O7 0.601093 0.214645 0.171064
O O8 0.757277 0.654782 0.162125
O O9 0.500000 0.000000 0.000000
O O10 0.454116 0.921033 0.813026
O O11 0.403987 0.648873 0.194148
O O12 0.779763 0.501524 0.396209
O O13 0.884334 0.261104 0.573682
O O14 0.844215 0.972673 0.052407
O O15 0.000000 0.500000 0.500000
#
# Coordination Sequence:
#
# PCOD8034309 Si02
#       7
#     2   2   2   2   2   2   2
#     4  11  25  46  71 107 139 187 234 286 347 417
#     4  11  25  45  72 104 142 182 234 290 351 412
#     4  12  22  45  71 101 138 183 230 286 353 413
#     4  11  28  46  69 106 141 183 240 286 346 417
#     4  11  24  44  71 105 136 191 233 287 351 415
#     4  12  25  48  71 102 146 187 233 290 343 418
#     4  12  24  45  73  98 140 181 229 296 349 409
#
# _framework density 24.881081999999999
#
# number of rings (size 3 to 8) (size 9 to 14) (size 15 to 20)
#    0.000    0.571    4.286    3.000    2.000    4.571 
#    5.143    0.000    0.000    0.000    0.000    0.000 
#    0.000    0.000    0.000    0.000    0.000    0.000 
#
# Total GULP energy -173526.727409 kJ/mol
# GULP energy per Si atom -12394.766244 kJ/mol
# Density = 2.482445 g / cm^3
# Si number density = 24.881082 Si / 1000 Ang^3
#
#
#
# Elastic Constant Matrix: (Units=GPa)
#
#
# Indices 1 2 3 4 5 6 
#
# 1 87.5310 41.2916 17.1682 -2.1220 26.4465 11.6600
# 2 41.2916 140.1597 27.4538 13.0564 0.1068 11.3288
# 3 17.1682 27.4538 115.1769 2.6702 23.1901 -2.2343
# 4 -2.1220 13.0564 2.6702 40.5271 -4.7051 1.3883
# 5 26.4465 0.1068 23.1901 -4.7051 38.8892 1.6299
# 6 11.6600 11.3288 -2.2343 1.3883 1.6299 22.1822
#
#
#
# Elastic Compliance Matrix: (Units=1/GPa)
#
#
# Indices 1 2 3 4 5 6 
#
# 1 0.018343 -0.005203 0.000890 0.001325 -0.012576 -0.006054
# 2 -0.005203 0.009596 -0.002466 -0.002557 0.004782 -0.002606
# 3 0.000890 -0.002466 0.010640 -0.000772 -0.007139 0.002436
# 4 0.001325 -0.002557 -0.000772 0.025984 0.002765 -0.001298
# 5 -0.012576 0.004782 -0.007139 0.002765 0.038827 0.000423
# 6 -0.006054 -0.002606 0.002436 -0.001298 0.000423 0.049890
#
#
# Mechanical properties :
#
#
# Convention : Reuss Voigt Hill
#
# Bulk Modulus (GPa) = 39.96642 57.18833 48.57737
# Shear Modulus (GPa) = 28.54268 37.44996 32.99632
#
# Velocity S-wave (km/s) = 3.39066 3.88385 3.64560
# Velocity P-wave (km/s) = 5.60594 6.56863 6.10629
#
# Compressibility (1/GPa) = 0.02502100
#
# Stress axis : x y z
#
# Youngs Moduli (GPa) = 54.51797 104.21469 93.98603
#
# Poissons Ratio (x) = 0.54219 -0.08364
# Poissons Ratio (y) = 0.28364 0.23175
# Poissons Ratio (z) = -0.04852 0.25697
#
# Static dielectric constant tensor:
#      x y z
#    x 4.215560 -0.158860 0.247630 
#    y -0.158860 4.741940 -0.258680 
#    z 0.247630 -0.258680 5.670020 
# 
# 
# High freq. dielectric constant tensor:
#      x y z
#    x 1.971040 0.000980 0.016270 
#    y 0.000980 2.003200 -0.004220 
#    z 0.016270 -0.004220 2.016150 
# 
# From -- ./inp_files/270342.got.cif
#   From: 2010.06.25/outbox.cif.g09.slc.cpg/sg2_136_cif.got.tgz:270342.got - 2010.06.27 13:26:56.
