data_PCOD8034642
_publ_section_title
;
Structure prediction by ZEFSAII (Michael W. Deem and Ramdas Pophale) SiO2 
 PCOD8034642
Probable space group: P -1
;
_chemical_formula_sum "Si O2"
_cell_formula_units_Z 16
_cell_length_a 12.709029
_cell_length_b 9.322694
_cell_length_c 11.595248
_cell_angle_alpha 124.903416
_cell_angle_beta 45.123306
_cell_angle_gamma 133.766820
_cell_volume 693.484185
_symmetry_space_group_name_H-M "P -1"
_symmetry_group_IT_number 2
_symmetry_cell_setting 'triclinic'
loop_
_space_group_symop_operation_xyz
x,y,z
-x,-y,-z
loop_
_atom_site_type_symbol
_atom_site_label
_atom_site_fract_x
_atom_site_fract_y
_atom_site_fract_z
Si Si1 0.676953 0.498433 0.368817
Si Si2 0.877528 0.844648 0.199912
Si Si3 0.175294 0.452000 0.085626
Si Si4 0.162735 0.267801 0.248643
Si Si5 0.331344 0.939377 0.530608
Si Si6 0.548598 0.782888 0.903880
Si Si7 0.115520 0.496466 0.581222
Si Si8 0.505241 0.927287 0.774486
O O1 0.500000 0.500000 0.500000
O O2 0.819328 0.679167 0.268299
O O3 0.743377 0.519359 0.457454
O O4 0.649057 0.285256 0.246998
O O5 0.734784 0.907498 0.312564
O O6 0.911639 0.753997 0.015858
O O7 0.051671 0.034464 0.195342
O O8 0.217194 0.408531 0.160228
O O9 0.048208 0.544297 0.234121
O O10 0.350746 0.612915 0.963999
O O11 0.338034 0.316648 0.197970
O O12 0.059980 0.332299 0.446662
O O13 0.187130 0.714958 0.568585
O O14 0.500000 0.000000 0.500000
O O15 0.364301 0.954523 0.375140
O O16 0.607569 0.894235 0.785566
O O17 0.575407 0.939973 0.056495
#
# Coordination Sequence:
#
# PCOD8034642 Si02
#       8
#     2   2   2   2   2   2   2   2
#     4  12  24  46  75 107 150 191 251 294 368 449
#     4  12  28  45  74 109 151 194 243 309 362 440
#     4  12  27  48  74 108 151 190 250 304 372 440
#     4  12  28  48  73 108 152 190 253 299 376 432
#     4  12  25  44  79 106 149 194 247 295 372 438
#     4  11  27  46  77 104 150 197 243 309 371 431
#     4  12  28  46  77 110 147 197 241 310 368 436
#     4  11  24  45  73 107 146 191 254 293 360 447
#
# _framework density 23.071902999999999
#
# number of rings (size 3 to 8) (size 9 to 14) (size 15 to 20)
#    0.000    0.250    5.000    2.625    7.000    3.000 
#    0.000    0.000    0.000    0.000    0.000    0.000 
#    0.000    0.000    0.000    0.000    0.000    0.000 
#
# Total GULP energy -198505.934604 kJ/mol
# GULP energy per Si atom -12406.620913 kJ/mol
# Density = 2.301939 g / cm^3
# Si number density = 23.071903 Si / 1000 Ang^3
#
#
#
# Elastic Constant Matrix: (Units=GPa)
#
#
# Indices 1 2 3 4 5 6 
#
# 1 108.3208 26.7631 57.6341 -5.0935 5.9032 -11.5907
# 2 26.7631 91.1346 25.1418 11.1777 -1.6041 5.3398
# 3 57.6341 25.1418 132.1172 11.8281 13.0587 -0.3926
# 4 -5.0935 11.1777 11.8281 42.7363 7.9166 5.9975
# 5 5.9032 -1.6041 13.0587 7.9166 35.1963 -1.2707
# 6 -11.5907 5.3398 -0.3926 5.9975 -1.2707 37.9398
#
#
#
# Elastic Compliance Matrix: (Units=1/GPa)
#
#
# Indices 1 2 3 4 5 6 
#
# 1 0.013613 -0.003161 -0.005547 0.003625 -0.001042 0.003938
# 2 -0.003161 0.012764 -0.000954 -0.003557 0.002189 -0.002137
# 3 -0.005547 -0.000954 0.010659 -0.002746 -0.002490 -0.001099
# 4 0.003625 -0.003557 -0.002746 0.027027 -0.005935 -0.002892
# 5 -0.001042 0.002189 -0.002490 -0.005935 0.030993 0.001324
# 6 0.003938 -0.002137 -0.001099 -0.002892 0.001324 0.028351
#
#
# Mechanical properties :
#
#
# Convention : Reuss Voigt Hill
#
# Bulk Modulus (GPa) = 56.45898 61.18339 58.82119
# Shear Modulus (GPa) = 33.63940 37.97671 35.80806
#
# Velocity S-wave (km/s) = 3.82255 4.06151 3.94384
# Velocity P-wave (km/s) = 6.63374 6.96927 6.80357
#
# Compressibility (1/GPa) = 0.01771197
#
# Stress axis : x y z
#
# Youngs Moduli (GPa) = 73.46098 78.34338 93.81812
#
# Poissons Ratio (x) = 0.24765 0.52037
# Poissons Ratio (y) = 0.23222 0.08953
# Poissons Ratio (z) = 0.40745 0.07477
#
# Static dielectric constant tensor:
#      x y z
#    x 4.067330 -0.172050 0.142620 
#    y -0.172050 4.236950 0.139000 
#    z 0.142620 0.139000 4.242580 
# 
# 
# High freq. dielectric constant tensor:
#      x y z
#    x 1.915890 -0.008610 0.012240 
#    y -0.008610 1.918560 0.008720 
#    z 0.012240 0.008720 1.918520 
# 
# From -- ./inp_files/419702.got.cif
#   From: 2010.06.25/outbox.cif.g09.slc.cpg/sg2_210_cif.got.tgz:419702.got - 2010.06.27 13:26:56.
