data_PCOD8034730
_publ_section_title
;
Structure prediction by ZEFSAII (Michael W. Deem and Ramdas Pophale) SiO2 
 PCOD8034730
Probable space group: P -1
;
_chemical_formula_sum "Si O2"
_cell_formula_units_Z 16
_cell_length_a 19.242728
_cell_length_b 8.372193
_cell_length_c 16.823730
_cell_angle_alpha 138.291245
_cell_angle_beta 22.061905
_cell_angle_gamma 139.797768
_cell_volume 648.708466
_symmetry_space_group_name_H-M "P -1"
_symmetry_group_IT_number 2
_symmetry_cell_setting 'triclinic'
loop_
_space_group_symop_operation_xyz
x,y,z
-x,-y,-z
loop_
_atom_site_type_symbol
_atom_site_label
_atom_site_fract_x
_atom_site_fract_y
_atom_site_fract_z
Si Si1 0.295286 0.703184 0.274054
Si Si2 0.056481 0.075320 0.636558
Si Si3 0.644317 0.011306 0.108256
Si Si4 0.572220 0.970468 0.498213
Si Si5 0.924093 0.439436 0.278975
Si Si6 0.665429 0.500072 0.173912
Si Si7 0.472986 0.707583 0.927636
Si Si8 0.873467 0.694410 0.569779
O O1 0.150040 0.472785 0.387353
O O2 0.506980 0.773600 0.117902
O O3 0.313122 0.612073 0.131038
O O4 0.215114 0.949184 0.454651
O O5 0.148493 0.377033 0.638277
O O6 0.986022 0.972806 0.583852
O O7 0.867721 0.014253 0.870687
O O8 0.580094 0.000496 0.263724
O O9 0.610674 0.247167 0.187131
O O10 0.590714 0.691362 0.377427
O O11 0.500000 0.000000 0.500000
O O12 0.770104 0.188878 0.378879
O O13 0.004457 0.596644 0.332429
O O14 0.104478 0.372389 0.024502
O O15 0.582395 0.448238 0.152969
O O16 0.673436 0.667433 0.727231
O O17 0.500000 0.000000 0.000000
#
# Coordination Sequence:
#
# PCOD8034730 Si02
#       8
#     2   2   2   2   2   2   2   2
#     4  12  24  42  72 106 145 186 232 290 358 416
#     4  11  25  44  72 103 145 186 233 289 358 417
#     4  11  25  50  70 105 140 187 237 290 350 423
#     4  12  27  47  73  99 139 188 237 294 354 413
#     4  11  24  46  67 104 138 183 239 293 346 424
#     4  11  25  46  73 101 142 189 236 289 351 415
#     4  12  22  41  73 107 143 188 229 283 359 420
#     4  12  23  41  67 107 148 183 234 291 345 426
#
# _framework density 24.664391999999999
#
# number of rings (size 3 to 8) (size 9 to 14) (size 15 to 20)
#    0.000    0.500    3.750    4.875    1.750    1.000 
#    2.250    1.250    0.000    0.000    0.000    0.000 
#    0.000    0.000    0.000    0.000    0.000    0.000 
#
# Total GULP energy -198388.925409 kJ/mol
# GULP energy per Si atom -12399.307838 kJ/mol
# Density = 2.460826 g / cm^3
# Si number density = 24.664392 Si / 1000 Ang^3
#
#
#
# Elastic Constant Matrix: (Units=GPa)
#
#
# Indices 1 2 3 4 5 6 
#
# 1 89.7046 1.6431 19.6035 -2.8064 16.3383 -3.5282
# 2 1.6431 59.0824 3.0743 2.0780 9.5612 12.8470
# 3 19.6035 3.0743 79.6060 -9.0060 14.2707 11.3147
# 4 -2.8064 2.0780 -9.0060 27.3251 -6.1547 4.8175
# 5 16.3383 9.5612 14.2707 -6.1547 43.0297 8.1218
# 6 -3.5282 12.8470 11.3147 4.8175 8.1218 26.1338
#
#
#
# Elastic Compliance Matrix: (Units=1/GPa)
#
#
# Indices 1 2 3 4 5 6 
#
# 1 0.012914 -0.000463 -0.003211 -0.001738 -0.004971 0.005226
# 2 -0.000463 0.019329 0.001154 -0.000150 -0.002793 -0.009169
# 3 -0.003211 0.001154 0.015438 0.005708 -0.001797 -0.008179
# 4 -0.001738 -0.000150 0.005708 0.042167 0.007219 -0.012649
# 5 -0.004971 -0.002793 -0.001797 0.007219 0.029052 -0.008879
# 6 0.005226 -0.009169 -0.008179 -0.012649 -0.008879 0.052110
#
#
# Mechanical properties :
#
#
# Convention : Reuss Voigt Hill
#
# Bulk Modulus (GPa) = 23.45015 30.78164 27.11589
# Shear Modulus (GPa) = 26.27935 32.90251 29.59093
#
# Velocity S-wave (km/s) = 3.26771 3.65637 3.46749
# Velocity P-wave (km/s) = 4.87499 5.50751 5.20088
#
# Compressibility (1/GPa) = 0.04264366
#
# Stress axis : x y z
#
# Youngs Moduli (GPa) = 77.43301 51.73510 64.77376
#
# Poissons Ratio (x) = 0.02395 0.20797
# Poissons Ratio (y) = 0.03585 -0.07478
# Poissons Ratio (z) = 0.24861 -0.05973
#
# Static dielectric constant tensor:
#      x y z
#    x 4.268880 -0.354970 0.126770 
#    y -0.354970 4.366510 0.266330 
#    z 0.126770 0.266330 5.081190 
# 
# 
# High freq. dielectric constant tensor:
#      x y z
#    x 1.966560 -0.020220 0.005460 
#    y -0.020220 1.990400 -0.003400 
#    z 0.005460 -0.003400 1.995740 
# 
# From -- ./inp_files/346255.got.cif
#   From: 2010.06.25/outbox.cif.g09.slc.cpg/sg2_174_cif.got.tgz:346255.got - 2010.06.27 13:26:56.
