data_PCOD8034339
_publ_section_title
;
Structure prediction by ZEFSAII (Michael W. Deem and Ramdas Pophale) SiO2 
 PCOD8034339
Probable space group: P -1
;
_chemical_formula_sum "Si O2"
_cell_formula_units_Z 16
_cell_length_a 8.971498
_cell_length_b 21.104932
_cell_length_c 12.781094
_cell_angle_alpha 38.416924
_cell_angle_beta 44.539368
_cell_angle_gamma 27.845771
_cell_volume 700.721465
_symmetry_space_group_name_H-M "P -1"
_symmetry_group_IT_number 2
_symmetry_cell_setting 'triclinic'
loop_
_space_group_symop_operation_xyz
x,y,z
-x,-y,-z
loop_
_atom_site_type_symbol
_atom_site_label
_atom_site_fract_x
_atom_site_fract_y
_atom_site_fract_z
Si Si1 0.289457 0.886449 0.861836
Si Si2 0.689539 0.387802 0.455024
Si Si3 0.292392 0.181320 0.086947
Si Si4 0.340315 0.484730 0.019286
Si Si5 0.458623 0.124329 0.683660
Si Si6 0.392828 0.820045 0.247961
Si Si7 0.339212 0.255392 0.351586
Si Si8 0.729798 0.328367 0.834616
O O1 0.443602 0.910839 0.833504
O O2 0.411604 0.853179 0.725303
O O3 0.346850 0.757390 0.057871
O O4 0.913223 0.033063 0.852635
O O5 0.500000 0.500000 0.500000
O O6 0.610627 0.299318 0.589941
O O7 0.551965 0.495086 0.285953
O O8 0.058843 0.276853 0.435402
O O9 0.309332 0.057476 0.201763
O O10 0.326636 0.238103 0.891663
O O11 0.963836 0.341012 0.097813
O O12 0.221995 0.415369 0.207797
O O13 0.500000 0.500000 0.000000
O O14 0.654484 0.351110 0.965032
O O15 0.583843 0.146911 0.688276
O O16 0.489919 0.174177 0.494337
O O17 0.086302 0.233257 0.750021
#
# Coordination Sequence:
#
# PCOD8034339 Si02
#       8
#     2   2   2   2   2   2   2   2
#     4  11  25  46  73 102 139 186 239 291 345 421
#     4  12  24  43  71 102 139 181 235 291 343 412
#     4  12  25  46  75 104 138 188 242 286 351 420
#     4  11  26  45  74 103 144 181 231 288 357 419
#     4  12  27  45  73 105 145 184 235 291 352 427
#     4  12  27  43  72 106 143 185 236 291 355 412
#     4  11  26  47  70 107 142 184 236 290 354 418
#     4  11  24  44  72 103 139 183 234 290 353 411
#
# _framework density 22.83361
#
# number of rings (size 3 to 8) (size 9 to 14) (size 15 to 20)
#    0.000    0.500    2.500    5.250    5.250    6.000 
#    0.000    0.000    0.000    0.000    0.000    0.000 
#    0.000    0.000    0.000    0.000    0.000    0.000 
#
# Total GULP energy -198286.077409 kJ/mol
# GULP energy per Si atom -12392.879838 kJ/mol
# Density = 2.278164 g / cm^3
# Si number density = 22.833610 Si / 1000 Ang^3
#
#
#
# Elastic Constant Matrix: (Units=GPa)
#
#
# Indices 1 2 3 4 5 6 
#
# 1 117.0242 11.5490 33.4420 -9.4087 -6.3155 21.9560
# 2 11.5490 83.9461 29.0956 -7.4502 -10.4137 10.8657
# 3 33.4420 29.0956 117.0073 -14.2653 -2.5624 16.0482
# 4 -9.4087 -7.4502 -14.2653 33.4248 3.2603 -1.7706
# 5 -6.3155 -10.4137 -2.5624 3.2603 32.6037 -7.4208
# 6 21.9560 10.8657 16.0482 -1.7706 -7.4208 36.6446
#
#
#
# Elastic Compliance Matrix: (Units=1/GPa)
#
#
# Indices 1 2 3 4 5 6 
#
# 1 0.010237 0.000183 -0.002050 0.001724 0.000548 -0.005096
# 2 0.000183 0.013744 -0.002931 0.001404 0.003574 -0.002110
# 3 -0.002050 -0.002931 0.010598 0.003291 -0.001439 -0.002676
# 4 0.001724 0.001404 0.003291 0.032277 -0.002610 -0.001859
# 5 0.000548 0.003574 -0.001439 -0.002610 0.033406 0.005881
# 6 -0.005096 -0.002110 -0.002676 -0.001859 0.005881 0.033241
#
#
# Mechanical properties :
#
#
# Convention : Reuss Voigt Hill
#
# Bulk Modulus (GPa) = 40.02831 51.79453 45.91142
# Shear Modulus (GPa) = 33.01903 36.79403 34.90653
#
# Velocity S-wave (km/s) = 3.80685 4.01858 3.91415
# Velocity P-wave (km/s) = 6.07382 6.65317 6.37008
#
# Compressibility (1/GPa) = 0.02498232
#
# Stress axis : x y z
#
# Youngs Moduli (GPa) = 97.68120 72.75774 94.35602
#
# Poissons Ratio (x) = -0.01330 0.19346
# Poissons Ratio (y) = -0.01785 0.27658
# Poissons Ratio (z) = 0.20028 0.21327
#
# Static dielectric constant tensor:
#      x y z
#    x 5.197230 -12.033820 3.632670 
#    y -12.033820 134.940670 -39.995800 
#    z 3.632670 -39.995800 16.264370 
# 
# 
# High freq. dielectric constant tensor:
#      x y z
#    x 1.907820 0.012040 -0.001040 
#    y 0.012040 1.913840 0.000730 
#    z -0.001040 0.000730 1.906960 
# 
# From -- ./inp_files/333714.got.cif
#   From: 2010.06.25/outbox.cif.g09.slc.cpg/sg2_167_cif.got.tgz:333714.got - 2010.06.27 13:26:56.
