data_PCOD8034299
_publ_section_title
;
Structure prediction by ZEFSAII (Michael W. Deem and Ramdas Pophale) SiO2 
 PCOD8034299
Probable space group: P -1
;
_chemical_formula_sum "Si O2"
_cell_formula_units_Z 14
_cell_length_a 8.519689
_cell_length_b 5.047767
_cell_length_c 17.255882
_cell_angle_alpha 80.088089
_cell_angle_beta 52.951960
_cell_angle_gamma 104.266477
_cell_volume 522.395537
_symmetry_space_group_name_H-M "P -1"
_symmetry_group_IT_number 2
_symmetry_cell_setting 'triclinic'
loop_
_space_group_symop_operation_xyz
x,y,z
-x,-y,-z
loop_
_atom_site_type_symbol
_atom_site_label
_atom_site_fract_x
_atom_site_fract_y
_atom_site_fract_z
Si Si1 0.229634 0.999549 0.140052
Si Si2 0.337200 0.506819 0.197634
Si Si3 0.224937 0.356968 0.638905
Si Si4 0.313140 0.648421 0.832011
Si Si5 0.472840 0.979064 0.611082
Si Si6 0.135769 0.853623 0.008617
Si Si7 0.070697 0.957491 0.565139
O O1 0.346911 0.825074 0.157893
O O2 0.277392 0.035207 0.031702
O O3 0.966937 0.821592 0.234207
O O4 0.318589 0.329340 0.132428
O O5 0.560469 0.555593 0.174493
O O6 0.122879 0.329355 0.322917
O O7 0.320541 0.710282 0.611705
O O8 0.131010 0.256480 0.584614
O O9 0.417882 0.259213 0.602779
O O10 0.447685 0.876858 0.712922
O O11 0.058868 0.467749 0.890142
O O12 0.313430 0.827358 0.900495
O O13 0.722360 0.110006 0.503670
O O14 0.000000 0.000000 0.000000
O O15 0.000000 0.000000 0.500000
#
# Coordination Sequence:
#
# PCOD8034299 Si02
#       7
#     2   2   2   2   2   2   2
#     4  11  25  47  73 102 148 181 235 289 354 416
#     4  11  27  47  70 105 146 188 225 290 357 420
#     4  11  24  44  71 101 143 185 240 277 351 404
#     4  11  26  45  71 105 140 182 238 287 356 408
#     4  12  24  46  72 104 141 192 229 294 335 425
#     4  11  26  46  77 103 136 184 242 292 348 419
#     4  11  24  46  70 108 145 186 236 284 351 417
#
# _framework density 26.799617999999999
#
# number of rings (size 3 to 8) (size 9 to 14) (size 15 to 20)
#    0.000    0.857    2.857    3.429    6.000    3.429 
#    0.000    7.143    0.000    0.000    0.000    0.000 
#    0.000    0.000    0.000    0.000    0.000    0.000 
#
# Total GULP energy -173637.015777 kJ/mol
# GULP energy per Si atom -12402.643984 kJ/mol
# Density = 2.673862 g / cm^3
# Si number density = 26.799618 Si / 1000 Ang^3
#
#
#
# Elastic Constant Matrix: (Units=GPa)
#
#
# Indices 1 2 3 4 5 6 
#
# 1 94.5664 5.0170 41.2404 0.5394 8.1185 10.7097
# 2 5.0170 66.7100 7.4528 11.4535 -8.0447 -1.0293
# 3 41.2404 7.4528 142.0173 29.6784 4.5004 13.7281
# 4 0.5394 11.4535 29.6784 26.3820 3.5610 0.4863
# 5 8.1185 -8.0447 4.5004 3.5610 61.4234 -2.4276
# 6 10.7097 -1.0293 13.7281 0.4863 -2.4276 39.4770
#
#
#
# Elastic Compliance Matrix: (Units=1/GPa)
#
#
# Indices 1 2 3 4 5 6 
#
# 1 0.013118 -0.001796 -0.004724 0.006145 -0.002065 -0.002165
# 2 -0.001796 0.016930 0.001416 -0.009314 0.002920 0.000730
# 3 -0.004724 0.001416 0.011334 -0.013312 0.000656 -0.002418
# 4 0.006145 -0.009314 -0.013312 0.057348 -0.004312 0.001748
# 5 -0.002065 0.002920 0.000656 -0.004312 0.017198 0.001519
# 6 -0.002165 0.000730 -0.002418 0.001748 0.001519 0.026851
#
#
# Mechanical properties :
#
#
# Convention : Reuss Voigt Hill
#
# Bulk Modulus (GPa) = 32.07896 45.63490 38.85693
# Shear Modulus (GPa) = 30.60408 42.09538 36.34973
#
# Velocity S-wave (km/s) = 3.38296 3.96756 3.68686
# Velocity P-wave (km/s) = 5.22064 6.16878 5.71441
#
# Compressibility (1/GPa) = 0.03117308
#
# Stress axis : x y z
#
# Youngs Moduli (GPa) = 76.23349 59.06810 88.23045
#
# Poissons Ratio (x) = 0.10609 0.41683
# Poissons Ratio (y) = 0.13693 -0.12497
# Poissons Ratio (z) = 0.36015 -0.08367
#
# Static dielectric constant tensor:
#      x y z
#    x 5.544760 0.497800 -0.583280 
#    y 0.497800 4.890230 -0.071240 
#    z -0.583280 -0.071240 5.589760 
# 
# 
# High freq. dielectric constant tensor:
#      x y z
#    x 2.084950 0.003840 -0.008500 
#    y 0.003840 2.068440 0.000900 
#    z -0.008500 0.000900 2.108650 
# 
# From -- ./inp_files/135065.got.cif
#   From: 2010.06.25/outbox.cif.g09.slc.cpg/sg2_68_cif.got.tgz:135065.got - 2010.06.27 13:26:56.
