data_PCOD8034046
_publ_section_title
;
Structure prediction by ZEFSAII (Michael W. Deem and Ramdas Pophale) SiO2 
 PCOD8034046
Probable space group: P -1
;
_chemical_formula_sum "Si O2"
_cell_formula_units_Z 16
_cell_length_a 9.545017
_cell_length_b 27.624775
_cell_length_c 11.802086
_cell_angle_alpha 28.169953
_cell_angle_beta 36.309445
_cell_angle_gamma 28.314488
_cell_volume 690.642330
_symmetry_space_group_name_H-M "P -1"
_symmetry_group_IT_number 2
_symmetry_cell_setting 'triclinic'
loop_
_space_group_symop_operation_xyz
x,y,z
-x,-y,-z
loop_
_atom_site_type_symbol
_atom_site_label
_atom_site_fract_x
_atom_site_fract_y
_atom_site_fract_z
Si Si1 0.144731 0.666547 0.145223
Si Si2 0.768708 0.682771 0.971731
Si Si3 0.645566 0.843536 0.353340
Si Si4 0.158793 0.563123 0.572490
Si Si5 0.289676 0.943499 0.158641
Si Si6 0.266237 0.857179 0.761816
Si Si7 0.390438 0.279205 0.745487
Si Si8 0.582136 0.441069 0.191690
O O1 0.086506 0.593014 0.425848
O O2 0.474727 0.563071 0.090858
O O3 0.897934 0.713876 0.111722
O O4 0.132109 0.780053 0.981669
O O5 0.893927 0.539492 0.145932
O O6 0.601029 0.719012 0.127364
O O7 0.540926 0.784238 0.819124
O O8 0.064492 0.675397 0.792097
O O9 0.568338 0.851792 0.252615
O O10 0.359035 0.886092 0.524953
O O11 0.929055 0.699944 0.504266
O O12 0.714153 0.943292 0.128528
O O13 0.500000 0.500000 0.500000
O O14 0.320639 0.855810 0.215585
O O15 0.986495 0.006556 0.296197
O O16 0.393410 0.391188 0.456384
O O17 0.500000 0.500000 0.000000
#
# Coordination Sequence:
#
# PCOD8034046 Si02
#       8
#     2   2   2   2   2   2   2   2
#     4  12  22  43  72 102 138 181 227 283 347 412
#     4  12  27  45  68 108 143 180 225 283 358 419
#     4  11  24  43  71 101 138 179 230 291 342 406
#     4  12  22  42  72 104 144 176 217 290 364 406
#     4  11  24  47  68  97 135 188 238 281 335 403
#     4  12  27  45  72 105 139 178 235 292 343 403
#     4  12  26  45  71  98 140 189 232 280 339 415
#     4  12  26  42  70 104 142 181 227 281 348 417
#
# _framework density 23.166841000000002
#
# number of rings (size 3 to 8) (size 9 to 14) (size 15 to 20)
#    0.000    0.250    6.250    3.000    3.500    3.500 
#    0.000    1.250    0.000    0.000    0.000    0.000 
#    0.000    0.000    0.000    0.000    0.000    0.000 
#
# Total GULP energy -198403.687741 kJ/mol
# GULP energy per Si atom -12400.230484 kJ/mol
# Density = 2.311411 g / cm^3
# Si number density = 23.166841 Si / 1000 Ang^3
#
#
#
# Elastic Constant Matrix: (Units=GPa)
#
#
# Indices 1 2 3 4 5 6 
#
# 1 77.3777 23.2613 18.3142 -0.9553 -4.5660 -4.6847
# 2 23.2613 148.5624 27.0998 -6.8938 -11.8683 5.6324
# 3 18.3142 27.0998 59.8492 6.5193 1.4459 5.9504
# 4 -0.9553 -6.8938 6.5193 38.8602 -0.2206 -2.2614
# 5 -4.5660 -11.8683 1.4459 -0.2206 22.4806 2.0286
# 6 -4.6847 5.6324 5.9504 -2.2614 2.0286 42.2895
#
#
#
# Elastic Compliance Matrix: (Units=1/GPa)
#
#
# Indices 1 2 3 4 5 6 
#
# 1 0.014634 -0.001374 -0.004251 0.000979 0.002318 0.002343
# 2 -0.001374 0.008040 -0.003452 0.001947 0.004283 -0.000839
# 3 -0.004251 -0.003452 0.020428 -0.004336 -0.003778 -0.002936
# 4 0.000979 0.001947 -0.004336 0.026945 0.001606 0.001823
# 5 0.002318 0.004283 -0.003778 0.001606 0.047652 -0.001982
# 6 0.002343 -0.000839 -0.002936 0.001823 -0.001982 0.024624
#
#
# Mechanical properties :
#
#
# Convention : Reuss Voigt Hill
#
# Bulk Modulus (GPa) = 40.08541 47.01554 43.55048
# Shear Modulus (GPa) = 29.62173 35.20034 32.41103
#
# Velocity S-wave (km/s) = 3.57967 3.90221 3.74441
# Velocity P-wave (km/s) = 5.86735 6.37506 6.12647
#
# Compressibility (1/GPa) = 0.02494673
#
# Stress axis : x y z
#
# Youngs Moduli (GPa) = 68.33544 124.37255 48.95136
#
# Poissons Ratio (x) = 0.17088 0.20812
# Poissons Ratio (y) = 0.09389 0.16900
# Poissons Ratio (z) = 0.29053 0.42939
#
# Static dielectric constant tensor:
#      x y z
#    x 4.008250 0.071290 -0.056530 
#    y 0.071290 4.584630 0.075230 
#    z -0.056530 0.075230 4.227840 
# 
# 
# High freq. dielectric constant tensor:
#      x y z
#    x 1.896700 0.005850 0.006410 
#    y 0.005850 1.940640 0.006660 
#    z 0.006410 0.006660 1.906450 
# 
# From -- ./inp_files/407318.got.cif
#   From: 2010.06.25/outbox.cif.g09.slc.cpg/sg2_204_cif.got.tgz:407318.got - 2010.06.27 13:26:56.
