data_PCOD8034330
_publ_section_title
;
Structure prediction by ZEFSAII (Michael W. Deem and Ramdas Pophale) SiO2 
 PCOD8034330
Probable space group: P -1
;
_chemical_formula_sum "Si O2"
_cell_formula_units_Z 16
_cell_length_a 9.344428
_cell_length_b 22.530800
_cell_length_c 7.858565
_cell_angle_alpha 146.927610
_cell_angle_beta 48.792890
_cell_angle_gamma 124.250260
_cell_volume 679.025513
_symmetry_space_group_name_H-M "P -1"
_symmetry_group_IT_number 2
_symmetry_cell_setting 'triclinic'
loop_
_space_group_symop_operation_xyz
x,y,z
-x,-y,-z
loop_
_atom_site_type_symbol
_atom_site_label
_atom_site_fract_x
_atom_site_fract_y
_atom_site_fract_z
Si Si1 0.595316 0.336829 0.815474
Si Si2 0.648793 0.088780 0.160401
Si Si3 0.924649 0.171985 0.875208
Si Si4 0.146750 0.059512 0.143517
Si Si5 0.190829 0.345363 0.269344
Si Si6 0.871642 0.417570 0.094869
Si Si7 0.652698 0.340262 0.395343
Si Si8 0.244404 0.284080 0.449754
O O1 0.559250 0.206350 0.533483
O O2 0.670365 0.378637 0.672218
O O3 0.387541 0.384979 0.120711
O O4 0.743953 0.368503 0.923102
O O5 0.836584 0.099366 0.920918
O O6 0.500000 0.000000 0.000000
O O7 0.707373 0.036684 0.168328
O O8 0.053602 0.096680 0.481306
O O9 0.749327 0.221675 0.024100
O O10 0.053786 0.273129 0.085684
O O11 0.244640 0.161304 0.219074
O O12 0.000000 0.000000 0.000000
O O13 0.082294 0.454996 0.674484
O O14 0.248665 0.278272 0.229252
O O15 0.763850 0.417654 0.361245
O O16 0.061038 0.349691 0.810633
O O17 0.432905 0.340694 0.514283
#
# Coordination Sequence:
#
# PCOD8034330 Si02
#       8
#     2   2   2   2   2   2   2   2
#     4  11  25  48  73 110 153 186 251 305 360 442
#     4  11  24  44  72 100 142 193 238 294 375 429
#     4  11  24  48  67 106 147 187 244 302 358 445
#     4  12  24  42  71 104 139 188 240 301 364 427
#     4  12  26  48  77 102 150 202 235 306 374 427
#     4  12  26  51  73 108 150 198 247 297 372 434
#     4  11  25  47  74 105 151 190 241 306 358 426
#     4  12  25  46  73 108 150 186 252 304 358 438
#
# _framework density 23.563179000000002
#
# number of rings (size 3 to 8) (size 9 to 14) (size 15 to 20)
#    0.000    0.500    2.500    7.125    0.000    2.000 
#    2.250    1.875    0.000    0.000    0.000    0.000 
#    0.000    0.000    0.000    0.000    0.000    0.000 
#
# Total GULP energy -198376.385960 kJ/mol
# GULP energy per Si atom -12398.524123 kJ/mol
# Density = 2.350955 g / cm^3
# Si number density = 23.563179 Si / 1000 Ang^3
#
#
#
# Elastic Constant Matrix: (Units=GPa)
#
#
# Indices 1 2 3 4 5 6 
#
# 1 144.7472 27.9711 29.2699 1.7874 -0.0309 8.6081
# 2 27.9711 72.9744 5.1010 -4.7096 6.6615 -1.4209
# 3 29.2699 5.1010 71.5344 6.0282 20.9794 4.0047
# 4 1.7874 -4.7096 6.0282 39.6947 0.8277 1.1533
# 5 -0.0309 6.6615 20.9794 0.8277 27.1920 -2.3933
# 6 8.6081 -1.4209 4.0047 1.1533 -2.3933 45.5411
#
#
#
# Elastic Compliance Matrix: (Units=1/GPa)
#
#
# Indices 1 2 3 4 5 6 
#
# 1 0.008512 -0.003365 -0.004374 -0.000172 0.004116 -0.001109
# 2 -0.003365 0.015472 0.001542 0.001837 -0.004980 0.000675
# 3 -0.004374 0.001542 0.020802 -0.002384 -0.016514 -0.001762
# 4 -0.000172 0.001837 -0.002384 0.025777 0.000576 -0.000323
# 5 0.004116 -0.004980 -0.016514 0.000576 0.051004 0.003185
# 6 -0.001109 0.000675 -0.001762 -0.000323 0.003185 0.022519
#
#
# Mechanical properties :
#
#
# Convention : Reuss Voigt Hill
#
# Bulk Modulus (GPa) = 30.87262 45.99335 38.43298
# Shear Modulus (GPa) = 29.89024 37.61314 33.75169
#
# Velocity S-wave (km/s) = 3.56549 3.99967 3.78880
# Velocity P-wave (km/s) = 5.48459 6.39463 5.95702
#
# Compressibility (1/GPa) = 0.03239116
#
# Stress axis : x y z
#
# Youngs Moduli (GPa) = 117.47718 64.63296 48.07309
#
# Poissons Ratio (x) = 0.21752 0.21025
# Poissons Ratio (y) = 0.39537 -0.07411
# Poissons Ratio (z) = 0.51380 -0.09965
#
# Static dielectric constant tensor:
#      x y z
#    x 4.374440 -0.132980 -0.137360 
#    y -0.132980 4.412010 -0.151760 
#    z -0.137360 -0.151760 4.333540 
# 
# 
# High freq. dielectric constant tensor:
#      x y z
#    x 1.949620 -0.006340 -0.012700 
#    y -0.006340 1.944830 -0.001380 
#    z -0.012700 -0.001380 1.929630 
# 
# From -- ./inp_files/226740.got.cif
#   From: 2010.06.25/outbox.cif.g09.slc.cpg/sg2_114_cif.got.tgz:226740.got - 2010.06.27 13:26:56.
