data_PCOD8034154
_publ_section_title
;
Structure prediction by ZEFSAII (Michael W. Deem and Ramdas Pophale) SiO2 
 PCOD8034154
Probable space group: P -1
;
_chemical_formula_sum "Si O2"
_cell_formula_units_Z 16
_cell_length_a 12.778622
_cell_length_b 9.890856
_cell_length_c 11.960167
_cell_angle_alpha 138.255931
_cell_angle_beta 123.781184
_cell_angle_gamma 40.503269
_cell_volume 653.471580
_symmetry_space_group_name_H-M "P -1"
_symmetry_group_IT_number 2
_symmetry_cell_setting 'triclinic'
loop_
_space_group_symop_operation_xyz
x,y,z
-x,-y,-z
loop_
_atom_site_type_symbol
_atom_site_label
_atom_site_fract_x
_atom_site_fract_y
_atom_site_fract_z
Si Si1 0.045977 0.354433 0.700700
Si Si2 0.449659 0.455956 0.328104
Si Si3 0.426922 0.942936 0.252833
Si Si4 0.607933 0.606231 0.360759
Si Si5 0.081359 0.125998 0.166967
Si Si6 0.863174 0.409107 0.832603
Si Si7 0.040066 0.855321 0.668969
Si Si8 0.640793 0.893074 0.160114
O O1 0.026163 0.584817 0.766910
O O2 0.953918 0.465376 0.834272
O O3 0.972620 0.243048 0.518227
O O4 0.236541 0.119231 0.687857
O O5 0.500000 0.500000 0.500000
O O6 0.481957 0.576404 0.320611
O O7 0.259188 0.612243 0.320495
O O8 0.548313 0.145003 0.180463
O O9 0.550236 0.704876 0.261443
O O10 0.511242 0.893561 0.153249
O O11 0.375258 0.207669 0.440656
O O12 0.269069 0.965448 0.147362
O O13 0.780812 0.326573 0.287439
O O14 0.075712 0.138815 0.306684
O O15 0.000000 0.000000 0.000000
O O16 0.754343 0.633934 0.995964
O O17 0.995818 0.136577 0.804168
#
# Coordination Sequence:
#
# PCOD8034154 Si02
#       8
#     2   2   2   2   2   2   2   2
#     4  12  25  46  73 106 148 196 250 299 362 441
#     4  12  23  44  71 108 142 194 248 298 367 441
#     4  11  25  47  73 109 145 189 244 301 372 430
#     4  11  24  43  76 107 145 188 247 307 353 436
#     4  12  27  47  75 109 151 190 244 305 374 439
#     4  12  27  47  72 108 151 195 245 308 370 438
#     4  12  25  47  74 109 144 196 249 300 362 439
#     4  12  26  46  74 105 154 191 241 309 375 434
#
# _framework density 24.484615000000002
#
# number of rings (size 3 to 8) (size 9 to 14) (size 15 to 20)
#    0.000    0.250    2.500    6.750    3.500    2.000 
#    0.000    3.750    0.000    0.000    0.000    0.000 
#    0.000    0.000    0.000    0.000    0.000    0.000 
#
# Total GULP energy -198504.406943 kJ/mol
# GULP energy per Si atom -12406.525434 kJ/mol
# Density = 2.442889 g / cm^3
# Si number density = 24.484615 Si / 1000 Ang^3
#
#
#
# Elastic Constant Matrix: (Units=GPa)
#
#
# Indices 1 2 3 4 5 6 
#
# 1 148.2055 38.8124 29.7632 -3.8512 2.0746 -0.4002
# 2 38.8124 142.2486 22.1132 16.8891 8.3808 2.5822
# 3 29.7632 22.1132 73.9619 12.2870 -5.3830 8.2663
# 4 -3.8512 16.8891 12.2870 35.4318 2.3891 4.3168
# 5 2.0746 8.3808 -5.3830 2.3891 40.1730 -7.1588
# 6 -0.4002 2.5822 8.2663 4.3168 -7.1588 58.1176
#
#
#
# Elastic Compliance Matrix: (Units=1/GPa)
#
#
# Indices 1 2 3 4 5 6 
#
# 1 0.007996 -0.002009 -0.003177 0.002927 -0.000538 0.000313
# 2 -0.002009 0.008288 -0.001164 -0.003641 -0.001590 -0.000142
# 3 -0.003177 -0.001164 0.016425 -0.005474 0.002653 -0.001573
# 4 0.002927 -0.003641 -0.005474 0.032548 -0.002372 -0.001749
# 5 -0.000538 -0.001590 0.002653 -0.002372 0.026302 0.003106
# 6 0.000313 -0.000142 -0.001573 -0.001749 0.003106 0.017951
#
#
# Mechanical properties :
#
#
# Convention : Reuss Voigt Hill
#
# Bulk Modulus (GPa) = 49.98187 60.64373 55.31280
# Shear Modulus (GPa) = 38.79544 44.99295 41.89420
#
# Velocity S-wave (km/s) = 3.98487 4.29138 4.14096
# Velocity P-wave (km/s) = 6.45215 7.02683 6.74561
#
# Compressibility (1/GPa) = 0.02000725
#
# Stress axis : x y z
#
# Youngs Moduli (GPa) = 125.06101 120.66096 60.88132
#
# Poissons Ratio (x) = 0.24244 0.19344
# Poissons Ratio (y) = 0.25128 0.07089
# Poissons Ratio (z) = 0.39736 0.14049
#
# Static dielectric constant tensor:
#      x y z
#    x 5.565510 0.210790 0.357690 
#    y 0.210790 4.990310 0.034120 
#    z 0.357690 0.034120 4.443540 
# 
# 
# High freq. dielectric constant tensor:
#      x y z
#    x 1.985280 -0.001310 0.002390 
#    y -0.001310 1.993930 -0.003850 
#    z 0.002390 -0.003850 1.967300 
# 
# From -- ./inp_files/420056.got.cif
#   From: 2010.06.25/outbox.cif.g09.slc.cpg/sg2_211_cif.got.tgz:420056.got - 2010.06.27 13:26:56.
