data_PCOD8034780
_publ_section_title
;
Structure prediction by ZEFSAII (Michael W. Deem and Ramdas Pophale) SiO2 
 PCOD8034780
Probable space group: P -1
;
_chemical_formula_sum "Si O2"
_cell_formula_units_Z 12
_cell_length_a 14.775839
_cell_length_b 16.148298
_cell_length_c 11.983602
_cell_angle_alpha 24.626247
_cell_angle_beta 145.716253
_cell_angle_gamma 154.779708
_cell_volume 507.569115
_symmetry_space_group_name_H-M "P -1"
_symmetry_group_IT_number 2
_symmetry_cell_setting 'triclinic'
loop_
_space_group_symop_operation_xyz
x,y,z
-x,-y,-z
loop_
_atom_site_type_symbol
_atom_site_label
_atom_site_fract_x
_atom_site_fract_y
_atom_site_fract_z
Si Si1 0.494767 0.665530 0.178941
Si Si2 0.749469 0.657978 0.057583
Si Si3 0.224369 0.089232 0.653470
Si Si4 0.787875 0.361812 0.888063
Si Si5 0.668554 0.268806 0.280355
Si Si6 0.973642 0.735750 0.418890
O O1 0.402408 0.369878 0.432274
O O2 0.739020 0.859976 0.236060
O O3 0.378555 0.694238 0.123380
O O4 0.480487 0.753207 0.937609
O O5 0.785653 0.516788 0.176829
O O6 0.825349 0.645671 0.270756
O O7 0.500000 0.500000 0.000000
O O8 0.888266 0.956603 0.792348
O O9 0.000000 0.000000 0.500000
O O10 0.274838 0.905767 0.894103
O O11 0.820655 0.550491 0.591712
O O12 0.000000 0.500000 0.000000
O O13 0.859770 0.306569 0.373629
O O14 0.500000 0.000000 0.500000
#
# Coordination Sequence:
#
# PCOD8034780 Si02
#       6
#     2   2   2   2   2   2
#     4  11  27  46  70 108 139 185 234 285 358 412
#     4  11  26  48  72 103 142 185 233 293 342 419
#     4  11  24  46  70 103 143 183 228 292 347 415
#     4  12  24  45  75 101 139 183 231 292 349 417
#     4  12  25  46  73 101 141 184 234 287 347 417
#     4  11  26  48  72 104 138 186 238 283 357 411
#
# _framework density 23.642101
#
# number of rings (size 3 to 8) (size 9 to 14) (size 15 to 20)
#    0.000    0.667    5.000    1.000    4.667    4.000 
#    3.000    0.000    0.000    0.000    0.000    0.000 
#    0.000    0.000    0.000    0.000    0.000    0.000 
#
# Total GULP energy -148749.436644 kJ/mol
# GULP energy per Si atom -12395.786387 kJ/mol
# Density = 2.358829 g / cm^3
# Si number density = 23.642101 Si / 1000 Ang^3
#
#
#
# Elastic Constant Matrix: (Units=GPa)
#
#
# Indices 1 2 3 4 5 6 
#
# 1 66.4338 29.1796 34.5312 -20.7221 -13.9111 -14.7969
# 2 29.1796 173.9597 69.7524 4.3692 -13.1096 -24.6435
# 3 34.5312 69.7524 157.6121 -12.6119 -24.0948 -32.3898
# 4 -20.7221 4.3692 -12.6119 50.8850 -12.1273 9.8380
# 5 -13.9111 -13.1096 -24.0948 -12.1273 36.3099 5.7541
# 6 -14.7969 -24.6435 -32.3898 9.8380 5.7541 33.5804
#
#
#
# Elastic Compliance Matrix: (Units=1/GPa)
#
#
# Indices 1 2 3 4 5 6 
#
# 1 0.023017 -0.002703 -0.000833 0.011569 0.010819 0.002112
# 2 -0.002703 0.007688 -0.002699 -0.003443 -0.001700 0.003148
# 3 -0.000833 -0.002699 0.009855 0.002507 0.005207 0.005531
# 4 0.011569 -0.003443 0.002507 0.030398 0.016062 -0.006669
# 5 0.010819 -0.001700 0.005207 0.016062 0.040380 -0.003083
# 6 0.002112 0.003148 0.005531 -0.006669 -0.003083 0.040838
#
#
# Mechanical properties :
#
#
# Convention : Reuss Voigt Hill
#
# Bulk Modulus (GPa) = 35.59825 73.88132 54.73979
# Shear Modulus (GPa) = 28.73411 41.79124 35.26268
#
# Velocity S-wave (km/s) = 3.49001 4.20892 3.86621
# Velocity P-wave (km/s) = 5.59733 7.41200 6.56764
#
# Compressibility (1/GPa) = 0.02809127
#
# Stress axis : x y z
#
# Youngs Moduli (GPa) = 43.44549 130.06716 101.47398
#
# Poissons Ratio (x) = 0.35156 0.08452
# Poissons Ratio (y) = 0.11743 0.27385
# Poissons Ratio (z) = 0.03619 0.35102
#
# Static dielectric constant tensor:
#      x y z
#    x -1.447580 -11.397740 1.476770 
#    y -11.397740 -17.567700 3.016560 
#    z 1.476770 3.016560 3.666720 
# 
# 
# High freq. dielectric constant tensor:
#      x y z
#    x 1.928910 -0.007120 0.013050 
#    y -0.007120 1.967320 0.006570 
#    z 0.013050 0.006570 1.958220 
# 
# From -- ./inp_files/453547.got.cif
#   From: 2010.06.25/outbox.cif.g09.slc.cpg/sg2_227_cif.got.tgz:453547.got - 2010.06.27 13:26:56.
