data_PCOD8034125
_publ_section_title
;
Structure prediction by ZEFSAII (Michael W. Deem and Ramdas Pophale) SiO2 
 PCOD8034125
Probable space group: P -1
;
_chemical_formula_sum "Si O2"
_cell_formula_units_Z 16
_cell_length_a 12.433537
_cell_length_b 16.497764
_cell_length_c 9.978222
_cell_angle_alpha 56.798947
_cell_angle_beta 134.449760
_cell_angle_gamma 148.767101
_cell_volume 750.336598
_symmetry_space_group_name_H-M "P -1"
_symmetry_group_IT_number 2
_symmetry_cell_setting 'triclinic'
loop_
_space_group_symop_operation_xyz
x,y,z
-x,-y,-z
loop_
_atom_site_type_symbol
_atom_site_label
_atom_site_fract_x
_atom_site_fract_y
_atom_site_fract_z
Si Si1 0.957876 0.806913 0.442453
Si Si2 0.883415 0.491306 0.034252
Si Si3 0.293951 0.974110 0.821846
Si Si4 0.034931 0.449082 0.453558
Si Si5 0.977546 0.749208 0.979442
Si Si6 0.468600 0.565823 0.620471
Si Si7 0.394958 0.243210 0.691542
Si Si8 0.791580 0.136823 0.629367
O O1 0.722381 0.617019 0.409236
O O2 0.863205 0.863134 0.363933
O O3 0.150223 0.863355 0.666792
O O4 0.100012 0.893567 0.345136
O O5 0.009995 0.656840 0.034844
O O6 0.909729 0.430328 0.232226
O O7 0.599600 0.366023 0.871315
O O8 0.000000 0.500000 0.000000
O O9 0.402616 0.136555 0.743718
O O10 0.122163 0.893655 0.875648
O O11 0.500000 0.000000 0.000000
O O12 0.324962 0.575584 0.570659
O O13 0.000000 0.500000 0.500000
O O14 0.890799 0.278968 0.509144
O O15 0.097301 0.817974 0.167712
O O16 0.693993 0.638608 0.838811
O O17 0.565192 0.661885 0.481100
O O18 0.500000 0.000000 0.500000
#
# Coordination Sequence:
#
# PCOD8034125 Si02
#       8
#     2   2   2   2   2   2   2   2
#     4  11  24  46  71  99 137 183 228 284 342 410
#     4  12  24  41  73 105 133 181 230 288 336 404
#     4  12  27  41  69 101 140 181 232 278 346 412
#     4  11  25  45  69 103 137 180 237 277 342 409
#     4  12  25  46  69 100 140 181 230 281 347 404
#     4  11  24  43  74 100 139 176 230 291 342 395
#     4  12  24  43  69 107 141 174 231 290 346 402
#     4  11  27  47  69  98 145 184 222 283 347 411
#
# _framework density 21.323761999999999
#
# number of rings (size 3 to 8) (size 9 to 14) (size 15 to 20)
#    0.000    0.500    5.000    3.000    7.000    4.000 
#    0.000    0.625    0.000    0.000    0.000    0.000 
#    0.000    0.000    0.000    0.000    0.000    0.000 
#
# Total GULP energy -198405.646327 kJ/mol
# GULP energy per Si atom -12400.352895 kJ/mol
# Density = 2.127523 g / cm^3
# Si number density = 21.323762 Si / 1000 Ang^3
#
#
#
# Elastic Constant Matrix: (Units=GPa)
#
#
# Indices 1 2 3 4 5 6 
#
# 1 152.6428 22.1979 56.3556 15.1467 -6.5311 23.4452
# 2 22.1979 72.6079 39.4638 11.2994 -6.2220 14.5481
# 3 56.3556 39.4638 163.1278 25.4445 -19.0410 8.5818
# 4 15.1467 11.2994 25.4445 38.9265 6.7133 4.0156
# 5 -6.5311 -6.2220 -19.0410 6.7133 42.9622 -1.6941
# 6 23.4452 14.5481 8.5818 4.0156 -1.6941 30.3934
#
#
#
# Elastic Compliance Matrix: (Units=1/GPa)
#
#
# Indices 1 2 3 4 5 6 
#
# 1 0.008435 0.000080 -0.002433 -0.001157 0.000172 -0.005695
# 2 0.000080 0.017471 -0.003381 -0.002356 0.001132 -0.007095
# 3 -0.002433 -0.003381 0.008886 -0.004740 0.003892 0.001830
# 4 -0.001157 -0.002356 -0.004740 0.031351 -0.007564 -0.001205
# 5 0.000172 0.001132 0.003892 -0.007564 0.026401 0.000698
# 6 -0.005695 -0.007095 0.001830 -0.001205 0.000698 0.040373
#
#
# Mechanical properties :
#
#
# Convention : Reuss Voigt Hill
#
# Bulk Modulus (GPa) = 42.87704 69.37923 56.12814
# Shear Modulus (GPa) = 32.86009 40.48051 36.67030
#
# Velocity S-wave (km/s) = 3.92983 4.36176 4.15142
# Velocity P-wave (km/s) = 6.38300 7.61402 7.02553
#
# Compressibility (1/GPa) = 0.02332250
#
# Stress axis : x y z
#
# Youngs Moduli (GPa) = 118.55517 57.23669 112.53537
#
# Poissons Ratio (x) = -0.00456 0.27382
# Poissons Ratio (y) = -0.00944 0.38052
# Poissons Ratio (z) = 0.28846 0.19354
#
# Static dielectric constant tensor:
#      x y z
#    x 4.264250 0.257930 0.187720 
#    y 0.257930 3.882820 0.048610 
#    z 0.187720 0.048610 3.885810 
# 
# 
# High freq. dielectric constant tensor:
#      x y z
#    x 1.851480 0.007310 0.007500 
#    y 0.007310 1.831140 0.007860 
#    z 0.007500 0.007860 1.847270 
# 
# From -- ./inp_files/208685.got.cif
#   From: 2010.06.25/outbox.cif.g09.slc.cpg/sg2_105_cif.got.tgz:208685.got - 2010.06.27 13:26:56.
