data_PCOD8034432
_publ_section_title
;
Structure prediction by ZEFSAII (Michael W. Deem and Ramdas Pophale) SiO2 
 PCOD8034432
Probable space group: P -1
;
_chemical_formula_sum "Si O2"
_cell_formula_units_Z 12
_cell_length_a 15.645104
_cell_length_b 9.574889
_cell_length_c 9.104000
_cell_angle_alpha 59.540746
_cell_angle_beta 58.267363
_cell_angle_gamma 27.376830
_cell_volume 530.594821
_symmetry_space_group_name_H-M "P -1"
_symmetry_group_IT_number 2
_symmetry_cell_setting 'triclinic'
loop_
_space_group_symop_operation_xyz
x,y,z
-x,-y,-z
loop_
_atom_site_type_symbol
_atom_site_label
_atom_site_fract_x
_atom_site_fract_y
_atom_site_fract_z
Si Si1 0.196351 0.319484 0.393643
Si Si2 0.018396 0.852949 0.790678
Si Si3 0.830090 0.383192 0.514183
Si Si4 0.663957 0.316821 0.056968
Si Si5 0.521709 0.331651 0.449902
Si Si6 0.321105 0.355547 0.009760
O O1 0.255300 0.347959 0.466403
O O2 0.180473 0.443512 0.192191
O O3 0.000000 0.500000 0.500000
O O4 0.368916 0.960306 0.410518
O O5 0.043765 0.723616 0.681017
O O6 0.969276 0.104749 0.654252
O O7 0.218956 0.560675 0.846470
O O8 0.859290 0.005872 0.963631
O O9 0.674113 0.468237 0.549337
O O10 0.655185 0.218914 0.261203
O O11 0.500000 0.500000 0.000000
O O12 0.626487 0.556495 0.994263
O O13 0.500000 0.500000 0.500000
O O14 0.500000 0.000000 0.000000
#
# Coordination Sequence:
#
# PCOD8034432 Si02
#       6
#     2   2   2   2   2   2
#     4  12  27  45  71 105 141 182 236 287 347 414
#     4  11  24  44  75  96 142 183 234 281 353 407
#     4  11  25  46  72 103 142 185 234 287 353 409
#     4  12  24  45  72 105 136 181 235 285 350 414
#     4  12  26  46  75 104 141 185 232 287 352 421
#     4  12  26  47  70 103 140 184 233 290 346 414
#
# _framework density 22.616129999999998
#
# number of rings (size 3 to 8) (size 9 to 14) (size 15 to 20)
#    0.000    0.333    3.333    5.000    7.000    2.667 
#    0.000    2.500    0.000    0.000    0.000    0.000 
#    0.000    0.000    0.000    0.000    0.000    0.000 
#
# Total GULP energy -148759.942247 kJ/mol
# GULP energy per Si atom -12396.661854 kJ/mol
# Density = 2.256465 g / cm^3
# Si number density = 22.616130 Si / 1000 Ang^3
#
#
#
# Elastic Constant Matrix: (Units=GPa)
#
#
# Indices 1 2 3 4 5 6 
#
# 1 129.5762 61.8292 47.6107 -8.1407 6.7931 5.9764
# 2 61.8292 134.9166 35.0601 -6.2940 12.3159 2.0423
# 3 47.6107 35.0601 145.0269 8.3496 12.5207 2.0645
# 4 -8.1407 -6.2940 8.3496 50.9698 -1.6939 4.8946
# 5 6.7931 12.3159 12.5207 -1.6939 30.8979 1.0917
# 6 5.9764 2.0423 2.0645 4.8946 1.0917 37.7959
#
#
#
# Elastic Compliance Matrix: (Units=1/GPa)
#
#
# Indices 1 2 3 4 5 6 
#
# 1 0.010880 -0.004230 -0.002678 0.001825 0.000536 -0.001597
# 2 -0.004230 0.009821 -0.000793 0.000562 -0.002639 0.000185
# 3 -0.002678 -0.000793 0.008299 -0.002004 -0.002581 0.000347
# 4 0.001825 0.000562 -0.002004 0.020637 0.001422 -0.002923
# 5 0.000536 -0.002639 -0.002581 0.001422 0.034457 -0.000980
# 6 -0.001597 0.000185 0.000347 -0.002923 -0.000980 0.027088
#
#
# Mechanical properties :
#
#
# Convention : Reuss Voigt Hill
#
# Bulk Modulus (GPa) = 73.53262 77.61329 75.57295
# Shear Modulus (GPa) = 38.13433 41.60071 39.86752
#
# Velocity S-wave (km/s) = 4.11074 4.29351 4.20312
# Velocity P-wave (km/s) = 7.42394 7.67926 7.55268
#
# Compressibility (1/GPa) = 0.01359941
#
# Stress axis : x y z
#
# Youngs Moduli (GPa) = 91.91236 101.82612 120.49303
#
# Poissons Ratio (x) = 0.43070 0.32266
# Poissons Ratio (y) = 0.38876 0.09551
# Poissons Ratio (z) = 0.24612 0.08072
#
# Static dielectric constant tensor:
#      x y z
#    x 3.960950 0.197840 0.114100 
#    y 0.197840 4.480300 -0.129660 
#    z 0.114100 -0.129660 4.643220 
# 
# 
# High freq. dielectric constant tensor:
#      x y z
#    x 1.878700 0.003100 0.012530 
#    y 0.003100 1.902140 0.009660 
#    z 0.012530 0.009660 1.918390 
# 
# From -- ./inp_files/151150.got.cif
#   From: 2010.06.25/outbox.cif.g09.slc.cpg/sg2_76_cif.got.tgz:151150.got - 2010.06.27 13:26:56.
