data_PCOD8034282
_publ_section_title
;
Structure prediction by ZEFSAII (Michael W. Deem and Ramdas Pophale) SiO2 
 PCOD8034282
Probable space group: P -1
;
_chemical_formula_sum "Si O2"
_cell_formula_units_Z 16
_cell_length_a 11.211810
_cell_length_b 7.878163
_cell_length_c 14.509152
_cell_angle_alpha 50.779556
_cell_angle_beta 42.015158
_cell_angle_gamma 53.545275
_cell_volume 645.137984
_symmetry_space_group_name_H-M "P -1"
_symmetry_group_IT_number 2
_symmetry_cell_setting 'triclinic'
loop_
_space_group_symop_operation_xyz
x,y,z
-x,-y,-z
loop_
_atom_site_type_symbol
_atom_site_label
_atom_site_fract_x
_atom_site_fract_y
_atom_site_fract_z
Si Si1 0.477289 0.924352 0.775191
Si Si2 0.327806 0.737822 0.104704
Si Si3 0.655450 0.758838 0.996621
Si Si4 0.978850 0.920508 0.320473
Si Si5 0.878592 0.641293 0.621849
Si Si6 0.021576 0.675358 0.713390
Si Si7 0.361398 0.862204 0.663730
Si Si8 0.314658 0.406087 0.767994
O O1 0.694566 0.834062 0.677276
O O2 0.381217 0.851228 0.765600
O O3 0.452273 0.194524 0.711752
O O4 0.384831 0.808127 0.948725
O O5 0.508731 0.609394 0.101522
O O6 0.171267 0.596798 0.247239
O O7 0.187579 0.952252 0.163659
O O8 0.744822 0.686638 0.069309
O O9 0.806951 0.707121 0.848529
O O10 0.500000 0.000000 0.000000
O O11 0.959190 0.682074 0.459531
O O12 0.845881 0.993782 0.284902
O O13 0.911385 0.099378 0.379736
O O14 0.038208 0.642566 0.605037
O O15 0.142809 0.472807 0.774251
O O16 0.401315 0.617918 0.672331
O O17 0.500000 0.000000 0.500000
#
# Coordination Sequence:
#
# PCOD8034282 Si02
#       8
#     2   2   2   2   2   2   2   2
#     4  12  25  49  77 109 144 193 252 299 365 444
#     4  12  26  44  74 110 141 193 248 303 366 434
#     4  12  21  44  73 103 146 192 242 301 363 433
#     4  11  25  48  70 107 149 193 244 302 371 437
#     4  12  25  46  73 108 147 192 247 305 364 440
#     4  11  24  44  70 107 145 187 248 301 366 437
#     4  11  26  49  73 108 152 193 241 307 370 436
#     4  11  26  45  73 110 147 195 239 309 371 431
#
# _framework density 24.800896000000002
#
# number of rings (size 3 to 8) (size 9 to 14) (size 15 to 20)
#    0.000    0.500    5.000    2.250    3.500    2.000 
#    0.000    0.000    0.000    0.000    0.000    0.000 
#    0.000    0.000    0.000    0.000    0.000    0.000 
#
# Total GULP energy -198218.193811 kJ/mol
# GULP energy per Si atom -12388.637113 kJ/mol
# Density = 2.474445 g / cm^3
# Si number density = 24.800896 Si / 1000 Ang^3
#
#
#
# Elastic Constant Matrix: (Units=GPa)
#
#
# Indices 1 2 3 4 5 6 
#
# 1 158.3571 22.7735 28.0476 -7.0960 27.2570 -18.3328
# 2 22.7735 80.9289 21.7801 -14.2492 1.2712 -10.8357
# 3 28.0476 21.7801 116.9188 -0.5127 3.2841 -15.4835
# 4 -7.0960 -14.2492 -0.5127 33.0017 -3.9537 -1.2078
# 5 27.2570 1.2712 3.2841 -3.9537 38.4626 -2.9005
# 6 -18.3328 -10.8357 -15.4835 -1.2078 -2.9005 39.9424
#
#
#
# Elastic Compliance Matrix: (Units=1/GPa)
#
#
# Indices 1 2 3 4 5 6 
#
# 1 0.007933 -0.001414 -0.001167 0.000539 -0.005236 0.002441
# 2 -0.001414 0.014782 -0.002050 0.006338 0.001557 0.002871
# 3 -0.001167 -0.002050 0.009550 -0.000870 0.000186 0.002597
# 4 0.000539 0.006338 -0.000870 0.033624 0.003156 0.002875
# 5 -0.005236 0.001557 0.000186 0.003156 0.029994 0.000365
# 6 0.002441 0.002871 0.002597 0.002875 0.000365 0.028056
#
#
# Mechanical properties :
#
#
# Convention : Reuss Voigt Hill
#
# Bulk Modulus (GPa) = 43.47413 55.71192 49.59302
# Shear Modulus (GPa) = 35.49409 41.18823 38.34116
#
# Velocity S-wave (km/s) = 3.78717 4.07966 3.93613
# Velocity P-wave (km/s) = 6.05730 6.68610 6.37945
#
# Compressibility (1/GPa) = 0.02300218
#
# Stress axis : x y z
#
# Youngs Moduli (GPa) = 126.05780 67.64906 104.71531
#
# Poissons Ratio (x) = 0.09568 0.12219
# Poissons Ratio (y) = 0.17828 0.21468
# Poissons Ratio (z) = 0.14709 0.13869
#
# Static dielectric constant tensor:
#      x y z
#    x 5.491760 0.427260 -0.137630 
#    y 0.427260 5.016330 -0.141600 
#    z -0.137630 -0.141600 4.350570 
# 
# 
# High freq. dielectric constant tensor:
#      x y z
#    x 2.002290 0.007380 -0.001670 
#    y 0.007380 2.011500 -0.008790 
#    z -0.001670 -0.008790 1.986340 
# 
# From -- ./inp_files/515006.got.cif
#   From: 2010.06.25/outbox.cif.g09.slc.cpg/sg2_258_cif.got.tgz:515006.got - 2010.06.27 13:26:56.
