data_PCOD8034628
_publ_section_title
;
Structure prediction by ZEFSAII (Michael W. Deem and Ramdas Pophale) SiO2 
 PCOD8034628
Probable space group: P -1
;
_chemical_formula_sum "Si O2"
_cell_formula_units_Z 14
_cell_length_a 12.034656
_cell_length_b 9.978576
_cell_length_c 9.138900
_cell_angle_alpha 135.433917
_cell_angle_beta 124.452088
_cell_angle_gamma 61.856225
_cell_volume 630.568849
_symmetry_space_group_name_H-M "P -1"
_symmetry_group_IT_number 2
_symmetry_cell_setting 'triclinic'
loop_
_space_group_symop_operation_xyz
x,y,z
-x,-y,-z
loop_
_atom_site_type_symbol
_atom_site_label
_atom_site_fract_x
_atom_site_fract_y
_atom_site_fract_z
Si Si1 0.862148 0.413771 0.368477
Si Si2 0.766008 0.872481 0.363603
Si Si3 0.354826 0.507353 0.973384
Si Si4 0.311214 0.409599 0.366049
Si Si5 0.082915 0.289983 0.918144
Si Si6 0.013597 0.028207 0.203606
Si Si7 0.605845 0.276623 0.532815
O O1 0.767633 0.397856 0.144526
O O2 0.784774 0.551512 0.536440
O O3 0.000000 0.500000 0.500000
O O4 0.897044 0.199878 0.293970
O O5 0.666380 0.710675 0.176141
O O6 0.890865 0.813452 0.298699
O O7 0.838490 0.907301 0.599412
O O8 0.674239 0.062483 0.392270
O O9 0.500000 0.500000 0.000000
O O10 0.346943 0.631875 0.211372
O O11 0.443941 0.272611 0.409979
O O12 0.352769 0.607122 0.486584
O O13 0.232052 0.301250 0.102360
O O14 0.999542 0.164968 0.865243
O O15 0.000000 0.500000 0.000000
O O16 0.000000 0.000000 0.000000
#
# Coordination Sequence:
#
# PCOD8034628 Si02
#       7
#     2   2   2   2   2   2   2
#     4  12  24  45  70 104 149 186 243 309 367 432
#     4  12  26  47  73 104 146 195 247 301 369 448
#     4  12  26  48  73 105 148 196 240 309 378 434
#     4  11  24  45  73 103 144 191 247 305 363 442
#     4  12  26  45  74 107 150 195 242 306 375 441
#     4  12  26  42  73 110 146 191 246 302 370 440
#     4  11  25  48  72 104 144 194 250 299 371 449
#
# _framework density 22.202175
#
# number of rings (size 3 to 8) (size 9 to 14) (size 15 to 20)
#    0.000    0.286    4.286    4.714    2.000    2.286 
#    0.000    0.000    0.000    0.000    0.000    0.000 
#    0.000    0.000    0.000    0.000    0.000    0.000 
#
# Total GULP energy -173675.215508 kJ/mol
# GULP energy per Si atom -12405.372536 kJ/mol
# Density = 2.215164 g / cm^3
# Si number density = 22.202175 Si / 1000 Ang^3
#
#
#
# Elastic Constant Matrix: (Units=GPa)
#
#
# Indices 1 2 3 4 5 6 
#
# 1 140.7405 52.0569 45.8305 1.5126 -1.0569 -2.9935
# 2 52.0569 143.6321 47.9391 10.2594 -3.6928 -16.9851
# 3 45.8305 47.9391 113.5915 -9.4897 7.9665 -9.5351
# 4 1.5126 10.2594 -9.4897 46.4582 -5.3377 3.1933
# 5 -1.0569 -3.6928 7.9665 -5.3377 39.8552 -2.3675
# 6 -2.9935 -16.9851 -9.5351 3.1933 -2.3675 45.8354
#
#
#
# Elastic Compliance Matrix: (Units=1/GPa)
#
#
# Indices 1 2 3 4 5 6 
#
# 1 0.008849 -0.002382 -0.002684 -0.000199 0.000475 -0.000825
# 2 -0.002382 0.009427 -0.003082 -0.002694 0.001241 0.002948
# 3 -0.002684 -0.003082 0.011649 0.002833 -0.002259 0.000792
# 4 -0.000199 -0.002694 0.002833 0.023085 0.002156 -0.001919
# 5 0.000475 0.001241 -0.002259 0.002156 0.026031 0.001215
# 6 -0.000825 0.002948 0.000792 -0.001919 0.001215 0.023217
#
#
# Mechanical properties :
#
#
# Convention : Reuss Voigt Hill
#
# Bulk Modulus (GPa) = 73.37773 76.62413 75.00093
# Shear Modulus (GPa) = 40.61867 43.23893 41.92880
#
# Velocity S-wave (km/s) = 4.28189 4.41785 4.35040
# Velocity P-wave (km/s) = 7.58734 7.78525 7.68693
#
# Compressibility (1/GPa) = 0.01362811
#
# Stress axis : x y z
#
# Youngs Moduli (GPa) = 113.01239 106.07455 85.84724
#
# Poissons Ratio (x) = 0.25271 0.23040
# Poissons Ratio (y) = 0.26924 0.26458
# Poissons Ratio (z) = 0.30331 0.32692
#
# Static dielectric constant tensor:
#      x y z
#    x 3.986930 -0.071420 0.041550 
#    y -0.071420 4.210970 -0.108810 
#    z 0.041550 -0.108810 4.202010 
# 
# 
# High freq. dielectric constant tensor:
#      x y z
#    x 1.876030 -0.005170 0.001510 
#    y -0.005170 1.885970 -0.008780 
#    z 0.001510 -0.008780 1.888010 
# 
# From -- ./inp_files/246179.got.cif
#   From: 2010.06.25/outbox.cif.g09.slc.cpg/sg2_124_cif.got.tgz:246179.got - 2010.06.27 13:26:56.
