data_PCOD8034776
_publ_section_title
;
Structure prediction by ZEFSAII (Michael W. Deem and Ramdas Pophale) SiO2 
 PCOD8034776
Probable space group: P -1
;
_chemical_formula_sum "Si O2"
_cell_formula_units_Z 16
_cell_length_a 9.490359
_cell_length_b 8.958065
_cell_length_c 18.195226
_cell_angle_alpha 42.795765
_cell_angle_beta 94.062709
_cell_angle_gamma 122.104746
_cell_volume 740.800170
_symmetry_space_group_name_H-M "P -1"
_symmetry_group_IT_number 2
_symmetry_cell_setting 'triclinic'
loop_
_space_group_symop_operation_xyz
x,y,z
-x,-y,-z
loop_
_atom_site_type_symbol
_atom_site_label
_atom_site_fract_x
_atom_site_fract_y
_atom_site_fract_z
Si Si1 0.444772 0.852399 0.130891
Si Si2 0.350869 0.135261 0.123693
Si Si3 0.018961 0.683441 0.697167
Si Si4 0.724538 0.699933 0.420056
Si Si5 0.970292 0.789777 0.136634
Si Si6 0.229071 0.758105 0.401949
Si Si7 0.340505 0.008998 0.472218
Si Si8 0.344332 0.322534 0.737758
O O1 0.618046 0.872737 0.153860
O O2 0.214952 0.509238 0.249943
O O3 0.469378 0.078202 0.106007
O O4 0.500000 0.000000 0.000000
O O5 0.294718 0.981997 0.256484
O O6 0.500000 0.500000 0.000000
O O7 0.152758 0.993755 0.126172
O O8 0.044360 0.466078 0.811184
O O9 0.122662 0.760590 0.592927
O O10 0.123260 0.986451 0.639657
O O11 0.500000 0.500000 0.500000
O O12 0.722330 0.442862 0.534034
O O13 0.771433 0.808684 0.297163
O O14 0.771441 0.636906 0.228106
O O15 0.000000 0.000000 0.000000
O O16 0.325821 0.984173 0.393361
O O17 0.000000 0.500000 0.500000
O O18 0.500000 0.000000 0.500000
O O19 0.432228 0.337607 0.386099
#
# Coordination Sequence:
#
# PCOD8034776 Si02
#       8
#     2   2   2   2   2   2   2   2
#     4  11  27  47  67 100 143 188 232 281 352 424
#     4  11  27  48  71 102 141 187 238 290 352 419
#     4  11  24  46  70 103 140 179 233 288 357 413
#     4  12  24  42  67 105 138 175 225 298 348 410
#     4  11  25  47  72  97 136 190 234 280 345 427
#     4  12  26  44  68 103 140 178 231 290 351 419
#     4  12  23  42  72 101 136 179 227 290 355 411
#     4  12  24  43  69 101 138 176 236 282 349 416
#
# _framework density 21.598265999999999
#
# number of rings (size 3 to 8) (size 9 to 14) (size 15 to 20)
#    0.000    0.500    3.750    4.500    5.250    2.500 
#    0.000    1.875    0.000    0.000    0.000    0.000 
#    0.000    0.000    0.000    0.000    0.000    0.000 
#
# Total GULP energy -198304.605995 kJ/mol
# GULP energy per Si atom -12394.037875 kJ/mol
# Density = 2.154911 g / cm^3
# Si number density = 21.598266 Si / 1000 Ang^3
#
#
#
# Elastic Constant Matrix: (Units=GPa)
#
#
# Indices 1 2 3 4 5 6 
#
# 1 103.2764 23.2582 29.6660 0.5747 3.7364 7.6385
# 2 23.2582 140.9304 59.9912 -2.0932 8.7707 -5.8085
# 3 29.6660 59.9912 145.1066 14.7139 10.3024 3.3563
# 4 0.5747 -2.0932 14.7139 48.5708 0.7579 2.9780
# 5 3.7364 8.7707 10.3024 0.7579 43.7070 2.2091
# 6 7.6385 -5.8085 3.3563 2.9780 2.2091 29.4074
#
#
#
# Elastic Compliance Matrix: (Units=1/GPa)
#
#
# Indices 1 2 3 4 5 6 
#
# 1 0.010634 -0.001141 -0.001678 0.000510 -0.000150 -0.002836
# 2 -0.001141 0.009004 -0.003612 0.001363 -0.001004 0.002425
# 3 -0.001678 -0.003612 0.009120 -0.002822 -0.001185 -0.000944
# 4 0.000510 0.001363 -0.002822 0.021601 0.000061 -0.001733
# 5 -0.000150 -0.001004 -0.001185 0.000061 0.023463 -0.001793
# 6 -0.002836 0.002425 -0.000944 -0.001733 -0.001793 0.035639
#
#
# Mechanical properties :
#
#
# Convention : Reuss Voigt Hill
#
# Bulk Modulus (GPa) = 62.90709 68.34936 65.62823
# Shear Modulus (GPa) = 39.17816 42.76358 40.97087
#
# Velocity S-wave (km/s) = 4.26367 4.45449 4.36013
# Velocity P-wave (km/s) = 7.30943 7.62700 7.46990
#
# Compressibility (1/GPa) = 0.01589646
#
# Stress axis : x y z
#
# Youngs Moduli (GPa) = 94.03819 111.05729 109.64770
#
# Poissons Ratio (x) = 0.12669 0.18397
# Poissons Ratio (y) = 0.10727 0.39610
# Poissons Ratio (z) = 0.15778 0.40119
#
# Static dielectric constant tensor:
#      x y z
#    x 4.103740 0.090910 0.161290 
#    y 0.090910 2.074740 -0.671430 
#    z 0.161290 -0.671430 3.848960 
# 
# 
# High freq. dielectric constant tensor:
#      x y z
#    x 1.867590 -0.004820 0.001520 
#    y -0.004820 1.850730 0.000640 
#    z 0.001520 0.000640 1.856770 
# 
# From -- ./inp_files/556793.got.cif
#   From: 2010.06.25/outbox.cif.g09.slc.cpg/sg2_279_cif.got.tgz:556793.got - 2010.06.27 13:26:56.
