data_PCOD8034367
_publ_section_title
;
Structure prediction by ZEFSAII (Michael W. Deem and Ramdas Pophale) SiO2 
 PCOD8034367
Probable space group: P -1
;
_chemical_formula_sum "Si O2"
_cell_formula_units_Z 16
_cell_length_a 6.604723
_cell_length_b 18.034195
_cell_length_c 14.324668
_cell_angle_alpha 148.958903
_cell_angle_beta 115.643824
_cell_angle_gamma 78.932661
_cell_volume 732.113868
_symmetry_space_group_name_H-M "P -1"
_symmetry_group_IT_number 2
_symmetry_cell_setting 'triclinic'
loop_
_space_group_symop_operation_xyz
x,y,z
-x,-y,-z
loop_
_atom_site_type_symbol
_atom_site_label
_atom_site_fract_x
_atom_site_fract_y
_atom_site_fract_z
Si Si1 0.470482 0.841290 0.581939
Si Si2 0.154362 0.648742 0.636481
Si Si3 0.694752 0.749302 0.916413
Si Si4 0.146618 0.523323 0.957076
Si Si5 0.942500 0.097877 0.015894
Si Si6 0.655896 0.737898 0.334723
Si Si7 0.909785 0.011941 0.390495
Si Si8 0.776709 0.445803 0.648111
O O1 0.592882 0.750916 0.443366
O O2 0.248938 0.878633 0.530911
O O3 0.391799 0.719986 0.520655
O O4 0.666271 0.007976 0.830096
O O5 0.434483 0.734845 0.813354
O O6 0.111499 0.606586 0.474368
O O7 0.000000 0.500000 0.500000
O O8 0.019511 0.757869 0.755848
O O9 0.658785 0.568229 0.725927
O O10 0.884232 0.847087 0.980507
O O11 0.766321 0.844473 0.131605
O O12 0.203523 0.373789 0.780040
O O13 0.982152 0.548956 0.871596
O O14 0.393926 0.675578 0.164635
O O15 0.000000 0.500000 0.000000
O O16 0.000000 0.000000 0.000000
O O17 0.831210 0.909150 0.523817
O O18 0.000000 0.000000 0.500000
#
# Coordination Sequence:
#
# PCOD8034367 Si02
#       8
#     2   2   2   2   2   2   2   2
#     4  12  26  49  74 112 146 193 253 303 367 445
#     4  12  28  50  72 109 150 191 242 306 377 436
#     4  12  28  50  70 113 148 190 251 302 369 447
#     4  11  24  45  71 109 144 188 246 299 360 442
#     4  12  28  48  79 106 146 197 247 304 372 442
#     4  11  24  44  73 101 151 186 242 297 365 422
#     4  12  28  47  75 108 152 197 247 306 366 440
#     4  12  27  45  80 105 148 192 248 310 364 442
#
# _framework density 21.854523
#
# number of rings (size 3 to 8) (size 9 to 14) (size 15 to 20)
#    0.000    0.250    6.250    1.125    8.750    3.500 
#    0.000    0.000    0.000    0.000    0.000    0.000 
#    0.000    0.000    0.000    0.000    0.000    0.000 
#
# Total GULP energy -198213.711603 kJ/mol
# GULP energy per Si atom -12388.356975 kJ/mol
# Density = 2.180478 g / cm^3
# Si number density = 21.854523 Si / 1000 Ang^3
#
#
#
# Elastic Constant Matrix: (Units=GPa)
#
#
# Indices 1 2 3 4 5 6 
#
# 1 112.0213 51.4841 39.7460 3.8941 -6.2552 19.9302
# 2 51.4841 126.8892 37.0288 -1.4742 -4.0245 20.2299
# 3 39.7460 37.0288 108.9352 1.2759 -9.2831 12.9890
# 4 3.8941 -1.4742 1.2759 46.4881 5.2726 -2.1221
# 5 -6.2552 -4.0245 -9.2831 5.2726 57.0081 -4.3951
# 6 19.9302 20.2299 12.9890 -2.1221 -4.3951 34.8957
#
#
#
# Elastic Compliance Matrix: (Units=1/GPa)
#
#
# Indices 1 2 3 4 5 6 
#
# 1 0.012319 -0.003562 -0.002756 -0.001303 0.000466 -0.003965
# 2 -0.003562 0.010395 -0.001870 0.000559 -0.000267 -0.003296
# 3 -0.002756 -0.001870 0.011094 -0.000341 0.001301 -0.001328
# 4 -0.001303 0.000559 -0.000341 0.021955 -0.002065 0.001622
# 5 0.000466 -0.000267 0.001301 -0.002065 0.018097 0.001558
# 6 -0.003965 -0.003296 -0.001328 0.001622 0.001558 0.033621
#
#
# Mechanical properties :
#
#
# Convention : Reuss Voigt Hill
#
# Bulk Modulus (GPa) = 57.36691 67.15149 62.25920
# Shear Modulus (GPa) = 38.55977 42.31749 40.43863
#
# Velocity S-wave (km/s) = 4.20501 4.40514 4.30624
# Velocity P-wave (km/s) = 7.06276 7.52775 7.29896
#
# Compressibility (1/GPa) = 0.01743165
#
# Stress axis : x y z
#
# Youngs Moduli (GPa) = 81.17780 96.19652 90.13640
#
# Poissons Ratio (x) = 0.34266 0.24841
# Poissons Ratio (y) = 0.28916 0.16858
# Poissons Ratio (z) = 0.22372 0.17991
#
# Static dielectric constant tensor:
#      x y z
#    x 4.419430 0.086560 0.295580 
#    y 0.086560 3.803660 -0.164560 
#    z 0.295580 -0.164560 4.635970 
# 
# 
# High freq. dielectric constant tensor:
#      x y z
#    x 1.873440 0.005520 0.001770 
#    y 0.005520 1.851860 -0.005090 
#    z 0.001770 -0.005090 1.887390 
# 
# From -- ./inp_files/90144.got.cif
#   From: 2010.06.25/outbox.cif.g09.slc.cpg/sg2_46_cif.got.tgz:90144.got - 2010.06.27 13:26:56.
