data_PCOD8034718
_publ_section_title
;
Structure prediction by ZEFSAII (Michael W. Deem and Ramdas Pophale) SiO2 
 PCOD8034718
Probable space group: P -1
;
_chemical_formula_sum "Si O2"
_cell_formula_units_Z 10
_cell_length_a 9.723428
_cell_length_b 9.412675
_cell_length_c 9.157951
_cell_angle_alpha 118.471373
_cell_angle_beta 134.998491
_cell_angle_gamma 44.895024
_cell_volume 417.834866
_symmetry_space_group_name_H-M "P -1"
_symmetry_group_IT_number 2
_symmetry_cell_setting 'triclinic'
loop_
_space_group_symop_operation_xyz
x,y,z
-x,-y,-z
loop_
_atom_site_type_symbol
_atom_site_label
_atom_site_fract_x
_atom_site_fract_y
_atom_site_fract_z
Si Si1 0.529676 0.804065 0.638330
Si Si2 0.462667 0.176251 0.879167
Si Si3 0.930276 0.477464 0.596298
Si Si4 0.737935 0.163479 0.812513
Si Si5 0.541770 0.398047 0.266353
O O1 0.776989 0.687910 0.672519
O O2 0.300076 0.915761 0.407492
O O3 0.521410 0.640472 0.640664
O O4 0.533474 0.951998 0.825304
O O5 0.520537 0.212564 0.778394
O O6 0.184328 0.325448 0.793435
O O7 0.608282 0.214660 0.120905
O O8 0.784115 0.382904 0.441937
O O9 0.000000 0.500000 0.500000
O O10 0.687317 0.379913 0.853299
O O11 0.000000 0.000000 0.000000
#
# Coordination Sequence:
#
# PCOD8034718 Si02
#       5
#     2   2   2   2   2
#     4  11  26  50  72 108 150 187 237 304 362 418
#     4  12  26  43  77 110 141 194 244 288 361 436
#     4  11  24  45  77 100 148 191 243 292 354 429
#     4  11  25  45  78 104 145 194 243 291 359 431
#     4  11  26  50  72 108 150 187 237 304 362 418
#
# _framework density 23.932901000000001
#
# number of rings (size 3 to 8) (size 9 to 14) (size 15 to 20)
#    0.000    0.800    4.000    4.200    5.600    1.600 
#    7.200    0.000    0.000    0.000    0.000    0.000 
#    0.000    0.000    0.000    0.000    0.000    0.000 
#
# Total GULP energy -123968.605548 kJ/mol
# GULP energy per Si atom -12396.860555 kJ/mol
# Density = 2.387843 g / cm^3
# Si number density = 23.932901 Si / 1000 Ang^3
#
#
#
# Elastic Constant Matrix: (Units=GPa)
#
#
# Indices 1 2 3 4 5 6 
#
# 1 113.5310 22.0434 14.6379 -25.8608 9.7964 3.2358
# 2 22.0434 102.3261 40.4113 -3.3762 22.0546 -7.5928
# 3 14.6379 40.4113 81.0351 -1.6189 20.1016 -9.7156
# 4 -25.8608 -3.3762 -1.6189 49.2400 1.3940 -3.0828
# 5 9.7964 22.0546 20.1016 1.3940 30.9653 -7.4386
# 6 3.2358 -7.5928 -9.7156 -3.0828 -7.4386 41.4516
#
#
#
# Elastic Compliance Matrix: (Units=1/GPa)
#
#
# Indices 1 2 3 4 5 6 
#
# 1 0.010666 -0.001419 -0.000643 0.005474 -0.002501 -0.001285
# 2 -0.001419 0.013285 -0.004892 0.000191 -0.005755 0.000379
# 3 -0.000643 -0.004892 0.016808 0.000190 -0.006778 0.001892
# 4 0.005474 0.000191 0.000190 0.023338 -0.002830 0.000880
# 5 -0.002501 -0.005755 -0.006778 -0.002830 0.042923 0.005045
# 6 -0.001285 0.000379 0.001892 0.000880 0.005045 0.025708
#
#
# Mechanical properties :
#
#
# Convention : Reuss Voigt Hill
#
# Bulk Modulus (GPa) = 37.24380 50.11970 43.68175
# Shear Modulus (GPa) = 32.13620 38.98468 35.56044
#
# Velocity S-wave (km/s) = 3.66835 4.04036 3.85884
# Velocity P-wave (km/s) = 5.79119 6.53860 6.17621
#
# Compressibility (1/GPa) = 0.02685010
#
# Stress axis : x y z
#
# Youngs Moduli (GPa) = 93.75653 75.27141 59.49588
#
# Poissons Ratio (x) = 0.10684 0.03826
# Poissons Ratio (y) = 0.13308 0.29105
# Poissons Ratio (z) = 0.06030 0.36822
#
# Static dielectric constant tensor:
#      x y z
#    x 4.523360 -0.090850 0.050150 
#    y -0.090850 4.320020 0.041940 
#    z 0.050150 0.041940 4.215900 
# 
# 
# High freq. dielectric constant tensor:
#      x y z
#    x 1.959930 0.005570 -0.004330 
#    y 0.005570 1.945970 0.013650 
#    z -0.004330 0.013650 1.947490 
# 
# From -- ./inp_files/143953.got.cif
#   From: 2010.06.25/outbox.cif.g09.slc.cpg/sg2_72_cif.got.tgz:143953.got - 2010.06.27 13:26:56.
