data_PCOD8034285
_publ_section_title
;
Structure prediction by ZEFSAII (Michael W. Deem and Ramdas Pophale) SiO2 
 PCOD8034285
Probable space group: P -1
;
_chemical_formula_sum "Si O2"
_cell_formula_units_Z 14
_cell_length_a 9.354987
_cell_length_b 9.256776
_cell_length_c 21.347905
_cell_angle_alpha 131.130936
_cell_angle_beta 147.580830
_cell_angle_gamma 43.995267
_cell_volume 682.046911
_symmetry_space_group_name_H-M "P -1"
_symmetry_group_IT_number 2
_symmetry_cell_setting 'triclinic'
loop_
_space_group_symop_operation_xyz
x,y,z
-x,-y,-z
loop_
_atom_site_type_symbol
_atom_site_label
_atom_site_fract_x
_atom_site_fract_y
_atom_site_fract_z
Si Si1 0.201207 0.620130 0.387697
Si Si2 0.276130 0.284255 0.220970
Si Si3 0.190120 0.766447 0.749866
Si Si4 0.953330 0.089470 0.395748
Si Si5 0.821721 0.709318 0.955860
Si Si6 0.129351 0.013308 0.184865
Si Si7 0.232434 0.320937 0.649455
O O1 0.500000 0.500000 0.500000
O O2 0.207746 0.505747 0.292121
O O3 0.932776 0.620902 0.329072
O O4 0.163028 0.856934 0.428902
O O5 0.620540 0.140929 0.305533
O O6 0.140145 0.342737 0.118531
O O7 0.116948 0.157575 0.161942
O O8 0.010385 0.898666 0.661889
O O9 0.485332 0.800947 0.878236
O O10 0.274948 0.522417 0.696790
O O11 0.991504 0.838502 0.757796
O O12 0.047540 0.255515 0.512357
O O13 0.000000 0.500000 0.000000
O O14 0.933673 0.887525 0.062773
O O15 0.457015 0.863464 0.278451
#
# Coordination Sequence:
#
# PCOD8034285 Si02
#       7
#     2   2   2   2   2   2   2
#     4  12  23  42  70 101 136 173 218 266 331 399
#     4  11  24  44  70  97 134 175 220 270 327 396
#     4  11  26  44  67  96 135 178 218 273 332 390
#     4  11  25  41  67 101 135 173 217 268 333 395
#     4  11  25  47  68  95 133 175 224 281 324 380
#     4  12  24  45  68  95 134 174 223 273 328 388
#     4  12  23  42  67 101 136 170 221 271 325 399
#
# _framework density 20.526447000000001
#
# number of rings (size 3 to 8) (size 9 to 14) (size 15 to 20)
#    0.000    0.571    5.714    2.571    2.000    0.571 
#    0.000    1.429    0.000    0.000    0.000    0.000 
#    0.000    0.000    0.000    0.000    0.000    0.000 
#
# Total GULP energy -173697.500188 kJ/mol
# GULP energy per Si atom -12406.964299 kJ/mol
# Density = 2.047973 g / cm^3
# Si number density = 20.526447 Si / 1000 Ang^3
#
#
#
# Elastic Constant Matrix: (Units=GPa)
#
#
# Indices 1 2 3 4 5 6 
#
# 1 134.2513 58.5307 50.3381 -8.5391 -5.9508 5.0459
# 2 58.5307 98.0666 52.2714 1.7273 -11.3851 2.6458
# 3 50.3381 52.2714 96.4425 8.7188 -11.3585 12.0099
# 4 -8.5391 1.7273 8.7188 39.9591 4.7274 -0.5625
# 5 -5.9508 -11.3851 -11.3585 4.7274 31.3656 3.9443
# 6 5.0459 2.6458 12.0099 -0.5625 3.9443 31.1702
#
#
#
# Elastic Compliance Matrix: (Units=1/GPa)
#
#
# Indices 1 2 3 4 5 6 
#
# 1 0.011127 -0.004934 -0.003683 0.003587 -0.001592 0.000303
# 2 -0.004934 0.016810 -0.006320 -0.000713 0.002803 0.001439
# 3 -0.003683 -0.006320 0.017537 -0.005010 0.004910 -0.006336
# 4 0.003587 -0.000713 -0.005010 0.027651 -0.005894 0.002655
# 5 -0.001592 0.002803 0.004910 -0.005894 0.036087 -0.006545
# 6 0.000303 0.001439 -0.006336 0.002655 -0.006545 0.035228
#
#
# Mechanical properties :
#
#
# Convention : Reuss Voigt Hill
#
# Bulk Modulus (GPa) = 64.10556 72.33786 68.22171
# Shear Modulus (GPa) = 27.85288 31.67366 29.76327
#
# Velocity S-wave (km/s) = 3.68764 3.93245 3.81201
# Velocity P-wave (km/s) = 7.03066 7.47908 7.25833
#
# Compressibility (1/GPa) = 0.01559927
#
# Stress axis : x y z
#
# Youngs Moduli (GPa) = 89.87037 59.48804 57.02264
#
# Poissons Ratio (x) = 0.29353 0.21002
# Poissons Ratio (y) = 0.44345 0.36039
# Poissons Ratio (z) = 0.33099 0.37597
#
# Static dielectric constant tensor:
#      x y z
#    x 3.998860 -0.069730 0.006790 
#    y -0.069730 3.941310 0.156630 
#    z 0.006790 0.156630 3.810800 
# 
# 
# High freq. dielectric constant tensor:
#      x y z
#    x 1.815850 0.003710 0.001710 
#    y 0.003710 1.810760 0.006290 
#    z 0.001710 0.006290 1.809040 
# 
# From -- ./inp_files/24360.got.cif
#   From: 2010.06.25/outbox.cif.g09.slc.cpg/sg2_13_cif.got.tgz:24360.got - 2010.06.27 13:26:56.
