data_PCOD8034801
_publ_section_title
;
Structure prediction by ZEFSAII (Michael W. Deem and Ramdas Pophale) SiO2 
 PCOD8034801
Probable space group: P -1
;
_chemical_formula_sum "Si O2"
_cell_formula_units_Z 16
_cell_length_a 11.490309
_cell_length_b 8.739386
_cell_length_c 17.955076
_cell_angle_alpha 132.243213
_cell_angle_beta 45.494552
_cell_angle_gamma 96.138272
_cell_volume 688.975836
_symmetry_space_group_name_H-M "P -1"
_symmetry_group_IT_number 2
_symmetry_cell_setting 'triclinic'
loop_
_space_group_symop_operation_xyz
x,y,z
-x,-y,-z
loop_
_atom_site_type_symbol
_atom_site_label
_atom_site_fract_x
_atom_site_fract_y
_atom_site_fract_z
Si Si1 0.234344 0.790656 0.924562
Si Si2 0.148873 0.179249 0.856545
Si Si3 0.634193 0.784664 0.101690
Si Si4 0.699998 0.927365 0.776320
Si Si5 0.100559 0.565170 0.372404
Si Si6 0.987676 0.437774 0.235828
Si Si7 0.501723 0.476601 0.128932
Si Si8 0.455922 0.396458 0.556885
O O1 0.366451 0.628718 0.887546
O O2 0.396416 0.591083 0.717754
O O3 0.011436 0.844765 0.039272
O O4 0.150404 0.097570 0.059608
O O5 0.336259 0.083586 0.800896
O O6 0.307228 0.934384 0.641721
O O7 0.000000 0.500000 0.000000
O O8 0.512907 0.686212 0.153065
O O9 0.472640 0.023825 0.189175
O O10 0.883261 0.526485 0.869682
O O11 0.718450 0.757625 0.782513
O O12 0.938238 0.766098 0.578356
O O13 0.610581 0.223163 0.940211
O O14 0.963537 0.581197 0.371254
O O15 0.238815 0.647932 0.313597
O O16 0.742816 0.593955 0.366446
O O17 0.500000 0.500000 0.500000
#
# Coordination Sequence:
#
# PCOD8034801 Si02
#       8
#     2   2   2   2   2   2   2   2
#     4  12  25  46  75 102 145 188 238 292 360 424
#     4  12  26  50  69 106 146 186 234 302 365 422
#     4  12  25  45  74  97 144 186 233 293 353 418
#     4  11  24  46  71 102 137 186 240 289 346 420
#     4  11  25  44  72 102 140 185 236 291 353 417
#     4  12  23  46  74 105 140 188 239 298 354 419
#     4  12  25  46  67 104 142 188 230 292 353 419
#     4  12  26  45  78 108 139 186 246 294 354 431
#
# _framework density 23.222875999999999
#
# number of rings (size 3 to 8) (size 9 to 14) (size 15 to 20)
#    0.000    0.250    6.250    3.375    0.000    4.000 
#    2.250    0.000    0.000    0.000    0.000    0.000 
#    0.000    0.000    0.000    0.000    0.000    0.000 
#
# Total GULP energy -198439.059278 kJ/mol
# GULP energy per Si atom -12402.441205 kJ/mol
# Density = 2.317002 g / cm^3
# Si number density = 23.222876 Si / 1000 Ang^3
#
#
#
# Elastic Constant Matrix: (Units=GPa)
#
#
# Indices 1 2 3 4 5 6 
#
# 1 87.9587 8.2824 -7.8726 -9.5469 -7.7151 1.3532
# 2 8.2824 60.8144 15.6375 -21.8871 -11.6533 11.8698
# 3 -7.8726 15.6375 101.7773 -21.2830 -13.7663 3.6150
# 4 -9.5469 -21.8871 -21.2830 34.3103 -5.2690 -12.3876
# 5 -7.7151 -11.6533 -13.7663 -5.2690 27.2008 -10.9046
# 6 1.3532 11.8698 3.6150 -12.3876 -10.9046 34.1249
#
#
#
# Elastic Compliance Matrix: (Units=1/GPa)
#
#
# Indices 1 2 3 4 5 6 
#
# 1 0.014009 0.002684 0.004920 0.013131 0.012916 0.006884
# 2 0.002684 0.027834 0.004546 0.027434 0.023141 0.007084
# 3 0.004920 0.004546 0.016270 0.021243 0.019934 0.010581
# 4 0.013131 0.027434 0.021243 0.085830 0.057815 0.037318
# 5 0.012916 0.023141 0.019934 0.057815 0.086896 0.038082
# 6 0.006884 0.007084 0.010581 0.037318 0.038082 0.051162
#
#
# Mechanical properties :
#
#
# Convention : Reuss Voigt Hill
#
# Bulk Modulus (GPa) = 12.13390 31.40500 21.76945
# Shear Modulus (GPa) = 17.53333 34.76075 26.14704
#
# Velocity S-wave (km/s) = 2.75071 3.87309 3.35911
# Velocity P-wave (km/s) = 3.91470 5.79256 4.94361
#
# Compressibility (1/GPa) = 0.08241372
#
# Stress axis : x y z
#
# Youngs Moduli (GPa) = 71.38403 35.92713 61.46245
#
# Poissons Ratio (x) = -0.09644 -0.30237
# Poissons Ratio (y) = -0.19163 -0.27943
# Poissons Ratio (z) = -0.35118 -0.16334
#
# Static dielectric constant tensor:
#      x y z
#    x 4.404230 0.091510 -0.034830 
#    y 0.091510 4.179810 -0.198590 
#    z -0.034830 -0.198590 4.419680 
# 
# 
# High freq. dielectric constant tensor:
#      x y z
#    x 1.927970 0.005060 -0.002210 
#    y 0.005060 1.910200 -0.017330 
#    z -0.002210 -0.017330 1.931930 
# 
# From -- ./inp_files/566933.got.cif
#   From: 2010.06.25/outbox.cif.g09.slc.cpg/sg2_284_cif.got.tgz:566933.got - 2010.06.27 13:26:56.
