data_PCOD8034067
_publ_section_title
;
Structure prediction by ZEFSAII (Michael W. Deem and Ramdas Pophale) SiO2 
 PCOD8034067
Probable space group: P -1
;
_chemical_formula_sum "Si O2"
_cell_formula_units_Z 10
_cell_length_a 8.236895
_cell_length_b 10.788273
_cell_length_c 13.287491
_cell_angle_alpha 41.138607
_cell_angle_beta 56.210356
_cell_angle_gamma 89.939956
_cell_volume 416.436972
_symmetry_space_group_name_H-M "P -1"
_symmetry_group_IT_number 2
_symmetry_cell_setting 'triclinic'
loop_
_space_group_symop_operation_xyz
x,y,z
-x,-y,-z
loop_
_atom_site_type_symbol
_atom_site_label
_atom_site_fract_x
_atom_site_fract_y
_atom_site_fract_z
Si Si1 0.953839 0.303826 0.217798
Si Si2 0.370751 0.453284 0.408725
Si Si3 0.164928 0.085863 0.189801
Si Si4 0.467909 0.864987 0.807273
Si Si5 0.683500 0.871514 0.212091
O O1 0.949767 0.092870 0.300383
O O2 0.233213 0.530432 0.060492
O O3 0.634229 0.085658 0.519674
O O4 0.000000 0.500000 0.000000
O O5 0.446729 0.686107 0.313422
O O6 0.466041 0.339943 0.509956
O O7 0.559047 0.606874 0.147854
O O8 0.019265 0.179583 0.664379
O O9 0.276167 0.038380 0.270844
O O10 0.275747 0.879871 0.926210
O O11 0.000000 0.000000 0.000000
#
# Coordination Sequence:
#
# PCOD8034067 Si02
#       5
#     2   2   2   2   2
#     4  12  25  45  71  99 135 175 223 270 333 402
#     4  11  24  43  71  94 136 177 222 272 331 389
#     4  12  24  45  68 102 138 170 219 278 337 395
#     4  12  27  43  70 101 135 175 220 276 337 389
#     4  11  25  46  69  97 135 178 230 272 320 397
#
# _framework density 24.013241000000001
#
# number of rings (size 3 to 8) (size 9 to 14) (size 15 to 20)
#    0.000    0.400    2.000    6.600    5.600    1.600 
#    0.000    0.000    0.000    0.000    0.000    0.000 
#    0.000    0.000    0.000    0.000    0.000    0.000 
#
# Total GULP energy -124009.529978 kJ/mol
# GULP energy per Si atom -12400.952998 kJ/mol
# Density = 2.395859 g / cm^3
# Si number density = 24.013241 Si / 1000 Ang^3
#
#
#
# Elastic Constant Matrix: (Units=GPa)
#
#
# Indices 1 2 3 4 5 6 
#
# 1 74.1186 36.0795 9.8070 8.0121 0.8703 -1.8215
# 2 36.0795 82.0123 30.3234 -3.0751 5.2810 6.6634
# 3 9.8070 30.3234 108.5395 -0.8697 -1.6923 -5.9139
# 4 8.0121 -3.0751 -0.8697 36.0708 11.3619 -15.5578
# 5 0.8703 5.2810 -1.6923 11.3619 29.2548 -5.6229
# 6 -1.8215 6.6634 -5.9139 -15.5578 -5.6229 41.6375
#
#
#
# Elastic Compliance Matrix: (Units=1/GPa)
#
#
# Indices 1 2 3 4 5 6 
#
# 1 0.018256 -0.008837 0.000867 -0.005545 0.003395 0.000723
# 2 -0.008837 0.018552 -0.004623 0.003693 -0.005435 -0.003366
# 3 0.000867 -0.004623 0.010599 0.000216 0.001840 0.002612
# 4 -0.005545 0.003693 0.000216 0.038520 -0.013180 0.011810
# 5 0.003395 -0.005435 0.001840 -0.013180 0.040642 0.001844
# 6 0.000723 -0.003366 0.002612 0.011810 0.001844 0.029620
#
#
# Mechanical properties :
#
#
# Convention : Reuss Voigt Hill
#
# Bulk Modulus (GPa) = 45.00156 46.34337 45.67246
# Shear Modulus (GPa) = 26.48525 33.95663 30.22094
#
# Velocity S-wave (km/s) = 3.32466 3.76450 3.55140
# Velocity P-wave (km/s) = 5.78955 6.18355 5.98979
#
# Compressibility (1/GPa) = 0.02222145
#
# Stress axis : x y z
#
# Youngs Moduli (GPa) = 54.77548 53.90121 94.34635
#
# Poissons Ratio (x) = 0.47635 -0.08183
# Poissons Ratio (y) = 0.48407 0.43618
# Poissons Ratio (z) = -0.04751 0.24920
#
# Static dielectric constant tensor:
#      x y z
#    x 4.035780 0.369830 0.111700 
#    y 0.369830 4.583750 -0.096240 
#    z 0.111700 -0.096240 4.382190 
# 
# 
# High freq. dielectric constant tensor:
#      x y z
#    x 1.934250 0.026440 0.005950 
#    y 0.026440 1.962090 -0.006280 
#    z 0.005950 -0.006280 1.962790 
# 
# From -- ./inp_files/27447.got.cif
#   From: 2010.06.25/outbox.cif.g09.slc.cpg/sg2_14_cif.got.tgz:27447.got - 2010.06.27 13:26:56.
