data_PCOD8034246
_publ_section_title
;
Structure prediction by ZEFSAII (Michael W. Deem and Ramdas Pophale) SiO2 
 PCOD8034246
Probable space group: P -1
;
_chemical_formula_sum "Si O2"
_cell_formula_units_Z 14
_cell_length_a 16.904341
_cell_length_b 9.282125
_cell_length_c 13.376835
_cell_angle_alpha 102.757806
_cell_angle_beta 157.692177
_cell_angle_gamma 64.288322
_cell_volume 609.660217
_symmetry_space_group_name_H-M "P -1"
_symmetry_group_IT_number 2
_symmetry_cell_setting 'triclinic'
loop_
_space_group_symop_operation_xyz
x,y,z
-x,-y,-z
loop_
_atom_site_type_symbol
_atom_site_label
_atom_site_fract_x
_atom_site_fract_y
_atom_site_fract_z
Si Si1 0.411264 0.980848 0.709707
Si Si2 0.625545 0.346119 0.342395
Si Si3 0.008858 0.655213 0.082774
Si Si4 0.159056 0.749476 0.874135
Si Si5 0.748509 0.288900 0.788458
Si Si6 0.537686 0.072936 0.454775
Si Si7 0.906818 0.950977 0.288432
O O1 0.153474 0.149726 0.496473
O O2 0.435323 0.792180 0.712295
O O3 0.362241 0.050581 0.547603
O O4 0.677376 0.940074 0.056084
O O5 0.725340 0.409714 0.558796
O O6 0.839725 0.249768 0.488781
O O7 0.348841 0.543241 0.013197
O O8 0.990014 0.771041 0.978921
O O9 0.000000 0.500000 0.000000
O O10 0.775991 0.758773 0.908182
O O11 0.215616 0.885835 0.913930
O O12 0.201585 0.734576 0.039780
O O13 0.500000 0.500000 0.500000
O O14 0.705742 0.143843 0.679423
O O15 0.500000 0.000000 0.500000
O O16 0.000000 0.000000 0.500000
#
# Coordination Sequence:
#
# PCOD8034246 Si02
#       7
#     2   2   2   2   2   2   2
#     4  11  24  44  69  98 138 182 232 292 346 411
#     4  11  24  45  71  99 140 181 231 285 346 416
#     4  12  23  38  63  98 141 189 228 269 335 412
#     4  11  25  43  70 106 139 183 233 282 346 423
#     4  12  22  39  61  99 145 185 224 272 329 414
#     4  12  23  36  61  94 136 187 227 272 336 399
#     4  11  27  51  74 100 135 178 237 304 359 411
#
# _framework density 22.963611
#
# number of rings (size 3 to 8) (size 9 to 14) (size 15 to 20)
#    0.000    0.571    5.714    1.714    2.000    6.286 
#    0.000    1.429    0.000    0.000    0.000    0.000 
#    0.000    0.000    0.000    0.000    0.000    0.000 
#
# Total GULP energy -173497.302783 kJ/mol
# GULP energy per Si atom -12392.664485 kJ/mol
# Density = 2.291135 g / cm^3
# Si number density = 22.963611 Si / 1000 Ang^3
#
#
#
# Elastic Constant Matrix: (Units=GPa)
#
#
# Indices 1 2 3 4 5 6 
#
# 1 68.5463 37.9320 45.4286 6.2359 17.3967 -3.5126
# 2 37.9320 124.2938 72.2838 13.1070 13.9329 -0.9564
# 3 45.4286 72.2838 119.1557 17.0307 32.8466 -6.6545
# 4 6.2359 13.1070 17.0307 50.3887 -2.5750 8.8519
# 5 17.3967 13.9329 32.8466 -2.5750 39.4381 3.1737
# 6 -3.5126 -0.9564 -6.6545 8.8519 3.1737 36.0386
#
#
#
# Elastic Compliance Matrix: (Units=1/GPa)
#
#
# Indices 1 2 3 4 5 6 
#
# 1 0.020571 -0.003013 -0.004630 -0.000704 -0.004330 0.001624
# 2 -0.003013 0.013134 -0.007858 0.000086 0.003377 -0.001715
# 3 -0.004630 -0.007858 0.019328 -0.005466 -0.012064 0.005314
# 4 -0.000704 0.000086 -0.005466 0.023421 0.006960 -0.007441
# 5 -0.004330 0.003377 -0.012064 0.006960 0.037182 -0.007544
# 6 0.001624 -0.001715 0.005314 -0.007441 -0.007544 0.031334
#
#
# Mechanical properties :
#
#
# Convention : Reuss Voigt Hill
#
# Bulk Modulus (GPa) = 45.39076 69.25386 57.32231
# Shear Modulus (GPa) = 27.27563 35.59650 31.43607
#
# Velocity S-wave (km/s) = 3.45015 3.94144 3.70395
# Velocity P-wave (km/s) = 5.97333 7.13700 6.58094
#
# Compressibility (1/GPa) = 0.02203092
#
# Stress axis : x y z
#
# Youngs Moduli (GPa) = 48.61280 76.13926 51.73942
#
# Poissons Ratio (x) = 0.22942 0.23954
# Poissons Ratio (y) = 0.14648 0.40655
# Poissons Ratio (z) = 0.22507 0.59827
#
# Static dielectric constant tensor:
#      x y z
#    x 3.322760 0.147160 -0.159220 
#    y 0.147160 4.135820 -0.150730 
#    z -0.159220 -0.150730 4.074770 
# 
# 
# High freq. dielectric constant tensor:
#      x y z
#    x 1.909590 0.005720 0.034010 
#    y 0.005720 1.897200 -0.002890 
#    z 0.034010 -0.002890 1.917010 
# 
# From -- ./inp_files/348560.got.cif
#   From: 2010.06.25/outbox.cif.g09.slc.cpg/sg2_175_cif.got.tgz:348560.got - 2010.06.27 13:26:56.
