data_PCOD8034997
_publ_section_title
;
Structure prediction by ZEFSAII (Michael W. Deem and Ramdas Pophale) SiO2 
 PCOD8034997
Probable space group: P -1
;
_chemical_formula_sum "Si O2"
_cell_formula_units_Z 16
_cell_length_a 11.753119
_cell_length_b 8.787399
_cell_length_c 19.013184
_cell_angle_alpha 148.891228
_cell_angle_beta 132.711768
_cell_angle_gamma 48.861066
_cell_volume 729.925878
_symmetry_space_group_name_H-M "P -1"
_symmetry_group_IT_number 2
_symmetry_cell_setting 'triclinic'
loop_
_space_group_symop_operation_xyz
x,y,z
-x,-y,-z
loop_
_atom_site_type_symbol
_atom_site_label
_atom_site_fract_x
_atom_site_fract_y
_atom_site_fract_z
Si Si1 0.859740 0.202770 0.350588
Si Si2 0.552939 0.144969 0.874793
Si Si3 0.431344 0.846712 0.589292
Si Si4 0.588605 0.141962 0.651718
Si Si5 0.521573 0.159839 0.143933
Si Si6 0.087537 0.831999 0.403057
Si Si7 0.906502 0.784798 0.664209
Si Si8 0.112865 0.135380 0.151970
O O1 0.699587 0.093708 0.222339
O O2 0.830963 0.485171 0.504634
O O3 0.929605 0.280850 0.335738
O O4 0.988848 0.939368 0.334537
O O5 0.414843 0.025684 0.727222
O O6 0.581166 0.973751 0.893702
O O7 0.712763 0.061858 0.863684
O O8 0.500000 0.500000 0.000000
O O9 0.500000 0.500000 0.500000
O O10 0.263274 0.901303 0.501417
O O11 0.550101 0.997655 0.652223
O O12 0.537886 0.495060 0.762395
O O13 0.500000 0.000000 0.500000
O O14 0.777481 0.060091 0.687527
O O15 0.500000 0.000000 0.000000
O O16 0.106846 0.478869 0.268747
O O17 0.000000 0.000000 0.500000
O O18 0.943171 0.868264 0.792142
O O19 0.000000 0.000000 0.000000
#
# Coordination Sequence:
#
# PCOD8034997 Si02
#       8
#     2   2   2   2   2   2   2   2
#     4  11  26  45  73 108 145 188 241 296 363 438
#     4  12  28  49  73 101 145 195 247 302 364 435
#     4  12  24  45  75 106 140 189 250 301 354 432
#     4  12  23  43  73 104 140 187 238 298 357 422
#     4  12  29  47  71 105 145 193 245 297 365 432
#     4  12  25  44  74 107 145 192 240 303 361 436
#     4  11  24  47  71 107 144 188 239 299 362 432
#     4  12  29  47  72 107 149 190 243 301 372 435
#
# _framework density 21.920034000000001
#
# number of rings (size 3 to 8) (size 9 to 14) (size 15 to 20)
#    0.000    0.250    5.000    3.000    8.750    0.000 
#    0.000    1.250    0.000    0.000    0.000    0.000 
#    0.000    0.000    0.000    0.000    0.000    0.000 
#
# Total GULP energy -198395.390377 kJ/mol
# GULP energy per Si atom -12399.711899 kJ/mol
# Density = 2.187014 g / cm^3
# Si number density = 21.920034 Si / 1000 Ang^3
#
#
#
# Elastic Constant Matrix: (Units=GPa)
#
#
# Indices 1 2 3 4 5 6 
#
# 1 83.2375 28.1169 35.0378 2.7445 -12.9052 3.3261
# 2 28.1169 135.4513 59.8937 12.4863 -4.8726 -3.6583
# 3 35.0378 59.8937 177.1681 1.0579 -17.4681 -1.0744
# 4 2.7445 12.4863 1.0579 56.5418 1.8365 2.9721
# 5 -12.9052 -4.8726 -17.4681 1.8365 34.1933 -6.3852
# 6 3.3261 -3.6583 -1.0744 2.9721 -6.3852 43.4422
#
#
#
# Elastic Compliance Matrix: (Units=1/GPa)
#
#
# Indices 1 2 3 4 5 6 
#
# 1 0.014076 -0.002012 -0.001707 -0.000303 0.004044 -0.000674
# 2 -0.002012 0.009197 -0.002752 -0.001910 -0.000583 0.000905
# 3 -0.001707 -0.002752 0.007177 0.000446 0.002689 0.000441
# 4 -0.000303 -0.001910 0.000446 0.018244 -0.001435 -0.001586
# 5 0.004044 -0.000583 0.002689 -0.001435 0.033009 0.004658
# 6 -0.000674 0.000905 0.000441 -0.001586 0.004658 0.023951
#
#
# Mechanical properties :
#
#
# Convention : Reuss Voigt Hill
#
# Bulk Modulus (GPa) = 57.11505 71.32819 64.22162
# Shear Modulus (GPa) = 40.18262 45.02269 42.60266
#
# Velocity S-wave (km/s) = 4.28617 4.53697 4.41335
# Velocity P-wave (km/s) = 7.11391 7.74960 7.43855
#
# Compressibility (1/GPa) = 0.01750852
#
# Stress axis : x y z
#
# Youngs Moduli (GPa) = 71.04330 108.73462 139.32747
#
# Poissons Ratio (x) = 0.21875 0.23786
# Poissons Ratio (y) = 0.14293 0.38339
# Poissons Ratio (z) = 0.12128 0.29921
#
# Static dielectric constant tensor:
#      x y z
#    x 3.529810 0.076640 -0.062780 
#    y 0.076640 4.058580 -0.095020 
#    z -0.062780 -0.095020 3.954020 
# 
# 
# High freq. dielectric constant tensor:
#      x y z
#    x 1.862980 0.001540 -0.011710 
#    y 0.001540 1.877320 -0.004950 
#    z -0.011710 -0.004950 1.869490 
# 
# From -- ./inp_files/206369.got.cif
#   From: 2010.06.25/outbox.cif.g09.slc.cpg/sg2_104_cif.got.tgz:206369.got - 2010.06.27 13:26:56.
