data_PCOD8034745
_publ_section_title
;
Structure prediction by ZEFSAII (Michael W. Deem and Ramdas Pophale) SiO2 
 PCOD8034745
Probable space group: P -1
;
_chemical_formula_sum "Si O2"
_cell_formula_units_Z 16
_cell_length_a 8.988746
_cell_length_b 21.139999
_cell_length_c 12.066071
_cell_angle_alpha 159.285825
_cell_angle_beta 66.598881
_cell_angle_gamma 108.853614
_cell_volume 735.979830
_symmetry_space_group_name_H-M "P -1"
_symmetry_group_IT_number 2
_symmetry_cell_setting 'triclinic'
loop_
_space_group_symop_operation_xyz
x,y,z
-x,-y,-z
loop_
_atom_site_type_symbol
_atom_site_label
_atom_site_fract_x
_atom_site_fract_y
_atom_site_fract_z
Si Si1 0.268324 0.239939 0.364793
Si Si2 0.148159 0.468959 0.323503
Si Si3 0.830069 0.932414 0.434782
Si Si4 0.907697 0.405715 0.693530
Si Si5 0.316196 0.872325 0.621546
Si Si6 0.519035 0.481284 0.595667
Si Si7 0.685137 0.777617 0.425846
Si Si8 0.377753 0.863956 0.339054
O O1 0.421465 0.327341 0.417236
O O2 0.306015 0.167325 0.358962
O O3 0.097365 0.378653 0.634045
O O4 0.262137 0.065724 0.007853
O O5 0.096206 0.590424 0.431195
O O6 0.291465 0.553535 0.482511
O O7 0.000000 0.500000 0.500000
O O8 0.185505 0.256517 0.931990
O O9 0.751208 0.925726 0.569634
O O10 0.748875 0.103228 0.668951
O O11 0.000000 0.000000 0.500000
O O12 0.823784 0.241614 0.491493
O O13 0.803358 0.588000 0.069532
O O14 0.496208 0.770044 0.435835
O O15 0.301205 0.905384 0.549597
O O16 0.500000 0.500000 0.500000
O O17 0.454243 0.657511 0.973808
O O18 0.500000 0.000000 0.500000
#
# Coordination Sequence:
#
# PCOD8034745 Si02
#       8
#     2   2   2   2   2   2   2   2
#     4  12  27  43  70 106 138 177 232 288 343 407
#     4  11  25  45  69  99 141 179 224 283 340 409
#     4  11  27  42  71 102 136 180 226 281 341 407
#     4  11  25  45  68 100 135 185 230 280 351 402
#     4  12  25  45  72  98 139 183 229 285 344 410
#     4  12  26  44  71 102 138 182 228 282 342 409
#     4  11  24  46  68  98 138 181 231 279 344 413
#     4  12  23  46  70  98 135 181 231 276 343 409
#
# _framework density 21.739726000000001
#
# number of rings (size 3 to 8) (size 9 to 14) (size 15 to 20)
#    0.000    0.500    2.500    5.250    8.750    1.000 
#    0.000    0.000    0.000    0.000    0.000    0.000 
#    0.000    0.000    0.000    0.000    0.000    0.000 
#
# Total GULP energy -198364.839260 kJ/mol
# GULP energy per Si atom -12397.802454 kJ/mol
# Density = 2.169025 g / cm^3
# Si number density = 21.739726 Si / 1000 Ang^3
#
#
#
# Elastic Constant Matrix: (Units=GPa)
#
#
# Indices 1 2 3 4 5 6 
#
# 1 143.3229 48.4717 2.3554 9.5499 5.3341 7.9278
# 2 48.4717 187.7333 34.3702 -7.5233 15.4054 -6.7891
# 3 2.3554 34.3702 63.9698 -4.8074 0.2502 1.5934
# 4 9.5499 -7.5233 -4.8074 31.2693 1.4335 3.1685
# 5 5.3341 15.4054 0.2502 1.4335 37.7360 1.6377
# 6 7.9278 -6.7891 1.5934 3.1685 1.6377 44.1113
#
#
#
# Elastic Compliance Matrix: (Units=1/GPa)
#
#
# Indices 1 2 3 4 5 6 
#
# 1 0.008049 -0.002400 0.000828 -0.002742 0.000012 -0.001649
# 2 -0.002400 0.006938 -0.003532 0.001817 -0.002608 0.001593
# 3 0.000828 -0.003532 0.017661 0.001709 0.001208 -0.001498
# 4 -0.002742 0.001817 0.001709 0.033758 -0.001576 -0.001656
# 5 0.000012 -0.002608 0.001208 -0.001576 0.027674 -0.001361
# 6 -0.001649 0.001593 -0.001498 -0.001656 -0.001361 0.023435
#
#
# Mechanical properties :
#
#
# Convention : Reuss Voigt Hill
#
# Bulk Modulus (GPa) = 44.56537 62.82451 53.69494
# Shear Modulus (GPa) = 36.98195 43.27856 40.13026
#
# Velocity S-wave (km/s) = 4.12894 4.46663 4.30110
# Velocity P-wave (km/s) = 6.57837 7.45401 7.02984
#
# Compressibility (1/GPa) = 0.02243895
#
# Stress axis : x y z
#
# Youngs Moduli (GPa) = 124.24044 144.14377 56.62329
#
# Poissons Ratio (x) = 0.34600 -0.04690
# Poissons Ratio (y) = 0.29822 0.19999
# Poissons Ratio (z) = -0.10291 0.50911
#
# Static dielectric constant tensor:
#      x y z
#    x 4.140090 -0.080800 -0.116340 
#    y -0.080800 4.305720 -0.016460 
#    z -0.116340 -0.016460 3.984740 
# 
# 
# High freq. dielectric constant tensor:
#      x y z
#    x 1.871200 -0.001770 0.000660 
#    y -0.001770 1.878430 -0.002180 
#    z 0.000660 -0.002180 1.851070 
# 
# From -- ./inp_files/244916.got.cif
#   From: 2010.06.25/outbox.cif.g09.slc.cpg/sg2_123_cif.got.tgz:244916.got - 2010.06.27 13:26:56.
