data_PCOD8034888
_publ_section_title
;
Structure prediction by ZEFSAII (Michael W. Deem and Ramdas Pophale) SiO2 
 PCOD8034888
Probable space group: P -1
;
_chemical_formula_sum "Si O2"
_cell_formula_units_Z 14
_cell_length_a 8.289511
_cell_length_b 12.571741
_cell_length_c 15.950137
_cell_angle_alpha 27.970736
_cell_angle_beta 126.644991
_cell_angle_gamma 118.604048
_cell_volume 620.332883
_symmetry_space_group_name_H-M "P -1"
_symmetry_group_IT_number 2
_symmetry_cell_setting 'triclinic'
loop_
_space_group_symop_operation_xyz
x,y,z
-x,-y,-z
loop_
_atom_site_type_symbol
_atom_site_label
_atom_site_fract_x
_atom_site_fract_y
_atom_site_fract_z
Si Si1 0.997073 0.867886 0.845112
Si Si2 0.567247 0.285609 0.610622
Si Si3 0.337167 0.487442 0.236991
Si Si4 0.288275 0.409294 0.985164
Si Si5 0.371219 0.212171 0.972323
Si Si6 0.007153 0.250222 0.709062
Si Si7 0.016092 0.198595 0.302652
O O1 0.055719 0.870175 0.763558
O O2 0.015635 0.109169 0.723880
O O3 0.763974 0.812558 0.824109
O O4 0.155212 0.681370 0.074071
O O5 0.500000 0.500000 0.500000
O O6 0.465672 0.360424 0.439472
O O7 0.810006 0.230151 0.717742
O O8 0.503961 0.040553 0.792959
O O9 0.237185 0.283716 0.301347
O O10 0.478315 0.612435 0.132706
O O11 0.127524 0.603492 0.836044
O O12 0.500000 0.500000 0.000000
O O13 0.258320 0.337907 0.929466
O O14 0.207075 0.173969 0.877901
O O15 0.000000 0.500000 0.500000
O O16 0.000000 0.000000 0.500000
#
# Coordination Sequence:
#
# PCOD8034888 Si02
#       7
#     2   2   2   2   2   2   2
#     4  11  25  49  72 102 154 187 243 301 362 435
#     4  12  28  45  74 107 145 194 248 293 362 435
#     4  11  26  47  72 111 141 194 242 297 369 427
#     4  11  24  46  74 104 142 190 241 298 367 427
#     4  12  26  48  76 107 155 189 240 306 359 435
#     4  12  27  47  71 109 147 194 240 300 363 428
#     4  11  27  45  76 107 144 194 241 304 363 434
#
# _framework density 22.568529000000002
#
# number of rings (size 3 to 8) (size 9 to 14) (size 15 to 20)
#    0.000    0.571    2.857    4.714   12.000    1.143 
#    0.000    2.143    0.000    0.000    0.000    0.000 
#    0.000    0.000    0.000    0.000    0.000    0.000 
#
# Total GULP energy -173474.456751 kJ/mol
# GULP energy per Si atom -12391.032625 kJ/mol
# Density = 2.251716 g / cm^3
# Si number density = 22.568529 Si / 1000 Ang^3
#
#
#
# Elastic Constant Matrix: (Units=GPa)
#
#
# Indices 1 2 3 4 5 6 
#
# 1 116.9140 74.2063 61.8473 -7.2004 -6.2953 -1.8175
# 2 74.2063 165.2314 67.8542 -24.1691 -8.7493 -20.9707
# 3 61.8473 67.8542 128.3596 -5.1525 -36.3453 3.3428
# 4 -7.2004 -24.1691 -5.1525 28.1971 5.8315 1.7285
# 5 -6.2953 -8.7493 -36.3453 5.8315 29.7654 -3.2878
# 6 -1.8175 -20.9707 3.3428 1.7285 -3.2878 47.8692
#
#
#
# Elastic Compliance Matrix: (Units=1/GPa)
#
#
# Indices 1 2 3 4 5 6 
#
# 1 0.014267 -0.004290 -0.006294 0.000160 -0.006107 -0.001323
# 2 -0.004290 0.011835 -0.005460 0.008860 -0.005310 0.004718
# 3 -0.006294 -0.005460 0.019834 -0.007168 0.022442 -0.002216
# 4 0.000160 0.008860 -0.007168 0.044718 -0.014681 0.001765
# 5 -0.006107 -0.005310 0.022442 -0.014681 0.061089 0.000601
# 6 -0.001323 0.004718 -0.002216 0.001765 0.000601 0.023039
#
#
# Mechanical properties :
#
#
# Convention : Reuss Voigt Hill
#
# Bulk Modulus (GPa) = 72.22037 90.92451 81.57244
# Shear Modulus (GPa) = 23.64232 34.93950 29.29091
#
# Velocity S-wave (km/s) = 3.24014 3.93892 3.60650
# Velocity P-wave (km/s) = 6.78734 7.81425 7.31883
#
# Compressibility (1/GPa) = 0.01384651
#
# Stress axis : x y z
#
# Youngs Moduli (GPa) = 70.09405 84.49822 50.41850
#
# Poissons Ratio (x) = 0.36252 0.31735
# Poissons Ratio (y) = 0.30073 0.27526
# Poissons Ratio (z) = 0.44120 0.46132
#
# Static dielectric constant tensor:
#      x y z
#    x 3.005830 -1.287270 0.047630 
#    y -1.287270 2.973760 0.196290 
#    z 0.047630 0.196290 4.062460 
# 
# 
# High freq. dielectric constant tensor:
#      x y z
#    x 1.901380 0.009230 -0.010700 
#    y 0.009230 1.907140 -0.012740 
#    z -0.010700 -0.012740 1.887810 
# 
# From -- ./inp_files/224413.got.cif
#   From: 2010.06.25/outbox.cif.g09.slc.cpg/sg2_113_cif.got.tgz:224413.got - 2010.06.27 13:26:56.
