data_PCOD8034910
_publ_section_title
;
Structure prediction by ZEFSAII (Michael W. Deem and Ramdas Pophale) SiO2 
 PCOD8034910
Probable space group: P -1
;
_chemical_formula_sum "Si O2"
_cell_formula_units_Z 16
_cell_length_a 7.960918
_cell_length_b 22.117160
_cell_length_c 13.621563
_cell_angle_alpha 25.644230
_cell_angle_beta 139.358706
_cell_angle_gamma 138.973823
_cell_volume 654.663787
_symmetry_space_group_name_H-M "P -1"
_symmetry_group_IT_number 2
_symmetry_cell_setting 'triclinic'
loop_
_space_group_symop_operation_xyz
x,y,z
-x,-y,-z
loop_
_atom_site_type_symbol
_atom_site_label
_atom_site_fract_x
_atom_site_fract_y
_atom_site_fract_z
Si Si1 0.700759 0.907496 0.799172
Si Si2 0.148839 0.503802 0.927113
Si Si3 0.840116 0.157802 0.772683
Si Si4 0.341553 0.567300 0.705370
Si Si5 0.252133 0.755130 0.945513
Si Si6 0.941341 0.750529 0.991287
Si Si7 0.037388 0.789472 0.479903
Si Si8 0.485050 0.159009 0.874891
O O1 0.721603 0.828913 0.819272
O O2 0.782615 0.079770 0.567887
O O3 0.396056 0.866572 0.762888
O O4 0.889124 0.852815 0.039508
O O5 0.301396 0.569406 0.800918
O O6 0.093502 0.640478 0.761748
O O7 0.861039 0.398038 0.932886
O O8 0.347048 0.427624 0.186331
O O9 0.737574 0.291148 0.577489
O O10 0.903070 0.176943 0.657307
O O11 0.609013 0.012508 0.898026
O O12 0.157640 0.422243 0.787934
O O13 0.470858 0.751655 0.132635
O O14 0.002934 0.793379 0.839398
O O15 0.219552 0.808207 0.092502
O O16 0.724765 0.783124 0.368162
#
# Coordination Sequence:
#
# PCOD8034910 Si02
#       8
#     2   2   2   2   2   2   2   2
#     4  11  19  34  58  83 108 141 169 221 280 307
#     4   9  19  34  56  75 106 149 180 217 266 310
#     4  10  17  31  55  78 112 139 174 221 265 321
#     4   9  19  36  52  77 109 145 181 219 262 314
#     4   9  18  36  54  80 111 135 180 220 259 322
#     4   9  20  35  54  80 113 135 179 219 261 326
#     4  10  17  31  54  81 108 140 178 216 266 324
#     4   9  17  33  50  82 109 131 170 224 266 307
#
# _framework density 24.440027000000001
#
# number of rings (size 3 to 8) (size 9 to 14) (size 15 to 20)
#    0.750    1.750    2.500    0.750    0.000    4.000 
#    0.000    4.375    0.000    0.000    0.000    0.000 
#    0.000    0.000    0.000    0.000    0.000    0.000 
#
# Total GULP energy -198216.013637 kJ/mol
# GULP energy per Si atom -12388.500852 kJ/mol
# Density = 2.438440 g / cm^3
# Si number density = 24.440027 Si / 1000 Ang^3
#
#
#
# Elastic Constant Matrix: (Units=GPa)
#
#
# Indices 1 2 3 4 5 6 
#
# 1 77.5487 40.7546 13.6083 -7.3201 21.1344 -0.1610
# 2 40.7546 77.7189 70.9382 -51.2414 2.7320 25.1967
# 3 13.6083 70.9382 119.8067 -16.4769 28.5308 1.9932
# 4 -7.3201 -51.2414 -16.4769 30.8947 -14.5302 4.1523
# 5 21.1344 2.7320 28.5308 -14.5302 16.5930 -2.0093
# 6 -0.1610 25.1967 1.9932 4.1523 -2.0093 27.3632
#
#
#
# Elastic Compliance Matrix: (Units=1/GPa)
#
#
# Indices 1 2 3 4 5 6 
#
# 1 0.011899 0.006102 -0.002690 0.011294 -0.002522 -0.007252
# 2 0.006102 -0.001900 0.005011 -0.011374 -0.025885 0.001245
# 3 -0.002690 0.005011 0.007624 0.012495 -0.000427 -0.007113
# 4 0.011294 -0.011374 0.012495 0.010832 -0.023755 0.006242
# 5 -0.002522 -0.025885 -0.000427 -0.023755 0.051455 0.031235
# 6 -0.007252 0.001245 -0.007113 0.006242 0.031235 0.037221
#
#
# Mechanical properties :
#
#
# Convention : Reuss Voigt Hill
#
# Bulk Modulus (GPa) = 29.01150 58.40849 43.71000
# Shear Modulus (GPa) = 44.73312 24.95507 34.84410
#
# Velocity S-wave (km/s) = 4.28287 3.19889 3.77994
# Velocity P-wave (km/s) = 6.02939 6.13143 6.08062
#
# Compressibility (1/GPa) = 0.03446909
#
# Stress axis : x y z
#
# Youngs Moduli (GPa) = 84.04351 -526.41348 131.16850
#
# Poissons Ratio (x) = 3.21240 0.35287
# Poissons Ratio (y) = -0.51287 -0.65728
# Poissons Ratio (z) = 0.22609 2.63782
#
# Static dielectric constant tensor:
#      x y z
#    x 4.396410 0.128800 0.302490 
#    y 0.128800 4.325050 -0.184780 
#    z 0.302490 -0.184780 4.201550 
# 
# 
# High freq. dielectric constant tensor:
#      x y z
#    x 1.972490 0.005780 0.009920 
#    y 0.005780 1.976310 -0.015220 
#    z 0.009920 -0.015220 1.937210 
# 
# From -- ./inp_files/563411.got.cif
#   From: 2010.06.25/outbox.cif.g09.slc.cpg/sg2_282_cif.got.tgz:563411.got - 2010.06.27 13:26:56.
