data_PCOD8034398
_publ_section_title
;
Structure prediction by ZEFSAII (Michael W. Deem and Ramdas Pophale) SiO2 
 PCOD8034398
Probable space group: P -1
;
_chemical_formula_sum "Si O2"
_cell_formula_units_Z 16
_cell_length_a 21.626327
_cell_length_b 12.095803
_cell_length_c 18.467725
_cell_angle_alpha 28.270321
_cell_angle_beta 19.380140
_cell_angle_gamma 38.368047
_cell_volume 724.853136
_symmetry_space_group_name_H-M "P -1"
_symmetry_group_IT_number 2
_symmetry_cell_setting 'triclinic'
loop_
_space_group_symop_operation_xyz
x,y,z
-x,-y,-z
loop_
_atom_site_type_symbol
_atom_site_label
_atom_site_fract_x
_atom_site_fract_y
_atom_site_fract_z
Si Si1 0.279782 0.380685 0.620660
Si Si2 0.459571 0.202851 0.981001
Si Si3 0.562390 0.356756 0.449561
Si Si4 0.015528 0.398460 0.120164
Si Si5 0.002966 0.143109 0.732940
Si Si6 0.036869 0.106466 0.478279
Si Si7 0.849297 0.368534 0.639254
Si Si8 0.431557 0.137855 0.214549
O O1 0.385413 0.520760 0.350892
O O2 0.453407 0.387493 0.479677
O O3 0.172746 0.578972 0.644799
O O4 0.123743 0.111284 0.942640
O O5 0.261435 0.260620 0.144069
O O6 0.431658 0.090652 0.156308
O O7 0.500000 0.000000 0.000000
O O8 0.500000 0.500000 0.500000
O O9 0.504913 0.074441 0.694353
O O10 0.795598 0.454422 0.127585
O O11 0.007571 0.116914 0.286309
O O12 0.000000 0.500000 0.000000
O O13 0.018302 0.353430 0.654267
O O14 0.223167 0.151144 0.464020
O O15 0.892988 0.195202 0.753664
O O16 0.904747 0.275959 0.552888
O O17 0.000000 0.000000 0.500000
O O18 0.621712 0.367262 0.891712
#
# Coordination Sequence:
#
# PCOD8034398 Si02
#       8
#     2   2   2   2   2   2   2   2
#     4  12  24  42  62  99 138 177 221 278 338 402
#     4  12  24  41  64 101 144 180 215 278 353 412
#     4  12  22  35  64  99 131 173 230 281 332 404
#     4  12  22  39  65  96 136 176 220 279 340 398
#     4  11  24  47  72  97 136 184 236 279 331 403
#     4  12  24  44  69 101 141 180 218 281 356 408
#     4  11  24  44  74 102 129 180 240 282 327 407
#     4  12  23  43  70  99 133 176 233 282 342 396
#
# _framework density 22.073436000000001
#
# number of rings (size 3 to 8) (size 9 to 14) (size 15 to 20)
#    0.000    0.250    6.250    4.875    0.000    0.000 
#    0.000    1.250    0.000    0.000    0.000    0.000 
#    0.000    0.000    0.000    0.000    0.000    0.000 
#
# Total GULP energy -198257.326681 kJ/mol
# GULP energy per Si atom -12391.082918 kJ/mol
# Density = 2.202320 g / cm^3
# Si number density = 22.073436 Si / 1000 Ang^3
#
#
#
# Elastic Constant Matrix: (Units=GPa)
#
#
# Indices 1 2 3 4 5 6 
#
# 1 67.0658 36.3577 32.8895 10.7700 -11.2979 2.1489
# 2 36.3577 89.8944 45.1901 0.5983 0.1208 3.0979
# 3 32.8895 45.1901 151.8047 1.0149 -9.3908 -2.7155
# 4 10.7700 0.5983 1.0149 38.4008 -9.6566 -10.4565
# 5 -11.2979 0.1208 -9.3908 -9.6566 38.0655 5.3253
# 6 2.1489 3.0979 -2.7155 -10.4565 5.3253 32.1445
#
#
#
# Elastic Compliance Matrix: (Units=1/GPa)
#
#
# Indices 1 2 3 4 5 6 
#
# 1 0.022024 -0.007641 -0.002210 -0.005709 0.005074 -0.003621
# 2 -0.007641 0.015862 -0.003253 0.001163 -0.002762 -0.000457
# 3 -0.002210 -0.003253 0.008141 0.001178 0.001482 0.001287
# 4 -0.005709 0.001163 0.001178 0.031570 0.005234 0.009772
# 5 0.005074 -0.002762 0.001482 0.005234 0.029927 -0.003203
# 6 -0.003621 -0.000457 0.001287 0.009772 -0.003203 0.035214
#
#
# Mechanical properties :
#
#
# Convention : Reuss Voigt Hill
#
# Bulk Modulus (GPa) = 50.45496 59.73773 55.09634
# Shear Modulus (GPa) = 28.48155 34.67734 31.57944
#
# Velocity S-wave (km/s) = 3.59598 3.96788 3.78650
# Velocity P-wave (km/s) = 6.33631 6.93643 6.64315
#
# Compressibility (1/GPa) = 0.01981966
#
# Stress axis : x y z
#
# Youngs Moduli (GPa) = 45.40415 63.04543 122.82901
#
# Poissons Ratio (x) = 0.48172 0.27143
# Poissons Ratio (y) = 0.34693 0.39958
# Poissons Ratio (z) = 0.10034 0.20509
#
# Static dielectric constant tensor:
#      x y z
#    x 4.010650 -0.179310 -0.215020 
#    y -0.179310 4.045750 -0.016050 
#    z -0.215020 -0.016050 4.312910 
# 
# 
# High freq. dielectric constant tensor:
#      x y z
#    x 1.855140 -0.023350 -0.013820 
#    y -0.023350 1.858190 0.006580 
#    z -0.013820 0.006580 1.892020 
# 
# From -- ./inp_files/577910.got.cif
#   From: 2010.06.25/outbox.cif.g09.slc.cpg/sg2_289_cif.got.tgz:577910.got - 2010.06.27 13:26:56.
