data_PCOD8034518
_publ_section_title
;
Structure prediction by ZEFSAII (Michael W. Deem and Ramdas Pophale) SiO2 
 PCOD8034518
Probable space group: P -1
;
_chemical_formula_sum "Si O2"
_cell_formula_units_Z 16
_cell_length_a 9.030951
_cell_length_b 6.395200
_cell_length_c 18.490127
_cell_angle_alpha 137.372322
_cell_angle_beta 103.156512
_cell_angle_gamma 82.343852
_cell_volume 703.277492
_symmetry_space_group_name_H-M "P -1"
_symmetry_group_IT_number 2
_symmetry_cell_setting 'triclinic'
loop_
_space_group_symop_operation_xyz
x,y,z
-x,-y,-z
loop_
_atom_site_type_symbol
_atom_site_label
_atom_site_fract_x
_atom_site_fract_y
_atom_site_fract_z
Si Si1 0.182522 0.163749 0.242684
Si Si2 0.820220 0.480532 0.981522
Si Si3 0.292566 0.269537 0.817248
Si Si4 0.429820 0.320833 0.091203
Si Si5 0.942075 0.602021 0.296274
Si Si6 0.191828 0.073492 0.386708
Si Si7 0.422059 0.580804 0.310956
Si Si8 0.258242 0.530198 0.627195
O O1 0.139331 0.091848 0.302687
O O2 0.323224 0.415966 0.321840
O O3 0.036163 0.293817 0.218894
O O4 0.234347 0.871971 0.129393
O O5 0.737902 0.685251 0.964606
O O6 0.773962 0.593485 0.083098
O O7 0.000000 0.500000 0.000000
O O8 0.466800 0.393165 0.858100
O O9 0.198210 0.406504 0.776159
O O10 0.284380 0.898854 0.723817
O O11 0.414913 0.355650 0.183833
O O12 0.500000 0.000000 0.000000
O O13 0.878596 0.595596 0.368922
O O14 0.055142 0.898741 0.370955
O O15 0.218286 0.412425 0.511677
O O16 0.350761 0.904055 0.365058
O O17 0.593124 0.638616 0.372027
#
# Coordination Sequence:
#
# PCOD8034518 Si02
#       8
#     2   2   2   2   2   2   2   2
#     4  11  25  46  69 102 144 180 237 293 353 423
#     4  12  25  43  74 103 140 183 234 291 357 423
#     4  12  27  45  71 105 143 187 235 292 358 420
#     4  12  25  47  72 102 146 188 235 294 357 423
#     4  11  25  45  71 104 143 184 237 288 354 426
#     4  11  25  46  71 103 142 189 232 295 351 416
#     4  11  24  45  70 101 138 185 237 290 351 420
#     4  12  25  45  72 104 142 184 240 290 352 423
#
# _framework density 22.750620999999999
#
# number of rings (size 3 to 8) (size 9 to 14) (size 15 to 20)
#    0.000    0.500    2.500    5.625    3.500    5.000 
#    0.000    0.000    0.000    0.000    0.000    0.000 
#    0.000    0.000    0.000    0.000    0.000    0.000 
#
# Total GULP energy -198460.022647 kJ/mol
# GULP energy per Si atom -12403.751415 kJ/mol
# Density = 2.269884 g / cm^3
# Si number density = 22.750621 Si / 1000 Ang^3
#
#
#
# Elastic Constant Matrix: (Units=GPa)
#
#
# Indices 1 2 3 4 5 6 
#
# 1 116.2716 37.0567 21.3540 11.2901 6.9767 -7.3454
# 2 37.0567 101.3432 40.9351 7.9230 1.7002 0.0150
# 3 21.3540 40.9351 136.2217 1.0779 -9.3714 0.4242
# 4 11.2901 7.9230 1.0779 16.6487 0.4529 7.1537
# 5 6.9767 1.7002 -9.3714 0.4529 20.4094 -9.1571
# 6 -7.3454 0.0150 0.4242 7.1537 -9.1571 44.2320
#
#
#
# Elastic Compliance Matrix: (Units=1/GPa)
#
#
# Indices 1 2 3 4 5 6 
#
# 1 0.010667 -0.002963 -0.000917 -0.006689 -0.002632 0.002318
# 2 -0.002963 0.012644 -0.003417 -0.003653 -0.001622 -0.000209
# 3 -0.000917 -0.003417 0.008835 0.001301 0.004879 0.000564
# 4 -0.006689 -0.003653 0.001301 0.072294 -0.004592 -0.013765
# 5 -0.002632 -0.001622 0.004879 -0.004592 0.057865 0.012239
# 6 0.002318 -0.000209 0.000564 -0.013765 0.012239 0.027748
#
#
# Mechanical properties :
#
#
# Convention : Reuss Voigt Hill
#
# Bulk Modulus (GPa) = 56.97516 61.39203 59.18359
# Shear Modulus (GPa) = 23.75305 33.22408 28.48856
#
# Velocity S-wave (km/s) = 3.23470 3.82561 3.54250
# Velocity P-wave (km/s) = 6.24890 6.82327 6.54239
#
# Compressibility (1/GPa) = 0.01755151
#
# Stress axis : x y z
#
# Youngs Moduli (GPa) = 93.74440 79.08835 113.18382
#
# Poissons Ratio (x) = 0.23437 0.10380
# Poissons Ratio (y) = 0.27780 0.38676
# Poissons Ratio (z) = 0.08597 0.27025
#
# Static dielectric constant tensor:
#      x y z
#    x 5.534410 0.128800 -0.346280 
#    y 0.128800 4.178160 -0.061360 
#    z -0.346280 -0.061360 4.101950 
# 
# 
# High freq. dielectric constant tensor:
#      x y z
#    x 1.918010 -0.008180 -0.005960 
#    y -0.008180 1.899750 -0.001020 
#    z -0.005960 -0.001020 1.896960 
# 
# From -- ./inp_files/52455.got.cif
#   From: 2010.06.25/outbox.cif.g09.slc.cpg/sg2_27_cif.got.tgz:52455.got - 2010.06.27 13:26:56.
