data_PCOD8034028
_publ_section_title
;
Structure prediction by ZEFSAII (Michael W. Deem and Ramdas Pophale) SiO2 
 PCOD8034028
Probable space group: P -1
;
_chemical_formula_sum "Si O2"
_cell_formula_units_Z 16
_cell_length_a 19.480714
_cell_length_b 11.229106
_cell_length_c 14.742928
_cell_angle_alpha 29.406974
_cell_angle_beta 150.693218
_cell_angle_gamma 131.773153
_cell_volume 714.088833
_symmetry_space_group_name_H-M "P -1"
_symmetry_group_IT_number 2
_symmetry_cell_setting 'triclinic'
loop_
_space_group_symop_operation_xyz
x,y,z
-x,-y,-z
loop_
_atom_site_type_symbol
_atom_site_label
_atom_site_fract_x
_atom_site_fract_y
_atom_site_fract_z
Si Si1 0.335864 0.711820 0.696497
Si Si2 0.097935 0.130781 0.622475
Si Si3 0.615309 0.115283 0.172571
Si Si4 0.502371 0.310687 0.391185
Si Si5 0.076265 0.229443 0.325742
Si Si6 0.279354 0.077211 0.235323
Si Si7 0.049957 0.577060 0.413001
Si Si8 0.563368 0.203303 0.738595
O O1 0.314694 0.787174 0.726835
O O2 0.201449 0.628882 0.564014
O O3 0.322446 0.969694 0.456757
O O4 0.500000 0.500000 0.000000
O O5 0.051077 0.276579 0.373862
O O6 0.093845 0.346928 0.544849
O O7 0.988422 0.992408 0.625053
O O8 0.262042 0.899743 0.964092
O O9 0.745243 0.901739 0.404039
O O10 0.503743 0.977683 0.164368
O O11 0.521518 0.382889 0.830888
O O12 0.356390 0.293639 0.179555
O O13 0.531876 0.183546 0.609059
O O14 0.652193 0.145851 0.614684
O O15 0.000000 0.500000 0.000000
O O16 0.097736 0.179175 0.952512
O O17 0.000000 0.500000 0.500000
O O18 0.500000 0.500000 0.500000
#
# Coordination Sequence:
#
# PCOD8034028 Si02
#       8
#     2   2   2   2   2   2   2   2
#     4  12  24  45  71 104 141 186 232 288 354 423
#     4  11  26  47  69 101 143 179 233 293 346 416
#     4  12  25  45  72 100 136 184 236 282 351 419
#     4  11  24  43  72 102 141 184 227 289 352 419
#     4  11  26  47  72  97 136 190 234 288 355 410
#     4  11  24  43  70 104 141 184 235 279 354 422
#     4  12  26  44  70 107 147 182 232 293 351 422
#     4  12  26  45  71 102 136 178 236 293 345 413
#
# _framework density 22.406175999999999
#
# number of rings (size 3 to 8) (size 9 to 14) (size 15 to 20)
#    0.000    0.500    2.500    5.625    3.500    5.000 
#    2.250    0.000    0.000    0.000    0.000    0.000 
#    0.000    0.000    0.000    0.000    0.000    0.000 
#
# Total GULP energy -198378.103032 kJ/mol
# GULP energy per Si atom -12398.631440 kJ/mol
# Density = 2.235518 g / cm^3
# Si number density = 22.406176 Si / 1000 Ang^3
#
#
#
# Elastic Constant Matrix: (Units=GPa)
#
#
# Indices 1 2 3 4 5 6 
#
# 1 79.5552 10.5081 17.5264 -7.0713 -9.0976 11.4825
# 2 10.5081 88.7823 15.7753 1.4268 0.4056 5.9067
# 3 17.5264 15.7753 125.5179 -2.2783 -0.0326 13.2648
# 4 -7.0713 1.4268 -2.2783 41.5796 3.7485 -0.0632
# 5 -9.0976 0.4056 -0.0326 3.7485 36.5007 -1.0599
# 6 11.4825 5.9067 13.2648 -0.0632 -1.0599 37.3072
#
#
#
# Elastic Compliance Matrix: (Units=1/GPa)
#
#
# Indices 1 2 3 4 5 6 
#
# 1 0.014105 -0.001232 -0.001401 0.002069 0.003212 -0.003554
# 2 -0.001232 0.011705 -0.001199 -0.000642 -0.000403 -0.001060
# 3 -0.001401 -0.001199 0.008577 0.000308 -0.000431 -0.002440
# 4 0.002069 -0.000642 0.000308 0.024623 -0.002025 -0.000661
# 5 0.003212 -0.000403 -0.000431 -0.002025 0.028410 0.000032
# 6 -0.003554 -0.001060 -0.002440 -0.000661 0.000032 0.028933
#
#
# Mechanical properties :
#
#
# Convention : Reuss Voigt Hill
#
# Bulk Modulus (GPa) = 37.41990 42.38611 39.90300
# Shear Modulus (GPa) = 37.61526 39.74722 38.68124
#
# Velocity S-wave (km/s) = 4.10175 4.21639 4.15946
# Velocity P-wave (km/s) = 6.25855 6.53162 6.39654
#
# Compressibility (1/GPa) = 0.02672375
#
# Stress axis : x y z
#
# Youngs Moduli (GPa) = 70.89466 85.43332 116.59610
#
# Poissons Ratio (x) = 0.10526 0.16333
# Poissons Ratio (y) = 0.08735 0.13977
# Poissons Ratio (z) = 0.09931 0.10242
#
# Static dielectric constant tensor:
#      x y z
#    x 4.459590 -0.301580 -0.319490 
#    y -0.301580 4.791610 0.593010 
#    z -0.319490 0.593010 4.575910 
# 
# 
# High freq. dielectric constant tensor:
#      x y z
#    x 1.900700 0.004160 -0.003820 
#    y 0.004160 1.888690 0.000750 
#    z -0.003820 0.000750 1.891950 
# 
# From -- ./inp_files/382268.got.cif
#   From: 2010.06.25/outbox.cif.g09.slc.cpg/sg2_192_cif.got.tgz:382268.got - 2010.06.27 13:26:56.
