data_PCOD8034608
_publ_section_title
;
Structure prediction by ZEFSAII (Michael W. Deem and Ramdas Pophale) SiO2 
 PCOD8034608
Probable space group: P -1
;
_chemical_formula_sum "Si O2"
_cell_formula_units_Z 14
_cell_length_a 9.884963
_cell_length_b 9.934063
_cell_length_c 11.495518
_cell_angle_alpha 118.579120
_cell_angle_beta 80.552866
_cell_angle_gamma 136.727923
_cell_volume 646.911828
_symmetry_space_group_name_H-M "P -1"
_symmetry_group_IT_number 2
_symmetry_cell_setting 'triclinic'
loop_
_space_group_symop_operation_xyz
x,y,z
-x,-y,-z
loop_
_atom_site_type_symbol
_atom_site_label
_atom_site_fract_x
_atom_site_fract_y
_atom_site_fract_z
Si Si1 0.025831 0.842197 0.407492
Si Si2 0.469518 0.148027 0.534981
Si Si3 0.819120 0.436371 0.432324
Si Si4 0.857774 0.799982 0.031613
Si Si5 0.936342 0.274873 0.880576
Si Si6 0.495071 0.005407 0.862704
Si Si7 0.456352 0.275355 0.838495
O O1 0.945758 0.700562 0.238139
O O2 0.909805 0.662636 0.454248
O O3 0.265476 0.003030 0.430216
O O4 0.000000 0.000000 0.500000
O O5 0.660814 0.367678 0.522389
O O6 0.442915 0.206727 0.683409
O O7 0.500000 0.000000 0.500000
O O8 0.711951 0.238297 0.267702
O O9 0.000000 0.500000 0.500000
O O10 0.777101 0.856192 0.160568
O O11 0.002308 0.784393 0.047942
O O12 0.636354 0.552696 0.915954
O O13 0.000000 0.000000 0.000000
O O14 0.688243 0.068616 0.814227
O O15 0.000000 0.500000 0.000000
O O16 0.515672 0.198510 0.896069
O O17 0.500000 0.000000 0.000000
#
# Coordination Sequence:
#
# PCOD8034608 Si02
#       7
#     2   2   2   2   2   2   2
#     4  12  27  47  70 108 150 186 237 308 376 425
#     4  12  23  47  72 104 140 186 250 294 351 446
#     4  12  26  45  78 106 142 203 250 298 367 448
#     4  11  26  46  70 106 146 193 237 293 372 444
#     4  12  24  46  74 104 147 189 238 309 365 428
#     4  12  24  44  74 110 142 188 253 304 365 441
#     4  11  24  45  72 104 146 189 238 304 359 437
#
# _framework density 21.641279999999998
#
# number of rings (size 3 to 8) (size 9 to 14) (size 15 to 20)
#    0.000    0.286    5.714    2.571    0.000    5.143 
#    2.571    0.000    0.000    0.000    0.000    0.000 
#    0.000    0.000    0.000    0.000    0.000    0.000 
#
# Total GULP energy -173515.816275 kJ/mol
# GULP energy per Si atom -12393.986877 kJ/mol
# Density = 2.159202 g / cm^3
# Si number density = 21.641280 Si / 1000 Ang^3
#
#
#
# Elastic Constant Matrix: (Units=GPa)
#
#
# Indices 1 2 3 4 5 6 
#
# 1 140.1510 67.2972 41.6766 8.3908 -10.7975 -2.3293
# 2 67.2972 180.4825 60.9100 -6.6547 -12.5062 -5.4491
# 3 41.6766 60.9100 147.5343 -12.6785 -17.1821 -4.3523
# 4 8.3908 -6.6547 -12.6785 30.4415 6.1535 1.4600
# 5 -10.7975 -12.5062 -17.1821 6.1535 42.5354 0.5655
# 6 -2.3293 -5.4491 -4.3523 1.4600 0.5655 43.5092
#
#
#
# Elastic Compliance Matrix: (Units=1/GPa)
#
#
# Indices 1 2 3 4 5 6 
#
# 1 0.009434 -0.003028 -0.001605 -0.004232 0.001467 0.000088
# 2 -0.003028 0.007453 -0.002033 0.001517 0.000375 0.000512
# 3 -0.001605 -0.002033 0.008586 0.003151 0.002002 0.000387
# 4 -0.004232 0.001517 0.003151 0.036642 -0.004644 -0.000891
# 5 0.001467 0.000375 0.002002 -0.004644 0.025471 0.000151
# 6 0.000088 0.000512 0.000387 -0.000891 0.000151 0.023119
#
#
# Mechanical properties :
#
#
# Convention : Reuss Voigt Hill
#
# Bulk Modulus (GPa) = 82.35647 89.77059 86.06353
# Shear Modulus (GPa) = 39.03693 43.18282 41.10987
#
# Velocity S-wave (km/s) = 4.25175 4.47183 4.36317
# Velocity P-wave (km/s) = 7.88930 8.26040 8.07698
#
# Compressibility (1/GPa) = 0.01214234
#
# Stress axis : x y z
#
# Youngs Moduli (GPa) = 105.99739 134.17388 116.46823
#
# Poissons Ratio (x) = 0.40624 0.18696
# Poissons Ratio (y) = 0.32093 0.23672
# Poissons Ratio (z) = 0.17015 0.27271
#
# Static dielectric constant tensor:
#      x y z
#    x 3.592280 0.192910 0.543090 
#    y 0.192910 4.094520 -0.148170 
#    z 0.543090 -0.148170 3.449780 
# 
# 
# High freq. dielectric constant tensor:
#      x y z
#    x 1.862700 0.005700 -0.001560 
#    y 0.005700 1.857520 -0.007660 
#    z -0.001560 -0.007660 1.861410 
# 
# From -- ./inp_files/185631.got.cif
#   From: 2010.06.25/outbox.cif.g09.slc.cpg/sg2_93_cif.got.tgz:185631.got - 2010.06.27 13:26:56.
