data_PCOD8034977
_publ_section_title
;
Structure prediction by ZEFSAII (Michael W. Deem and Ramdas Pophale) SiO2 
 PCOD8034977
Probable space group: P -1
;
_chemical_formula_sum "Si O2"
_cell_formula_units_Z 14
_cell_length_a 11.961072
_cell_length_b 18.404040
_cell_length_c 8.951784
_cell_angle_alpha 152.162918
_cell_angle_beta 112.412149
_cell_angle_gamma 48.754103
_cell_volume 566.264695
_symmetry_space_group_name_H-M "P -1"
_symmetry_group_IT_number 2
_symmetry_cell_setting 'triclinic'
loop_
_space_group_symop_operation_xyz
x,y,z
-x,-y,-z
loop_
_atom_site_type_symbol
_atom_site_label
_atom_site_fract_x
_atom_site_fract_y
_atom_site_fract_z
Si Si1 0.456294 0.211805 0.417768
Si Si2 0.269126 0.393471 0.950671
Si Si3 0.124937 0.676394 0.929229
Si Si4 0.609288 0.542272 0.584263
Si Si5 0.736077 0.950342 0.698418
Si Si6 0.992715 0.129596 0.468298
Si Si7 0.165786 0.045695 0.940505
O O1 0.434981 0.239267 0.636319
O O2 0.266546 0.427942 0.630152
O O3 0.622681 0.170218 0.393941
O O4 0.500000 0.000000 0.000000
O O5 0.244639 0.237996 0.708540
O O6 0.294699 0.474586 0.255281
O O7 0.097738 0.626659 0.199632
O O8 0.239454 0.658543 0.826458
O O9 0.031677 0.868818 0.362093
O O10 0.958534 0.759021 0.899744
O O11 0.500000 0.500000 0.500000
O O12 0.473247 0.803867 0.922220
O O13 0.800981 0.029774 0.766250
O O14 0.847793 0.834670 0.701212
O O15 0.903814 0.057654 0.228200
#
# Coordination Sequence:
#
# PCOD8034977 Si02
#       7
#     2   2   2   2   2   2   2
#     4  11  24  47  69 108 141 181 231 291 350 415
#     4  11  25  44  70  99 143 186 231 288 352 411
#     4  11  26  45  69 105 137 181 236 282 351 408
#     4  12  25  44  71 103 142 185 235 286 350 417
#     4  12  24  47  68 102 142 185 234 287 349 420
#     4  11  26  44  70 104 137 181 240 285 348 414
#     4  12  24  45  75  99 144 181 234 290 350 411
#
# _framework density 24.723421999999999
#
# number of rings (size 3 to 8) (size 9 to 14) (size 15 to 20)
#    0.000    0.571    2.857    4.286    4.000    1.714 
#    0.000    0.000    0.000    0.000    0.000    0.000 
#    0.000    0.000    0.000    0.000    0.000    0.000 
#
# Total GULP energy -173488.586238 kJ/mol
# GULP energy per Si atom -12392.041874 kJ/mol
# Density = 2.466715 g / cm^3
# Si number density = 24.723422 Si / 1000 Ang^3
#
#
#
# Elastic Constant Matrix: (Units=GPa)
#
#
# Indices 1 2 3 4 5 6 
#
# 1 116.9546 30.3454 19.4530 -14.3334 -12.6103 2.7236
# 2 30.3454 143.6419 19.8614 -7.2196 -13.3261 -4.0529
# 3 19.4530 19.8614 40.2447 -20.8397 -22.6804 -4.5620
# 4 -14.3334 -7.2196 -20.8397 52.7456 5.3418 -7.3702
# 5 -12.6103 -13.3261 -22.6804 5.3418 39.2567 -3.0772
# 6 2.7236 -4.0529 -4.5620 -7.3702 -3.0772 31.4340
#
#
#
# Elastic Compliance Matrix: (Units=1/GPa)
#
#
# Indices 1 2 3 4 5 6 
#
# 1 0.009693 -0.001533 -0.003397 0.000860 0.000413 -0.001288
# 2 -0.001533 0.007738 -0.002950 -0.000489 0.000547 0.000641
# 3 -0.003397 -0.002950 0.056652 0.020309 0.029109 0.015747
# 4 0.000860 -0.000489 0.020309 0.027671 0.008875 0.010167
# 5 0.000413 0.000547 0.029109 0.008875 0.042222 0.010473
# 6 -0.001288 0.000641 0.015747 0.010167 0.010473 0.037701
#
#
# Mechanical properties :
#
#
# Convention : Reuss Voigt Hill
#
# Bulk Modulus (GPa) = 17.14589 48.90678 33.02633
# Shear Modulus (GPa) = 23.05447 40.09936 31.57692
#
# Velocity S-wave (km/s) = 3.05699 4.03167 3.57768
# Velocity P-wave (km/s) = 4.40572 6.44182 5.51849
#
# Compressibility (1/GPa) = 0.05832301
#
# Stress axis : x y z
#
# Youngs Moduli (GPa) = 103.16762 129.23670 17.65173
#
# Poissons Ratio (x) = 0.19810 0.05996
# Poissons Ratio (y) = 0.15814 0.05208
# Poissons Ratio (z) = 0.35042 0.38127
#
# Static dielectric constant tensor:
#      x y z
#    x 5.246270 -0.063910 -0.810960 
#    y -0.063910 4.721030 0.098700 
#    z -0.810960 0.098700 4.768370 
# 
# 
# High freq. dielectric constant tensor:
#      x y z
#    x 1.982070 0.009990 -0.021560 
#    y 0.009990 1.991950 0.006060 
#    z -0.021560 0.006060 1.995610 
# 
# From -- ./inp_files/158835.got.cif
#   From: 2010.06.25/outbox.cif.g09.slc.cpg/sg2_80_cif.got.tgz:158835.got - 2010.06.27 13:26:56.
