data_PCOD8034449
_publ_section_title
;
Structure prediction by ZEFSAII (Michael W. Deem and Ramdas Pophale) SiO2 
 PCOD8034449
Probable space group: P -1
;
_chemical_formula_sum "Si O2"
_cell_formula_units_Z 16
_cell_length_a 6.597570
_cell_length_b 9.541075
_cell_length_c 20.533999
_cell_angle_alpha 62.048567
_cell_angle_beta 98.835811
_cell_angle_gamma 133.266491
_cell_volume 802.680972
_symmetry_space_group_name_H-M "P -1"
_symmetry_group_IT_number 2
_symmetry_cell_setting 'triclinic'
loop_
_space_group_symop_operation_xyz
x,y,z
-x,-y,-z
loop_
_atom_site_type_symbol
_atom_site_label
_atom_site_fract_x
_atom_site_fract_y
_atom_site_fract_z
Si Si1 0.763798 0.844798 0.290520
Si Si2 0.226149 0.962838 0.197847
Si Si3 0.757925 0.582495 0.451297
Si Si4 0.852408 0.572194 0.946241
Si Si5 0.876650 0.463261 0.708952
Si Si6 0.159521 0.758327 0.784682
Si Si7 0.765368 0.261929 0.458969
Si Si8 0.207787 0.158269 0.033526
O O1 0.855627 0.774193 0.366483
O O2 0.441816 0.637076 0.293537
O O3 0.989560 0.948838 0.220772
O O4 0.781750 0.029947 0.281199
O O5 0.128009 0.728787 0.251482
O O6 0.535598 0.160877 0.203576
O O7 0.250888 0.027574 0.109819
O O8 0.500000 0.500000 0.500000
O O9 0.654896 0.375437 0.449451
O O10 0.027151 0.690059 0.485789
O O11 0.930689 0.769627 0.949680
O O12 0.960779 0.652323 0.861162
O O13 0.509596 0.369566 0.970308
O O14 0.000000 0.500000 0.000000
O O15 0.998947 0.578205 0.759449
O O16 0.077730 0.643111 0.623319
O O17 0.500000 0.000000 0.500000
O O18 0.000000 0.000000 0.000000
#
# Coordination Sequence:
#
# PCOD8034449 Si02
#       8
#     2   2   2   2   2   2   2   2
#     4  11  24  45  65  93 132 172 218 260 322 381
#     4  11  24  45  63  94 131 171 213 264 320 380
#     4  11  24  45  66  90 135 171 206 271 319 374
#     4  11  24  45  62  97 132 166 213 266 318 382
#     4  11  26  42  65  98 127 169 218 262 317 389
#     4  11  26  42  68  94 133 169 213 269 322 374
#     4  11  26  42  65  99 130 167 219 262 320 383
#     4  11  26  42  68  95 130 171 218 259 320 384
#
# _framework density 19.933199999999999
#
# number of rings (size 3 to 8) (size 9 to 14) (size 15 to 20)
#    0.000    1.000    5.000    0.000    7.000    3.000 
#    0.000    0.000    0.000    0.000    0.000    0.000 
#    0.000    0.000    0.000    0.000    0.000    0.000 
#
# Total GULP energy -198482.117539 kJ/mol
# GULP energy per Si atom -12405.132346 kJ/mol
# Density = 1.988783 g / cm^3
# Si number density = 19.933200 Si / 1000 Ang^3
#
#
#
# Elastic Constant Matrix: (Units=GPa)
#
#
# Indices 1 2 3 4 5 6 
#
# 1 107.3479 33.6735 33.5511 3.4023 -11.3910 2.9718
# 2 33.6735 103.4103 37.1925 10.8426 -10.3127 3.0241
# 3 33.5511 37.1925 108.6829 -0.5927 -0.1788 2.3356
# 4 3.4023 10.8426 -0.5927 32.6999 0.1916 -3.1279
# 5 -11.3910 -10.3127 -0.1788 0.1916 45.5638 -3.3183
# 6 2.9718 3.0241 2.3356 -3.1279 -3.3183 19.9309
#
#
#
# Elastic Compliance Matrix: (Units=1/GPa)
#
#
# Indices 1 2 3 4 5 6 
#
# 1 0.011150 -0.002405 -0.002603 -0.000490 0.002184 -0.000706
# 2 -0.002405 0.012383 -0.003484 -0.004065 0.002103 -0.001400
# 3 -0.002603 -0.003484 0.011212 0.001601 -0.001430 -0.000384
# 4 -0.000490 -0.004065 0.001601 0.032538 -0.000774 0.005480
# 5 0.002184 0.002103 -0.001430 -0.000774 0.023205 0.003265
# 6 -0.000706 -0.001400 -0.000384 0.005480 0.003265 0.051940
#
#
# Mechanical properties :
#
#
# Convention : Reuss Voigt Hill
#
# Bulk Modulus (GPa) = 56.30206 58.69726 57.49966
# Shear Modulus (GPa) = 30.24236 33.97387 32.10812
#
# Velocity S-wave (km/s) = 3.89933 4.13290 4.01781
# Velocity P-wave (km/s) = 6.96992 7.23086 7.10159
#
# Compressibility (1/GPa) = 0.01776134
#
# Stress axis : x y z
#
# Youngs Moduli (GPa) = 89.68409 80.75449 89.19384
#
# Poissons Ratio (x) = 0.19420 0.23218
# Poissons Ratio (y) = 0.21567 0.31074
# Poissons Ratio (z) = 0.23346 0.28134
#
# Static dielectric constant tensor:
#      x y z
#    x 4.457880 -0.087800 -0.672360 
#    y -0.087800 3.582230 -0.159600 
#    z -0.672360 -0.159600 4.724890 
# 
# 
# High freq. dielectric constant tensor:
#      x y z
#    x 1.792590 0.000550 0.001350 
#    y 0.000550 1.772910 -0.006010 
#    z 0.001350 -0.006010 1.797830 
# 
# From -- ./inp_files/11362.got.cif
#   From: 2010.06.25/outbox.cif.g09.slc.cpg/sg2_6_cif.got.tgz:11362.got - 2010.06.27 13:26:56.
