data_PCOD8034188
_publ_section_title
;
Structure prediction by ZEFSAII (Michael W. Deem and Ramdas Pophale) SiO2 
 PCOD8034188
Probable space group: P -1
;
_chemical_formula_sum "Si O2"
_cell_formula_units_Z 16
_cell_length_a 5.862307
_cell_length_b 5.350071
_cell_length_c 20.689791
_cell_angle_alpha 85.101735
_cell_angle_beta 95.683500
_cell_angle_gamma 84.637017
_cell_volume 639.952903
_symmetry_space_group_name_H-M "P -1"
_symmetry_group_IT_number 2
_symmetry_cell_setting 'triclinic'
loop_
_space_group_symop_operation_xyz
x,y,z
-x,-y,-z
loop_
_atom_site_type_symbol
_atom_site_label
_atom_site_fract_x
_atom_site_fract_y
_atom_site_fract_z
Si Si1 0.916779 0.418942 0.860500
Si Si2 0.322581 0.705504 0.023221
Si Si3 0.428697 0.641935 0.250962
Si Si4 0.754559 0.912815 0.330010
Si Si5 0.186550 0.563356 0.371121
Si Si6 0.807919 0.251785 0.215243
Si Si7 0.321917 0.015952 0.900308
Si Si8 0.579895 0.965071 0.575561
O O1 0.845894 0.443802 0.933591
O O2 0.723655 0.286018 0.818402
O O3 0.967522 0.678215 0.820603
O O4 0.159708 0.256098 0.867668
O O5 0.440029 0.902963 0.067339
O O6 0.500000 0.500000 0.000000
O O7 0.197165 0.862136 0.956544
O O8 0.523645 0.879421 0.282864
O O9 0.272930 0.512562 0.301360
O O10 0.661349 0.476538 0.241767
O O11 0.912152 0.656665 0.360832
O O12 0.904196 0.067215 0.280975
O O13 0.650855 0.062523 0.387222
O O14 0.239406 0.289007 0.412094
O O15 0.308077 0.783064 0.405719
O O16 0.633602 0.146058 0.160177
O O17 0.500000 0.000000 0.500000
#
# Coordination Sequence:
#
# PCOD8034188 Si02
#       8
#     2   2   2   2   2   2   2   2
#     4  12  25  41  68  99 133 179 239 293 375 436
#     4  11  25  47  66  91 133 179 232 298 364 444
#     4  11  24  44  67 102 145 185 241 300 367 439
#     4  11  26  46  73 106 152 193 250 302 375 440
#     4  11  25  45  78 109 153 203 251 308 379 438
#     4  12  24  42  68 100 140 181 236 303 366 442
#     4  11  25  43  66  96 131 179 232 295 369 443
#     4  11  26  48  76 115 156 200 255 311 368 444
#
# _framework density 25.001840000000001
#
# number of rings (size 3 to 8) (size 9 to 14) (size 15 to 20)
#    0.000    0.750    1.250    6.000    3.500    7.000 
#    0.000    1.250    0.000    0.000    0.000    0.000 
#    0.000    0.000    0.000    0.000    0.000    0.000 
#
# Total GULP energy -198309.108395 kJ/mol
# GULP energy per Si atom -12394.319275 kJ/mol
# Density = 2.494493 g / cm^3
# Si number density = 25.001840 Si / 1000 Ang^3
#
#
#
# Elastic Constant Matrix: (Units=GPa)
#
#
# Indices 1 2 3 4 5 6 
#
# 1 63.5735 16.5896 29.7619 -7.1183 -9.1738 -10.1101
# 2 16.5896 101.3380 45.2559 -10.7398 -6.6862 -7.3557
# 3 29.7619 45.2559 169.5893 -10.8803 -11.9250 -2.7317
# 4 -7.1183 -10.7398 -10.8803 45.9498 -2.5743 4.1670
# 5 -9.1738 -6.6862 -11.9250 -2.5743 33.7817 -7.8060
# 6 -10.1101 -7.3557 -2.7317 4.1670 -7.8060 27.6521
#
#
#
# Elastic Compliance Matrix: (Units=1/GPa)
#
#
# Indices 1 2 3 4 5 6 
#
# 1 0.019540 -0.000880 -0.002504 0.001840 0.006273 0.008156
# 2 -0.000880 0.011732 -0.002679 0.001825 0.001924 0.002803
# 3 -0.002504 -0.002679 0.007178 0.000817 0.001225 -0.000696
# 4 0.001840 0.001825 0.000817 0.022947 0.002552 -0.001498
# 5 0.006273 0.001924 0.001225 0.002552 0.035197 0.012478
# 6 0.008156 0.002803 -0.000696 -0.001498 0.012478 0.043571
#
#
# Mechanical properties :
#
#
# Convention : Reuss Voigt Hill
#
# Bulk Modulus (GPa) = 37.98572 57.52398 47.75485
# Shear Modulus (GPa) = 31.04347 37.66963 34.35655
#
# Velocity S-wave (km/s) = 3.52752 3.88580 3.71099
# Velocity P-wave (km/s) = 5.64069 6.57194 6.12404
#
# Compressibility (1/GPa) = 0.02632568
#
# Stress axis : x y z
#
# Youngs Moduli (GPa) = 51.17715 85.23588 139.30949
#
# Poissons Ratio (x) = 0.07498 0.34881
# Poissons Ratio (y) = 0.04502 0.37319
# Poissons Ratio (z) = 0.12814 0.22834
#
# Static dielectric constant tensor:
#      x y z
#    x 4.313450 0.141820 -0.141960 
#    y 0.141820 4.498830 -0.086460 
#    z -0.141960 -0.086460 5.134550 
# 
# 
# High freq. dielectric constant tensor:
#      x y z
#    x 1.980040 0.000920 -0.004520 
#    y 0.000920 1.988310 0.000480 
#    z -0.004520 0.000480 2.014370 
# 
# From -- ./inp_files/13284.got.cif
#   From: 2010.06.25/outbox.cif.g09.slc.cpg/sg2_7_cif.got.tgz:13284.got - 2010.06.27 13:26:56.
