data_PCOD8034562
_publ_section_title
;
Structure prediction by ZEFSAII (Michael W. Deem and Ramdas Pophale) SiO2 
 PCOD8034562
Probable space group: P -1
;
_chemical_formula_sum "Si O2"
_cell_formula_units_Z 16
_cell_length_a 16.076243
_cell_length_b 5.366135
_cell_length_c 14.403432
_cell_angle_alpha 125.161837
_cell_angle_beta 136.663040
_cell_angle_gamma 78.111085
_cell_volume 645.029077
_symmetry_space_group_name_H-M "P -1"
_symmetry_group_IT_number 2
_symmetry_cell_setting 'triclinic'
loop_
_space_group_symop_operation_xyz
x,y,z
-x,-y,-z
loop_
_atom_site_type_symbol
_atom_site_label
_atom_site_fract_x
_atom_site_fract_y
_atom_site_fract_z
Si Si1 0.120003 0.551968 0.541590
Si Si2 0.355639 0.695723 0.881522
Si Si3 0.300867 0.203274 0.220907
Si Si4 0.073605 0.376307 0.109495
Si Si5 0.442287 0.274359 0.526177
Si Si6 0.492753 0.422220 0.172869
Si Si7 0.941677 0.182635 0.645258
Si Si8 0.761053 0.483971 0.060415
O O1 0.258688 0.782783 0.749855
O O2 0.000000 0.500000 0.500000
O O3 0.101160 0.723832 0.469031
O O4 0.131936 0.195839 0.465259
O O5 0.433132 0.491981 0.848412
O O6 0.267420 0.484770 0.847630
O O7 0.462003 0.035202 0.081693
O O8 0.210974 0.415713 0.180712
O O9 0.312488 0.171599 0.335687
O O10 0.446821 0.374590 0.337183
O O11 0.231099 0.860524 0.037591
O O12 0.098975 0.601758 0.268337
O O13 0.000000 0.500000 0.000000
O O14 0.000000 0.000000 0.000000
O O15 0.410047 0.336442 0.619689
O O16 0.500000 0.000000 0.500000
O O17 0.355173 0.468966 0.081325
O O18 0.096354 0.243478 0.785860
#
# Coordination Sequence:
#
# PCOD8034562 Si02
#       8
#     2   2   2   2   2   2   2   2
#     4  12  26  49  72 110 144 196 248 304 367 445
#     4  11  26  44  70 102 147 185 250 300 370 431
#     4  11  26  44  70 105 143 189 242 301 371 445
#     4  12  28  48  76 112 148 192 250 307 376 448
#     4  11  24  45  71 102 138 187 242 302 363 441
#     4  11  25  44  72 102 139 191 243 303 367 435
#     4  12  28  46  77 107 149 192 245 305 375 435
#     4  12  23  45  73 100 142 189 243 299 365 451
#
# _framework density 24.805084000000001
#
# number of rings (size 3 to 8) (size 9 to 14) (size 15 to 20)
#    0.000    0.500    5.000    2.250    7.000    1.000 
#    0.000    0.000    0.000    0.000    0.000    0.000 
#    0.000    0.000    0.000    0.000    0.000    0.000 
#
# Total GULP energy -198398.337971 kJ/mol
# GULP energy per Si atom -12399.896123 kJ/mol
# Density = 2.474863 g / cm^3
# Si number density = 24.805084 Si / 1000 Ang^3
#
#
#
# Elastic Constant Matrix: (Units=GPa)
#
#
# Indices 1 2 3 4 5 6 
#
# 1 97.0163 7.1056 19.3364 4.8504 -19.8015 -22.1336
# 2 7.1056 103.3225 22.8467 -7.3320 -13.6160 -7.2697
# 3 19.3364 22.8467 95.1685 -2.7208 -22.8325 -2.0917
# 4 4.8504 -7.3320 -2.7208 39.5267 -6.6447 -2.0242
# 5 -19.8015 -13.6160 -22.8325 -6.6447 47.2073 0.4854
# 6 -22.1336 -7.2697 -2.0917 -2.0242 0.4854 38.3788
#
#
#
# Elastic Compliance Matrix: (Units=1/GPa)
#
#
# Indices 1 2 3 4 5 6 
#
# 1 0.013326 0.000569 -0.001517 -0.000423 0.004882 0.007626
# 2 0.000569 0.010757 -0.001926 0.002371 0.002719 0.002351
# 3 -0.001517 -0.001926 0.012531 0.001519 0.005088 -0.000541
# 4 -0.000423 0.002371 0.001519 0.026820 0.004999 0.001639
# 5 0.004882 0.002719 0.005088 0.004999 0.027143 0.003528
# 6 0.007626 0.002351 -0.000541 0.001639 0.003528 0.030912
#
#
# Mechanical properties :
#
#
# Convention : Reuss Voigt Hill
#
# Bulk Modulus (GPa) = 32.39979 43.78721 38.09350
# Shear Modulus (GPa) = 36.35674 41.43714 38.89694
#
# Velocity S-wave (km/s) = 3.83260 4.09162 3.96422
# Velocity P-wave (km/s) = 5.71622 6.32556 6.02859
#
# Compressibility (1/GPa) = 0.03086440
#
# Stress axis : x y z
#
# Youngs Moduli (GPa) = 75.04296 92.96065 79.80462
#
# Poissons Ratio (x) = -0.05289 0.12109
# Poissons Ratio (y) = -0.04270 0.15372
# Poissons Ratio (z) = 0.11387 0.17906
#
# Static dielectric constant tensor:
#      x y z
#    x 4.961850 -0.012850 0.050860 
#    y -0.012850 4.466580 -0.024610 
#    z 0.050860 -0.024610 4.868770 
# 
# 
# High freq. dielectric constant tensor:
#      x y z
#    x 1.991630 -0.013150 -0.010780 
#    y -0.013150 1.980630 0.001920 
#    z -0.010780 0.001920 1.999800 
# 
# From -- ./inp_files/69038.got.cif
#   From: 2010.06.25/outbox.cif.g09.slc.cpg/sg2_35_cif.got.tgz:69038.got - 2010.06.27 13:26:56.
