data_PCOD8034418
_publ_section_title
;
Structure prediction by ZEFSAII (Michael W. Deem and Ramdas Pophale) SiO2 
 PCOD8034418
Probable space group: P -1
;
_chemical_formula_sum "Si O2"
_cell_formula_units_Z 16
_cell_length_a 25.570803
_cell_length_b 10.685470
_cell_length_c 25.195732
_cell_angle_alpha 31.970756
_cell_angle_beta 169.287679
_cell_angle_gamma 148.449651
_cell_volume 665.288803
_symmetry_space_group_name_H-M "P -1"
_symmetry_group_IT_number 2
_symmetry_cell_setting 'triclinic'
loop_
_space_group_symop_operation_xyz
x,y,z
-x,-y,-z
loop_
_atom_site_type_symbol
_atom_site_label
_atom_site_fract_x
_atom_site_fract_y
_atom_site_fract_z
Si Si1 0.128151 0.823985 0.730595
Si Si2 0.141888 0.469154 0.560304
Si Si3 0.968897 0.768711 0.935021
Si Si4 0.497273 0.996726 0.561702
Si Si5 0.190928 0.781904 0.036139
Si Si6 0.238342 0.963548 0.527285
Si Si7 0.582099 0.508945 0.285582
Si Si8 0.446297 0.834478 0.891731
O O1 0.837041 0.658358 0.523647
O O2 0.329102 0.652116 0.966691
O O3 0.000000 0.000000 0.500000
O O4 0.335754 0.971340 0.927382
O O5 0.074144 0.702978 0.437898
O O6 0.261825 0.533838 0.598130
O O7 0.855610 0.263448 0.344770
O O8 0.382490 0.382489 0.868333
O O9 0.050164 0.842510 0.929167
O O10 0.255434 0.789731 0.247830
O O11 0.797077 0.495974 0.861710
O O12 0.794448 0.951396 0.722875
O O13 0.550491 0.738829 0.728287
O O14 0.500000 0.000000 0.500000
O O15 0.514689 0.926033 0.307751
O O16 0.002278 0.871530 0.769322
O O17 0.383270 0.960482 0.729679
#
# Coordination Sequence:
#
# PCOD8034418 Si02
#       8
#     2   2   2   2   2   2   2   2
#     4  12  26  46  69 101 141 184 244 294 342 421
#     4  12  24  42  69  96 142 183 240 286 348 419
#     4  11  24  47  75 103 143 182 239 289 364 422
#     4  12  27  48  74 108 146 184 234 302 362 427
#     4  11  24  44  75 105 138 189 233 299 351 434
#     4  12  25  44  68 106 144 180 239 288 364 419
#     4  12  26  43  74 101 135 190 239 290 354 416
#     4  12  26  43  67  99 141 192 228 297 350 413
#
# _framework density 24.049703999999998
#
# number of rings (size 3 to 8) (size 9 to 14) (size 15 to 20)
#    0.000    0.250    1.250    8.250    0.000    5.000 
#    0.000    0.000    0.000    0.000    0.000    0.000 
#    0.000    0.000    0.000    0.000    0.000    0.000 
#
# Total GULP energy -198401.977191 kJ/mol
# GULP energy per Si atom -12400.123574 kJ/mol
# Density = 2.399497 g / cm^3
# Si number density = 24.049704 Si / 1000 Ang^3
#
#
#
# Elastic Constant Matrix: (Units=GPa)
#
#
# Indices 1 2 3 4 5 6 
#
# 1 92.8601 45.9073 25.5044 -3.6260 -13.2503 -8.7946
# 2 45.9073 84.0464 28.1690 1.4855 -0.2064 -5.2748
# 3 25.5044 28.1690 126.1643 0.2906 -1.3263 -2.8961
# 4 -3.6260 1.4855 0.2906 45.5686 -2.9906 -2.7603
# 5 -13.2503 -0.2064 -1.3263 -2.9906 41.4769 4.4565
# 6 -8.7946 -5.2748 -2.8961 -2.7603 4.4565 20.6356
#
#
#
# Elastic Compliance Matrix: (Units=1/GPa)
#
#
# Indices 1 2 3 4 5 6 
#
# 1 0.016378 -0.008282 -0.001326 0.002139 0.004883 0.003909
# 2 -0.008282 0.017231 -0.002177 -0.001332 -0.002833 0.001003
# 3 -0.001326 -0.002177 0.008681 -0.000094 -0.000177 0.000123
# 4 0.002139 -0.001332 -0.000094 0.022478 0.001957 0.003142
# 5 0.004883 -0.002833 -0.000177 0.001957 0.026228 -0.004071
# 6 0.003909 0.001003 0.000123 0.003142 -0.004071 0.051699
#
#
# Mechanical properties :
#
#
# Convention : Reuss Voigt Hill
#
# Bulk Modulus (GPa) = 53.41413 55.80357 54.60885
# Shear Modulus (GPa) = 28.98482 35.10223 32.04352
#
# Velocity S-wave (km/s) = 3.47537 3.82458 3.65415
# Velocity P-wave (km/s) = 6.19374 6.53888 6.36865
#
# Compressibility (1/GPa) = 0.01872164
#
# Stress axis : x y z
#
# Youngs Moduli (GPa) = 61.05844 58.03490 115.19014
#
# Poissons Ratio (x) = 0.48065 0.15269
# Poissons Ratio (y) = 0.50569 0.25073
# Poissons Ratio (z) = 0.08094 0.12632
#
# Static dielectric constant tensor:
#      x y z
#    x 4.105380 -0.075610 -0.096090 
#    y -0.075610 4.525550 0.203220 
#    z -0.096090 0.203220 4.939710 
# 
# 
# High freq. dielectric constant tensor:
#      x y z
#    x 1.938270 -0.005300 -0.003080 
#    y -0.005300 1.961230 0.005450 
#    z -0.003080 0.005450 1.980690 
# 
# From -- ./inp_files/621254.got.cif
#   From: 2010.06.25/outbox.cif.g09.slc.cpg/sg2_311_cif.got.tgz:621254.got - 2010.06.27 13:26:56.
