data_PCOD8034047
_publ_section_title
;
Structure prediction by ZEFSAII (Michael W. Deem and Ramdas Pophale) SiO2 
 PCOD8034047
Probable space group: P -1
;
_chemical_formula_sum "Si O2"
_cell_formula_units_Z 16
_cell_length_a 12.167959
_cell_length_b 11.795853
_cell_length_c 9.203745
_cell_angle_alpha 70.694117
_cell_angle_beta 129.650480
_cell_angle_gamma 132.482033
_cell_volume 738.316098
_symmetry_space_group_name_H-M "P -1"
_symmetry_group_IT_number 2
_symmetry_cell_setting 'triclinic'
loop_
_space_group_symop_operation_xyz
x,y,z
-x,-y,-z
loop_
_atom_site_type_symbol
_atom_site_label
_atom_site_fract_x
_atom_site_fract_y
_atom_site_fract_z
Si Si1 0.361885 0.570178 0.698516
Si Si2 0.873914 0.582094 0.951399
Si Si3 0.163925 0.033980 0.709970
Si Si4 0.524030 0.909516 0.673311
Si Si5 0.027098 0.436084 0.268988
Si Si6 0.059721 0.919500 0.988365
Si Si7 0.674914 0.113632 0.198818
Si Si8 0.516924 0.393608 0.888802
O O1 0.469164 0.744112 0.650549
O O2 0.151895 0.471597 0.500994
O O3 0.456534 0.497479 0.758055
O O4 0.370884 0.567576 0.882318
O O5 0.895899 0.595142 0.790802
O O6 0.660715 0.433087 0.868304
O O7 0.912291 0.736191 0.978366
O O8 0.021381 0.573199 0.160045
O O9 0.337736 0.213120 0.812794
O O10 0.062366 0.947452 0.809448
O O11 0.220239 0.956042 0.684539
O O12 0.000000 0.000000 0.500000
O O13 0.393762 0.878661 0.708118
O O14 0.500000 0.000000 0.500000
O O15 0.739415 0.024895 0.835932
O O16 0.813999 0.288361 0.181452
O O17 0.000000 0.000000 0.000000
O O18 0.500000 0.000000 0.000000
#
# Coordination Sequence:
#
# PCOD8034047 Si02
#       8
#     2   2   2   2   2   2   2   2
#     4  11  24  45  67 102 139 182 235 280 358 412
#     4  11  24  44  69 104 137 181 232 289 352 410
#     4  12  26  48  72 103 135 192 237 283 356 418
#     4  12  26  44  70 105 139 185 233 288 354 413
#     4  11  24  43  71 101 141 181 233 291 348 416
#     4  12  26  47  69 103 145 179 233 296 352 417
#     4  12  23  47  72  97 142 184 237 290 339 422
#     4  11  25  45  72  98 141 183 232 289 346 423
#
# _framework density 21.670933999999999
#
# number of rings (size 3 to 8) (size 9 to 14) (size 15 to 20)
#    0.000    0.500    3.750    3.750    3.500    6.500 
#    0.000    0.000    0.000    0.000    0.000    0.000 
#    0.000    0.000    0.000    0.000    0.000    0.000 
#
# Total GULP energy -198327.959115 kJ/mol
# GULP energy per Si atom -12395.497445 kJ/mol
# Density = 2.162161 g / cm^3
# Si number density = 21.670934 Si / 1000 Ang^3
#
#
#
# Elastic Constant Matrix: (Units=GPa)
#
#
# Indices 1 2 3 4 5 6 
#
# 1 121.5716 32.0819 33.6261 -8.8453 5.5060 0.5104
# 2 32.0819 126.1787 45.8688 -9.8283 1.8789 -8.3543
# 3 33.6261 45.8688 148.3246 -3.5763 12.9256 8.1382
# 4 -8.8453 -9.8283 -3.5763 35.6277 -3.1497 8.7863
# 5 5.5060 1.8789 12.9256 -3.1497 23.7681 -2.9190
# 6 0.5104 -8.3543 8.1382 8.7863 -2.9190 47.2538
#
#
#
# Elastic Compliance Matrix: (Units=1/GPa)
#
#
# Indices 1 2 3 4 5 6 
#
# 1 0.009244 -0.001730 -0.001394 0.001718 -0.001087 -0.000552
# 2 -0.001730 0.009613 -0.002793 0.001591 0.001617 0.002003
# 3 -0.001394 -0.002793 0.008414 -0.000118 -0.004314 -0.002172
# 4 0.001718 0.001591 -0.000118 0.030464 0.002939 -0.005200
# 5 -0.001087 0.001617 -0.004314 0.002939 0.045337 0.003295
# 6 -0.000552 0.002003 -0.002172 -0.005200 0.003295 0.023067
#
#
# Mechanical properties :
#
#
# Convention : Reuss Voigt Hill
#
# Bulk Modulus (GPa) = 64.78115 68.80318 66.79217
# Shear Modulus (GPa) = 34.93573 40.29647 37.61610
#
# Velocity S-wave (km/s) = 4.01945 4.31684 4.17080
# Velocity P-wave (km/s) = 7.17630 7.52760 7.35405
#
# Compressibility (1/GPa) = 0.01543659
#
# Stress axis : x y z
#
# Youngs Moduli (GPa) = 108.17401 104.02620 118.84795
#
# Poissons Ratio (x) = 0.17998 0.16571
# Poissons Ratio (y) = 0.18716 0.33194
# Poissons Ratio (z) = 0.15083 0.29054
#
# Static dielectric constant tensor:
#      x y z
#    x 3.912310 -0.133700 0.227660 
#    y -0.133700 4.213530 -0.125330 
#    z 0.227660 -0.125330 3.990320 
# 
# 
# High freq. dielectric constant tensor:
#      x y z
#    x 1.860800 -0.004150 0.013770 
#    y -0.004150 1.869050 -0.006580 
#    z 0.013770 -0.006580 1.852820 
# 
# From -- ./inp_files/185815.got.cif
#   From: 2010.06.25/outbox.cif.g09.slc.cpg/sg2_93_cif.got.tgz:185815.got - 2010.06.27 13:26:56.
