data_PCOD8034145
_publ_section_title
;
Structure prediction by ZEFSAII (Michael W. Deem and Ramdas Pophale) SiO2 
 PCOD8034145
Probable space group: P -1
;
_chemical_formula_sum "Si O2"
_cell_formula_units_Z 16
_cell_length_a 8.372808
_cell_length_b 9.453489
_cell_length_c 11.622609
_cell_angle_alpha 129.221006
_cell_angle_beta 99.156129
_cell_angle_gamma 89.821183
_cell_volume 697.880331
_symmetry_space_group_name_H-M "P -1"
_symmetry_group_IT_number 2
_symmetry_cell_setting 'triclinic'
loop_
_space_group_symop_operation_xyz
x,y,z
-x,-y,-z
loop_
_atom_site_type_symbol
_atom_site_label
_atom_site_fract_x
_atom_site_fract_y
_atom_site_fract_z
Si Si1 0.233578 0.875879 0.651933
Si Si2 0.082372 0.562748 0.308316
Si Si3 0.004601 0.084093 0.863222
Si Si4 0.476367 0.135018 0.669639
Si Si5 0.282817 0.469205 0.806435
Si Si6 0.798776 0.798956 0.835982
Si Si7 0.556314 0.204060 0.157452
Si Si8 0.795726 0.361706 0.888408
O O1 0.186472 0.728410 0.471391
O O2 0.302379 0.782942 0.723955
O O3 0.073211 0.972456 0.709629
O O4 0.371516 0.031827 0.704853
O O5 0.103943 0.370823 0.274353
O O6 0.155616 0.545993 0.180453
O O7 0.892594 0.587626 0.301490
O O8 0.952369 0.276908 0.913149
O O9 0.149537 0.122646 0.991818
O O10 0.845697 0.962130 0.834632
O O11 0.392998 0.310744 0.708004
O O12 0.652388 0.196420 0.773674
O O13 0.500000 0.000000 0.500000
O O14 0.371801 0.662796 0.868542
O O15 0.259257 0.488550 0.951573
O O16 0.606178 0.728120 0.772916
O O17 0.500000 0.000000 0.000000
#
# Coordination Sequence:
#
# PCOD8034145 Si02
#       8
#     2   2   2   2   2   2   2   2
#     4  12  27  46  72 106 145 194 230 294 361 419
#     4  12  27  46  69 107 148 184 241 290 354 426
#     4  11  24  43  75 102 139 186 238 293 352 417
#     4  12  27  48  70 106 150 186 237 292 360 423
#     4  12  27  46  76 105 140 195 240 292 356 423
#     4  11  24  45  70 104 141 180 239 298 347 422
#     4  12  25  47  76 106 143 184 242 294 357 427
#     4  12  25  47  73 105 142 188 238 296 350 425
#
# _framework density 22.926566999999999
#
# number of rings (size 3 to 8) (size 9 to 14) (size 15 to 20)
#    0.000    0.250    3.750    5.250    3.500    3.500 
#    0.000    0.000    0.000    0.000    0.000    0.000 
#    0.000    0.000    0.000    0.000    0.000    0.000 
#
# Total GULP energy -198513.927563 kJ/mol
# GULP energy per Si atom -12407.120473 kJ/mol
# Density = 2.287438 g / cm^3
# Si number density = 22.926567 Si / 1000 Ang^3
#
#
#
# Elastic Constant Matrix: (Units=GPa)
#
#
# Indices 1 2 3 4 5 6 
#
# 1 105.5047 5.4068 42.4462 -1.9480 -2.6350 -2.9430
# 2 5.4068 55.7482 29.7959 9.3369 -17.4826 -7.5992
# 3 42.4462 29.7959 110.3899 9.6267 -5.5402 -6.1364
# 4 -1.9480 9.3369 9.6267 27.8023 1.4388 -0.2252
# 5 -2.6350 -17.4826 -5.5402 1.4388 43.0079 9.2802
# 6 -2.9430 -7.5992 -6.1364 -0.2252 9.2802 35.4084
#
#
#
# Elastic Compliance Matrix: (Units=1/GPa)
#
#
# Indices 1 2 3 4 5 6 
#
# 1 0.011438 0.001367 -0.004902 0.002016 0.000498 0.000277
# 2 0.001367 0.025507 -0.006234 -0.006784 0.009447 0.001988
# 3 -0.004902 -0.006234 0.012836 -0.002622 -0.001265 0.000794
# 4 0.002016 -0.006784 -0.002622 0.039511 -0.004210 -0.000388
# 5 0.000498 0.009447 -0.001265 -0.004210 0.028308 -0.005596
# 6 0.000277 0.001988 0.000794 -0.000388 -0.005596 0.030293
#
#
# Mechanical properties :
#
#
# Convention : Reuss Voigt Hill
#
# Bulk Modulus (GPa) = 33.06669 47.43786 40.25228
# Shear Modulus (GPa) = 28.16702 34.17664 31.17183
#
# Velocity S-wave (km/s) = 3.50891 3.86515 3.69133
# Velocity P-wave (km/s) = 5.55615 6.37615 5.98022
#
# Compressibility (1/GPa) = 0.03024191
#
# Stress axis : x y z
#
# Youngs Moduli (GPa) = 87.42848 39.20471 77.90653
#
# Poissons Ratio (x) = -0.05360 0.38193
# Poissons Ratio (y) = -0.11952 0.48568
# Poissons Ratio (z) = 0.42862 0.24441
#
# Static dielectric constant tensor:
#      x y z
#    x 4.388180 0.017490 0.038720 
#    y 0.017490 4.124520 0.040470 
#    z 0.038720 0.040470 3.988630 
# 
# 
# High freq. dielectric constant tensor:
#      x y z
#    x 1.923340 0.005850 0.002880 
#    y 0.005850 1.910070 0.009050 
#    z 0.002880 0.009050 1.899150 
# 
# From -- ./inp_files/188551.got.cif
#   From: 2010.06.25/outbox.cif.g09.slc.cpg/sg2_95_cif.got.tgz:188551.got - 2010.06.27 13:26:56.
