data_PCOD8034689
_publ_section_title
;
Structure prediction by ZEFSAII (Michael W. Deem and Ramdas Pophale) SiO2 
 PCOD8034689
Probable space group: P -1
;
_chemical_formula_sum "Si O2"
_cell_formula_units_Z 16
_cell_length_a 8.929546
_cell_length_b 23.217618
_cell_length_c 9.361958
_cell_angle_alpha 139.806610
_cell_angle_beta 77.774353
_cell_angle_gamma 132.558086
_cell_volume 707.936931
_symmetry_space_group_name_H-M "P -1"
_symmetry_group_IT_number 2
_symmetry_cell_setting 'triclinic'
loop_
_space_group_symop_operation_xyz
x,y,z
-x,-y,-z
loop_
_atom_site_type_symbol
_atom_site_label
_atom_site_fract_x
_atom_site_fract_y
_atom_site_fract_z
Si Si1 0.895026 0.847482 0.806517
Si Si2 0.800239 0.891225 0.202903
Si Si3 0.571523 0.447283 0.296490
Si Si4 0.161920 0.669135 0.253548
Si Si5 0.687784 0.569444 0.225298
Si Si6 0.563741 0.840255 0.747086
Si Si7 0.597463 0.147709 0.746700
Si Si8 0.097716 0.636654 0.670390
O O1 0.757449 0.686527 0.535364
O O2 0.713812 0.815820 0.669904
O O3 0.936542 0.923368 0.089370
O O4 0.196420 0.974651 0.930310
O O5 0.645768 0.910313 0.251624
O O6 0.588479 0.713675 0.930903
O O7 0.000000 0.000000 0.500000
O O8 0.500000 0.500000 0.500000
O O9 0.519344 0.429636 0.103956
O O10 0.884588 0.577840 0.496897
O O11 0.407247 0.787516 0.535145
O O12 0.302327 0.756303 0.237906
O O13 0.957723 0.652881 0.277847
O O14 0.000000 0.500000 0.000000
O O15 0.500000 0.500000 0.000000
O O16 0.368365 0.747629 0.743630
O O17 0.500000 0.000000 0.500000
O O18 0.847010 0.268965 0.032969
O O19 0.000000 0.500000 0.500000
#
# Coordination Sequence:
#
# PCOD8034689 Si02
#       8
#     2   2   2   2   2   2   2   2
#     4  11  25  47  74 109 150 201 247 317 392 458
#     4  12  26  49  75 109 155 196 253 315 390 458
#     4  12  26  47  79 110 143 204 261 316 387 459
#     4  12  26  48  74 108 150 199 258 319 384 461
#     4  12  28  46  73 110 150 195 258 318 384 458
#     4  11  24  45  75 101 147 198 247 306 392 452
#     4  12  29  45  75 110 150 199 253 319 383 455
#     4  12  24  49  76 105 150 202 258 317 384 464
#
# _framework density 22.600885000000002
#
# number of rings (size 3 to 8) (size 9 to 14) (size 15 to 20)
#    0.000    0.250    5.000    3.000    5.250    3.500 
#    0.000    0.000    0.000    0.000    0.000    0.000 
#    0.000    0.000    0.000    0.000    0.000    0.000 
#
# Total GULP energy -198224.680883 kJ/mol
# GULP energy per Si atom -12389.042555 kJ/mol
# Density = 2.254944 g / cm^3
# Si number density = 22.600885 Si / 1000 Ang^3
#
#
#
# Elastic Constant Matrix: (Units=GPa)
#
#
# Indices 1 2 3 4 5 6 
#
# 1 131.0147 41.3390 70.6105 0.6950 16.1032 2.8054
# 2 41.3390 142.7673 45.3816 4.2321 8.3375 -5.3948
# 3 70.6105 45.3816 135.5139 -1.6773 3.9724 -4.7186
# 4 0.6950 4.2321 -1.6773 40.2549 -7.3334 2.6217
# 5 16.1032 8.3375 3.9724 -7.3334 52.6134 2.1366
# 6 2.8054 -5.3948 -4.7186 2.6217 2.1366 40.7710
#
#
#
# Elastic Compliance Matrix: (Units=1/GPa)
#
#
# Indices 1 2 3 4 5 6 
#
# 1 0.011405 -0.001438 -0.005434 -0.000708 -0.002894 -0.001407
# 2 -0.001438 0.008164 -0.001935 -0.001150 -0.000912 0.001077
# 3 -0.005434 -0.001935 0.010877 0.000891 0.001222 0.001255
# 4 -0.000708 -0.001150 0.000891 0.025865 0.004013 -0.001874
# 5 -0.002894 -0.000912 0.001222 0.004013 0.020549 -0.001115
# 6 -0.001407 0.001077 0.001255 -0.001874 -0.001115 0.025091
#
#
# Mechanical properties :
#
#
# Convention : Reuss Voigt Hill
#
# Bulk Modulus (GPa) = 77.92527 80.43978 79.18252
# Shear Modulus (GPa) = 40.37423 43.52552 41.94987
#
# Velocity S-wave (km/s) = 4.23117 4.39319 4.31294
# Velocity P-wave (km/s) = 7.64357 7.83596 7.74036
#
# Compressibility (1/GPa) = 0.01283281
#
# Stress axis : x y z
#
# Youngs Moduli (GPa) = 87.68378 122.49173 91.93384
#
# Poissons Ratio (x) = 0.17617 0.49954
# Poissons Ratio (y) = 0.12611 0.17785
# Poissons Ratio (z) = 0.47645 0.23697
#
# Static dielectric constant tensor:
#      x y z
#    x 5.764060 2.702190 -1.905530 
#    y 2.702190 14.035320 -8.683650 
#    z -1.905530 -8.683650 12.292710 
# 
# 
# High freq. dielectric constant tensor:
#      x y z
#    x 1.900900 -0.004890 0.011150 
#    y -0.004890 1.912720 0.002600 
#    z 0.011150 0.002600 1.895550 
# 
# From -- ./inp_files/226639.got.cif
#   From: 2010.06.25/outbox.cif.g09.slc.cpg/sg2_114_cif.got.tgz:226639.got - 2010.06.27 13:26:56.
