data_PCOD8034001
_publ_section_title
;
Structure prediction by ZEFSAII (Michael W. Deem and Ramdas Pophale) SiO2 
 PCOD8034001
Probable space group: P -1
;
_chemical_formula_sum "Si O2"
_cell_formula_units_Z 14
_cell_length_a 10.441857
_cell_length_b 10.085693
_cell_length_c 9.416606
_cell_angle_alpha 65.203688
_cell_angle_beta 116.192058
_cell_angle_gamma 69.705414
_cell_volume 611.785462
_symmetry_space_group_name_H-M "P -1"
_symmetry_group_IT_number 2
_symmetry_cell_setting 'triclinic'
loop_
_space_group_symop_operation_xyz
x,y,z
-x,-y,-z
loop_
_atom_site_type_symbol
_atom_site_label
_atom_site_fract_x
_atom_site_fract_y
_atom_site_fract_z
Si Si1 0.246641 0.471701 0.670305
Si Si2 0.505204 0.167375 0.471066
Si Si3 0.742514 0.214471 0.384346
Si Si4 0.894620 0.435747 0.915368
Si Si5 0.381482 0.863591 0.148836
Si Si6 0.865321 0.154111 0.159032
Si Si7 0.107731 0.290086 0.806672
O O1 0.324019 0.574744 0.717006
O O2 0.403920 0.293505 0.727043
O O3 0.193028 0.397773 0.806436
O O4 0.051428 0.624242 0.426396
O O5 0.586322 0.203701 0.362114
O O6 0.304819 0.369888 0.320554
O O7 0.629474 0.115064 0.695345
O O8 0.500000 0.000000 0.500000
O O9 0.758434 0.181613 0.238540
O O10 0.931524 0.057673 0.636850
O O11 0.017976 0.296501 0.906761
O O12 0.885872 0.314633 0.083249
O O13 0.000000 0.500000 0.000000
O O14 0.253740 0.814906 0.051501
O O15 0.284342 0.072799 0.944252
#
# Coordination Sequence:
#
# PCOD8034001 Si02
#       7
#     2   2   2   2   2   2   2
#     4  11  24  43  71 104 141 189 231 292 349 421
#     4  12  28  46  72 105 142 186 243 293 357 429
#     4  11  25  48  70 105 147 183 241 293 352 432
#     4  12  25  46  70 101 144 190 236 295 357 419
#     4  12  25  46  74 106 140 189 240 295 350 428
#     4  11  26  44  75 104 142 193 235 293 362 411
#     4  11  24  43  69 104 145 181 237 290 349 416
#
# _framework density 22.883838000000001
#
# number of rings (size 3 to 8) (size 9 to 14) (size 15 to 20)
#    0.000    0.571    2.857    4.714    2.000    9.143 
#    0.000    0.000    0.000    0.000    0.000    0.000 
#    0.000    0.000    0.000    0.000    0.000    0.000 
#
# Total GULP energy -173604.544531 kJ/mol
# GULP energy per Si atom -12400.324609 kJ/mol
# Density = 2.283175 g / cm^3
# Si number density = 22.883838 Si / 1000 Ang^3
#
#
#
# Elastic Constant Matrix: (Units=GPa)
#
#
# Indices 1 2 3 4 5 6 
#
# 1 131.7996 55.3996 38.4029 -4.4988 -18.4797 18.6928
# 2 55.3996 124.4582 46.3377 -13.7800 0.6079 9.9911
# 3 38.4029 46.3377 100.1198 -11.3749 3.2158 3.1290
# 4 -4.4988 -13.7800 -11.3749 48.5917 0.2697 5.4141
# 5 -18.4797 0.6079 3.2158 0.2697 26.9756 -4.7039
# 6 18.6928 9.9911 3.1290 5.4141 -4.7039 43.2899
#
#
#
# Elastic Compliance Matrix: (Units=1/GPa)
#
#
# Indices 1 2 3 4 5 6 
#
# 1 0.011576 -0.003949 -0.002819 -0.000420 0.007840 -0.002979
# 2 -0.003949 0.011416 -0.003385 0.002236 -0.002802 -0.001269
# 3 -0.002819 -0.003385 0.012929 0.001771 -0.003330 0.000481
# 4 -0.000420 0.002236 0.001771 0.021971 -0.001354 -0.003358
# 5 0.007840 -0.002802 -0.003330 -0.001354 0.043330 0.002380
# 6 -0.002979 -0.001269 0.000481 -0.003358 0.002380 0.025323
#
#
# Mechanical properties :
#
#
# Convention : Reuss Voigt Hill
#
# Bulk Modulus (GPa) = 64.04021 70.73978 67.39000
# Shear Modulus (GPa) = 32.88258 38.18727 35.53493
#
# Velocity S-wave (km/s) = 3.79480 4.08946 3.94488
# Velocity P-wave (km/s) = 6.87360 7.29917 7.08958
#
# Compressibility (1/GPa) = 0.01561519
#
# Stress axis : x y z
#
# Youngs Moduli (GPa) = 86.38675 87.59559 77.34466
#
# Poissons Ratio (x) = 0.34590 0.21803
# Poissons Ratio (y) = 0.34112 0.26183
# Poissons Ratio (z) = 0.24352 0.29653
#
# Static dielectric constant tensor:
#      x y z
#    x 4.321330 -0.081580 -0.423780 
#    y -0.081580 4.100760 0.043540 
#    z -0.423780 0.043540 4.951460 
# 
# 
# High freq. dielectric constant tensor:
#      x y z
#    x 1.909000 -0.000740 0.004370 
#    y -0.000740 1.906700 -0.014430 
#    z 0.004370 -0.014430 1.914060 
# 
# From -- ./inp_files/243147.got.cif
#   From: 2010.06.25/outbox.cif.g09.slc.cpg/sg2_122_cif.got.tgz:243147.got - 2010.06.27 13:26:56.
