data_PCOD8034053
_publ_section_title
;
Structure prediction by ZEFSAII (Michael W. Deem and Ramdas Pophale) SiO2 
 PCOD8034053
Probable space group: P -1
;
_chemical_formula_sum "Si O2"
_cell_formula_units_Z 16
_cell_length_a 13.592956
_cell_length_b 11.632206
_cell_length_c 6.010526
_cell_angle_alpha 116.240801
_cell_angle_beta 116.131716
_cell_angle_gamma 57.978616
_cell_volume 695.704693
_symmetry_space_group_name_H-M "P -1"
_symmetry_group_IT_number 2
_symmetry_cell_setting 'triclinic'
loop_
_space_group_symop_operation_xyz
x,y,z
-x,-y,-z
loop_
_atom_site_type_symbol
_atom_site_label
_atom_site_fract_x
_atom_site_fract_y
_atom_site_fract_z
Si Si1 0.756302 0.663786 0.463749
Si Si2 0.470088 0.171880 0.361726
Si Si3 0.217770 0.608334 0.902442
Si Si4 0.987310 0.612312 0.897107
Si Si5 0.541710 0.425750 0.725185
Si Si6 0.943038 0.105536 0.231565
Si Si7 0.353629 0.112768 0.798562
Si Si8 0.129601 0.094708 0.738190
O O1 0.663577 0.782196 0.633703
O O2 0.719557 0.530669 0.310099
O O3 0.896486 0.604139 0.613583
O O4 0.738865 0.742697 0.279445
O O5 0.520322 0.285022 0.575343
O O6 0.567612 0.015656 0.400919
O O7 0.449457 0.154570 0.064198
O O8 0.160782 0.747574 0.819788
O O9 0.120481 0.572896 0.909346
O O10 0.314868 0.620635 0.177827
O O11 0.933152 0.773708 0.052050
O O12 0.000000 0.500000 0.000000
O O13 0.500000 0.500000 0.500000
O O14 0.500000 0.500000 0.000000
O O15 0.053394 0.132480 0.466592
O O16 0.877868 0.043843 0.287267
O O17 0.000000 0.000000 0.000000
O O18 0.269954 0.058234 0.813026
#
# Coordination Sequence:
#
# PCOD8034053 Si02
#       8
#     2   2   2   2   2   2   2   2
#     4  12  24  47  72 105 145 185 244 308 376 450
#     4  11  26  47  73 109 143 200 249 312 380 444
#     4  12  26  46  76 105 147 200 243 313 380 462
#     4  12  25  42  74 108 142 187 239 311 379 447
#     4  12  29  51  78 112 158 205 261 320 384 467
#     4  11  25  46  68 104 147 189 240 292 375 452
#     4  11  25  46  74 108 144 190 252 313 379 448
#     4  11  24  43  71 102 147 184 241 309 368 453
#
# _framework density 22.998263000000001
#
# number of rings (size 3 to 8) (size 9 to 14) (size 15 to 20)
#    0.000    0.500    3.750    3.750    3.500    2.000 
#    2.250    0.000    0.000    0.000    0.000    0.000 
#    0.000    0.000    0.000    0.000    0.000    0.000 
#
# Total GULP energy -198247.593341 kJ/mol
# GULP energy per Si atom -12390.474584 kJ/mol
# Density = 2.294592 g / cm^3
# Si number density = 22.998263 Si / 1000 Ang^3
#
#
#
# Elastic Constant Matrix: (Units=GPa)
#
#
# Indices 1 2 3 4 5 6 
#
# 1 88.8940 39.4027 53.3694 -1.8198 22.4763 -10.2907
# 2 39.4027 151.5798 51.8728 -7.2307 10.6838 -5.1038
# 3 53.3694 51.8728 127.6831 -1.2135 27.1162 -1.2738
# 4 -1.8198 -7.2307 -1.2135 47.4690 -4.4808 0.0327
# 5 22.4763 10.6838 27.1162 -4.4808 45.5758 0.4274
# 6 -10.2907 -5.1038 -1.2738 0.0327 0.4274 32.8670
#
#
#
# Elastic Compliance Matrix: (Units=1/GPa)
#
#
# Indices 1 2 3 4 5 6 
#
# 1 0.017134 -0.002182 -0.005183 -0.000276 -0.004928 0.004890
# 2 -0.002182 0.008036 -0.002506 0.001151 0.000792 0.000456
# 3 -0.005183 -0.002506 0.011833 -0.000649 -0.003947 -0.001501
# 4 -0.000276 0.001151 -0.000649 0.021437 0.002360 0.000015
# 5 -0.004928 0.000792 -0.003947 0.002360 0.026785 -0.001924
# 6 0.004890 0.000456 -0.001501 0.000015 -0.001924 0.031994
#
#
# Mechanical properties :
#
#
# Convention : Reuss Voigt Hill
#
# Bulk Modulus (GPa) = 57.92490 73.04963 65.48726
# Shear Modulus (GPa) = 35.03500 40.08318 37.55909
#
# Velocity S-wave (km/s) = 3.90728 4.17931 4.04558
# Velocity P-wave (km/s) = 6.75256 7.42434 7.09641
#
# Compressibility (1/GPa) = 0.01726373
#
# Stress axis : x y z
#
# Youngs Moduli (GPa) = 58.36211 124.43713 84.50811
#
# Poissons Ratio (x) = 0.27147 0.43799
# Poissons Ratio (y) = 0.12732 0.21174
# Poissons Ratio (z) = 0.30248 0.31179
#
# Static dielectric constant tensor:
#      x y z
#    x 4.242710 0.010250 0.089160 
#    y 0.010250 4.685990 0.212360 
#    z 0.089160 0.212360 4.554460 
# 
# 
# High freq. dielectric constant tensor:
#      x y z
#    x 1.912820 -0.007360 0.013160 
#    y -0.007360 1.920790 0.009660 
#    z 0.013160 0.009660 1.919540 
# 
# From -- ./inp_files/95556.got.cif
#   From: 2010.06.25/outbox.cif.g09.slc.cpg/sg2_48_cif.got.tgz:95556.got - 2010.06.27 13:26:56.
