data_PCOD8034871
_publ_section_title
;
Structure prediction by ZEFSAII (Michael W. Deem and Ramdas Pophale) SiO2 
 PCOD8034871
Probable space group: P -1
;
_chemical_formula_sum "Si O2"
_cell_formula_units_Z 14
_cell_length_a 8.994678
_cell_length_b 14.229576
_cell_length_c 18.458865
_cell_angle_alpha 160.434345
_cell_angle_beta 51.507622
_cell_angle_gamma 128.480942
_cell_volume 613.459393
_symmetry_space_group_name_H-M "P -1"
_symmetry_group_IT_number 2
_symmetry_cell_setting 'triclinic'
loop_
_space_group_symop_operation_xyz
x,y,z
-x,-y,-z
loop_
_atom_site_type_symbol
_atom_site_label
_atom_site_fract_x
_atom_site_fract_y
_atom_site_fract_z
Si Si1 0.124353 0.785081 0.138728
Si Si2 0.677998 0.337792 0.342942
Si Si3 0.699472 0.325605 0.489873
Si Si4 0.476328 0.825915 0.956827
Si Si5 0.598627 0.283226 0.714021
Si Si6 0.948087 0.317781 0.540539
Si Si7 0.597877 0.201915 0.814091
O O1 0.258150 0.920464 0.262721
O O2 0.260213 0.762993 0.010048
O O3 0.973814 0.994530 0.315536
O O4 0.000000 0.500000 0.000000
O O5 0.500000 0.500000 0.500000
O O6 0.755288 0.403504 0.447772
O O7 0.862085 0.475601 0.341704
O O8 0.616899 0.008844 0.104525
O O9 0.548730 0.525053 0.709386
O O10 0.891864 0.344739 0.492765
O O11 0.598368 0.004229 0.287149
O O12 0.500000 0.000000 0.000000
O O13 0.776103 0.418714 0.710905
O O14 0.688635 0.237246 0.732283
O O15 0.500000 0.000000 0.500000
O O16 0.443013 0.499069 0.923207
#
# Coordination Sequence:
#
# PCOD8034871 Si02
#       7
#     2   2   2   2   2   2   2
#     4  12  27  46  72 111 148 189 249 304 366 443
#     4  12  24  50  71 106 149 188 248 303 363 437
#     4  12  25  46  75 105 142 192 245 298 371 430
#     4  12  26  48  78 101 146 200 240 304 372 437
#     4  11  24  46  73 104 146 190 242 300 367 432
#     4  12  26  45  74 109 146 190 247 305 363 440
#     4  11  25  47  74 101 148 193 234 302 369 435
#
# _framework density 22.821397999999999
#
# number of rings (size 3 to 8) (size 9 to 14) (size 15 to 20)
#    0.000    0.286    5.714    2.143    4.000    2.286 
#    2.571    0.000    0.000    0.000    0.000    0.000 
#    0.000    0.000    0.000    0.000    0.000    0.000 
#
# Total GULP energy -173569.328626 kJ/mol
# GULP energy per Si atom -12397.809188 kJ/mol
# Density = 2.276946 g / cm^3
# Si number density = 22.821398 Si / 1000 Ang^3
#
#
#
# Elastic Constant Matrix: (Units=GPa)
#
#
# Indices 1 2 3 4 5 6 
#
# 1 126.5894 39.9988 29.7770 -11.8202 2.1612 -15.1007
# 2 39.9988 138.2172 31.2943 -5.1793 10.2745 9.4191
# 3 29.7770 31.2943 121.3511 -0.7944 9.8348 -2.3077
# 4 -11.8202 -5.1793 -0.7944 35.9649 -5.7698 8.8633
# 5 2.1612 10.2745 9.8348 -5.7698 25.4951 9.6971
# 6 -15.1007 9.4191 -2.3077 8.8633 9.6971 45.0997
#
#
#
# Elastic Compliance Matrix: (Units=1/GPa)
#
#
# Indices 1 2 3 4 5 6 
#
# 1 0.009678 -0.002585 -0.001636 0.001965 0.000041 0.003301
# 2 -0.002585 0.008643 -0.001514 0.000748 -0.001535 -0.002565
# 3 -0.001636 -0.001514 0.009348 -0.001470 -0.003696 0.001330
# 4 0.001965 0.000748 -0.001470 0.032221 0.010496 -0.008162
# 5 0.000041 -0.001535 -0.003696 0.010496 0.048320 -0.012307
# 6 0.003301 -0.002565 0.001330 -0.008162 -0.012307 0.028133
#
#
# Mechanical properties :
#
#
# Convention : Reuss Voigt Hill
#
# Bulk Modulus (GPa) = 61.73289 65.36642 63.54966
# Shear Modulus (GPa) = 32.63473 40.31776 36.47625
#
# Velocity S-wave (km/s) = 3.78564 4.20773 4.00226
# Velocity P-wave (km/s) = 6.79833 7.23267 7.01886
#
# Compressibility (1/GPa) = 0.01619882
#
# Stress axis : x y z
#
# Youngs Moduli (GPa) = 103.33090 115.70500 106.97942
#
# Poissons Ratio (x) = 0.29906 0.17500
# Poissons Ratio (y) = 0.26707 0.16197
# Poissons Ratio (z) = 0.16904 0.17518
#
# Static dielectric constant tensor:
#      x y z
#    x 4.122140 -0.232080 0.305750 
#    y -0.232080 4.371280 -0.153840 
#    z 0.305750 -0.153840 4.228860 
# 
# 
# High freq. dielectric constant tensor:
#      x y z
#    x 1.904970 -0.010920 0.005560 
#    y -0.010920 1.918090 0.002260 
#    z 0.005560 0.002260 1.895100 
# 
# From -- ./inp_files/561460.got.cif
#   From: 2010.06.25/outbox.cif.g09.slc.cpg/sg2_281_cif.got.tgz:561460.got - 2010.06.27 13:26:56.
