data_PCOD8034070
_publ_section_title
;
Structure prediction by ZEFSAII (Michael W. Deem and Ramdas Pophale) SiO2 
 PCOD8034070
Probable space group: P -1
;
_chemical_formula_sum "Si O2"
_cell_formula_units_Z 16
_cell_length_a 11.470896
_cell_length_b 10.005202
_cell_length_c 9.517796
_cell_angle_alpha 135.797804
_cell_angle_beta 81.754011
_cell_angle_gamma 94.657347
_cell_volume 753.330699
_symmetry_space_group_name_H-M "P -1"
_symmetry_group_IT_number 2
_symmetry_cell_setting 'triclinic'
loop_
_space_group_symop_operation_xyz
x,y,z
-x,-y,-z
loop_
_atom_site_type_symbol
_atom_site_label
_atom_site_fract_x
_atom_site_fract_y
_atom_site_fract_z
Si Si1 0.645054 0.607384 0.144678
Si Si2 0.161546 0.532058 0.384857
Si Si3 0.016777 0.179701 0.234720
Si Si4 0.597135 0.607129 0.654378
Si Si5 0.491000 0.762003 0.063103
Si Si6 0.346624 0.148247 0.420045
Si Si7 0.878861 0.431542 0.909817
Si Si8 0.103366 0.990852 0.361912
O O1 0.608755 0.740744 0.119863
O O2 0.596681 0.705287 0.369435
O O3 0.596966 0.394574 0.980988
O O4 0.785661 0.588507 0.102601
O O5 0.103114 0.692988 0.620050
O O6 0.302932 0.529687 0.389622
O O7 0.130686 0.588803 0.272515
O O8 0.112335 0.320815 0.260560
O O9 0.060364 0.090266 0.303825
O O10 0.000000 0.000000 0.000000
O O11 0.500000 0.500000 0.500000
O O12 0.669180 0.747773 0.648075
O O13 0.524010 0.733636 0.874317
O O14 0.435259 0.970180 0.251839
O O15 0.221141 0.095306 0.467796
O O16 0.857432 0.229090 0.835398
O O17 0.000000 0.500000 0.000000
O O18 0.000000 0.000000 0.500000
#
# Coordination Sequence:
#
# PCOD8034070 Si02
#       8
#     2   2   2   2   2   2   2   2
#     4  11  24  43  71  99 136 179 232 287 352 412
#     4  11  25  48  71 101 146 183 235 300 346 425
#     4  11  25  45  72 103 140 186 235 288 361 421
#     4  12  25  48  73  99 143 191 237 287 356 415
#     4  11  24  46  68  99 139 182 231 292 345 410
#     4  12  25  44  70 102 139 181 238 293 346 421
#     4  12  24  44  74 103 141 186 230 293 363 416
#     4  12  24  44  69 105 143 179 233 294 351 423
#
# _framework density 21.239011000000001
#
# number of rings (size 3 to 8) (size 9 to 14) (size 15 to 20)
#    0.000    0.500    6.250    2.250    0.000    2.000 
#    4.500    0.000    0.000    0.000    0.000    0.000 
#    0.000    0.000    0.000    0.000    0.000    0.000 
#
# Total GULP energy -198400.816267 kJ/mol
# GULP energy per Si atom -12400.051017 kJ/mol
# Density = 2.119067 g / cm^3
# Si number density = 21.239011 Si / 1000 Ang^3
#
#
#
# Elastic Constant Matrix: (Units=GPa)
#
#
# Indices 1 2 3 4 5 6 
#
# 1 125.5315 24.7585 36.7671 9.9517 -10.3298 -18.5917
# 2 24.7585 99.0977 23.1564 8.7077 -1.0523 -7.6258
# 3 36.7671 23.1564 133.9674 11.3801 -14.4560 -14.6468
# 4 9.9517 8.7077 11.3801 30.6140 2.3053 -3.1635
# 5 -10.3298 -1.0523 -14.4560 2.3053 30.4750 -3.3736
# 6 -18.5917 -7.6258 -14.6468 -3.1635 -3.3736 34.0251
#
#
#
# Elastic Compliance Matrix: (Units=1/GPa)
#
#
# Indices 1 2 3 4 5 6 
#
# 1 0.009779 -0.001558 -0.001400 -0.001992 0.003249 0.004529
# 2 -0.001558 0.011014 -0.001267 -0.002031 -0.000503 0.000833
# 3 -0.001400 -0.001267 0.009086 -0.002573 0.004325 0.003052
# 4 -0.001992 -0.002031 -0.002573 0.035211 -0.004611 0.000165
# 5 0.003249 -0.000503 0.004325 -0.004611 0.037047 0.006769
# 6 0.004529 0.000833 0.003052 0.000165 0.006769 0.034052
#
#
# Mechanical properties :
#
#
# Convention : Reuss Voigt Hill
#
# Bulk Modulus (GPa) = 46.66251 58.66230 52.66241
# Shear Modulus (GPa) = 32.94198 37.28377 35.11288
#
# Velocity S-wave (km/s) = 3.94256 4.19434 4.07040
# Velocity P-wave (km/s) = 6.53781 7.15099 6.85126
#
# Compressibility (1/GPa) = 0.02143048
#
# Stress axis : x y z
#
# Youngs Moduli (GPa) = 102.25550 90.79689 110.05339
#
# Poissons Ratio (x) = 0.14148 0.15403
# Poissons Ratio (y) = 0.15933 0.13941
# Poissons Ratio (z) = 0.14312 0.11501
#
# Static dielectric constant tensor:
#      x y z
#    x 3.854820 -0.063390 -0.128300 
#    y -0.063390 4.155520 0.047890 
#    z -0.128300 0.047890 3.892910 
# 
# 
# High freq. dielectric constant tensor:
#      x y z
#    x 1.839370 -0.007720 -0.008270 
#    y -0.007720 1.844870 -0.000600 
#    z -0.008270 -0.000600 1.837160 
# 
# From -- ./inp_files/245853.got.cif
#   From: 2010.06.25/outbox.cif.g09.slc.cpg/sg2_123_cif.got.tgz:245853.got - 2010.06.27 13:26:56.
