data_PCOD8034523
_publ_section_title
;
Structure prediction by ZEFSAII (Michael W. Deem and Ramdas Pophale) SiO2 
 PCOD8034523
Probable space group: P -1
;
_chemical_formula_sum "Si O2"
_cell_formula_units_Z 16
_cell_length_a 8.796273
_cell_length_b 17.896944
_cell_length_c 11.464102
_cell_angle_alpha 122.918224
_cell_angle_beta 129.443866
_cell_angle_gamma 30.362426
_cell_volume 704.426521
_symmetry_space_group_name_H-M "P -1"
_symmetry_group_IT_number 2
_symmetry_cell_setting 'triclinic'
loop_
_space_group_symop_operation_xyz
x,y,z
-x,-y,-z
loop_
_atom_site_type_symbol
_atom_site_label
_atom_site_fract_x
_atom_site_fract_y
_atom_site_fract_z
Si Si1 0.265904 0.090197 0.313027
Si Si2 0.290126 0.210625 0.623838
Si Si3 0.709188 0.729547 0.866841
Si Si4 0.567815 0.295592 0.108902
Si Si5 0.229320 0.988385 0.667534
Si Si6 0.678768 0.444401 0.663325
Si Si7 0.184457 0.706718 0.181815
Si Si8 0.298838 0.402059 0.816370
O O1 0.130145 0.212111 0.442079
O O2 0.564940 0.024421 0.331771
O O3 0.945664 0.178801 0.159274
O O4 0.376877 0.959954 0.322586
O O5 0.334795 0.295959 0.672999
O O6 0.062257 0.297014 0.699272
O O7 0.470309 0.777797 0.891591
O O8 0.484391 0.848244 0.756244
O O9 0.933173 0.573497 0.781703
O O10 0.933929 0.721876 0.031292
O O11 0.395771 0.434778 0.215159
O O12 0.380904 0.349949 0.944822
O O13 0.000000 0.000000 0.500000
O O14 0.001776 0.133377 0.757221
O O15 0.500000 0.500000 0.500000
O O16 0.617531 0.390587 0.685552
O O17 0.453446 0.617377 0.135909
#
# Coordination Sequence:
#
# PCOD8034523 Si02
#       8
#     2   2   2   2   2   2   2   2
#     4  11  26  46  72 101 145 192 239 291 360 429
#     4  11  24  45  70 102 144 188 242 294 354 426
#     4  12  27  46  73 107 145 190 241 298 364 427
#     4  12  26  45  77 108 143 188 243 297 359 433
#     4  12  29  49  72 106 148 193 242 298 360 430
#     4  12  24  45  76 108 143 190 238 301 362 423
#     4  12  27  49  74 103 152 192 237 298 365 428
#     4  12  26  47  75 108 144 189 244 299 359 432
#
# _framework density 22.713512999999999
#
# number of rings (size 3 to 8) (size 9 to 14) (size 15 to 20)
#    0.000    0.250    5.000    3.375    8.750    0.500 
#    0.000    1.875    0.000    0.000    0.000    0.000 
#    0.000    0.000    0.000    0.000    0.000    0.000 
#
# Total GULP energy -198401.274666 kJ/mol
# GULP energy per Si atom -12400.079667 kJ/mol
# Density = 2.266182 g / cm^3
# Si number density = 22.713513 Si / 1000 Ang^3
#
#
#
# Elastic Constant Matrix: (Units=GPa)
#
#
# Indices 1 2 3 4 5 6 
#
# 1 122.8401 32.5707 29.0024 -11.5468 6.4317 -2.9793
# 2 32.5707 105.0418 59.1511 -3.0795 6.1480 17.7957
# 3 29.0024 59.1511 91.3016 -9.6897 1.3852 15.3111
# 4 -11.5468 -3.0795 -9.6897 37.4830 8.1935 -5.6929
# 5 6.4317 6.1480 1.3852 8.1935 35.3640 -3.6943
# 6 -2.9793 17.7957 15.3111 -5.6929 -3.6943 42.2247
#
#
#
# Elastic Compliance Matrix: (Units=1/GPa)
#
#
# Indices 1 2 3 4 5 6 
#
# 1 0.009572 -0.002283 -0.001624 0.003100 -0.001738 0.002492
# 2 -0.002283 0.016191 -0.009258 -0.001944 -0.002011 -0.004066
# 3 -0.001624 -0.009258 0.018183 0.003025 0.000244 -0.002377
# 4 0.003100 -0.001944 0.003025 0.030307 -0.007009 0.003414
# 5 -0.001738 -0.002011 0.000244 -0.007009 0.030807 0.002387
# 6 0.002492 -0.004066 -0.002377 0.003414 0.002387 0.027103
#
#
# Mechanical properties :
#
#
# Convention : Reuss Voigt Hill
#
# Bulk Modulus (GPa) = 56.77058 62.29244 59.53151
# Shear Modulus (GPa) = 30.41994 36.24496 33.33245
#
# Velocity S-wave (km/s) = 3.66360 3.99901 3.83497
# Velocity P-wave (km/s) = 6.55320 6.98624 6.77318
#
# Compressibility (1/GPa) = 0.01761476
#
# Stress axis : x y z
#
# Youngs Moduli (GPa) = 104.46756 61.76241 54.99725
#
# Poissons Ratio (x) = 0.14102 0.08932
# Poissons Ratio (y) = 0.23852 0.50919
# Poissons Ratio (z) = 0.16967 0.57182
#
# Static dielectric constant tensor:
#      x y z
#    x 4.185210 0.049280 -0.089300 
#    y 0.049280 4.322040 0.114320 
#    z -0.089300 0.114320 1.357580 
# 
# 
# High freq. dielectric constant tensor:
#      x y z
#    x 1.903370 0.001260 0.000900 
#    y 0.001260 1.913480 0.005350 
#    z 0.000900 0.005350 1.893950 
# 
# From -- ./inp_files/206410.got.cif
#   From: 2010.06.25/outbox.cif.g09.slc.cpg/sg2_104_cif.got.tgz:206410.got - 2010.06.27 13:26:56.
