data_PCOD8034122
_publ_section_title
;
Structure prediction by ZEFSAII (Michael W. Deem and Ramdas Pophale) SiO2 
 PCOD8034122
Probable space group: P -1
;
_chemical_formula_sum "Si O2"
_cell_formula_units_Z 14
_cell_length_a 8.266790
_cell_length_b 18.924420
_cell_length_c 9.691136
_cell_angle_alpha 129.134053
_cell_angle_beta 63.567988
_cell_angle_gamma 149.951041
_cell_volume 568.546958
_symmetry_space_group_name_H-M "P -1"
_symmetry_group_IT_number 2
_symmetry_cell_setting 'triclinic'
loop_
_space_group_symop_operation_xyz
x,y,z
-x,-y,-z
loop_
_atom_site_type_symbol
_atom_site_label
_atom_site_fract_x
_atom_site_fract_y
_atom_site_fract_z
Si Si1 0.667155 0.305283 0.714992
Si Si2 0.763121 0.602581 0.647247
Si Si3 0.643709 0.422055 0.109792
Si Si4 0.491748 0.307960 0.495424
Si Si5 0.538192 0.015110 0.166670
Si Si6 0.383754 0.158144 0.077541
Si Si7 0.757377 0.041770 0.531114
O O1 0.650659 0.324395 0.584891
O O2 0.353577 0.109882 0.636174
O O3 0.004541 0.391636 0.731375
O O4 0.668628 0.400550 0.916180
O O5 0.500000 0.500000 0.500000
O O6 0.645165 0.624659 0.835812
O O7 0.757820 0.498255 0.581485
O O8 0.121636 0.786372 0.680263
O O9 0.575102 0.305874 0.086580
O O10 0.455982 0.215114 0.278841
O O11 0.138035 0.208908 0.538802
O O12 0.254262 0.942472 0.279424
O O13 0.500000 0.000000 0.000000
O O14 0.513926 0.899752 0.074790
O O15 0.000000 0.000000 0.000000
O O16 0.500000 0.000000 0.500000
#
# Coordination Sequence:
#
# PCOD8034122 Si02
#       7
#     2   2   2   2   2   2   2
#     4  11  26  44  68 110 138 189 234 305 351 424
#     4  12  24  47  72 105 141 194 235 295 357 432
#     4  11  24  43  73  96 149 181 244 286 367 422
#     4  12  27  44  78 103 146 182 247 294 354 423
#     4  12  28  44  72 106 146 179 240 295 356 418
#     4  12  23  45  73 103 134 192 236 292 349 429
#     4  12  25  47  72 101 146 189 232 287 365 425
#
# _framework density 24.624175000000001
#
# number of rings (size 3 to 8) (size 9 to 14) (size 15 to 20)
#    0.000    0.286    2.857    6.429    4.000    2.286 
#    0.000    0.000    0.000    0.000    0.000    0.000 
#    0.000    0.000    0.000    0.000    0.000    0.000 
#
# Total GULP energy -173611.013604 kJ/mol
# GULP energy per Si atom -12400.786686 kJ/mol
# Density = 2.456813 g / cm^3
# Si number density = 24.624175 Si / 1000 Ang^3
#
#
#
# Elastic Constant Matrix: (Units=GPa)
#
#
# Indices 1 2 3 4 5 6 
#
# 1 33.3305 -6.9702 16.2323 8.2972 -5.2638 -10.5038
# 2 -6.9702 89.9357 37.4105 6.8690 -10.5276 -2.7240
# 3 16.2323 37.4105 128.1668 9.3472 10.6797 -8.6233
# 4 8.2972 6.8690 9.3472 32.8377 -8.8556 -7.1593
# 5 -5.2638 -10.5276 10.6797 -8.8556 41.6239 -6.2751
# 6 -10.5038 -2.7240 -8.6233 -7.1593 -6.2751 43.4701
#
#
#
# Elastic Compliance Matrix: (Units=1/GPa)
#
#
# Indices 1 2 3 4 5 6 
#
# 1 0.041011 0.007999 -0.007281 -0.005385 0.009353 0.009430
# 2 0.007999 0.015013 -0.005665 -0.001300 0.006355 0.002453
# 3 -0.007281 -0.005665 0.010917 -0.001859 -0.005713 -0.001079
# 4 -0.005385 -0.001300 -0.001859 0.035902 0.007905 0.005303
# 5 0.009353 0.006355 -0.005713 0.007905 0.031065 0.007311
# 6 0.009430 0.002453 -0.001079 0.005303 0.007311 0.027151
#
#
# Mechanical properties :
#
#
# Convention : Reuss Voigt Hill
#
# Bulk Modulus (GPa) = 17.52959 38.30868 27.91914
# Shear Modulus (GPa) = 26.32022 37.23703 31.77863
#
# Velocity S-wave (km/s) = 3.27292 3.89294 3.59631
# Velocity P-wave (km/s) = 4.62784 5.98312 5.34858
#
# Compressibility (1/GPa) = 0.05704640
#
# Stress axis : x y z
#
# Youngs Moduli (GPa) = 24.38396 66.60928 91.60078
#
# Poissons Ratio (x) = -0.53280 0.66695
# Poissons Ratio (y) = -0.19504 0.51890
# Poissons Ratio (z) = 0.17754 0.37733
#
# Static dielectric constant tensor:
#      x y z
#    x 4.678350 -0.046690 -0.446410 
#    y -0.046690 4.545720 0.089920 
#    z -0.446410 0.089920 5.061750 
# 
# 
# High freq. dielectric constant tensor:
#      x y z
#    x 1.965910 -0.000850 -0.009340 
#    y -0.000850 1.989800 -0.001430 
#    z -0.009340 -0.001430 2.002920 
# 
# From -- ./inp_files/157125.got.cif
#   From: 2010.06.25/outbox.cif.g09.slc.cpg/sg2_79_cif.got.tgz:157125.got - 2010.06.27 13:26:56.
