data_PCOD8034640
_publ_section_title
;
Structure prediction by ZEFSAII (Michael W. Deem and Ramdas Pophale) SiO2 
 PCOD8034640
Probable space group: P -1
;
_chemical_formula_sum "Si O2"
_cell_formula_units_Z 12
_cell_length_a 12.514847
_cell_length_b 8.932510
_cell_length_c 9.308998
_cell_angle_alpha 78.391988
_cell_angle_beta 47.087575
_cell_angle_gamma 49.848088
_cell_volume 527.361892
_symmetry_space_group_name_H-M "P -1"
_symmetry_group_IT_number 2
_symmetry_cell_setting 'triclinic'
loop_
_space_group_symop_operation_xyz
x,y,z
-x,-y,-z
loop_
_atom_site_type_symbol
_atom_site_label
_atom_site_fract_x
_atom_site_fract_y
_atom_site_fract_z
Si Si1 0.835564 0.507767 0.483724
Si Si2 0.724197 0.824383 0.754860
Si Si3 0.572749 0.182050 0.634972
Si Si4 0.786239 0.719842 0.206344
Si Si5 0.219098 0.916348 0.823969
Si Si6 0.484553 0.492592 0.184658
O O1 0.758564 0.638487 0.678595
O O2 0.740731 0.682676 0.411191
O O3 0.738408 0.410569 0.585081
O O4 0.084787 0.305147 0.282464
O O5 0.745877 0.950241 0.600043
O O6 0.500000 0.000000 0.000000
O O7 0.390790 0.200932 0.755440
O O8 0.665367 0.201161 0.409640
O O9 0.481902 0.371510 0.793297
O O10 0.797433 0.892291 0.171734
O O11 0.000000 0.500000 0.000000
O O12 0.339243 0.754960 0.878595
O O13 0.000000 0.000000 0.000000
O O14 0.500000 0.500000 0.000000
#
# Coordination Sequence:
#
# PCOD8034640 Si02
#       6
#     2   2   2   2   2   2
#     4  11  25  46  72 106 150 190 244 306 361 440
#     4  11  24  45  73 106 145 194 244 299 368 436
#     4  12  25  48  73 104 148 189 243 300 362 438
#     4  12  25  46  77 105 139 196 246 297 367 437
#     4  12  27  47  75 109 147 188 245 303 365 434
#     4  12  28  47  72 107 147 191 244 304 370 431
#
# _framework density 22.754770000000001
#
# number of rings (size 3 to 8) (size 9 to 14) (size 15 to 20)
#    0.000    0.333    3.333    5.000    4.667    3.333 
#    0.000    0.000    0.000    0.000    0.000    0.000 
#    0.000    0.000    0.000    0.000    0.000    0.000 
#
# Total GULP energy -148867.482164 kJ/mol
# GULP energy per Si atom -12405.623514 kJ/mol
# Density = 2.270298 g / cm^3
# Si number density = 22.754770 Si / 1000 Ang^3
#
#
#
# Elastic Constant Matrix: (Units=GPa)
#
#
# Indices 1 2 3 4 5 6 
#
# 1 153.7201 67.6200 56.1105 -6.0025 -8.8957 10.4069
# 2 67.6200 141.3439 39.1966 -10.4889 4.2997 -6.9222
# 3 56.1105 39.1966 117.6487 5.2609 -4.0197 4.1612
# 4 -6.0025 -10.4889 5.2609 42.5836 -1.9219 0.5441
# 5 -8.8957 4.2997 -4.0197 -1.9219 43.5844 -1.7376
# 6 10.4069 -6.9222 4.1612 0.5441 -1.7376 40.9438
#
#
#
# Elastic Compliance Matrix: (Units=1/GPa)
#
#
# Indices 1 2 3 4 5 6 
#
# 1 0.009728 -0.003886 -0.003222 0.000938 0.002004 -0.002729
# 2 -0.003886 0.009711 -0.001622 0.001933 -0.001708 0.002696
# 3 -0.003222 -0.001622 0.010704 -0.002153 0.000375 -0.000499
# 4 0.000938 0.001933 -0.002153 0.024397 0.000879 0.000020
# 5 0.002004 -0.001708 0.000375 0.000879 0.023601 0.000154
# 6 -0.002729 0.002696 -0.000499 0.000020 0.000154 0.025630
#
#
# Mechanical properties :
#
#
# Convention : Reuss Voigt Hill
#
# Bulk Modulus (GPa) = 78.84535 82.06300 80.45417
# Shear Modulus (GPa) = 39.85372 42.07474 40.96423
#
# Velocity S-wave (km/s) = 4.18957 4.30472 4.24754
# Velocity P-wave (km/s) = 7.62421 7.80064 7.71293
#
# Compressibility (1/GPa) = 0.01268306
#
# Stress axis : x y z
#
# Youngs Moduli (GPa) = 102.79613 102.97393 93.42456
#
# Poissons Ratio (x) = 0.40011 0.30101
# Poissons Ratio (y) = 0.39942 0.15158
# Poissons Ratio (z) = 0.33121 0.16707
#
# Static dielectric constant tensor:
#      x y z
#    x 4.431640 -0.415430 -0.097320 
#    y -0.415430 5.141410 0.208150 
#    z -0.097320 0.208150 4.235710 
# 
# 
# High freq. dielectric constant tensor:
#      x y z
#    x 1.910660 -0.006640 0.000310 
#    y -0.006640 1.911420 -0.006140 
#    z 0.000310 -0.006140 1.898170 
# 
# From -- ./inp_files/148690.got.cif
#   From: 2010.06.25/outbox.cif.g09.slc.cpg/sg2_75_cif.got.tgz:148690.got - 2010.06.27 13:26:56.
