data_PCOD8034318
_publ_section_title
;
Structure prediction by ZEFSAII (Michael W. Deem and Ramdas Pophale) SiO2 
 PCOD8034318
Probable space group: P -1
;
_chemical_formula_sum "Si O2"
_cell_formula_units_Z 16
_cell_length_a 12.514456
_cell_length_b 26.748893
_cell_length_c 9.246555
_cell_angle_alpha 151.069761
_cell_angle_beta 144.759295
_cell_angle_gamma 27.927455
_cell_volume 688.255280
_symmetry_space_group_name_H-M "P -1"
_symmetry_group_IT_number 2
_symmetry_cell_setting 'triclinic'
loop_
_space_group_symop_operation_xyz
x,y,z
-x,-y,-z
loop_
_atom_site_type_symbol
_atom_site_label
_atom_site_fract_x
_atom_site_fract_y
_atom_site_fract_z
Si Si1 0.897771 0.814379 0.362660
Si Si2 0.383082 0.731010 0.642507
Si Si3 0.087857 0.228493 0.403518
Si Si4 0.856968 0.119580 0.748494
Si Si5 0.604663 0.100986 0.688783
Si Si6 0.457635 0.642226 0.180494
Si Si7 0.228016 0.532052 0.517442
Si Si8 0.966432 0.454375 0.202069
O O1 0.946511 0.804995 0.561454
O O2 0.120823 0.787352 0.463057
O O3 0.676159 0.957219 0.432277
O O4 0.869699 0.702860 0.012845
O O5 0.502512 0.675037 0.474042
O O6 0.526732 0.608080 0.600183
O O7 0.386924 0.843484 0.005109
O O8 0.343727 0.189081 0.561152
O O9 0.886733 0.381030 0.533489
O O10 0.043914 0.147040 0.045564
O O11 0.778067 0.093581 0.745797
O O12 0.629187 0.235821 0.708097
O O13 0.000000 0.000000 0.500000
O O14 0.693282 0.519539 0.055801
O O15 0.278370 0.604556 0.879465
O O16 0.045352 0.505796 0.295090
O O17 0.000000 0.500000 0.500000
#
# Coordination Sequence:
#
# PCOD8034318 Si02
#       8
#     2   2   2   2   2   2   2   2
#     4  12  26  45  71 104 144 185 239 289 345 427
#     4  12  23  44  77 102 143 188 229 292 356 416
#     4  11  27  46  70 108 140 184 240 288 356 415
#     4  11  26  47  74 102 143 191 229 293 354 419
#     4  12  27  49  73 103 144 188 235 291 350 422
#     4  11  24  44  71 108 143 179 239 292 349 420
#     4  11  24  45  71 104 144 183 236 294 351 418
#     4  12  24  42  71 104 137 186 233 287 354 407
#
# _framework density 23.247188999999999
#
# number of rings (size 3 to 8) (size 9 to 14) (size 15 to 20)
#    0.000    0.500    3.750    4.125    1.750    6.000 
#    0.000    0.000    0.000    0.000    0.000    0.000 
#    0.000    0.000    0.000    0.000    0.000    0.000 
#
# Total GULP energy -198310.942491 kJ/mol
# GULP energy per Si atom -12394.433906 kJ/mol
# Density = 2.319428 g / cm^3
# Si number density = 23.247189 Si / 1000 Ang^3
#
#
#
# Elastic Constant Matrix: (Units=GPa)
#
#
# Indices 1 2 3 4 5 6 
#
# 1 72.8593 19.6779 31.2864 8.0074 6.3728 -1.3435
# 2 19.6779 125.4675 43.8290 16.4462 3.9848 14.3902
# 3 31.2864 43.8290 120.5607 18.6257 6.7962 4.9124
# 4 8.0074 16.4462 18.6257 41.1454 -3.3572 8.6199
# 5 6.3728 3.9848 6.7962 -3.3572 31.7909 3.3264
# 6 -1.3435 14.3902 4.9124 8.6199 3.3264 40.1688
#
#
#
# Elastic Compliance Matrix: (Units=1/GPa)
#
#
# Indices 1 2 3 4 5 6 
#
# 1 0.015965 -0.001249 -0.003350 -0.001730 -0.002718 0.001987
# 2 -0.001249 0.009706 -0.002797 -0.001814 -0.000271 -0.002765
# 3 -0.003350 -0.002797 0.010773 -0.003333 -0.001678 0.000427
# 4 -0.001730 -0.001814 -0.003333 0.028424 0.004864 -0.005503
# 5 -0.002718 -0.000271 -0.001678 0.004864 0.033282 -0.003589
# 6 0.001987 -0.002765 0.000427 -0.005503 -0.003589 0.027378
#
#
# Mechanical properties :
#
#
# Convention : Reuss Voigt Hill
#
# Bulk Modulus (GPa) = 46.17972 56.49712 51.33842
# Shear Modulus (GPa) = 33.88992 37.56063 35.72528
#
# Velocity S-wave (km/s) = 3.82227 4.02395 3.92440
# Velocity P-wave (km/s) = 6.27594 6.77828 6.53194
#
# Compressibility (1/GPa) = 0.02165453
#
# Stress axis : x y z
#
# Youngs Moduli (GPa) = 62.63619 103.02454 92.82790
#
# Poissons Ratio (x) = 0.12864 0.31094
# Poissons Ratio (y) = 0.07821 0.25960
# Poissons Ratio (z) = 0.20981 0.28811
#
# Static dielectric constant tensor:
#      x y z
#    x 10.635870 -6.172360 0.212440 
#    y -6.172360 10.086050 0.038420 
#    z 0.212440 0.038420 4.221240 
# 
# 
# High freq. dielectric constant tensor:
#      x y z
#    x 1.905440 -0.002570 0.009610 
#    y -0.002570 1.932440 0.004880 
#    z 0.009610 0.004880 1.928240 
# 
# From -- ./inp_files/285891.got.cif
#   From: 2010.06.25/outbox.cif.g09.slc.cpg/sg2_143_cif.got.tgz:285891.got - 2010.06.27 13:26:56.
