data_PCOD8034911
_publ_section_title
;
Structure prediction by ZEFSAII (Michael W. Deem and Ramdas Pophale) SiO2 
 PCOD8034911
Probable space group: P -1
;
_chemical_formula_sum "Si O2"
_cell_formula_units_Z 14
_cell_length_a 5.370878
_cell_length_b 8.564417
_cell_length_c 12.471408
_cell_angle_alpha 81.486691
_cell_angle_beta 91.302769
_cell_angle_gamma 99.703296
_cell_volume 559.226368
_symmetry_space_group_name_H-M "P -1"
_symmetry_group_IT_number 2
_symmetry_cell_setting 'triclinic'
loop_
_space_group_symop_operation_xyz
x,y,z
-x,-y,-z
loop_
_atom_site_type_symbol
_atom_site_label
_atom_site_fract_x
_atom_site_fract_y
_atom_site_fract_z
Si Si1 0.347779 0.303314 0.144403
Si Si2 0.998880 0.623617 0.391794
Si Si3 0.222900 0.895074 0.504924
Si Si4 0.224786 0.624621 0.176861
Si Si5 0.904083 0.818935 0.049311
Si Si6 0.182811 0.815794 0.734754
Si Si7 0.334937 0.180023 0.728976
O O1 0.376188 0.492593 0.144252
O O2 0.610590 0.259003 0.189750
O O3 0.091191 0.214735 0.208807
O O4 0.324813 0.255776 0.023425
O O5 0.202029 0.784999 0.408371
O O6 0.048595 0.546400 0.283314
O O7 0.000000 0.500000 0.500000
O O8 0.730376 0.688865 0.371877
O O9 0.176491 0.763587 0.615607
O O10 0.500000 0.000000 0.500000
O O11 0.000000 0.000000 0.500000
O O12 0.391304 0.773305 0.222510
O O13 0.105574 0.696085 0.062909
O O14 0.852147 0.818314 0.173739
O O15 0.000000 0.000000 0.000000
O O16 0.290795 0.003616 0.699451
#
# Coordination Sequence:
#
# PCOD8034911 Si02
#       7
#     2   2   2   2   2   2   2
#     4  12  28  46  75 106 149 190 239 303 361 434
#     4  11  26  47  71 105 148 192 239 301 369 429
#     4  12  25  45  74 105 142 190 245 300 358 422
#     4  11  27  46  71 107 146 189 244 299 363 436
#     4  11  24  46  75 105 142 192 241 297 368 429
#     4  12  26  47  73 106 146 189 248 293 365 433
#     4  11  25  45  73 104 144 190 244 300 356 444
#
# _framework density 25.034586999999998
#
# number of rings (size 3 to 8) (size 9 to 14) (size 15 to 20)
#    0.000    0.571    2.857    3.857   10.000    2.286 
#    0.000    0.000    0.000    0.000    0.000    0.000 
#    0.000    0.000    0.000    0.000    0.000    0.000 
#
# Total GULP energy -173465.221181 kJ/mol
# GULP energy per Si atom -12390.372941 kJ/mol
# Density = 2.497761 g / cm^3
# Si number density = 25.034587 Si / 1000 Ang^3
#
#
#
# Elastic Constant Matrix: (Units=GPa)
#
#
# Indices 1 2 3 4 5 6 
#
# 1 81.3545 -4.3017 6.2900 -12.0905 16.5577 -1.8007
# 2 -4.3017 69.2863 22.8164 -8.4469 -0.3085 -16.8761
# 3 6.2900 22.8164 112.2211 -13.3506 29.0517 -13.9956
# 4 -12.0905 -8.4469 -13.3506 52.4690 -3.2624 6.2958
# 5 16.5577 -0.3085 29.0517 -3.2624 35.1695 -5.5655
# 6 -1.8007 -16.8761 -13.9956 6.2958 -5.5655 41.8405
#
#
#
# Elastic Compliance Matrix: (Units=1/GPa)
#
#
# Indices 1 2 3 4 5 6 
#
# 1 0.014252 0.000772 0.001378 0.003303 -0.007553 -0.000116
# 2 0.000772 0.017375 -0.003640 0.001559 0.003907 0.006109
# 3 0.001378 -0.003640 0.012782 0.002177 -0.010864 0.001094
# 4 0.003303 0.001559 0.002177 0.020741 -0.001709 -0.001849
# 5 -0.007553 0.003907 -0.010864 -0.001709 0.041374 0.003377
# 6 -0.000116 0.006109 0.001094 -0.001849 0.003377 0.027453
#
#
# Mechanical properties :
#
#
# Convention : Reuss Voigt Hill
#
# Bulk Modulus (GPa) = 24.13819 34.71902 29.42860
# Shear Modulus (GPa) = 33.16414 41.76628 37.46521
#
# Velocity S-wave (km/s) = 3.64364 4.08897 3.87271
# Velocity P-wave (km/s) = 5.23109 6.01593 5.63718
#
# Compressibility (1/GPa) = 0.04142813
#
# Stress axis : x y z
#
# Youngs Moduli (GPa) = 70.16670 57.55447 78.23690
#
# Poissons Ratio (x) = -0.04442 -0.10782
# Poissons Ratio (y) = -0.05415 0.28479
# Poissons Ratio (z) = -0.09670 0.20950
#
# Static dielectric constant tensor:
#      x y z
#    x 1.529460 5.433640 -10.939730 
#    y 5.433640 -6.164070 21.407750 
#    z -10.939730 21.407750 -36.986370 
# 
# 
# High freq. dielectric constant tensor:
#      x y z
#    x 1.989590 -0.004880 0.010580 
#    y -0.004880 2.004560 0.009320 
#    z 0.010580 0.009320 2.023360 
# 
# From -- ./inp_files/27545.got.cif
#   From: 2010.06.25/outbox.cif.g09.slc.cpg/sg2_14_cif.got.tgz:27545.got - 2010.06.27 13:26:56.
