data_PCOD8034196
_publ_section_title
;
Structure prediction by ZEFSAII (Michael W. Deem and Ramdas Pophale) SiO2 
 PCOD8034196
Probable space group: P -1
;
_chemical_formula_sum "Si O2"
_cell_formula_units_Z 14
_cell_length_a 6.925323
_cell_length_b 25.072870
_cell_length_c 15.366309
_cell_angle_alpha 160.962131
_cell_angle_beta 53.486337
_cell_angle_gamma 128.813156
_cell_volume 678.129564
_symmetry_space_group_name_H-M "P -1"
_symmetry_group_IT_number 2
_symmetry_cell_setting 'triclinic'
loop_
_space_group_symop_operation_xyz
x,y,z
-x,-y,-z
loop_
_atom_site_type_symbol
_atom_site_label
_atom_site_fract_x
_atom_site_fract_y
_atom_site_fract_z
Si Si1 0.161131 0.127060 0.444546
Si Si2 0.475738 0.466959 0.852496
Si Si3 0.316807 0.728615 0.193224
Si Si4 0.034641 0.254866 0.133959
Si Si5 0.276843 0.021337 0.430485
Si Si6 0.942016 0.520556 0.687100
Si Si7 0.593885 0.317940 0.097887
O O1 0.353378 0.270137 0.558923
O O2 0.311870 0.116747 0.476475
O O3 0.921816 0.197371 0.634652
O O4 0.082815 0.946337 0.138642
O O5 0.740453 0.521183 0.817083
O O6 0.500000 0.500000 0.000000
O O7 0.291985 0.576613 0.034294
O O8 0.549455 0.878445 0.386889
O O9 0.369522 0.659169 0.979150
O O10 0.039972 0.315759 0.126555
O O11 0.310693 0.308700 0.182760
O O12 0.871265 0.350915 0.385392
O O13 0.000000 0.000000 0.500000
O O14 0.341024 0.844879 0.130287
O O15 0.208392 0.528259 0.672319
#
# Coordination Sequence:
#
# PCOD8034196 Si02
#       7
#     2   2   2   2   2   2   2
#     4  12  24  40  65  94 137 170 211 264 325 394
#     4  12  25  44  66  96 135 173 210 269 331 386
#     4  12  23  39  64  98 132 171 212 263 332 387
#     4  11  24  44  67  95 127 178 220 266 318 377
#     4  12  21  35  61 100 132 165 210 271 328 375
#     4  11  25  44  67  94 131 171 225 267 314 385
#     4  12  21  39  69  97 129 165 221 274 322 375
#
# _framework density 20.645022000000001
#
# number of rings (size 3 to 8) (size 9 to 14) (size 15 to 20)
#    0.000    0.286    7.143    3.857    0.000    0.571 
#    0.000    0.000    0.000    2.571    0.000    0.000 
#    0.000    0.000    0.000    0.000    0.000    0.000 
#
# Total GULP energy -173584.789855 kJ/mol
# GULP energy per Si atom -12398.913561 kJ/mol
# Density = 2.059803 g / cm^3
# Si number density = 20.645022 Si / 1000 Ang^3
#
#
#
# Elastic Constant Matrix: (Units=GPa)
#
#
# Indices 1 2 3 4 5 6 
#
# 1 104.7047 29.5743 15.4501 -0.4925 3.7133 -9.1193
# 2 29.5743 82.7654 38.9256 4.0555 5.9438 -7.5452
# 3 15.4501 38.9256 98.0489 6.6801 6.7039 -11.5036
# 4 -0.4925 4.0555 6.6801 31.0810 2.7893 -0.4372
# 5 3.7133 5.9438 6.7039 2.7893 35.7582 9.8818
# 6 -9.1193 -7.5452 -11.5036 -0.4372 9.8818 30.3479
#
#
#
# Elastic Compliance Matrix: (Units=1/GPa)
#
#
# Indices 1 2 3 4 5 6 
#
# 1 0.010857 -0.003602 0.000098 0.000787 -0.001402 0.002872
# 2 -0.003602 0.016266 -0.005565 -0.000821 -0.001598 0.001361
# 3 0.000098 -0.005565 0.013227 -0.001812 -0.002668 0.004502
# 4 0.000787 -0.000821 -0.001812 0.032901 -0.002332 0.000579
# 5 -0.001402 -0.001598 -0.002668 -0.002332 0.032498 -0.012446
# 6 0.002872 0.001361 0.004502 0.000579 -0.012446 0.039920
#
#
# Mechanical properties :
#
#
# Convention : Reuss Voigt Hill
#
# Bulk Modulus (GPa) = 45.01927 50.37989 47.69958
# Shear Modulus (GPa) = 29.20386 32.87536 31.03961
#
# Velocity S-wave (km/s) = 3.76516 3.99483 3.88169
# Velocity P-wave (km/s) = 6.38401 6.76270 6.57608
#
# Compressibility (1/GPa) = 0.02221271
#
# Stress axis : x y z
#
# Youngs Moduli (GPa) = 92.10565 61.47874 75.60307
#
# Poissons Ratio (x) = 0.22143 -0.00744
# Poissons Ratio (y) = 0.33175 0.42074
# Poissons Ratio (z) = -0.00906 0.34214
#
# Static dielectric constant tensor:
#      x y z
#    x 4.063510 -0.080590 -0.012280 
#    y -0.080590 3.589180 0.247980 
#    z -0.012280 0.247980 3.767670 
# 
# 
# High freq. dielectric constant tensor:
#      x y z
#    x 1.829800 -0.005300 -0.000690 
#    y -0.005300 1.783000 0.011200 
#    z -0.000690 0.011200 1.812230 
# 
# From -- ./inp_files/28370.got.cif
#   From: 2010.06.25/outbox.cif.g09.slc.cpg/sg2_15_cif.got.tgz:28370.got - 2010.06.27 13:26:56.
