data_PCOD8034102
_publ_section_title
;
Structure prediction by ZEFSAII (Michael W. Deem and Ramdas Pophale) SiO2 
 PCOD8034102
Probable space group: P -1
;
_chemical_formula_sum "Si O2"
_cell_formula_units_Z 16
_cell_length_a 8.249323
_cell_length_b 20.144885
_cell_length_c 8.536133
_cell_angle_alpha 65.893388
_cell_angle_beta 63.378330
_cell_angle_gamma 33.171225
_cell_volume 692.249642
_symmetry_space_group_name_H-M "P -1"
_symmetry_group_IT_number 2
_symmetry_cell_setting 'triclinic'
loop_
_space_group_symop_operation_xyz
x,y,z
-x,-y,-z
loop_
_atom_site_type_symbol
_atom_site_label
_atom_site_fract_x
_atom_site_fract_y
_atom_site_fract_z
Si Si1 0.699139 0.807164 0.714061
Si Si2 0.731804 0.644241 0.985956
Si Si3 0.341302 0.916359 0.447839
Si Si4 0.307808 0.543375 0.196156
Si Si5 0.445593 0.007374 0.834405
Si Si6 0.795888 0.273396 0.828400
Si Si7 0.663411 0.338478 0.479341
Si Si8 0.669950 0.694851 0.314787
O O1 0.469449 0.866513 0.614789
O O2 0.973484 0.773669 0.588074
O O3 0.527862 0.899711 0.845257
O O4 0.830533 0.685105 0.813957
O O5 0.436897 0.698212 0.989056
O O6 0.600467 0.713011 0.143855
O O7 0.000000 0.500000 0.000000
O O8 0.341810 0.001927 0.331719
O O9 0.551438 0.806753 0.337578
O O10 0.000000 0.000000 0.500000
O O11 0.123186 0.676900 0.174252
O O12 0.521905 0.451513 0.336342
O O13 0.039388 0.569808 0.277148
O O14 0.500000 0.500000 0.000000
O O15 0.099970 0.130240 0.811836
O O16 0.500000 0.000000 0.000000
O O17 0.611862 0.355813 0.671110
O O18 0.502658 0.315790 0.509229
#
# Coordination Sequence:
#
# PCOD8034102 Si02
#       8
#     2   2   2   2   2   2   2   2
#     4  12  26  47  74 105 144 192 240 298 365 428
#     4  11  26  47  71 104 147 187 244 294 361 432
#     4  12  27  46  74 108 144 189 247 298 360 432
#     4  12  24  42  72 104 144 187 241 299 359 426
#     4  12  27  47  74 101 144 189 244 299 364 430
#     4  11  25  45  68  99 140 189 237 291 366 427
#     4  11  24  43  72  99 145 190 233 291 362 427
#     4  11  24  45  69 108 146 186 244 293 359 425
#
# _framework density 23.113050000000001
#
# number of rings (size 3 to 8) (size 9 to 14) (size 15 to 20)
#    0.000    0.500    2.500    4.875    7.000    5.500 
#    0.000    0.000    0.000    0.000    0.000    0.000 
#    0.000    0.000    0.000    0.000    0.000    0.000 
#
# Total GULP energy -198271.363391 kJ/mol
# GULP energy per Si atom -12391.960212 kJ/mol
# Density = 2.306044 g / cm^3
# Si number density = 23.113050 Si / 1000 Ang^3
#
#
#
# Elastic Constant Matrix: (Units=GPa)
#
#
# Indices 1 2 3 4 5 6 
#
# 1 134.0757 62.9362 49.5135 3.9043 -20.8733 -16.7497
# 2 62.9362 117.6877 43.6040 0.5171 -11.3208 -2.9763
# 3 49.5135 43.6040 106.0647 -5.7531 -7.6495 -0.9887
# 4 3.9043 0.5171 -5.7531 34.0335 -2.2696 -7.5205
# 5 -20.8733 -11.3208 -7.6495 -2.2696 44.6373 12.1234
# 6 -16.7497 -2.9763 -0.9887 -7.5205 12.1234 56.0625
#
#
#
# Elastic Compliance Matrix: (Units=1/GPa)
#
#
# Indices 1 2 3 4 5 6 
#
# 1 0.011679 -0.004645 -0.003364 -0.001111 0.003002 0.002385
# 2 -0.004645 0.012044 -0.002760 -0.000289 0.000660 -0.000979
# 3 -0.003364 -0.002760 0.012264 0.002367 0.000124 -0.000645
# 4 -0.001111 -0.000289 0.002367 0.030766 0.000361 0.003744
# 5 0.003002 0.000660 0.000124 0.000361 0.025229 -0.004473
# 6 0.002385 -0.000979 -0.000645 0.003744 -0.004473 0.019956
#
#
# Mechanical properties :
#
#
# Convention : Reuss Voigt Hill
#
# Bulk Modulus (GPa) = 69.20757 74.43728 71.82242
# Shear Modulus (GPa) = 36.15522 40.39828 38.27675
#
# Velocity S-wave (km/s) = 3.95939 4.18527 4.07389
# Velocity P-wave (km/s) = 7.13515 7.45862 7.29868
#
# Compressibility (1/GPa) = 0.01444929
#
# Stress axis : x y z
#
# Youngs Moduli (GPa) = 85.62391 83.02984 81.53635
#
# Poissons Ratio (x) = 0.38570 0.27427
# Poissons Ratio (y) = 0.39775 0.22504
# Poissons Ratio (z) = 0.28802 0.22916
#
# Static dielectric constant tensor:
#      x y z
#    x 4.563820 0.055840 -0.335330 
#    y 0.055840 3.995400 -0.013190 
#    z -0.335330 -0.013190 4.224310 
# 
# 
# High freq. dielectric constant tensor:
#      x y z
#    x 1.934920 -0.004660 -0.014520 
#    y -0.004660 1.909760 0.005200 
#    z -0.014520 0.005200 1.907770 
# 
# From -- ./inp_files/216571.got.cif
#   From: 2010.06.25/outbox.cif.g09.slc.cpg/sg2_109_cif.got.tgz:216571.got - 2010.06.27 13:26:56.
