data_PCOD8034086
_publ_section_title
;
Structure prediction by ZEFSAII (Michael W. Deem and Ramdas Pophale) SiO2 
 PCOD8034086
Probable space group: P -1
;
_chemical_formula_sum "Si O2"
_cell_formula_units_Z 14
_cell_length_a 8.785085
_cell_length_b 10.048562
_cell_length_c 11.378864
_cell_angle_alpha 118.815069
_cell_angle_beta 76.743976
_cell_angle_gamma 59.706766
_cell_volume 593.561703
_symmetry_space_group_name_H-M "P -1"
_symmetry_group_IT_number 2
_symmetry_cell_setting 'triclinic'
loop_
_space_group_symop_operation_xyz
x,y,z
-x,-y,-z
loop_
_atom_site_type_symbol
_atom_site_label
_atom_site_fract_x
_atom_site_fract_y
_atom_site_fract_z
Si Si1 0.073507 0.416320 0.584892
Si Si2 0.450826 0.700592 0.043845
Si Si3 0.848678 0.969152 0.155820
Si Si4 0.289983 0.685646 0.844191
Si Si5 0.841043 0.980043 0.570606
Si Si6 0.530047 0.225596 0.525532
Si Si7 0.690258 0.811370 0.974325
O O1 0.334325 0.269934 0.510764
O O2 0.000000 0.500000 0.500000
O O3 0.924390 0.625748 0.784960
O O4 0.024708 0.272464 0.554395
O O5 0.231337 0.919476 0.242518
O O6 0.500000 0.500000 0.000000
O O7 0.426052 0.708220 0.910348
O O8 0.644544 0.693118 0.011527
O O9 0.826231 0.145390 0.169261
O O10 0.765504 0.055744 0.339482
O O11 0.697804 0.941123 0.120600
O O12 0.110637 0.737428 0.991893
O O13 0.451471 0.452276 0.654929
O O14 0.610537 0.112150 0.591442
O O15 0.000000 0.000000 0.500000
O O16 0.500000 0.000000 0.000000
#
# Coordination Sequence:
#
# PCOD8034086 Si02
#       7
#     2   2   2   2   2   2   2
#     4  12  28  47  76 109 149 198 252 305 373 446
#     4  12  24  44  71 101 144 190 238 301 365 435
#     4  11  24  43  72 105 145 191 241 309 362 448
#     4  11  24  44  70 108 145 189 250 297 375 435
#     4  12  27  48  75 111 150 193 249 307 375 447
#     4  12  25  48  73 109 153 193 247 306 377 437
#     4  12  24  46  70 106 142 190 251 306 363 436
#
# _framework density 23.586425999999999
#
# number of rings (size 3 to 8) (size 9 to 14) (size 15 to 20)
#    0.000    0.286    4.286    5.143    0.000    1.143 
#    0.000    2.143    0.000    0.000    0.000    0.000 
#    0.000    0.000    0.000    0.000    0.000    0.000 
#
# Total GULP energy -173509.266505 kJ/mol
# GULP energy per Si atom -12393.519036 kJ/mol
# Density = 2.353274 g / cm^3
# Si number density = 23.586426 Si / 1000 Ang^3
#
#
#
# Elastic Constant Matrix: (Units=GPa)
#
#
# Indices 1 2 3 4 5 6 
#
# 1 88.9270 27.3255 20.9139 0.4369 1.9621 7.4163
# 2 27.3255 101.6075 10.4041 9.7849 6.2010 12.2946
# 3 20.9139 10.4041 146.2800 6.3638 9.7881 17.9565
# 4 0.4369 9.7849 6.3638 32.6136 2.5847 -2.4155
# 5 1.9621 6.2010 9.7881 2.5847 38.1519 -2.2904
# 6 7.4163 12.2946 17.9565 -2.4155 -2.2904 34.0193
#
#
#
# Elastic Compliance Matrix: (Units=1/GPa)
#
#
# Indices 1 2 3 4 5 6 
#
# 1 0.012664 -0.003277 -0.001552 0.001054 0.000168 -0.000671
# 2 -0.003277 0.011643 0.000427 -0.003692 -0.001830 -0.004104
# 3 -0.001552 0.000427 0.007759 -0.001763 -0.002112 -0.004179
# 4 0.001054 -0.003692 -0.001763 0.032491 -0.000946 0.004279
# 5 0.000168 -0.001830 -0.002112 -0.000946 0.027316 0.003511
# 6 -0.000671 -0.004104 -0.004179 0.004279 0.003511 0.033770
#
#
# Mechanical properties :
#
#
# Convention : Reuss Voigt Hill
#
# Bulk Modulus (GPa) = 42.98928 50.45572 46.72250
# Shear Modulus (GPa) = 35.16092 39.50171 37.33131
#
# Velocity S-wave (km/s) = 3.86518 4.09683 3.98269
# Velocity P-wave (km/s) = 6.17943 6.61944 6.40321
#
# Compressibility (1/GPa) = 0.02326161
#
# Stress axis : x y z
#
# Youngs Moduli (GPa) = 78.96153 85.88673 128.88748
#
# Poissons Ratio (x) = 0.28149 0.20007
# Poissons Ratio (y) = 0.25879 -0.05508
# Poissons Ratio (z) = 0.12257 -0.03670
#
# Static dielectric constant tensor:
#      x y z
#    x 4.438130 -0.031450 0.092460 
#    y -0.031450 4.314650 -0.161250 
#    z 0.092460 -0.161250 4.678420 
# 
# 
# High freq. dielectric constant tensor:
#      x y z
#    x 1.937460 0.004320 0.012220 
#    y 0.004320 1.924390 0.002410 
#    z 0.012220 0.002410 1.955340 
# 
# From -- ./inp_files/241963.got.cif
#   From: 2010.06.25/outbox.cif.g09.slc.cpg/sg2_121_cif.got.tgz:241963.got - 2010.06.27 13:26:56.
