data_PCOD8034468
_publ_section_title
;
Structure prediction by ZEFSAII (Michael W. Deem and Ramdas Pophale) SiO2 
 PCOD8034468
Probable space group: P -1
;
_chemical_formula_sum "Si O2"
_cell_formula_units_Z 16
_cell_length_a 8.947914
_cell_length_b 26.598067
_cell_length_c 12.087778
_cell_angle_alpha 29.435841
_cell_angle_beta 147.461300
_cell_angle_gamma 135.913792
_cell_volume 759.076460
_symmetry_space_group_name_H-M "P -1"
_symmetry_group_IT_number 2
_symmetry_cell_setting 'triclinic'
loop_
_space_group_symop_operation_xyz
x,y,z
-x,-y,-z
loop_
_atom_site_type_symbol
_atom_site_label
_atom_site_fract_x
_atom_site_fract_y
_atom_site_fract_z
Si Si1 0.551058 0.248445 0.740646
Si Si2 0.923864 0.646969 0.213798
Si Si3 0.323227 0.886324 0.711939
Si Si4 0.308671 0.063384 0.840538
Si Si5 0.048881 0.402526 0.137386
Si Si6 0.308001 0.959051 0.259183
Si Si7 0.194771 0.461543 0.866292
Si Si8 0.576831 0.247432 0.174574
O O1 0.388075 0.179982 0.683980
O O2 0.332615 0.339092 0.473368
O O3 0.794335 0.295961 0.732858
O O4 0.680414 0.178539 0.053349
O O5 0.791591 0.629869 0.041577
O O6 0.983025 0.544618 0.518052
O O7 0.717018 0.713530 0.034803
O O8 0.463925 0.808727 0.859346
O O9 0.015627 0.929987 0.403702
O O10 0.499030 0.987099 0.634298
O O11 0.500000 0.000000 0.000000
O O12 0.404978 0.991572 0.139131
O O13 0.784164 0.337042 0.117678
O O14 0.069364 0.430503 0.966042
O O15 0.000000 0.500000 0.000000
O O16 0.303770 0.837197 0.502009
O O17 0.000000 0.000000 0.000000
O O18 0.500000 0.500000 0.000000
#
# Coordination Sequence:
#
# PCOD8034468 Si02
#       8
#     2   2   2   2   2   2   2   2
#     4  11  25  46  68 104 140 179 238 284 345 423
#     4  11  27  42  72 104 133 184 233 288 351 407
#     4  11  24  45  70  99 144 182 228 294 345 419
#     4  11  26  44  71 101 138 186 229 285 354 414
#     4  12  26  47  73 101 143 189 232 288 351 415
#     4  11  24  45  67  99 142 175 232 288 346 418
#     4  11  24  50  69  97 145 178 234 295 341 410
#     4  12  25  44  69 105 135 185 232 282 355 412
#
# _framework density 21.078247000000001
#
# number of rings (size 3 to 8) (size 9 to 14) (size 15 to 20)
#    0.000    0.750    3.750    2.625    7.000    1.500 
#    4.500    0.000    0.000    0.000    0.000    0.000 
#    0.000    0.000    0.000    0.000    0.000    0.000 
#
# Total GULP energy -198327.768444 kJ/mol
# GULP energy per Si atom -12395.485528 kJ/mol
# Density = 2.103027 g / cm^3
# Si number density = 21.078247 Si / 1000 Ang^3
#
#
#
# Elastic Constant Matrix: (Units=GPa)
#
#
# Indices 1 2 3 4 5 6 
#
# 1 134.0581 64.3560 37.8423 -4.1449 17.0706 -12.1148
# 2 64.3560 144.6609 44.4206 4.8676 6.8975 2.4430
# 3 37.8423 44.4206 94.0830 -2.1028 5.6744 -10.6333
# 4 -4.1449 4.8676 -2.1028 38.2695 2.9693 -0.3409
# 5 17.0706 6.8975 5.6744 2.9693 47.7037 -3.5971
# 6 -12.1148 2.4430 -10.6333 -0.3409 -3.5971 38.9658
#
#
#
# Elastic Compliance Matrix: (Units=1/GPa)
#
#
# Indices 1 2 3 4 5 6 
#
# 1 0.010639 -0.004158 -0.001781 0.001833 -0.002895 0.002831
# 2 -0.004158 0.009898 -0.003385 -0.001949 0.000368 -0.002820
# 3 -0.001781 -0.003385 0.013354 0.001022 -0.000278 0.003286
# 4 0.001833 -0.001949 0.001022 0.026804 -0.002088 0.001013
# 5 -0.002895 0.000368 -0.000278 -0.002088 0.022186 0.001031
# 6 0.002831 -0.002820 0.003286 0.001013 0.001031 0.027721
#
#
# Mechanical properties :
#
#
# Convention : Reuss Voigt Hill
#
# Bulk Modulus (GPa) = 65.60009 74.00441 69.80225
# Shear Modulus (GPa) = 37.22130 40.06667 38.64399
#
# Velocity S-wave (km/s) = 4.20678 4.36461 4.28642
# Velocity P-wave (km/s) = 7.40174 7.78366 7.59510
#
# Compressibility (1/GPa) = 0.01524388
#
# Stress axis : x y z
#
# Youngs Moduli (GPa) = 93.99116 101.03500 74.88142
#
# Poissons Ratio (x) = 0.42009 0.13334
# Poissons Ratio (y) = 0.39080 0.25349
# Poissons Ratio (z) = 0.16737 0.34202
#
# Static dielectric constant tensor:
#      x y z
#    x 2.753440 -0.169850 0.279190 
#    y -0.169850 3.940170 -0.090220 
#    z 0.279190 -0.090220 3.637920 
# 
# 
# High freq. dielectric constant tensor:
#      x y z
#    x 1.841670 0.006340 -0.006850 
#    y 0.006340 1.837890 -0.003550 
#    z -0.006850 -0.003550 1.835350 
# 
# From -- ./inp_files/78042.got.cif
#   From: 2010.06.25/outbox.cif.g09.slc.cpg/sg2_40_cif.got.tgz:78042.got - 2010.06.27 13:26:56.
