data_PCOD8034442
_publ_section_title
;
Structure prediction by ZEFSAII (Michael W. Deem and Ramdas Pophale) SiO2 
 PCOD8034442
Probable space group: P -1
;
_chemical_formula_sum "Si O2"
_cell_formula_units_Z 14
_cell_length_a 9.498509
_cell_length_b 14.727468
_cell_length_c 11.783398
_cell_angle_alpha 125.600210
_cell_angle_beta 43.426768
_cell_angle_gamma 148.718156
_cell_volume 584.936008
_symmetry_space_group_name_H-M "P -1"
_symmetry_group_IT_number 2
_symmetry_cell_setting 'triclinic'
loop_
_space_group_symop_operation_xyz
x,y,z
-x,-y,-z
loop_
_atom_site_type_symbol
_atom_site_label
_atom_site_fract_x
_atom_site_fract_y
_atom_site_fract_z
Si Si1 0.623491 0.890131 0.533775
Si Si2 0.347334 0.834317 0.031442
Si Si3 0.659641 0.412162 0.658285
Si Si4 0.663207 0.003705 0.195054
Si Si5 0.362656 0.220256 0.324580
Si Si6 0.381378 0.264332 0.940796
Si Si7 0.400468 0.527931 0.810494
O O1 0.607489 0.789463 0.373310
O O2 0.415856 0.912260 0.634155
O O3 0.487118 0.774702 0.646746
O O4 0.990286 0.084533 0.471298
O O5 0.572342 0.827243 0.858142
O O6 0.975451 0.657081 0.090394
O O7 0.500000 0.000000 0.000000
O O8 0.386959 0.878258 0.171207
O O9 0.613752 0.418412 0.823308
O O10 0.618483 0.510134 0.686350
O O11 0.000000 0.500000 0.500000
O O12 0.632312 0.873727 0.185516
O O13 0.029118 0.168993 0.058116
O O14 0.526176 0.402924 0.312851
O O15 0.510952 0.343596 0.049750
#
# Coordination Sequence:
#
# PCOD8034442 Si02
#       7
#     2   2   2   2   2   2   2
#     4  11  26  46  71 105 148 187 227 304 363 430
#     4  12  23  45  76 106 139 186 244 302 350 416
#     4  12  29  45  68 104 150 191 231 291 365 428
#     4  11  24  44  77 103 139 191 240 293 353 425
#     4  11  25  44  72 106 143 180 239 292 368 412
#     4  11  26  47  72 106 140 194 245 288 349 429
#     4  12  27  46  77 106 141 189 246 299 345 430
#
# _framework density 23.934242999999999
#
# number of rings (size 3 to 8) (size 9 to 14) (size 15 to 20)
#    0.000    0.571    2.857    4.286    8.000    1.143 
#    0.000    0.000    0.000    0.000    0.000    0.000 
#    0.000    0.000    0.000    0.000    0.000    0.000 
#
# Total GULP energy -173490.679005 kJ/mol
# GULP energy per Si atom -12392.191358 kJ/mol
# Density = 2.387977 g / cm^3
# Si number density = 23.934243 Si / 1000 Ang^3
#
#
#
# Elastic Constant Matrix: (Units=GPa)
#
#
# Indices 1 2 3 4 5 6 
#
# 1 108.8247 43.4605 44.7232 -14.4355 -9.8350 -19.9393
# 2 43.4605 101.3036 34.8184 -15.7363 2.2994 -7.3298
# 3 44.7232 34.8184 91.7700 -11.2574 -10.2047 -12.6041
# 4 -14.4355 -15.7363 -11.2574 43.5122 0.7921 -0.7674
# 5 -9.8350 2.2994 -10.2047 0.7921 39.5213 6.3798
# 6 -19.9393 -7.3298 -12.6041 -0.7674 6.3798 42.9517
#
#
#
# Elastic Compliance Matrix: (Units=1/GPa)
#
#
# Indices 1 2 3 4 5 6 
#
# 1 0.013647 -0.003835 -0.004154 0.002107 0.001822 0.004229
# 2 -0.003835 0.013035 -0.003031 0.002704 -0.002546 -0.000019
# 3 -0.004154 -0.003031 0.014737 0.001316 0.002679 0.001505
# 4 0.002107 0.002704 0.001316 0.025043 -0.000166 0.002298
# 5 0.001822 -0.002546 0.002679 -0.000166 0.027055 -0.002824
# 6 0.004229 -0.000019 0.001505 0.002298 -0.002824 0.026144
#
#
# Mechanical properties :
#
#
# Convention : Reuss Voigt Hill
#
# Bulk Modulus (GPa) = 51.60032 60.87806 56.23919
# Shear Modulus (GPa) = 33.74756 37.12344 35.43550
#
# Velocity S-wave (km/s) = 3.75909 3.94262 3.85195
# Velocity P-wave (km/s) = 6.35979 6.79827 6.58268
#
# Compressibility (1/GPa) = 0.01937973
#
# Stress axis : x y z
#
# Youngs Moduli (GPa) = 73.27818 76.71878 67.85692
#
# Poissons Ratio (x) = 0.29422 0.28185
# Poissons Ratio (y) = 0.28102 0.20565
# Poissons Ratio (z) = 0.30437 0.23250
#
# Static dielectric constant tensor:
#      x y z
#    x 4.069510 -0.156770 -0.035100 
#    y -0.156770 4.387290 0.202650 
#    z -0.035100 0.202650 4.171930 
# 
# 
# High freq. dielectric constant tensor:
#      x y z
#    x 1.959400 -0.013370 -0.011350 
#    y -0.013370 1.949000 0.002250 
#    z -0.011350 0.002250 1.945560 
# 
# From -- ./inp_files/157862.got.cif
#   From: 2010.06.25/outbox.cif.g09.slc.cpg/sg2_79_cif.got.tgz:157862.got - 2010.06.27 13:26:56.
