data_PCOD8034080
_publ_section_title
;
Structure prediction by ZEFSAII (Michael W. Deem and Ramdas Pophale) SiO2 
 PCOD8034080
Probable space group: P -1
;
_chemical_formula_sum "Si O2"
_cell_formula_units_Z 16
_cell_length_a 15.903326
_cell_length_b 9.459368
_cell_length_c 12.469825
_cell_angle_alpha 48.345961
_cell_angle_beta 128.959838
_cell_angle_gamma 88.727101
_cell_volume 711.475115
_symmetry_space_group_name_H-M "P -1"
_symmetry_group_IT_number 2
_symmetry_cell_setting 'triclinic'
loop_
_space_group_symop_operation_xyz
x,y,z
-x,-y,-z
loop_
_atom_site_type_symbol
_atom_site_label
_atom_site_fract_x
_atom_site_fract_y
_atom_site_fract_z
Si Si1 0.431255 0.595565 0.778816
Si Si2 0.977014 0.289404 0.330064
Si Si3 0.302009 0.328734 0.549323
Si Si4 0.130582 0.310577 0.792192
Si Si5 0.159488 0.210725 0.332724
Si Si6 0.663834 0.707566 0.173443
Si Si7 0.314510 0.676293 0.251131
Si Si8 0.747350 0.307753 0.046844
O O1 0.356209 0.491503 0.745172
O O2 0.579078 0.444780 0.891426
O O3 0.288431 0.947622 0.483995
O O4 0.500000 0.500000 0.000000
O O5 0.936661 0.550392 0.212952
O O6 0.093556 0.135594 0.396649
O O7 0.799075 0.432632 0.085301
O O8 0.086938 0.039350 0.634523
O O9 0.242843 0.259358 0.448437
O O10 0.228016 0.396604 0.577049
O O11 0.267654 0.586240 0.349890
O O12 0.494939 0.048207 0.868317
O O13 0.255146 0.315822 0.857147
O O14 0.000000 0.500000 0.500000
O O15 0.200396 0.008877 0.007273
O O16 0.000000 0.500000 0.000000
O O17 0.500000 0.500000 0.500000
O O18 0.285957 0.615923 0.143673
#
# Coordination Sequence:
#
# PCOD8034080 Si02
#       8
#     2   2   2   2   2   2   2   2
#     4  12  23  44  76 102 135 187 242 278 345 429
#     4  11  24  44  70 101 142 182 236 285 349 417
#     4  11  24  45  71 101 143 184 233 294 346 413
#     4  12  25  43  71 103 142 188 234 284 354 422
#     4  12  27  46  69 105 147 182 228 297 356 410
#     4  11  24  43  73 104 135 186 242 282 345 424
#     4  12  25  44  68 103 143 180 233 294 347 410
#     4  11  24  43  72 103 137 186 233 288 346 417
#
# _framework density 22.488488
#
# number of rings (size 3 to 8) (size 9 to 14) (size 15 to 20)
#    0.000    0.500    5.000    3.000    3.500    3.000 
#    0.000    3.750    0.000    0.000    0.000    0.000 
#    0.000    0.000    0.000    0.000    0.000    0.000 
#
# Total GULP energy -198305.973814 kJ/mol
# GULP energy per Si atom -12394.123363 kJ/mol
# Density = 2.243730 g / cm^3
# Si number density = 22.488488 Si / 1000 Ang^3
#
#
#
# Elastic Constant Matrix: (Units=GPa)
#
#
# Indices 1 2 3 4 5 6 
#
# 1 80.7533 23.2157 14.2165 -2.2940 -11.6112 10.5183
# 2 23.2157 133.0299 49.6166 -9.0420 -9.2172 9.5433
# 3 14.2165 49.6166 126.7918 -1.1716 -16.8296 6.4189
# 4 -2.2940 -9.0420 -1.1716 36.0936 -2.4600 -5.4925
# 5 -11.6112 -9.2172 -16.8296 -2.4600 31.0066 1.9761
# 6 10.5183 9.5433 6.4189 -5.4925 1.9761 39.8494
#
#
#
# Elastic Compliance Matrix: (Units=1/GPa)
#
#
# Indices 1 2 3 4 5 6 
#
# 1 0.014091 -0.001840 -0.000023 0.000241 0.004959 -0.003487
# 2 -0.001840 0.009310 -0.003303 0.001996 0.000505 -0.000962
# 3 -0.000023 -0.003303 0.009812 -0.000372 0.004373 -0.001052
# 4 0.000241 0.001996 -0.000372 0.028897 0.002559 0.003374
# 5 0.004959 0.000505 0.004373 0.002559 0.037066 -0.003620
# 6 -0.003487 -0.000962 -0.001052 0.003374 -0.003620 0.027059
#
#
# Mechanical properties :
#
#
# Convention : Reuss Voigt Hill
#
# Bulk Modulus (GPa) = 43.70438 57.18585 50.44511
# Shear Modulus (GPa) = 34.67583 38.29167 36.48375
#
# Velocity S-wave (km/s) = 3.93101 4.13088 4.03219
# Velocity P-wave (km/s) = 6.33088 6.94524 6.64517
#
# Compressibility (1/GPa) = 0.02288100
#
# Stress axis : x y z
#
# Youngs Moduli (GPa) = 70.96945 107.41453 101.91489
#
# Poissons Ratio (x) = 0.19768 0.00232
# Poissons Ratio (y) = 0.13061 0.33658
# Poissons Ratio (z) = 0.00162 0.35474
#
# Static dielectric constant tensor:
#      x y z
#    x 4.497260 -0.563820 0.148520 
#    y -0.563820 4.913340 -0.008390 
#    z 0.148520 -0.008390 4.197160 
# 
# 
# High freq. dielectric constant tensor:
#      x y z
#    x 1.888040 0.002130 0.003050 
#    y 0.002130 1.897390 0.010290 
#    z 0.003050 0.010290 1.889530 
# 
# From -- ./inp_files/461105.got.cif
#   From: 2010.06.25/outbox.cif.g09.slc.cpg/sg2_231_cif.got.tgz:461105.got - 2010.06.27 13:26:56.
