data_PCOD8034416
_publ_section_title
;
Structure prediction by ZEFSAII (Michael W. Deem and Ramdas Pophale) SiO2 
 PCOD8034416
Probable space group: P -1
;
_chemical_formula_sum "Si O2"
_cell_formula_units_Z 16
_cell_length_a 15.687145
_cell_length_b 8.666901
_cell_length_c 9.468294
_cell_angle_alpha 74.406160
_cell_angle_beta 46.652033
_cell_angle_gamma 103.458689
_cell_volume 724.204037
_symmetry_space_group_name_H-M "P -1"
_symmetry_group_IT_number 2
_symmetry_cell_setting 'triclinic'
loop_
_space_group_symop_operation_xyz
x,y,z
-x,-y,-z
loop_
_atom_site_type_symbol
_atom_site_label
_atom_site_fract_x
_atom_site_fract_y
_atom_site_fract_z
Si Si1 0.554369 0.773071 0.459578
Si Si2 0.123819 0.217834 0.255845
Si Si3 0.072901 0.654068 0.503269
Si Si4 0.378287 0.032105 0.957776
Si Si5 0.140576 0.568441 0.736918
Si Si6 0.272830 0.381372 0.765611
Si Si7 0.618539 0.707093 0.890079
Si Si8 0.609580 0.981614 0.633345
O O1 0.623239 0.930391 0.215345
O O2 0.389861 0.588527 0.659812
O O3 0.652604 0.695456 0.394500
O O4 0.547708 0.875169 0.580540
O O5 0.254827 0.309365 0.197849
O O6 0.056149 0.338590 0.295446
O O7 0.176901 0.218847 0.037151
O O8 0.000000 0.000000 0.500000
O O9 0.117629 0.567694 0.596188
O O10 0.000000 0.500000 0.500000
O O11 0.214711 0.867621 0.238625
O O12 0.480676 0.958950 0.878947
O O13 0.441468 0.239273 0.919662
O O14 0.177949 0.413253 0.760801
O O15 0.267155 0.788157 0.593271
O O16 0.000000 0.500000 0.000000
O O17 0.675419 0.885806 0.669265
O O18 0.500000 0.500000 0.000000
#
# Coordination Sequence:
#
# PCOD8034416 Si02
#       8
#     2   2   2   2   2   2   2   2
#     4  11  25  45  73 107 138 195 238 302 369 432
#     4  12  23  49  71 101 148 194 237 308 363 436
#     4  12  29  45  74 105 144 194 242 295 377 438
#     4  12  25  49  71 107 147 191 247 303 361 443
#     4  12  26  47  72 103 147 190 238 306 364 440
#     4  11  24  44  75 101 146 185 248 294 366 438
#     4  12  27  45  76 107 145 192 249 304 366 430
#     4  12  27  44  75 107 148 185 248 304 364 434
#
# _framework density 22.093219999999999
#
# number of rings (size 3 to 8) (size 9 to 14) (size 15 to 20)
#    0.000    0.250    6.250    1.500    7.000    1.000 
#    0.000    0.625    0.000    0.000    0.000    0.000 
#    0.000    0.000    0.000    0.000    0.000    0.000 
#
# Total GULP energy -198444.695029 kJ/mol
# GULP energy per Si atom -12402.793439 kJ/mol
# Density = 2.204294 g / cm^3
# Si number density = 22.093220 Si / 1000 Ang^3
#
#
#
# Elastic Constant Matrix: (Units=GPa)
#
#
# Indices 1 2 3 4 5 6 
#
# 1 139.0141 46.8471 43.1666 3.2423 2.8970 -14.0355
# 2 46.8471 104.5149 28.5057 12.7563 -6.3317 14.8586
# 3 43.1666 28.5057 102.3724 4.0715 0.9713 -1.2621
# 4 3.2423 12.7563 4.0715 34.4898 -4.7737 5.3848
# 5 2.8970 -6.3317 0.9713 -4.7737 43.6942 0.0166
# 6 -14.0355 14.8586 -1.2621 5.3848 0.0166 42.5141
#
#
#
# Elastic Compliance Matrix: (Units=1/GPa)
#
#
# Indices 1 2 3 4 5 6 
#
# 1 0.010143 -0.004520 -0.002953 0.000141 -0.001248 0.004823
# 2 -0.004520 0.013415 -0.001795 -0.003145 0.001942 -0.005836
# 3 -0.002953 -0.001795 0.011536 -0.000481 -0.000373 0.000056
# 4 0.000141 -0.003145 -0.000481 0.031045 0.002938 -0.002802
# 5 -0.001248 0.001942 -0.000373 0.002938 0.023580 -0.001483
# 6 0.004823 -0.005836 0.000056 -0.002802 -0.001483 0.027511
#
#
# Mechanical properties :
#
#
# Convention : Reuss Voigt Hill
#
# Bulk Modulus (GPa) = 60.38776 64.77114 62.57945
# Shear Modulus (GPa) = 35.38944 39.29842 37.34393
#
# Velocity S-wave (km/s) = 4.00662 4.22210 4.11577
# Velocity P-wave (km/s) = 6.98545 7.29034 7.13952
#
# Compressibility (1/GPa) = 0.01655965
#
# Stress axis : x y z
#
# Youngs Moduli (GPa) = 98.58768 74.54555 86.68157
#
# Poissons Ratio (x) = 0.33692 0.25595
# Poissons Ratio (y) = 0.44559 0.15558
# Poissons Ratio (z) = 0.29111 0.13380
#
# Static dielectric constant tensor:
#      x y z
#    x 3.966710 -0.539440 0.053150 
#    y -0.539440 3.902610 0.144050 
#    z 0.053150 0.144050 4.198270 
# 
# 
# High freq. dielectric constant tensor:
#      x y z
#    x 1.885930 -0.016550 0.007640 
#    y -0.016550 1.863690 0.003210 
#    z 0.007640 0.003210 1.875640 
# 
# From -- ./inp_files/297795.got.cif
#   From: 2010.06.25/outbox.cif.g09.slc.cpg/sg2_149_cif.got.tgz:297795.got - 2010.06.27 13:26:56.
