data_PCOD8034253
_publ_section_title
;
Structure prediction by ZEFSAII (Michael W. Deem and Ramdas Pophale) SiO2 
 PCOD8034253
Probable space group: P -1
;
_chemical_formula_sum "Si O2"
_cell_formula_units_Z 16
_cell_length_a 9.106883
_cell_length_b 8.343821
_cell_length_c 15.014159
_cell_angle_alpha 136.568618
_cell_angle_beta 99.050783
_cell_angle_gamma 69.357701
_cell_volume 725.287464
_symmetry_space_group_name_H-M "P -1"
_symmetry_group_IT_number 2
_symmetry_cell_setting 'triclinic'
loop_
_space_group_symop_operation_xyz
x,y,z
-x,-y,-z
loop_
_atom_site_type_symbol
_atom_site_label
_atom_site_fract_x
_atom_site_fract_y
_atom_site_fract_z
Si Si1 0.587986 0.785610 0.675549
Si Si2 0.181046 0.736229 0.471424
Si Si3 0.482358 0.781424 0.467931
Si Si4 0.942408 0.715548 0.301459
Si Si5 0.853665 0.526956 0.935021
Si Si6 0.402713 0.694435 0.141880
Si Si7 0.388634 0.941139 0.894057
Si Si8 0.328810 0.500171 0.768911
O O1 0.736205 0.524345 0.573492
O O2 0.483634 0.808003 0.585677
O O3 0.644388 0.021828 0.781226
O O4 0.487441 0.786830 0.756061
O O5 0.311080 0.758614 0.420965
O O6 0.020192 0.725423 0.408435
O O7 0.130901 0.999376 0.628966
O O8 0.631599 0.553412 0.353970
O O9 0.500000 0.000000 0.500000
O O10 0.810425 0.586493 0.243954
O O11 0.083119 0.532452 0.182563
O O12 0.765900 0.336250 0.873697
O O13 0.735453 0.804862 0.050893
O O14 0.000000 0.500000 0.000000
O O15 0.509521 0.646031 0.220955
O O16 0.500000 0.500000 0.000000
O O17 0.293273 0.796089 0.883853
O O18 0.500000 0.000000 0.000000
#
# Coordination Sequence:
#
# PCOD8034253 Si02
#       8
#     2   2   2   2   2   2   2   2
#     4  12  25  40  77 107 134 178 253 296 338 422
#     4  11  24  44  69  99 141 185 230 295 353 414
#     4  12  23  41  73 101 132 183 243 290 346 413
#     4  11  26  44  68  99 150 189 223 288 374 422
#     4  12  27  42  69 103 146 182 228 294 364 419
#     4  12  23  44  72 102 138 188 241 291 343 427
#     4  12  25  46  74 106 138 186 244 298 348 422
#     4  12  24  43  74  99 139 186 241 286 356 426
#
# _framework density 22.060217000000002
#
# number of rings (size 3 to 8) (size 9 to 14) (size 15 to 20)
#    0.000    0.250    6.250    2.625    1.750    1.500 
#    0.000    1.250    0.000    0.000    0.000    0.000 
#    0.000    0.000    0.000    0.000    0.000    0.000 
#
# Total GULP energy -198234.513910 kJ/mol
# GULP energy per Si atom -12389.657119 kJ/mol
# Density = 2.201001 g / cm^3
# Si number density = 22.060217 Si / 1000 Ang^3
#
#
#
# Elastic Constant Matrix: (Units=GPa)
#
#
# Indices 1 2 3 4 5 6 
#
# 1 145.9686 41.8699 35.8596 4.5595 26.5098 9.9752
# 2 41.8699 120.3497 33.7838 24.3234 20.2318 5.9038
# 3 35.8596 33.7838 94.7000 2.1665 0.6885 6.2940
# 4 4.5595 24.3234 2.1665 50.6882 7.4662 5.0488
# 5 26.5098 20.2318 0.6885 7.4662 43.7444 8.2847
# 6 9.9752 5.9038 6.2940 5.0488 8.2847 40.1285
#
#
#
# Elastic Compliance Matrix: (Units=1/GPa)
#
#
# Indices 1 2 3 4 5 6 
#
# 1 0.008844 -0.001702 -0.002682 0.000875 -0.004547 -0.000699
# 2 -0.001702 0.011331 -0.003304 -0.004690 -0.003466 0.000580
# 3 -0.002682 -0.003304 0.012817 0.000985 0.003090 -0.001619
# 4 0.000875 -0.004690 0.000985 0.022333 -0.001786 -0.002123
# 5 -0.004547 -0.003466 0.003090 -0.001786 0.028321 -0.004467
# 6 -0.000699 0.000580 -0.001619 -0.002123 -0.004467 0.026452
#
#
# Mechanical properties :
#
#
# Convention : Reuss Voigt Hill
#
# Bulk Modulus (GPa) = 56.76878 64.89386 60.83132
# Shear Modulus (GPa) = 38.06756 43.54591 40.80674
#
# Velocity S-wave (km/s) = 4.15857 4.44774 4.30558
# Velocity P-wave (km/s) = 6.98911 7.47376 7.23549
#
# Compressibility (1/GPa) = 0.01761531
#
# Stress axis : x y z
#
# Youngs Moduli (GPa) = 113.06780 88.25448 78.02397
#
# Poissons Ratio (x) = 0.15022 0.20928
# Poissons Ratio (y) = 0.19246 0.25777
# Poissons Ratio (z) = 0.30328 0.29157
#
# Static dielectric constant tensor:
#      x y z
#    x 3.896610 0.250550 -0.078160 
#    y 0.250550 3.967960 0.106120 
#    z -0.078160 0.106120 3.942980 
# 
# 
# High freq. dielectric constant tensor:
#      x y z
#    x 1.865760 0.008910 0.013670 
#    y 0.008910 1.862340 0.017910 
#    z 0.013670 0.017910 1.886560 
# 
# From -- ./inp_files/495889.got.cif
#   From: 2010.06.25/outbox.cif.g09.slc.cpg/sg2_248_cif.got.tgz:495889.got - 2010.06.27 13:26:56.
