data_PCOD8034527
_publ_section_title
;
Structure prediction by ZEFSAII (Michael W. Deem and Ramdas Pophale) SiO2 
 PCOD8034527
Probable space group: P -1
;
_chemical_formula_sum "Si O2"
_cell_formula_units_Z 14
_cell_length_a 8.791154
_cell_length_b 5.211964
_cell_length_c 17.456901
_cell_angle_alpha 119.277010
_cell_angle_beta 64.419831
_cell_angle_gamma 125.914225
_cell_volume 553.039951
_symmetry_space_group_name_H-M "P -1"
_symmetry_group_IT_number 2
_symmetry_cell_setting 'triclinic'
loop_
_space_group_symop_operation_xyz
x,y,z
-x,-y,-z
loop_
_atom_site_type_symbol
_atom_site_label
_atom_site_fract_x
_atom_site_fract_y
_atom_site_fract_z
Si Si1 0.677906 0.715392 0.859763
Si Si2 0.132530 0.855132 0.981110
Si Si3 0.693492 0.837872 0.505963
Si Si4 0.123573 0.609259 0.564067
Si Si5 0.267368 0.884458 0.298602
Si Si6 0.007503 0.040532 0.732006
Si Si7 0.628037 0.360617 0.197049
O O1 0.723832 0.416337 0.790861
O O2 0.465766 0.607661 0.858113
O O3 0.851626 0.028742 0.824640
O O4 0.701619 0.851646 0.960563
O O5 0.251320 0.830086 0.878858
O O6 0.000000 0.500000 0.000000
O O7 0.000000 0.000000 0.000000
O O8 0.500000 0.500000 0.500000
O O9 0.842322 0.691251 0.459215
O O10 0.704279 0.029151 0.450876
O O11 0.718575 0.090476 0.608066
O O12 0.000000 0.500000 0.500000
O O13 0.011295 0.686159 0.668596
O O14 0.067841 0.881761 0.319767
O O15 0.460778 0.204018 0.273027
O O16 0.221530 0.290370 0.748155
#
# Coordination Sequence:
#
# PCOD8034527 Si02
#       7
#     2   2   2   2   2   2   2
#     4  11  26  45  75 106 148 185 241 300 354 435
#     4  12  27  51  79 108 146 189 238 292 367 435
#     4  12  27  46  70 104 148 188 248 298 359 419
#     4  12  25  45  72 102 141 197 238 300 357 421
#     4  11  26  44  70 106 144 193 240 304 352 432
#     4  11  24  45  70 103 146 188 246 294 362 424
#     4  11  26  46  74 107 142 192 238 295 366 428
#
# _framework density 25.314629
#
# number of rings (size 3 to 8) (size 9 to 14) (size 15 to 20)
#    0.000    0.571    2.857    3.857   10.000    1.714 
#    0.000    0.000    0.000    0.000    0.000    0.000 
#    0.000    0.000    0.000    0.000    0.000    0.000 
#
# Total GULP energy -173440.999313 kJ/mol
# GULP energy per Si atom -12388.642808 kJ/mol
# Density = 2.525701 g / cm^3
# Si number density = 25.314629 Si / 1000 Ang^3
#
#
#
# Elastic Constant Matrix: (Units=GPa)
#
#
# Indices 1 2 3 4 5 6 
#
# 1 112.0843 30.4344 22.4201 7.1160 -10.4589 20.9458
# 2 30.4344 84.1644 3.6738 16.5851 -1.1813 8.2413
# 3 22.4201 3.6738 110.4946 28.6572 -8.2084 4.8108
# 4 7.1160 16.5851 28.6572 44.5098 -0.6358 3.3274
# 5 -10.4589 -1.1813 -8.2084 -0.6358 36.7462 13.1128
# 6 20.9458 8.2413 4.8108 3.3274 13.1128 48.9121
#
#
#
# Elastic Compliance Matrix: (Units=1/GPa)
#
#
# Indices 1 2 3 4 5 6 
#
# 1 0.011762 -0.003812 -0.002002 0.001314 0.004789 -0.005571
# 2 -0.003812 0.014393 0.001840 -0.005899 -0.000121 -0.000540
# 3 -0.002002 0.001840 0.011596 -0.007751 0.002177 -0.000649
# 4 0.001314 -0.005899 -0.007751 0.029478 -0.000827 -0.000590
# 5 0.004789 -0.000121 0.002177 -0.000827 0.032981 -0.011030
# 6 -0.005571 -0.000540 -0.000649 -0.000590 -0.011030 0.025982
#
#
# Mechanical properties :
#
#
# Convention : Reuss Voigt Hill
#
# Bulk Modulus (GPa) = 33.55563 46.64442 40.10003
# Shear Modulus (GPa) = 34.70396 42.71462 38.70929
#
# Velocity S-wave (km/s) = 3.70659 4.11219 3.91465
# Velocity P-wave (km/s) = 5.62162 6.40412 6.02558
#
# Compressibility (1/GPa) = 0.02980125
#
# Stress axis : x y z
#
# Youngs Moduli (GPa) = 85.02014 69.47645 86.23876
#
# Poissons Ratio (x) = 0.26485 0.17268
# Poissons Ratio (y) = 0.32410 -0.15864
# Poissons Ratio (z) = 0.17024 -0.12780
#
# Static dielectric constant tensor:
#      x y z
#    x 4.890230 -0.403970 0.314490 
#    y -0.403970 6.388820 -0.974140 
#    z 0.314490 -0.974140 5.177770 
# 
# 
# High freq. dielectric constant tensor:
#      x y z
#    x 2.005650 0.015300 -0.007950 
#    y 0.015300 2.026840 0.006220 
#    z -0.007950 0.006220 2.024520 
# 
# From -- ./inp_files/39122.got.cif
#   From: 2010.06.25/outbox.cif.g09.slc.cpg/sg2_20_cif.got.tgz:39122.got - 2010.06.27 13:26:56.
