data_PCOD8034319
_publ_section_title
;
Structure prediction by ZEFSAII (Michael W. Deem and Ramdas Pophale) SiO2 
 PCOD8034319
Probable space group: P -1
;
_chemical_formula_sum "Si O2"
_cell_formula_units_Z 16
_cell_length_a 12.766618
_cell_length_b 16.355973
_cell_length_c 7.294265
_cell_angle_alpha 68.165042
_cell_angle_beta 70.799971
_cell_angle_gamma 25.685397
_cell_volume 612.728184
_symmetry_space_group_name_H-M "P -1"
_symmetry_group_IT_number 2
_symmetry_cell_setting 'triclinic'
loop_
_space_group_symop_operation_xyz
x,y,z
-x,-y,-z
loop_
_atom_site_type_symbol
_atom_site_label
_atom_site_fract_x
_atom_site_fract_y
_atom_site_fract_z
Si Si1 0.621611 0.176436 0.274821
Si Si2 0.564659 0.818778 0.171116
Si Si3 0.502337 0.415560 0.862001
Si Si4 0.894374 0.661890 0.851368
Si Si5 0.975405 0.776390 0.913093
Si Si6 0.350128 0.190735 0.472272
Si Si7 0.598393 0.603696 0.415326
Si Si8 0.920056 0.250921 0.733767
O O1 0.462738 0.201232 0.318675
O O2 0.578323 0.249232 0.437899
O O3 0.545715 0.301927 0.064660
O O4 0.900537 0.949156 0.285856
O O5 0.683175 0.779093 0.316695
O O6 0.683043 0.636202 0.240350
O O7 0.274665 0.006521 0.202009
O O8 0.621218 0.845273 0.947337
O O9 0.553542 0.347375 0.681437
O O10 0.680282 0.369981 0.845118
O O11 0.227980 0.648972 0.835254
O O12 0.025493 0.652182 0.874498
O O13 0.891369 0.658993 0.633066
O O14 0.000000 0.500000 0.000000
O O15 0.954859 0.785101 0.138885
O O16 0.500000 0.000000 0.500000
O O17 0.840770 0.379949 0.523504
#
# Coordination Sequence:
#
# PCOD8034319 Si02
#       8
#     2   2   2   2   2   2   2   2
#     4  11  26  48  76 107 149 192 244 303 372 439
#     4  11  26  47  71 108 147 193 237 296 368 439
#     4  12  26  52  73 106 148 192 251 305 374 431
#     4  12  26  45  72 106 149 194 241 298 365 441
#     4  12  25  46  76 104 148 199 244 303 368 439
#     4  11  24  44  71 108 144 185 239 291 359 438
#     4  11  26  47  73 109 144 184 254 301 362 442
#     4  12  27  48  78 105 147 197 244 316 367 430
#
# _framework density 26.112719999999999
#
# number of rings (size 3 to 8) (size 9 to 14) (size 15 to 20)
#    0.000    0.500    2.500    5.250    7.000    2.000 
#    0.000    0.000    0.000    0.000    0.000    0.000 
#    0.000    0.000    0.000    0.000    0.000    0.000 
#
# Total GULP energy -198281.628380 kJ/mol
# GULP energy per Si atom -12392.601774 kJ/mol
# Density = 2.605329 g / cm^3
# Si number density = 26.112720 Si / 1000 Ang^3
#
#
#
# Elastic Constant Matrix: (Units=GPa)
#
#
# Indices 1 2 3 4 5 6 
#
# 1 112.2751 12.5780 42.1854 -0.8014 21.3549 2.5436
# 2 12.5780 94.8815 6.4291 -6.3920 13.4291 -7.6421
# 3 42.1854 6.4291 119.1961 0.5539 32.7029 8.0285
# 4 -0.8014 -6.3920 0.5539 35.8442 5.5518 -3.2647
# 5 21.3549 13.4291 32.7029 5.5518 54.9566 8.3415
# 6 2.5436 -7.6421 8.0285 -3.2647 8.3415 42.6926
#
#
#
# Elastic Compliance Matrix: (Units=1/GPa)
#
#
# Indices 1 2 3 4 5 6 
#
# 1 0.010581 -0.000834 -0.003135 0.000490 -0.002132 0.000264
# 2 -0.000834 0.011541 0.000415 0.002839 -0.003475 0.002934
# 3 -0.003135 0.000415 0.010998 0.000603 -0.005381 -0.000710
# 4 0.000490 0.002839 0.000603 0.029467 -0.004758 0.003548
# 5 -0.002132 -0.003475 -0.005381 -0.004758 0.024253 -0.004586
# 6 0.000264 0.002934 -0.000710 0.003548 -0.004586 0.025233
#
#
# Mechanical properties :
#
#
# Convention : Reuss Voigt Hill
#
# Bulk Modulus (GPa) = 38.44258 49.85974 44.15116
# Shear Modulus (GPa) = 39.10791 44.37603 41.74197
#
# Velocity S-wave (km/s) = 3.87416 4.12685 4.00250
# Velocity P-wave (km/s) = 5.89626 6.46865 6.18907
#
# Compressibility (1/GPa) = 0.02601282
#
# Stress axis : x y z
#
# Youngs Moduli (GPa) = 94.50847 86.64545 90.92557
#
# Poissons Ratio (x) = 0.07228 0.28505
# Poissons Ratio (y) = 0.07884 -0.03778
# Poissons Ratio (z) = 0.29628 -0.03600
#
# Static dielectric constant tensor:
#      x y z
#    x 3.769250 1.422780 0.863400 
#    y 1.422780 3.100660 -1.103570 
#    z 0.863400 -1.103570 4.115550 
# 
# 
# High freq. dielectric constant tensor:
#      x y z
#    x 2.047040 0.010700 0.014080 
#    y 0.010700 2.065180 0.003680 
#    z 0.014080 0.003680 2.056100 
# 
# From -- ./inp_files/272514.got.cif
#   From: 2010.06.25/outbox.cif.g09.slc.cpg/sg2_137_cif.got.tgz:272514.got - 2010.06.27 13:26:56.
