data_PCOD8034320
_publ_section_title
;
Structure prediction by ZEFSAII (Michael W. Deem and Ramdas Pophale) SiO2 
 PCOD8034320
Probable space group: P -1
;
_chemical_formula_sum "Si O2"
_cell_formula_units_Z 16
_cell_length_a 9.153533
_cell_length_b 8.823129
_cell_length_c 14.969600
_cell_angle_alpha 71.431455
_cell_angle_beta 37.896137
_cell_angle_gamma 71.061362
_cell_volume 698.345934
_symmetry_space_group_name_H-M "P -1"
_symmetry_group_IT_number 2
_symmetry_cell_setting 'triclinic'
loop_
_space_group_symop_operation_xyz
x,y,z
-x,-y,-z
loop_
_atom_site_type_symbol
_atom_site_label
_atom_site_fract_x
_atom_site_fract_y
_atom_site_fract_z
Si Si1 0.285752 0.677758 0.481544
Si Si2 0.601673 0.421226 0.873140
Si Si3 0.575528 0.368848 0.392307
Si Si4 0.792503 0.691581 0.625565
Si Si5 0.167412 0.925348 0.770390
Si Si6 0.880185 0.754676 0.364357
Si Si7 0.626815 0.869167 0.031504
Si Si8 0.509949 0.022582 0.729942
O O1 0.508927 0.553522 0.356322
O O2 0.232199 0.642906 0.618414
O O3 0.337965 0.861094 0.419809
O O4 0.052753 0.640799 0.549598
O O5 0.630047 0.553218 0.757890
O O6 0.410824 0.308054 0.951024
O O7 0.857529 0.312195 0.786498
O O8 0.500000 0.500000 0.000000
O O9 0.654392 0.239949 0.300834
O O10 0.329520 0.326148 0.568534
O O11 0.834326 0.711932 0.497226
O O12 0.671797 0.854422 0.697734
O O13 0.168173 0.052918 0.665156
O O14 0.260688 0.000038 0.803254
O O15 0.904447 0.877726 0.912712
O O16 0.513640 0.897942 0.177229
O O17 0.500000 0.000000 0.000000
#
# Coordination Sequence:
#
# PCOD8034320 Si02
#       8
#     2   2   2   2   2   2   2   2
#     4  11  25  41  71 111 148 182 245 309 366 433
#     4  12  28  49  76 109 149 196 247 302 370 441
#     4  11  24  44  71 108 144 193 238 309 368 431
#     4  12  26  45  77 112 148 192 250 306 368 436
#     4  12  26  48  74 106 152 195 247 299 376 440
#     4  12  23  47  78 106 151 190 244 315 363 433
#     4  12  28  49  73 105 148 201 250 300 366 449
#     4  12  26  47  73 110 148 195 247 304 375 437
#
# _framework density 22.911280999999999
#
# number of rings (size 3 to 8) (size 9 to 14) (size 15 to 20)
#    0.000    0.250    5.000    3.750    5.250    0.000 
#    0.000    1.250    0.000    0.000    0.000    0.000 
#    0.000    0.000    0.000    0.000    0.000    0.000 
#
# Total GULP energy -198337.158882 kJ/mol
# GULP energy per Si atom -12396.072430 kJ/mol
# Density = 2.285913 g / cm^3
# Si number density = 22.911281 Si / 1000 Ang^3
#
#
#
# Elastic Constant Matrix: (Units=GPa)
#
#
# Indices 1 2 3 4 5 6 
#
# 1 104.5548 37.4781 36.8133 -0.5478 17.8399 3.9864
# 2 37.4781 134.4481 28.5799 -12.1887 8.5249 9.6021
# 3 36.8133 28.5799 76.7186 1.4121 6.5689 4.6683
# 4 -0.5478 -12.1887 1.4121 39.3320 2.5468 2.9344
# 5 17.8399 8.5249 6.5689 2.5468 33.0872 5.6954
# 6 3.9864 9.6021 4.6683 2.9344 5.6954 40.2034
#
#
#
# Elastic Compliance Matrix: (Units=1/GPa)
#
#
# Indices 1 2 3 4 5 6 
#
# 1 0.013060 -0.002276 -0.004979 -0.000030 -0.005571 0.000618
# 2 -0.002276 0.008965 -0.002144 0.002995 -0.000577 -0.001803
# 3 -0.004979 -0.002144 0.016275 -0.001272 0.000246 -0.000826
# 4 -0.000030 0.002995 -0.001272 0.026704 -0.002179 -0.002205
# 5 -0.005571 -0.000577 0.000246 -0.002179 0.034187 -0.004022
# 6 0.000618 -0.001803 -0.000826 -0.002205 -0.004022 0.026070
#
#
# Mechanical properties :
#
#
# Convention : Reuss Voigt Hill
#
# Bulk Modulus (GPa) = 51.27425 57.94045 54.60735
# Shear Modulus (GPa) = 33.20974 36.71452 34.96213
#
# Velocity S-wave (km/s) = 3.81135 4.00742 3.91062
# Velocity P-wave (km/s) = 6.46503 6.83787 6.65406
#
# Compressibility (1/GPa) = 0.01950297
#
# Stress axis : x y z
#
# Youngs Moduli (GPa) = 76.56918 111.54719 61.44367
#
# Poissons Ratio (x) = 0.25386 0.30594
# Poissons Ratio (y) = 0.17425 0.13171
# Poissons Ratio (z) = 0.38125 0.23911
#
# Static dielectric constant tensor:
#      x y z
#    x 4.454290 -0.126290 -0.219310 
#    y -0.126290 4.516610 -0.013600 
#    z -0.219310 -0.013600 4.005850 
# 
# 
# High freq. dielectric constant tensor:
#      x y z
#    x 1.923810 0.002110 -0.006820 
#    y 0.002110 1.929640 -0.004740 
#    z -0.006820 -0.004740 1.878250 
# 
# From -- ./inp_files/494568.got.cif
#   From: 2010.06.25/outbox.cif.g09.slc.cpg/sg2_248_cif.got.tgz:494568.got - 2010.06.27 13:26:56.
