data_PCOD8034079
_publ_section_title
;
Structure prediction by ZEFSAII (Michael W. Deem and Ramdas Pophale) SiO2 
 PCOD8034079
Probable space group: P -1
;
_chemical_formula_sum "Si O2"
_cell_formula_units_Z 14
_cell_length_a 7.879103
_cell_length_b 11.298963
_cell_length_c 12.853079
_cell_angle_alpha 53.045752
_cell_angle_beta 108.743365
_cell_angle_gamma 68.832483
_cell_volume 589.521684
_symmetry_space_group_name_H-M "P -1"
_symmetry_group_IT_number 2
_symmetry_cell_setting 'triclinic'
loop_
_space_group_symop_operation_xyz
x,y,z
-x,-y,-z
loop_
_atom_site_type_symbol
_atom_site_label
_atom_site_fract_x
_atom_site_fract_y
_atom_site_fract_z
Si Si1 0.515094 0.672321 0.729930
Si Si2 0.191334 0.990721 0.104467
Si Si3 0.182943 0.619801 0.770996
Si Si4 0.057094 0.045628 0.286914
Si Si5 0.732576 0.990775 0.331053
Si Si6 0.743235 0.670037 0.428638
Si Si7 0.004952 0.581743 0.182797
O O1 0.445183 0.545877 0.820544
O O2 0.811648 0.500423 0.837891
O O3 0.315587 0.850303 0.508037
O O4 0.501076 0.787640 0.767823
O O5 0.491954 0.746924 0.281056
O O6 0.132652 0.037949 0.189675
O O7 0.000000 0.000000 0.000000
O O8 0.164518 0.170763 0.955958
O O9 0.102303 0.719205 0.818847
O O10 0.950129 0.813227 0.550018
O O11 0.200859 0.429921 0.869153
O O12 0.858833 0.026747 0.254435
O O13 0.640131 0.901320 0.299471
O O14 0.798108 0.563672 0.605990
O O15 0.000000 0.500000 0.500000
#
# Coordination Sequence:
#
# PCOD8034079 Si02
#       7
#     2   2   2   2   2   2   2
#     4   9  17  39  72 103 138 173 223 286 358 414
#     4  12  29  45  65 104 140 187 237 285 337 413
#     4   8  18  36  68 106 134 174 226 281 349 419
#     4   9  18  40  66  97 142 179 222 283 346 411
#     4   8  18  37  70 103 130 178 227 284 345 415
#     4  11  26  48  71  96 134 195 238 283 344 403
#     4  11  24  43  72 103 136 178 231 292 343 420
#
# _framework density 23.748066000000001
#
# number of rings (size 3 to 8) (size 9 to 14) (size 15 to 20)
#    0.000    2.286    1.429    1.714    4.000    6.857 
#    2.571    1.429    0.000    0.000    0.000    0.000 
#    0.000    0.000    0.000    0.000    0.000    0.000 
#
# Total GULP energy -173554.352875 kJ/mol
# GULP energy per Si atom -12396.739491 kJ/mol
# Density = 2.369401 g / cm^3
# Si number density = 23.748066 Si / 1000 Ang^3
#
#
#
# Elastic Constant Matrix: (Units=GPa)
#
#
# Indices 1 2 3 4 5 6 
#
# 1 135.4756 60.6687 49.5692 -6.7241 -2.5825 4.3303
# 2 60.6687 93.8161 40.1593 -4.7895 2.3013 12.7830
# 3 49.5692 40.1593 70.9854 -5.0596 0.3375 18.6612
# 4 -6.7241 -4.7895 -5.0596 23.0644 9.4633 5.5043
# 5 -2.5825 2.3013 0.3375 9.4633 34.7512 -10.6535
# 6 4.3303 12.7830 18.6612 5.5043 -10.6535 33.2916
#
#
#
# Elastic Compliance Matrix: (Units=1/GPa)
#
#
# Indices 1 2 3 4 5 6 
#
# 1 0.012479 -0.006109 -0.007124 -0.002359 0.004001 0.006386
# 2 -0.006109 0.017311 -0.003616 0.004338 -0.004589 -0.006011
# 3 -0.007124 -0.003616 0.026358 0.010535 -0.008613 -0.016957
# 4 -0.002359 0.004338 0.010535 0.062475 -0.025470 -0.025744
# 5 0.004001 -0.004589 -0.008613 -0.025470 0.043850 0.024313
# 6 0.006386 -0.006011 -0.016957 -0.025744 0.024313 0.053057
#
#
# Mechanical properties :
#
#
# Convention : Reuss Voigt Hill
#
# Bulk Modulus (GPa) = 44.54560 66.78572 55.66566
# Shear Modulus (GPa) = 19.47720 28.21345 23.84533
#
# Velocity S-wave (km/s) = 2.86695 3.45052 3.17218
# Velocity P-wave (km/s) = 5.45504 6.63765 6.07519
#
# Compressibility (1/GPa) = 0.02244891
#
# Stress axis : x y z
#
# Youngs Moduli (GPa) = 80.13641 57.76774 37.93966
#
# Poissons Ratio (x) = 0.35290 0.27028
# Poissons Ratio (y) = 0.48955 0.13720
# Poissons Ratio (z) = 0.57088 0.20890
#
# Static dielectric constant tensor:
#      x y z
#    x 4.718550 0.435460 -0.204140 
#    y 0.435460 4.495250 -0.011260 
#    z -0.204140 -0.011260 4.286020 
# 
# 
# High freq. dielectric constant tensor:
#      x y z
#    x 1.943160 0.000810 -0.003670 
#    y 0.000810 1.922340 0.006100 
#    z -0.003670 0.006100 1.949930 
# 
# From -- ./inp_files/498875.got.cif
#   From: 2010.06.25/outbox.cif.g09.slc.cpg/sg2_250_cif.got.tgz:498875.got - 2010.06.27 13:26:56.
