data_PCOD8034055
_publ_section_title
;
Structure prediction by ZEFSAII (Michael W. Deem and Ramdas Pophale) SiO2 
 PCOD8034055
Probable space group: P -1
;
_chemical_formula_sum "Si O2"
_cell_formula_units_Z 10
_cell_length_a 15.143169
_cell_length_b 14.858196
_cell_length_c 8.774147
_cell_angle_alpha 140.501625
_cell_angle_beta 139.885129
_cell_angle_gamma 18.402313
_cell_volume 391.156394
_symmetry_space_group_name_H-M "P -1"
_symmetry_group_IT_number 2
_symmetry_cell_setting 'triclinic'
loop_
_space_group_symop_operation_xyz
x,y,z
-x,-y,-z
loop_
_atom_site_type_symbol
_atom_site_label
_atom_site_fract_x
_atom_site_fract_y
_atom_site_fract_z
Si Si1 0.863870 0.045515 0.647897
Si Si2 0.396242 0.150221 0.895618
Si Si3 0.144548 0.412195 0.419695
Si Si4 0.351651 0.501663 0.386192
Si Si5 0.757226 0.371404 0.127882
O O1 0.042752 0.834765 0.462440
O O2 0.974704 0.878589 0.731555
O O3 0.538452 0.292209 0.509351
O O4 0.864332 0.217228 0.901103
O O5 0.097738 0.345454 0.713304
O O6 0.632007 0.905426 0.759105
O O7 0.335346 0.373965 0.099292
O O8 0.500000 0.000000 0.000000
O O9 0.325577 0.389929 0.668827
O O10 0.000000 0.500000 0.500000
O O11 0.500000 0.500000 0.500000
O O12 0.500000 0.500000 0.000000
#
# Coordination Sequence:
#
# PCOD8034055 Si02
#       5
#     2   2   2   2   2
#     4  11  24  43  71 104 138 183 246 288 353 425
#     4  12  27  50  74 106 152 198 243 297 372 448
#     4  12  29  47  76 111 151 189 244 310 374 423
#     4  12  26  43  73 102 144 186 242 295 357 428
#     4  11  25  45  78 102 144 189 243 294 357 443
#
# _framework density 25.565221000000001
#
# number of rings (size 3 to 8) (size 9 to 14) (size 15 to 20)
#    0.000    0.400    2.000    5.400   11.200    0.000 
#    0.000    0.000    0.000    0.000    0.000    0.000 
#    0.000    0.000    0.000    0.000    0.000    0.000 
#
# Total GULP energy -123932.709574 kJ/mol
# GULP energy per Si atom -12393.270957 kJ/mol
# Density = 2.550703 g / cm^3
# Si number density = 25.565221 Si / 1000 Ang^3
#
#
#
# Elastic Constant Matrix: (Units=GPa)
#
#
# Indices 1 2 3 4 5 6 
#
# 1 73.3712 11.4244 60.2083 27.2208 19.3201 -14.6907
# 2 11.4244 116.6177 64.3009 14.9735 2.3994 -13.6056
# 3 60.2083 64.3009 211.6063 46.4523 17.4847 -19.2839
# 4 27.2208 14.9735 46.4523 64.1311 -7.9356 -11.8567
# 5 19.3201 2.3994 17.4847 -7.9356 39.5950 1.3755
# 6 -14.6907 -13.6056 -19.2839 -11.8567 1.3755 28.9050
#
#
#
# Elastic Compliance Matrix: (Units=1/GPa)
#
#
# Indices 1 2 3 4 5 6 
#
# 1 0.024369 0.002068 -0.004114 -0.007866 -0.012052 0.007961
# 2 0.002068 0.010737 -0.003429 -0.000252 -0.000325 0.003730
# 3 -0.004114 -0.003429 0.007853 -0.003332 -0.001929 0.000259
# 4 -0.007866 -0.000252 -0.003332 0.023119 0.009865 0.002675
# 5 -0.012052 -0.000325 -0.001929 0.009865 0.034164 -0.005145
# 6 0.007961 0.003730 0.000259 0.002675 -0.005145 0.041913
#
#
# Mechanical properties :
#
#
# Convention : Reuss Voigt Hill
#
# Bulk Modulus (GPa) = 31.24144 74.82916 53.03530
# Shear Modulus (GPa) = 30.52957 44.23700 37.38329
#
# Velocity S-wave (km/s) = 3.45945 4.16427 3.82811
# Velocity P-wave (km/s) = 5.31073 7.24258 6.35054
#
# Compressibility (1/GPa) = 0.03200877
#
# Stress axis : x y z
#
# Youngs Moduli (GPa) = 41.03539 93.13311 127.34322
#
# Poissons Ratio (x) = -0.19258 0.52388
# Poissons Ratio (y) = -0.08485 0.43667
# Poissons Ratio (z) = 0.16882 0.31936
#
# Static dielectric constant tensor:
#      x y z
#    x 4.121020 0.088860 -0.089650 
#    y 0.088860 5.082610 0.200660 
#    z -0.089650 0.200660 5.654860 
# 
# 
# High freq. dielectric constant tensor:
#      x y z
#    x 1.981810 -0.003150 -0.009180 
#    y -0.003150 2.038210 0.009190 
#    z -0.009180 0.009190 2.058000 
# 
# From -- ./inp_files/129274.got.cif
#   From: 2010.06.25/outbox.cif.g09.slc.cpg/sg2_65_cif.got.tgz:129274.got - 2010.06.27 13:26:56.
