data_PCOD8034760
_publ_section_title
;
Structure prediction by ZEFSAII (Michael W. Deem and Ramdas Pophale) SiO2 
 PCOD8034760
Probable space group: P -1
;
_chemical_formula_sum "Si O2"
_cell_formula_units_Z 16
_cell_length_a 12.240425
_cell_length_b 13.508445
_cell_length_c 11.208891
_cell_angle_alpha 31.872853
_cell_angle_beta 127.525490
_cell_angle_gamma 108.296840
_cell_volume 678.522042
_symmetry_space_group_name_H-M "P -1"
_symmetry_group_IT_number 2
_symmetry_cell_setting 'triclinic'
loop_
_space_group_symop_operation_xyz
x,y,z
-x,-y,-z
loop_
_atom_site_type_symbol
_atom_site_label
_atom_site_fract_x
_atom_site_fract_y
_atom_site_fract_z
Si Si1 0.053664 0.824701 0.561935
Si Si2 0.546889 0.253791 0.800435
Si Si3 0.589113 0.054826 0.607162
Si Si4 0.686618 0.868819 0.117412
Si Si5 0.930264 0.975877 0.856317
Si Si6 0.998964 0.526655 0.331608
Si Si7 0.729965 0.628055 0.870860
Si Si8 0.798859 0.947335 0.440666
O O1 0.084619 0.012323 0.439883
O O2 0.037859 0.866213 0.367547
O O3 0.199952 0.593695 0.927054
O O4 0.897110 0.831976 0.504161
O O5 0.500000 0.500000 0.500000
O O6 0.392291 0.233398 0.744537
O O7 0.651334 0.170152 0.074958
O O8 0.643988 0.102257 0.906497
O O9 0.454109 0.294534 0.308422
O O10 0.500000 0.000000 0.500000
O O11 0.743264 0.056479 0.658575
O O12 0.632562 0.900302 0.910305
O O13 0.871127 0.687871 0.427579
O O14 0.025480 0.732241 0.119928
O O15 0.000000 0.000000 0.000000
O O16 0.000000 0.500000 0.500000
O O17 0.827865 0.591062 0.096579
O O18 0.739908 0.802799 0.614915
#
# Coordination Sequence:
#
# PCOD8034760 Si02
#       8
#     2   2   2   2   2   2   2   2
#     4  11  26  43  70 106 144 192 245 306 375 440
#     4  11  27  45  73 107 148 197 249 311 380 449
#     4  12  24  48  77 105 152 194 250 311 376 454
#     4  11  26  46  73 109 149 197 251 306 383 454
#     4  12  27  46  71 112 151 194 257 309 374 455
#     4  12  23  46  75 106 149 200 242 308 377 449
#     4  12  24  46  76 104 146 193 246 302 377 441
#     4  11  24  46  69 106 147 185 248 307 365 453
#
# _framework density 23.580663999999999
#
# number of rings (size 3 to 8) (size 9 to 14) (size 15 to 20)
#    0.000    0.500    5.000    1.875    5.250    0.500 
#    0.000    0.000    0.000    0.000    0.000    0.000 
#    0.000    0.000    0.000    0.000    0.000    0.000 
#
# Total GULP energy -198320.875108 kJ/mol
# GULP energy per Si atom -12395.054694 kJ/mol
# Density = 2.352699 g / cm^3
# Si number density = 23.580664 Si / 1000 Ang^3
#
#
#
# Elastic Constant Matrix: (Units=GPa)
#
#
# Indices 1 2 3 4 5 6 
#
# 1 100.7433 31.3202 57.9614 -1.8894 10.8426 -13.7742
# 2 31.3202 91.5951 39.1508 -0.3201 -2.1337 -4.4378
# 3 57.9614 39.1508 168.4437 -11.8901 4.3826 -7.8257
# 4 -1.8894 -0.3201 -11.8901 53.6008 -3.9166 -1.5446
# 5 10.8426 -2.1337 4.3826 -3.9166 47.0156 4.2437
# 6 -13.7742 -4.4378 -7.8257 -1.5446 4.2437 30.2229
#
#
#
# Elastic Compliance Matrix: (Units=1/GPa)
#
#
# Indices 1 2 3 4 5 6 
#
# 1 0.014230 -0.003027 -0.003877 -0.000480 -0.003596 0.005517
# 2 -0.003027 0.012836 -0.002018 -0.000378 0.001459 -0.000241
# 3 -0.003877 -0.002018 0.007849 0.001608 0.000203 0.000023
# 4 -0.000480 -0.000378 0.001608 0.019127 0.001454 0.000915
# 5 -0.003596 0.001459 0.000203 0.001454 0.022672 -0.004481
# 6 0.005517 -0.000241 0.000023 0.000915 -0.004481 0.036249
#
#
# Mechanical properties :
#
#
# Convention : Reuss Voigt Hill
#
# Bulk Modulus (GPa) = 58.57556 68.62742 63.60149
# Shear Modulus (GPa) = 36.63102 41.65784 39.14443
#
# Velocity S-wave (km/s) = 3.94564 4.20767 4.07876
# Velocity P-wave (km/s) = 6.75662 7.26446 7.01513
#
# Compressibility (1/GPa) = 0.01707197
#
# Stress axis : x y z
#
# Youngs Moduli (GPa) = 70.27282 77.90567 127.40357
#
# Poissons Ratio (x) = 0.23581 0.49396
# Poissons Ratio (y) = 0.21270 0.25707
# Poissons Ratio (z) = 0.27246 0.15719
#
# Static dielectric constant tensor:
#      x y z
#    x 2.210400 -1.048270 1.046900 
#    y -1.048270 4.073920 0.218460 
#    z 1.046900 0.218460 4.400120 
# 
# 
# High freq. dielectric constant tensor:
#      x y z
#    x 1.930610 -0.011540 0.006830 
#    y -0.011540 1.942880 0.008450 
#    z 0.006830 0.008450 1.946220 
# 
# From -- ./inp_files/433693.got.cif
#   From: 2010.06.25/outbox.cif.g09.slc.cpg/sg2_217_cif.got.tgz:433693.got - 2010.06.27 13:26:56.
