data_PCOD8034030
_publ_section_title
;
Structure prediction by ZEFSAII (Michael W. Deem and Ramdas Pophale) SiO2 
 PCOD8034030
Probable space group: P -1
;
_chemical_formula_sum "Si O2"
_cell_formula_units_Z 14
_cell_length_a 17.264757
_cell_length_b 8.435810
_cell_length_c 14.198545
_cell_angle_alpha 50.723263
_cell_angle_beta 21.556975
_cell_angle_gamma 52.292943
_cell_volume 586.262519
_symmetry_space_group_name_H-M "P -1"
_symmetry_group_IT_number 2
_symmetry_cell_setting 'triclinic'
loop_
_space_group_symop_operation_xyz
x,y,z
-x,-y,-z
loop_
_atom_site_type_symbol
_atom_site_label
_atom_site_fract_x
_atom_site_fract_y
_atom_site_fract_z
Si Si1 0.467401 0.181991 0.201084
Si Si2 0.648154 0.521334 0.174931
Si Si3 0.972550 0.199341 0.023412
Si Si4 0.741142 0.196117 0.473388
Si Si5 0.814339 0.431140 0.672295
Si Si6 0.989588 0.218074 0.378515
Si Si7 0.581007 0.795384 0.539651
O O1 0.356804 0.379008 0.201678
O O2 0.387267 0.142724 0.411778
O O3 0.408236 0.991132 0.277780
O O4 0.717731 0.222490 0.899927
O O5 0.785951 0.369724 0.144675
O O6 0.423075 0.608675 0.441179
O O7 0.586444 0.378399 0.210462
O O8 0.774288 0.715043 0.930234
O O9 0.923299 0.147202 0.207152
O O10 0.197969 0.296012 0.723694
O O11 0.000000 0.000000 0.000000
O O12 0.855633 0.220255 0.433979
O O13 0.881771 0.393182 0.502443
O O14 0.000000 0.500000 0.500000
O O15 0.000000 0.000000 0.500000
O O16 0.500000 0.000000 0.500000
#
# Coordination Sequence:
#
# PCOD8034030 Si02
#       7
#     2   2   2   2   2   2   2
#     4  11  24  43  70 105 138 190 248 298 363 432
#     4  12  26  47  74 109 153 193 245 306 378 435
#     4  12  25  48  75 111 145 191 247 302 370 446
#     4  12  27  46  75 107 155 194 244 306 376 436
#     4  11  24  44  72 102 140 190 248 305 360 428
#     4  12  28  48  72 109 152 199 250 303 370 439
#     4  12  25  45  74 108 146 190 244 303 365 443
#
# _framework density 23.880088000000001
#
# number of rings (size 3 to 8) (size 9 to 14) (size 15 to 20)
#    0.000    0.286    2.857    5.571    0.000   11.429 
#    0.000    0.000    0.000    0.000    0.000    0.000 
#    0.000    0.000    0.000    0.000    0.000    0.000 
#
# Total GULP energy -173554.672252 kJ/mol
# GULP energy per Si atom -12396.762304 kJ/mol
# Density = 2.382574 g / cm^3
# Si number density = 23.880088 Si / 1000 Ang^3
#
#
#
# Elastic Constant Matrix: (Units=GPa)
#
#
# Indices 1 2 3 4 5 6 
#
# 1 157.4325 58.1483 80.2941 -3.6910 -11.1208 15.3493
# 2 58.1483 102.6611 42.1119 -6.3992 -13.8388 4.5063
# 3 80.2941 42.1119 149.1831 -10.5564 -13.8506 13.3188
# 4 -3.6910 -6.3992 -10.5564 48.8426 10.9498 -8.2149
# 5 -11.1208 -13.8388 -13.8506 10.9498 42.7814 -3.0014
# 6 15.3493 4.5063 13.3188 -8.2149 -3.0014 43.1933
#
#
#
# Elastic Compliance Matrix: (Units=1/GPa)
#
#
# Indices 1 2 3 4 5 6 
#
# 1 0.010164 -0.003983 -0.004224 -0.001041 0.000106 -0.002084
# 2 -0.003983 0.012877 -0.001271 0.000657 0.002604 0.000770
# 3 -0.004224 -0.001271 0.009623 0.001143 0.001242 -0.001030
# 4 -0.001041 0.000657 0.001143 0.022543 -0.005186 0.003876
# 5 0.000106 0.002604 0.001242 -0.005186 0.025983 0.000127
# 6 -0.002084 0.000770 -0.001030 0.003876 0.000127 0.024876
#
#
# Mechanical properties :
#
#
# Convention : Reuss Voigt Hill
#
# Bulk Modulus (GPa) = 72.95514 85.59838 79.27676
# Shear Modulus (GPa) = 38.58285 42.21162 40.39723
#
# Velocity S-wave (km/s) = 4.02393 4.20890 4.11745
# Velocity P-wave (km/s) = 7.22539 7.71639 7.47492
#
# Compressibility (1/GPa) = 0.01370705
#
# Stress axis : x y z
#
# Youngs Moduli (GPa) = 98.38980 77.65950 103.91290
#
# Poissons Ratio (x) = 0.30934 0.43889
# Poissons Ratio (y) = 0.39192 0.13212
# Poissons Ratio (z) = 0.41556 0.09874
#
# Static dielectric constant tensor:
#      x y z
#    x 4.101190 0.181230 -0.178450 
#    y 0.181230 4.350550 -0.047500 
#    z -0.178450 -0.047500 4.548910 
# 
# 
# High freq. dielectric constant tensor:
#      x y z
#    x 1.939880 0.010960 -0.014390 
#    y 0.010960 1.959240 -0.006770 
#    z -0.014390 -0.006770 1.962620 
# 
# From -- ./inp_files/27293.got.cif
#   From: 2010.06.25/outbox.cif.g09.slc.cpg/sg2_14_cif.got.tgz:27293.got - 2010.06.27 13:26:56.
