data_PCOD8034377
_publ_section_title
;
Structure prediction by ZEFSAII (Michael W. Deem and Ramdas Pophale) SiO2 
 PCOD8034377
Probable space group: P -1
;
_chemical_formula_sum "Si O2"
_cell_formula_units_Z 14
_cell_length_a 8.791341
_cell_length_b 9.804676
_cell_length_c 11.032438
_cell_angle_alpha 116.151542
_cell_angle_beta 102.966677
_cell_angle_gamma 118.699275
_cell_volume 623.442886
_symmetry_space_group_name_H-M "P -1"
_symmetry_group_IT_number 2
_symmetry_cell_setting 'triclinic'
loop_
_space_group_symop_operation_xyz
x,y,z
-x,-y,-z
loop_
_atom_site_type_symbol
_atom_site_label
_atom_site_fract_x
_atom_site_fract_y
_atom_site_fract_z
Si Si1 0.407031 0.100536 0.873300
Si Si2 0.393882 0.069082 0.440927
Si Si3 0.227760 0.167430 0.653419
Si Si4 0.923890 0.294024 0.195339
Si Si5 0.652567 0.457869 0.498579
Si Si6 0.837483 0.261612 0.909129
Si Si7 0.708563 0.454762 0.229247
O O1 0.259896 0.104591 0.762051
O O2 0.603433 0.172671 0.857023
O O3 0.267180 0.876998 0.818499
O O4 0.488979 0.249194 0.061090
O O5 0.183587 0.871789 0.258711
O O6 0.500000 0.000000 0.500000
O O7 0.366981 0.187465 0.578484
O O8 0.546828 0.232118 0.429369
O O9 0.265753 0.368738 0.764274
O O10 0.000000 0.000000 0.500000
O O11 0.898485 0.460492 0.236672
O O12 0.141736 0.381919 0.322512
O O13 0.912198 0.219515 0.027020
O O14 0.500000 0.500000 0.500000
O O15 0.719044 0.487238 0.385195
O O16 0.000000 0.500000 0.000000
#
# Coordination Sequence:
#
# PCOD8034377 Si02
#       7
#     2   2   2   2   2   2   2
#     4  11  24  47  72 102 140 186 236 281 340 419
#     4  12  25  45  72  98 142 182 231 290 344 413
#     4  12  27  43  67 105 140 184 233 280 348 411
#     4  11  25  46  76 101 137 188 235 280 346 418
#     4  12  25  46  69 106 140 176 233 292 347 405
#     4  11  24  44  73 106 135 178 237 287 345 406
#     4  11  24  45  71  99 139 182 230 286 343 414
#
# _framework density 22.455946000000001
#
# number of rings (size 3 to 8) (size 9 to 14) (size 15 to 20)
#    0.000    0.571    2.857    6.000    6.000    0.000 
#    2.571    1.429    0.000    0.000    0.000    0.000 
#    0.000    0.000    0.000    0.000    0.000    0.000 
#
# Total GULP energy -173574.563660 kJ/mol
# GULP energy per Si atom -12398.183119 kJ/mol
# Density = 2.240484 g / cm^3
# Si number density = 22.455946 Si / 1000 Ang^3
#
#
#
# Elastic Constant Matrix: (Units=GPa)
#
#
# Indices 1 2 3 4 5 6 
#
# 1 82.4664 27.8775 38.6873 0.5939 19.0852 -17.5518
# 2 27.8775 123.6396 34.0365 -0.6792 10.5957 -8.2950
# 3 38.6873 34.0365 146.9169 -17.1845 20.5001 -18.2929
# 4 0.5939 -0.6792 -17.1845 53.4651 -3.3440 5.4566
# 5 19.0852 10.5957 20.5001 -3.3440 40.4887 1.9713
# 6 -17.5518 -8.2950 -18.2929 5.4566 1.9713 34.1009
#
#
#
# Elastic Compliance Matrix: (Units=1/GPa)
#
#
# Indices 1 2 3 4 5 6 
#
# 1 0.017246 -0.002129 -0.002361 -0.002213 -0.006941 0.007847
# 2 -0.002129 0.009049 -0.001432 -0.000410 -0.000695 0.000443
# 3 -0.002361 -0.001432 0.008811 0.002356 -0.002923 0.002955
# 4 -0.002213 -0.000410 0.002356 0.019924 0.001762 -0.003265
# 5 -0.006941 -0.000695 -0.002923 0.001762 0.030135 -0.007334
# 6 0.007847 0.000443 0.002955 -0.003265 -0.007334 0.036003
#
#
# Mechanical properties :
#
#
# Convention : Reuss Voigt Hill
#
# Bulk Modulus (GPa) = 42.98751 61.58063 52.28407
# Shear Modulus (GPa) = 35.51963 42.43904 38.97934
#
# Velocity S-wave (km/s) = 3.98143 4.35199 4.17083
# Velocity P-wave (km/s) = 6.34983 7.26192 6.82114
#
# Compressibility (1/GPa) = 0.02326257
#
# Stress axis : x y z
#
# Youngs Moduli (GPa) = 57.98346 110.50606 113.48974
#
# Poissons Ratio (x) = 0.23531 0.26798
# Poissons Ratio (y) = 0.12347 0.16247
# Poissons Ratio (z) = 0.13691 0.15820
#
# Static dielectric constant tensor:
#      x y z
#    x 4.318690 0.212490 -0.595790 
#    y 0.212490 3.410940 -0.778220 
#    z -0.595790 -0.778220 4.721160 
# 
# 
# High freq. dielectric constant tensor:
#      x y z
#    x 1.866370 -0.000670 0.001600 
#    y -0.000670 1.900030 -0.012810 
#    z 0.001600 -0.012810 1.905760 
# 
# From -- ./inp_files/157900.got.cif
#   From: 2010.06.25/outbox.cif.g09.slc.cpg/sg2_79_cif.got.tgz:157900.got - 2010.06.27 13:26:56.
