data_PCOD8034695
_publ_section_title
;
Structure prediction by ZEFSAII (Michael W. Deem and Ramdas Pophale) SiO2 
 PCOD8034695
Probable space group: P -1
;
_chemical_formula_sum "Si O2"
_cell_formula_units_Z 16
_cell_length_a 16.440363
_cell_length_b 11.373552
_cell_length_c 9.007464
_cell_angle_alpha 129.328857
_cell_angle_beta 55.893575
_cell_angle_gamma 148.851003
_cell_volume 673.192356
_symmetry_space_group_name_H-M "P -1"
_symmetry_group_IT_number 2
_symmetry_cell_setting 'triclinic'
loop_
_space_group_symop_operation_xyz
x,y,z
-x,-y,-z
loop_
_atom_site_type_symbol
_atom_site_label
_atom_site_fract_x
_atom_site_fract_y
_atom_site_fract_z
Si Si1 0.803651 0.692934 0.292188
Si Si2 0.113871 0.926267 0.285130
Si Si3 0.282148 0.420753 0.047831
Si Si4 0.986272 0.708832 0.745921
Si Si5 0.556888 0.964709 0.280785
Si Si6 0.742635 0.900495 0.028746
Si Si7 0.827238 0.221305 0.645050
Si Si8 0.471721 0.850899 0.777238
O O1 0.791607 0.707547 0.139972
O O2 0.634337 0.421493 0.293764
O O3 0.944075 0.749514 0.243007
O O4 0.832981 0.887056 0.498287
O O5 0.113767 0.764520 0.241726
O O6 0.249513 0.089844 0.150216
O O7 0.352158 0.359076 0.015043
O O8 0.144470 0.333053 0.217415
O O9 0.422463 0.710769 0.125933
O O10 0.895257 0.468318 0.737663
O O11 0.101885 0.803031 0.571648
O O12 0.083987 0.915095 0.935959
O O13 0.683272 0.992075 0.225252
O O14 0.500000 0.000000 0.500000
O O15 0.627438 0.171615 0.259582
O O16 0.637372 0.992931 0.652757
O O17 0.500000 0.000000 0.000000
#
# Coordination Sequence:
#
# PCOD8034695 Si02
#       8
#     2   2   2   2   2   2   2   2
#     4  11  26  47  74 105 149 195 237 305 364 430
#     4  11  27  45  72 112 144 189 249 301 360 426
#     4  12  25  51  73 104 151 195 241 297 374 436
#     4  11  24  45  75 104 143 195 241 301 360 438
#     4  12  28  47  72 110 145 188 246 303 362 430
#     4  12  27  45  73 108 146 193 243 301 363 431
#     4  11  25  45  72 108 143 189 249 296 368 430
#     4  12  24  48  73 102 148 194 243 301 369 433
#
# _framework density 23.767354000000001
#
# number of rings (size 3 to 8) (size 9 to 14) (size 15 to 20)
#    0.000    0.500    3.750    3.000    8.750    1.000 
#    2.250    0.000    0.000    0.000    0.000    0.000 
#    0.000    0.000    0.000    0.000    0.000    0.000 
#
# Total GULP energy -198334.279430 kJ/mol
# GULP energy per Si atom -12395.892464 kJ/mol
# Density = 2.371326 g / cm^3
# Si number density = 23.767354 Si / 1000 Ang^3
#
#
#
# Elastic Constant Matrix: (Units=GPa)
#
#
# Indices 1 2 3 4 5 6 
#
# 1 136.8489 31.7905 30.5039 -22.8544 -3.9598 -23.4548
# 2 31.7905 85.7615 35.6020 -15.0812 -1.8462 -1.8352
# 3 30.5039 35.6020 87.0827 -15.8287 5.3458 -13.0873
# 4 -22.8544 -15.0812 -15.8287 31.5488 6.4546 5.7053
# 5 -3.9598 -1.8462 5.3458 6.4546 42.5789 -2.9631
# 6 -23.4548 -1.8352 -13.0873 5.7053 -2.9631 40.6394
#
#
#
# Elastic Compliance Matrix: (Units=1/GPa)
#
#
# Indices 1 2 3 4 5 6 
#
# 1 0.009584 -0.002256 -0.000982 0.004438 0.000559 0.004531
# 2 -0.002256 0.015229 -0.005252 0.003428 0.000398 -0.002758
# 3 -0.000982 -0.005252 0.015458 0.004482 -0.002706 0.003348
# 4 0.004438 0.003428 0.004482 0.040439 -0.006269 -0.001974
# 5 0.000559 0.000398 -0.002706 -0.006269 0.024996 0.002172
# 6 0.004531 -0.002758 0.003348 -0.001974 0.002172 0.028611
#
#
# Mechanical properties :
#
#
# Convention : Reuss Voigt Hill
#
# Bulk Modulus (GPa) = 42.93082 56.16510 49.54796
# Shear Modulus (GPa) = 31.43461 37.07321 34.25391
#
# Velocity S-wave (km/s) = 3.64070 3.95376 3.80045
# Velocity P-wave (km/s) = 5.98122 6.67274 6.33642
#
# Compressibility (1/GPa) = 0.02329329
#
# Stress axis : x y z
#
# Youngs Moduli (GPa) = 104.33912 65.66460 64.69038
#
# Poissons Ratio (x) = 0.14812 0.06350
# Poissons Ratio (y) = 0.23536 0.33973
# Poissons Ratio (z) = 0.10242 0.34485
#
# Static dielectric constant tensor:
#      x y z
#    x 4.023700 0.092540 -0.191470 
#    y 0.092540 4.250570 -0.037520 
#    z -0.191470 -0.037520 4.159130 
# 
# 
# High freq. dielectric constant tensor:
#      x y z
#    x 1.956100 -0.008080 -0.003660 
#    y -0.008080 1.943600 -0.004930 
#    z -0.003660 -0.004930 1.943550 
# 
# From -- ./inp_files/333721.got.cif
#   From: 2010.06.25/outbox.cif.g09.slc.cpg/sg2_167_cif.got.tgz:333721.got - 2010.06.27 13:26:56.
