data_PCOD8034532
_publ_section_title
;
Structure prediction by ZEFSAII (Michael W. Deem and Ramdas Pophale) SiO2 
 PCOD8034532
Probable space group: P -1
;
_chemical_formula_sum "Si O2"
_cell_formula_units_Z 16
_cell_length_a 16.923387
_cell_length_b 8.448856
_cell_length_c 10.868215
_cell_angle_alpha 123.670562
_cell_angle_beta 31.917951
_cell_angle_gamma 121.765822
_cell_volume 678.229380
_symmetry_space_group_name_H-M "P -1"
_symmetry_group_IT_number 2
_symmetry_cell_setting 'triclinic'
loop_
_space_group_symop_operation_xyz
x,y,z
-x,-y,-z
loop_
_atom_site_type_symbol
_atom_site_label
_atom_site_fract_x
_atom_site_fract_y
_atom_site_fract_z
Si Si1 0.609502 0.805377 0.836578
Si Si2 0.175910 0.260307 0.270948
Si Si3 0.639600 0.505735 0.066035
Si Si4 0.484782 0.288327 0.485021
Si Si5 0.086240 0.588406 0.192936
Si Si6 0.349328 0.973930 0.360638
Si Si7 0.090174 0.819739 0.804216
Si Si8 0.199287 0.851699 0.949036
O O1 0.752263 0.742077 0.689449
O O2 0.513194 0.635004 0.816414
O O3 0.677788 0.970997 0.722272
O O4 0.503900 0.878479 0.114038
O O5 0.008715 0.313202 0.536200
O O6 0.270630 0.435969 0.150903
O O7 0.171084 0.065493 0.116216
O O8 0.589841 0.697432 0.275862
O O9 0.743911 0.399643 0.974519
O O10 0.500000 0.500000 0.500000
O O11 0.364484 0.160936 0.505659
O O12 0.632728 0.186619 0.258879
O O13 0.023251 0.369442 0.154361
O O14 0.086414 0.705443 0.116061
O O15 0.211958 0.831444 0.537237
O O16 0.169037 0.809754 0.827710
O O17 0.000000 0.000000 0.000000
#
# Coordination Sequence:
#
# PCOD8034532 Si02
#       8
#     2   2   2   2   2   2   2   2
#     4  11  25  44  74 106 141 190 236 299 356 431
#     4  12  27  46  74 112 146 189 247 300 361 437
#     4  12  26  47  76 106 148 188 244 298 372 424
#     4  12  23  45  75 104 141 189 243 301 360 429
#     4  12  27  50  72 108 149 195 240 298 370 437
#     4  11  24  45  70 104 144 184 240 294 361 425
#     4  12  29  47  74 108 148 192 245 304 363 436
#     4  12  27  48  76 107 144 197 245 299 369 433
#
# _framework density 23.590838000000002
#
# number of rings (size 3 to 8) (size 9 to 14) (size 15 to 20)
#    0.000    0.250    3.750    4.500    7.000    2.000 
#    0.000    0.000    0.000    0.000    0.000    0.000 
#    0.000    0.000    0.000    0.000    0.000    0.000 
#
# Total GULP energy -198454.727282 kJ/mol
# GULP energy per Si atom -12403.420455 kJ/mol
# Density = 2.353714 g / cm^3
# Si number density = 23.590838 Si / 1000 Ang^3
#
#
#
# Elastic Constant Matrix: (Units=GPa)
#
#
# Indices 1 2 3 4 5 6 
#
# 1 73.7603 15.3716 9.5192 2.4371 11.6753 1.9050
# 2 15.3716 85.2372 16.9609 3.8874 8.9249 2.0394
# 3 9.5192 16.9609 117.9666 11.0904 18.8605 -2.3267
# 4 2.4371 3.8874 11.0904 46.0466 -9.8618 11.0589
# 5 11.6753 8.9249 18.8605 -9.8618 34.5049 -3.0902
# 6 1.9050 2.0394 -2.3267 11.0589 -3.0902 41.1369
#
#
#
# Elastic Compliance Matrix: (Units=1/GPa)
#
#
# Indices 1 2 3 4 5 6 
#
# 1 0.014842 -0.002076 0.000036 -0.001560 -0.004999 -0.000538
# 2 -0.002076 0.012640 -0.001203 -0.001031 -0.002248 -0.000490
# 3 0.000036 -0.001203 0.010033 -0.003937 -0.006201 0.001218
# 4 -0.001560 -0.001031 -0.003937 0.026522 0.009947 -0.006482
# 5 -0.004999 -0.002248 -0.006201 0.009947 0.037499 0.000135
# 6 -0.000538 -0.000490 0.001218 -0.006482 0.000135 0.026180
#
#
# Mechanical properties :
#
#
# Convention : Reuss Voigt Hill
#
# Bulk Modulus (GPa) = 32.22884 40.07418 36.15151
# Shear Modulus (GPa) = 34.59131 40.01185 37.30158
#
# Velocity S-wave (km/s) = 3.83339 4.12281 3.98073
# Velocity P-wave (km/s) = 5.76926 6.29980 6.04036
#
# Compressibility (1/GPa) = 0.03102811
#
# Stress axis : x y z
#
# Youngs Moduli (GPa) = 67.37549 79.11437 99.67438
#
# Poissons Ratio (x) = 0.16427 -0.00360
# Poissons Ratio (y) = 0.13990 0.11992
# Poissons Ratio (z) = -0.00244 0.09519
#
# Static dielectric constant tensor:
#      x y z
#    x 4.330590 -0.122340 0.229940 
#    y -0.122340 4.227900 0.020010 
#    z 0.229940 0.020010 4.576370 
# 
# 
# High freq. dielectric constant tensor:
#      x y z
#    x 1.935680 -0.003430 0.011570 
#    y -0.003430 1.940160 0.001770 
#    z 0.011570 0.001770 1.950380 
# 
# From -- ./inp_files/462405.got.cif
#   From: 2010.06.25/outbox.cif.g09.slc.cpg/sg2_232_cif.got.tgz:462405.got - 2010.06.27 13:26:56.
