data_PCOD8034012
_publ_section_title
;
Structure prediction by ZEFSAII (Michael W. Deem and Ramdas Pophale) SiO2 
 PCOD8034012
Probable space group: P -1
;
_chemical_formula_sum "Si O2"
_cell_formula_units_Z 16
_cell_length_a 13.218406
_cell_length_b 22.632270
_cell_length_c 22.698500
_cell_angle_alpha 12.499719
_cell_angle_beta 149.464100
_cell_angle_gamma 149.974810
_cell_volume 727.316188
_symmetry_space_group_name_H-M "P -1"
_symmetry_group_IT_number 2
_symmetry_cell_setting 'triclinic'
loop_
_space_group_symop_operation_xyz
x,y,z
-x,-y,-z
loop_
_atom_site_type_symbol
_atom_site_label
_atom_site_fract_x
_atom_site_fract_y
_atom_site_fract_z
Si Si1 0.642304 0.415063 0.604100
Si Si2 0.296648 0.617849 0.915669
Si Si3 0.244663 0.072839 0.167729
Si Si4 0.809384 0.501061 0.363512
Si Si5 0.946765 0.966808 0.662983
Si Si6 0.343726 0.094081 0.668485
Si Si7 0.084405 0.011231 0.818308
Si Si8 0.597169 0.439025 0.844798
O O1 0.500000 0.500000 0.500000
O O2 0.509368 0.255797 0.639823
O O3 0.782439 0.698312 0.371419
O O4 0.782393 0.222554 0.889825
O O5 0.524618 0.752358 0.877100
O O6 0.146869 0.811219 0.634871
O O7 0.220530 0.322048 0.133118
O O8 0.281193 0.564865 0.029606
O O9 0.243728 0.755860 0.458680
O O10 0.140898 0.211906 0.927870
O O11 0.119151 0.090130 0.147013
O O12 0.620341 0.488159 0.324412
O O13 0.000000 0.500000 0.500000
O O14 0.142230 0.925602 0.764441
O O15 0.018011 0.079928 0.652992
O O16 0.282434 0.316073 0.376041
O O17 0.440608 0.866542 0.905539
#
# Coordination Sequence:
#
# PCOD8034012 Si02
#       8
#     2   2   2   2   2   2   2   2
#     4  12  26  46  70  99 149 179 216 293 338 402
#     4  11  25  47  69  95 143 177 230 292 331 387
#     4  11  25  46  68 102 137 178 226 285 339 401
#     4  11  24  43  69  98 140 180 227 276 338 407
#     4  12  26  44  72  99 133 186 232 282 336 402
#     4  12  26  42  71 104 137 180 230 271 350 412
#     4  12  27  45  72 106 136 180 233 274 348 412
#     4  11  25  44  68 102 139 179 226 282 339 408
#
# _framework density 21.998687
#
# number of rings (size 3 to 8) (size 9 to 14) (size 15 to 20)
#    0.000    0.500    1.250    7.500    7.000    4.000 
#    0.000    0.000    0.000    0.000    0.000    0.000 
#    0.000    0.000    0.000    0.000    0.000    0.000 
#
# Total GULP energy -198519.252812 kJ/mol
# GULP energy per Si atom -12407.453301 kJ/mol
# Density = 2.194862 g / cm^3
# Si number density = 21.998687 Si / 1000 Ang^3
#
#
#
# Elastic Constant Matrix: (Units=GPa)
#
#
# Indices 1 2 3 4 5 6 
#
# 1 116.8380 44.8447 28.7070 8.0304 -1.0627 2.5410
# 2 44.8447 109.6554 36.5455 0.8624 12.8636 11.0001
# 3 28.7070 36.5455 106.2454 -3.0160 13.2746 -2.2654
# 4 8.0304 0.8624 -3.0160 44.4119 -2.6570 -5.6773
# 5 -1.0627 12.8636 13.2746 -2.6570 39.4655 -3.1137
# 6 2.5410 11.0001 -2.2654 -5.6773 -3.1137 22.8885
#
#
#
# Elastic Compliance Matrix: (Units=1/GPa)
#
#
# Indices 1 2 3 4 5 6 
#
# 1 0.010689 -0.004048 -0.001803 -0.001795 0.002127 0.000425
# 2 -0.004048 0.012933 -0.003037 -0.000828 -0.003895 -0.006802
# 3 -0.001803 -0.003037 0.011363 0.001357 -0.002571 0.002771
# 4 -0.001795 -0.000828 0.001357 0.023951 0.001925 0.006934
# 5 0.002127 -0.003895 -0.002571 0.001925 0.028108 0.005683
# 6 0.000425 -0.006802 0.002771 0.006934 0.005683 0.049679
#
#
# Mechanical properties :
#
#
# Convention : Reuss Voigt Hill
#
# Bulk Modulus (GPa) = 58.11093 61.43704 59.77398
# Shear Modulus (GPa) = 31.20404 36.19597 33.70000
#
# Velocity S-wave (km/s) = 3.77032 4.06072 3.91821
# Velocity P-wave (km/s) = 6.73993 7.06924 6.90655
#
# Compressibility (1/GPa) = 0.01720847
#
# Stress axis : x y z
#
# Youngs Moduli (GPa) = 93.55162 77.32177 88.00732
#
# Poissons Ratio (x) = 0.31303 0.15870
# Poissons Ratio (y) = 0.37874 0.26724
# Poissons Ratio (z) = 0.16870 0.23479
#
# Static dielectric constant tensor:
#      x y z
#    x 3.963360 0.051270 -0.061820 
#    y 0.051270 3.975590 -0.037270 
#    z -0.061820 -0.037270 4.269290 
# 
# 
# High freq. dielectric constant tensor:
#      x y z
#    x 1.867820 0.002900 -0.001390 
#    y 0.002900 1.870830 -0.000880 
#    z -0.001390 -0.000880 1.887550 
# 
# From -- ./inp_files/612391.got.cif
#   From: 2010.06.25/outbox.cif.g09.slc.cpg/sg2_307_cif.got.tgz:612391.got - 2010.06.27 13:26:56.
