data_PCOD8034457
_publ_section_title
;
Structure prediction by ZEFSAII (Michael W. Deem and Ramdas Pophale) SiO2 
 PCOD8034457
Probable space group: P -1
;
_chemical_formula_sum "Si O2"
_cell_formula_units_Z 12
_cell_length_a 26.036972
_cell_length_b 16.088851
_cell_length_c 14.847220
_cell_angle_alpha 153.763703
_cell_angle_beta 162.808297
_cell_angle_gamma 17.352608
_cell_volume 540.431194
_symmetry_space_group_name_H-M "P -1"
_symmetry_group_IT_number 2
_symmetry_cell_setting 'triclinic'
loop_
_space_group_symop_operation_xyz
x,y,z
-x,-y,-z
loop_
_atom_site_type_symbol
_atom_site_label
_atom_site_fract_x
_atom_site_fract_y
_atom_site_fract_z
Si Si1 0.259139 0.996999 0.997783
Si Si2 0.787576 0.695083 0.205561
Si Si3 0.748165 0.412303 0.424482
Si Si4 0.514799 0.878819 0.615025
Si Si5 0.978000 0.532241 0.814589
Si Si6 0.022785 0.204881 0.229674
O O1 0.025799 0.178358 0.711535
O O2 0.355629 0.707445 0.897397
O O3 0.490337 0.938126 0.284371
O O4 0.161398 0.162714 0.089895
O O5 0.956224 0.509703 0.220415
O O6 0.936753 0.743364 0.553253
O O7 0.774276 0.513285 0.067364
O O8 0.500000 0.000000 0.000000
O O9 0.539580 0.669219 0.393977
O O10 0.782835 0.516966 0.496392
O O11 0.258882 0.076529 0.437344
O O12 0.754925 0.710001 0.919884
O O13 0.000000 0.000000 0.000000
#
# Coordination Sequence:
#
# PCOD8034457 Si02
#       6
#     2   2   2   2   2   2
#     4   8  15  29  55  89 120 158 194 249 308 369
#     4  11  24  45  66  89 126 171 212 263 315 365
#     4   8  15  28  54  91 120 152 199 246 310 370
#     4   9  17  35  58  86 126 158 198 256 308 363
#     4   9  17  34  59  89 121 156 206 251 305 371
#     4  11  26  44  63  94 127 166 216 262 312 372
#
# _framework density 22.204491999999998
#
# number of rings (size 3 to 8) (size 9 to 14) (size 15 to 20)
#    0.000    2.667    1.667    2.000    0.000    4.667 
#    6.000    3.333    0.000    6.000    0.000    0.000 
#    0.000    0.000    0.000    0.000    0.000    0.000 
#
# Total GULP energy -148759.202036 kJ/mol
# GULP energy per Si atom -12396.600170 kJ/mol
# Density = 2.215395 g / cm^3
# Si number density = 22.204492 Si / 1000 Ang^3
#
#
#
# Elastic Constant Matrix: (Units=GPa)
#
#
# Indices 1 2 3 4 5 6 
#
# 1 140.4616 55.9299 45.6960 26.6419 -4.4551 -16.2832
# 2 55.9299 114.3060 58.0388 48.3435 -3.6487 3.2453
# 3 45.6960 58.0388 83.0944 36.5037 7.2107 -6.2999
# 4 26.6419 48.3435 36.5037 46.6068 -3.5786 4.5625
# 5 -4.4551 -3.6487 7.2107 -3.5786 21.0077 -1.4682
# 6 -16.2832 3.2453 -6.2999 4.5625 -1.4682 40.9387
#
#
#
# Elastic Compliance Matrix: (Units=1/GPa)
#
#
# Indices 1 2 3 4 5 6 
#
# 1 0.010001 -0.003331 -0.003159 0.000058 0.002906 0.003854
# 2 -0.003331 0.019013 -0.006410 -0.012374 0.002524 -0.002349
# 3 -0.003159 -0.006410 0.025155 -0.012590 -0.012276 0.004085
# 4 0.000058 -0.012374 -0.012590 0.045403 0.009524 -0.005652
# 5 0.002906 0.002524 -0.012276 0.009524 0.054490 -0.000041
# 6 0.003854 -0.002349 0.004085 -0.005652 -0.000041 0.027403
#
#
# Mechanical properties :
#
#
# Convention : Reuss Voigt Hill
#
# Bulk Modulus (GPa) = 35.24845 73.02126 54.13485
# Shear Modulus (GPa) = 23.07120 33.59047 28.33084
#
# Velocity S-wave (km/s) = 3.22690 3.89366 3.57586
# Velocity P-wave (km/s) = 5.45828 7.29187 6.44066
#
# Compressibility (1/GPa) = 0.02837004
#
# Stress axis : x y z
#
# Youngs Moduli (GPa) = 99.98711 52.59494 39.75411
#
# Poissons Ratio (x) = 0.17518 0.12558
# Poissons Ratio (y) = 0.33304 0.25481
# Poissons Ratio (z) = 0.31586 0.33712
#
# Static dielectric constant tensor:
#      x y z
#    x 4.143130 0.085540 0.007200 
#    y 0.085540 4.300610 0.165480 
#    z 0.007200 0.165480 4.040480 
# 
# 
# High freq. dielectric constant tensor:
#      x y z
#    x 1.880410 0.005500 -0.018450 
#    y 0.005500 1.890710 -0.003190 
#    z -0.018450 -0.003190 1.859340 
# 
# From -- ./inp_files/251312.got.cif
#   From: 2010.06.25/outbox.cif.g09.slc.cpg/sg2_126_cif.got.tgz:251312.got - 2010.06.27 13:26:56.
