data_PCOD8034200
_publ_section_title
;
Structure prediction by ZEFSAII (Michael W. Deem and Ramdas Pophale) SiO2 
 PCOD8034200
Probable space group: P -1
;
_chemical_formula_sum "Si O2"
_cell_formula_units_Z 16
_cell_length_a 6.524297
_cell_length_b 25.254950
_cell_length_c 12.400114
_cell_angle_alpha 31.228982
_cell_angle_beta 131.862576
_cell_angle_gamma 134.368847
_cell_volume 743.854686
_symmetry_space_group_name_H-M "P -1"
_symmetry_group_IT_number 2
_symmetry_cell_setting 'triclinic'
loop_
_space_group_symop_operation_xyz
x,y,z
-x,-y,-z
loop_
_atom_site_type_symbol
_atom_site_label
_atom_site_fract_x
_atom_site_fract_y
_atom_site_fract_z
Si Si1 0.342688 0.234581 0.859460
Si Si2 0.699275 0.407799 0.521517
Si Si3 0.762962 0.996020 0.837155
Si Si4 0.423341 0.736658 0.882772
Si Si5 0.598275 0.846980 0.527914
Si Si6 0.178755 0.915153 0.514416
Si Si7 0.196976 0.698366 0.475452
Si Si8 0.824231 0.506475 0.821809
O O1 0.585849 0.337322 0.712137
O O2 0.017835 0.230562 0.721381
O O3 0.417103 0.129853 0.027377
O O4 0.341294 0.233853 0.990160
O O5 0.730913 0.329990 0.570932
O O6 0.459726 0.460804 0.307169
O O7 0.000000 0.500000 0.500000
O O8 0.549830 0.061096 0.680842
O O9 0.939027 0.051546 0.695883
O O10 0.000000 0.000000 0.000000
O O11 0.562358 0.774626 0.748527
O O12 0.182790 0.793443 0.720686
O O13 0.272078 0.609941 0.062710
O O14 0.483012 0.768151 0.521475
O O15 0.942929 0.913470 0.524956
O O16 0.500000 0.000000 0.500000
O O17 0.039447 0.585900 0.675236
O O18 0.000000 0.500000 0.000000
#
# Coordination Sequence:
#
# PCOD8034200 Si02
#       8
#     2   2   2   2   2   2   2   2
#     4  11  24  46  71  98 138 180 222 284 339 403
#     4  11  26  44  68 102 139 181 232 280 339 412
#     4  11  24  45  67 100 135 173 226 279 342 402
#     4  11  24  45  69  99 137 180 227 276 347 405
#     4  11  26  42  72 102 136 178 228 282 342 407
#     4  11  26  47  65  99 137 178 224 283 337 402
#     4  11  24  44  71 103 135 177 229 282 342 402
#     4  11  24  44  68 100 141 177 224 290 340 399
#
# _framework density 21.509577
#
# number of rings (size 3 to 8) (size 9 to 14) (size 15 to 20)
#    0.000    1.000    3.750    1.500    3.500    9.000 
#    2.250    0.000    0.000    0.000    0.000    0.000 
#    0.000    0.000    0.000    0.000    0.000    0.000 
#
# Total GULP energy -198362.995930 kJ/mol
# GULP energy per Si atom -12397.687246 kJ/mol
# Density = 2.146062 g / cm^3
# Si number density = 21.509577 Si / 1000 Ang^3
#
#
#
# Elastic Constant Matrix: (Units=GPa)
#
#
# Indices 1 2 3 4 5 6 
#
# 1 113.0536 51.8864 45.3546 1.1531 -4.7152 3.7487
# 2 51.8864 124.8330 45.4045 -1.3059 0.0689 -7.8673
# 3 45.3546 45.4045 135.9277 -0.7949 0.1688 -0.2422
# 4 1.1531 -1.3059 -0.7949 44.6007 -15.8585 0.7162
# 5 -4.7152 0.0689 0.1688 -15.8585 21.8456 2.5466
# 6 3.7487 -7.8673 -0.2422 0.7162 2.5466 38.7278
#
#
#
# Elastic Compliance Matrix: (Units=1/GPa)
#
#
# Indices 1 2 3 4 5 6 
#
# 1 0.012028 -0.004184 -0.002620 0.000789 0.003468 -0.002273
# 2 -0.004184 0.010707 -0.002175 -0.000131 -0.001324 0.002656
# 3 -0.002620 -0.002175 0.008958 -0.000074 -0.000671 -0.000087
# 4 0.000789 -0.000131 -0.000074 0.030436 0.022516 -0.002147
# 5 0.003468 -0.001324 -0.000671 0.022516 0.063485 -0.005200
# 6 -0.002273 0.002656 -0.000087 -0.002147 -0.005200 0.026962
#
#
# Mechanical properties :
#
#
# Convention : Reuss Voigt Hill
#
# Bulk Modulus (GPa) = 72.79766 73.23392 73.01579
# Shear Modulus (GPa) = 28.55306 36.44608 32.49957
#
# Velocity S-wave (km/s) = 3.64738 4.12079 3.89129
# Velocity P-wave (km/s) = 7.18719 7.53407 7.36267
#
# Compressibility (1/GPa) = 0.01373670
#
# Stress axis : x y z
#
# Youngs Moduli (GPa) = 83.13667 93.39253 111.63465
#
# Poissons Ratio (x) = 0.39072 0.29246
# Poissons Ratio (y) = 0.34781 0.24282
# Poissons Ratio (z) = 0.21780 0.20314
#
# Static dielectric constant tensor:
#      x y z
#    x 3.705020 -0.378180 -0.010680 
#    y -0.378180 3.705420 0.062690 
#    z -0.010680 0.062690 4.588170 
# 
# 
# High freq. dielectric constant tensor:
#      x y z
#    x 1.835440 -0.011360 -0.000940 
#    y -0.011360 1.851190 0.000060 
#    z -0.000940 0.000060 1.869940 
# 
# From -- ./inp_files/111609.got.cif
#   From: 2010.06.25/outbox.cif.g09.slc.cpg/sg2_56_cif.got.tgz:111609.got - 2010.06.27 13:26:56.
