data_PCOD8034874
_publ_section_title
;
Structure prediction by ZEFSAII (Michael W. Deem and Ramdas Pophale) SiO2 
 PCOD8034874
Probable space group: P -1
;
_chemical_formula_sum "Si O2"
_cell_formula_units_Z 16
_cell_length_a 9.013900
_cell_length_b 24.179431
_cell_length_c 9.254953
_cell_angle_alpha 48.008002
_cell_angle_beta 131.548266
_cell_angle_gamma 150.692584
_cell_volume 715.957668
_symmetry_space_group_name_H-M "P -1"
_symmetry_group_IT_number 2
_symmetry_cell_setting 'triclinic'
loop_
_space_group_symop_operation_xyz
x,y,z
-x,-y,-z
loop_
_atom_site_type_symbol
_atom_site_label
_atom_site_fract_x
_atom_site_fract_y
_atom_site_fract_z
Si Si1 0.268848 0.346269 0.445824
Si Si2 0.333526 0.169113 0.647335
Si Si3 0.082192 0.610646 0.863662
Si Si4 0.212761 0.610879 0.254957
Si Si5 0.490265 0.584757 0.826586
Si Si6 0.659596 0.768234 0.775180
Si Si7 0.189688 0.911732 0.363512
Si Si8 0.739338 0.020531 0.033277
O O1 0.585793 0.406545 0.620678
O O2 0.312256 0.336289 0.323672
O O3 0.211911 0.418456 0.303498
O O4 0.963760 0.214357 0.534065
O O5 0.637996 0.298098 0.679409
O O6 0.273781 0.173742 0.435270
O O7 0.043479 0.101888 0.679952
O O8 0.383525 0.096584 0.810049
O O9 0.337284 0.704358 0.745544
O O10 0.205673 0.660125 0.019944
O O11 0.000000 0.500000 0.000000
O O12 0.864369 0.488980 0.291630
O O13 0.640249 0.672739 0.904751
O O14 0.500000 0.500000 0.000000
O O15 0.917858 0.863878 0.889882
O O16 0.500000 0.000000 0.500000
O O17 0.270515 0.967614 0.163048
O O18 0.500000 0.000000 0.000000
#
# Coordination Sequence:
#
# PCOD8034874 Si02
#       8
#     2   2   2   2   2   2   2   2
#     4  11  25  44  73 102 142 188 238 291 348 437
#     4  11  26  47  73 100 139 191 232 294 347 439
#     4  12  26  45  69 108 147 187 229 302 363 412
#     4  11  24  46  73 106 140 191 249 280 360 426
#     4  12  23  44  75 103 141 195 238 293 344 437
#     4  12  25  47  69 106 147 180 236 295 366 414
#     4  11  25  46  75 101 134 190 241 283 351 430
#     4  12  29  45  71 110 140 181 234 301 368 413
#
# _framework density 22.347688000000002
#
# number of rings (size 3 to 8) (size 9 to 14) (size 15 to 20)
#    0.000    0.500    5.000    3.375    7.000    0.500 
#    0.000    1.250    0.000    0.000    0.000    0.000 
#    0.000    0.000    0.000    0.000    0.000    0.000 
#
# Total GULP energy -198386.465652 kJ/mol
# GULP energy per Si atom -12399.154103 kJ/mol
# Density = 2.229682 g / cm^3
# Si number density = 22.347688 Si / 1000 Ang^3
#
#
#
# Elastic Constant Matrix: (Units=GPa)
#
#
# Indices 1 2 3 4 5 6 
#
# 1 130.6999 33.2071 53.3424 -5.5871 13.6971 10.2961
# 2 33.2071 97.5349 38.4677 2.6686 16.3994 -2.0015
# 3 53.3424 38.4677 126.7469 1.0891 12.1318 -5.4892
# 4 -5.5871 2.6686 1.0891 33.5969 -6.2415 0.8838
# 5 13.6971 16.3994 12.1318 -6.2415 53.5676 -5.5455
# 6 10.2961 -2.0015 -5.4892 0.8838 -5.5455 38.6384
#
#
#
# Elastic Compliance Matrix: (Units=1/GPa)
#
#
# Indices 1 2 3 4 5 6 
#
# 1 0.010155 -0.001879 -0.003746 0.001806 -0.001332 -0.003568
# 2 -0.001879 0.012499 -0.002693 -0.001767 -0.002902 0.000389
# 3 -0.003746 -0.002693 0.010434 -0.000891 -0.000447 0.002297
# 4 0.001806 -0.001767 -0.000891 0.030963 0.003799 -0.000862
# 5 -0.001332 -0.002902 -0.000447 0.003799 0.020755 0.003033
# 6 -0.003568 0.000389 0.002297 -0.000862 0.003033 0.027633
#
#
# Mechanical properties :
#
#
# Convention : Reuss Voigt Hill
#
# Bulk Modulus (GPa) = 60.78348 67.22401 64.00375
# Shear Modulus (GPa) = 37.15867 40.49154 38.82511
#
# Velocity S-wave (km/s) = 4.08211 4.26125 4.17264
# Velocity P-wave (km/s) = 7.03393 7.37274 7.20533
#
# Compressibility (1/GPa) = 0.01645184
#
# Stress axis : x y z
#
# Youngs Moduli (GPa) = 98.47095 80.00856 95.84421
#
# Poissons Ratio (x) = 0.15031 0.35906
# Poissons Ratio (y) = 0.18499 0.25810
# Poissons Ratio (z) = 0.36890 0.21546
#
# Static dielectric constant tensor:
#      x y z
#    x 4.289940 0.052580 -0.021560 
#    y 0.052580 3.853840 -0.025650 
#    z -0.021560 -0.025650 4.399260 
# 
# 
# High freq. dielectric constant tensor:
#      x y z
#    x 1.895420 0.005140 -0.005280 
#    y 0.005140 1.876110 -0.006260 
#    z -0.005280 -0.006260 1.887970 
# 
# From -- ./inp_files/226202.got.cif
#   From: 2010.06.25/outbox.cif.g09.slc.cpg/sg2_114_cif.got.tgz:226202.got - 2010.06.27 13:26:56.
