data_PCOD8034335
_publ_section_title
;
Structure prediction by ZEFSAII (Michael W. Deem and Ramdas Pophale) SiO2 
 PCOD8034335
Probable space group: P -1
;
_chemical_formula_sum "Si O2"
_cell_formula_units_Z 16
_cell_length_a 9.241430
_cell_length_b 9.467700
_cell_length_c 15.812885
_cell_angle_alpha 141.554298
_cell_angle_beta 117.049812
_cell_angle_gamma 76.367647
_cell_volume 747.798588
_symmetry_space_group_name_H-M "P -1"
_symmetry_group_IT_number 2
_symmetry_cell_setting 'triclinic'
loop_
_space_group_symop_operation_xyz
x,y,z
-x,-y,-z
loop_
_atom_site_type_symbol
_atom_site_label
_atom_site_fract_x
_atom_site_fract_y
_atom_site_fract_z
Si Si1 0.484245 0.914550 0.653612
Si Si2 0.981592 0.664206 0.649944
Si Si3 0.347974 0.358826 0.839220
Si Si4 0.675949 0.311374 0.160941
Si Si5 0.438079 0.176270 0.182984
Si Si6 0.770850 0.493880 0.668262
Si Si7 0.864214 0.122811 0.808549
Si Si8 0.987725 0.558937 0.151709
O O1 0.481171 0.807193 0.695646
O O2 0.396005 0.709292 0.471325
O O3 0.369315 0.100496 0.708772
O O4 0.668683 0.024306 0.722123
O O5 0.139596 0.698828 0.768715
O O6 0.000000 0.500000 0.500000
O O7 0.823434 0.550085 0.611449
O O8 0.960440 0.913864 0.727279
O O9 0.332159 0.466775 0.793643
O O10 0.179794 0.345486 0.841025
O O11 0.500000 0.500000 0.000000
O O12 0.568014 0.324773 0.221870
O O13 0.605559 0.089920 0.980628
O O14 0.273544 0.282517 0.192546
O O15 0.919813 0.421278 0.724805
O O16 0.889272 0.281210 0.806025
O O17 0.939604 0.287778 0.984344
#
# Coordination Sequence:
#
# PCOD8034335 Si02
#       8
#     2   2   2   2   2   2   2   2
#     4  12  26  45  69 103 140 192 223 293 348 411
#     4  12  27  45  70 103 143 185 233 294 349 414
#     4  12  24  45  72  98 142 179 236 280 347 411
#     4  11  25  43  72 105 134 187 233 295 346 411
#     4  11  24  44  72 102 140 179 241 286 352 415
#     4  12  27  45  71 101 144 183 236 289 350 421
#     4  11  26  46  74 100 141 183 236 285 349 413
#     4  11  26  47  72 105 135 188 234 287 347 418
#
# _framework density 21.396135000000001
#
# number of rings (size 3 to 8) (size 9 to 14) (size 15 to 20)
#    0.000    0.500    5.000    1.875    7.000    3.000 
#    0.000    0.000    0.000    0.000    0.000    0.000 
#    0.000    0.000    0.000    0.000    0.000    0.000 
#
# Total GULP energy -198500.928440 kJ/mol
# GULP energy per Si atom -12406.308027 kJ/mol
# Density = 2.134744 g / cm^3
# Si number density = 21.396135 Si / 1000 Ang^3
#
#
#
# Elastic Constant Matrix: (Units=GPa)
#
#
# Indices 1 2 3 4 5 6 
#
# 1 130.0842 41.0011 41.7592 0.1702 -9.8935 5.2367
# 2 41.0011 80.8830 26.6970 1.5162 -4.5988 -8.2031
# 3 41.7592 26.6970 78.4302 -0.8380 2.9633 -3.5149
# 4 0.1702 1.5162 -0.8380 25.6113 -7.0069 -3.3360
# 5 -9.8935 -4.5988 2.9633 -7.0069 34.9325 3.6759
# 6 5.2367 -8.2031 -3.5149 -3.3360 3.6759 45.2352
#
#
#
# Elastic Compliance Matrix: (Units=1/GPa)
#
#
# Indices 1 2 3 4 5 6 
#
# 1 0.010791 -0.004033 -0.004606 0.000586 0.003303 -0.002564
# 2 -0.004033 0.015798 -0.003131 -0.000400 0.000808 0.002993
# 3 -0.004606 -0.003131 0.016460 0.000060 -0.003260 0.001514
# 4 0.000586 -0.000400 0.000060 0.041610 0.008216 0.002265
# 5 0.003303 0.000808 -0.003260 0.008216 0.031853 -0.002472
# 6 -0.002564 0.002993 0.001514 0.002265 -0.002472 0.023432
#
#
# Mechanical properties :
#
#
# Convention : Reuss Voigt Hill
#
# Bulk Modulus (GPa) = 51.25783 56.47911 53.86847
# Shear Modulus (GPa) = 29.41398 33.15182 31.28290
#
# Velocity S-wave (km/s) = 3.71176 3.94055 3.82787
# Velocity P-wave (km/s) = 6.50985 6.86718 6.69090
#
# Compressibility (1/GPa) = 0.01950921
#
# Stress axis : x y z
#
# Youngs Moduli (GPa) = 92.67215 63.29778 60.75305
#
# Poissons Ratio (x) = 0.25527 0.27983
# Poissons Ratio (y) = 0.37373 0.19022
# Poissons Ratio (z) = 0.42685 0.19819
#
# Static dielectric constant tensor:
#      x y z
#    x 3.992590 0.005010 -0.025180 
#    y 0.005010 3.958980 0.116090 
#    z -0.025180 0.116090 3.872030 
# 
# 
# High freq. dielectric constant tensor:
#      x y z
#    x 1.853610 -0.001250 -0.000720 
#    y -0.001250 1.848740 0.002220 
#    z -0.000720 0.002220 1.839090 
# 
# From -- ./inp_files/245138.got.cif
#   From: 2010.06.25/outbox.cif.g09.slc.cpg/sg2_123_cif.got.tgz:245138.got - 2010.06.27 13:26:56.
