data_PCOD8034211
_publ_section_title
;
Structure prediction by ZEFSAII (Michael W. Deem and Ramdas Pophale) SiO2 
 PCOD8034211
Probable space group: P -1
;
_chemical_formula_sum "Si O2"
_cell_formula_units_Z 16
_cell_length_a 11.679176
_cell_length_b 9.519691
_cell_length_c 9.569206
_cell_angle_alpha 44.189872
_cell_angle_beta 74.469553
_cell_angle_gamma 84.711844
_cell_volume 706.582743
_symmetry_space_group_name_H-M "P -1"
_symmetry_group_IT_number 2
_symmetry_cell_setting 'triclinic'
loop_
_space_group_symop_operation_xyz
x,y,z
-x,-y,-z
loop_
_atom_site_type_symbol
_atom_site_label
_atom_site_fract_x
_atom_site_fract_y
_atom_site_fract_z
Si Si1 0.658049 0.621182 0.599379
Si Si2 0.701443 0.913497 0.624553
Si Si3 0.906443 0.732338 0.843037
Si Si4 0.504191 0.222808 0.003045
Si Si5 0.366091 0.151911 0.816469
Si Si6 0.104969 0.028806 0.056570
Si Si7 0.855256 0.330938 0.302904
Si Si8 0.131809 0.587635 0.444837
O O1 0.695693 0.823006 0.535655
O O2 0.571049 0.453069 0.836903
O O3 0.588427 0.692372 0.435450
O O4 0.775542 0.523804 0.591149
O O5 0.796584 0.817224 0.751437
O O6 0.740791 0.157905 0.435017
O O7 0.572485 0.857024 0.779881
O O8 0.947771 0.854962 0.882305
O O9 0.019573 0.762288 0.679082
O O10 0.859660 0.495525 0.060418
O O11 0.421578 0.232824 0.887030
O O12 0.602499 0.073569 0.057238
O O13 0.223133 0.157121 0.859178
O O14 0.151898 0.826602 0.238797
O O15 0.000000 0.000000 0.000000
O O16 0.847638 0.440300 0.376599
O O17 0.000000 0.500000 0.500000
#
# Coordination Sequence:
#
# PCOD8034211 Si02
#       8
#     2   2   2   2   2   2   2   2
#     4  12  27  44  74 106 140 185 242 295 353 417
#     4  12  26  45  72 102 145 187 232 299 353 422
#     4  11  24  44  68 103 142 189 231 284 366 419
#     4  11  25  48  71 101 145 187 242 292 348 428
#     4  11  24  46  73 105 137 192 236 290 353 417
#     4  12  24  43  73 105 145 181 238 293 352 427
#     4  11  25  43  68 100 142 186 234 288 352 431
#     4  12  24  43  69 106 142 182 237 291 351 427
#
# _framework density 22.644196000000001
#
# number of rings (size 3 to 8) (size 9 to 14) (size 15 to 20)
#    0.000    0.500    3.750    4.125    5.250    3.500 
#    0.000    0.000    0.000    0.000    0.000    0.000 
#    0.000    0.000    0.000    0.000    0.000    0.000 
#
# Total GULP energy -198474.105211 kJ/mol
# GULP energy per Si atom -12404.631576 kJ/mol
# Density = 2.259266 g / cm^3
# Si number density = 22.644196 Si / 1000 Ang^3
#
#
#
# Elastic Constant Matrix: (Units=GPa)
#
#
# Indices 1 2 3 4 5 6 
#
# 1 90.1838 32.5563 18.6900 5.5632 -13.9630 3.3793
# 2 32.5563 128.4070 25.6539 11.1041 -15.6564 7.4442
# 3 18.6900 25.6539 94.1679 -2.4029 -16.5825 5.4865
# 4 5.5632 11.1041 -2.4029 35.8505 -2.4684 -7.3054
# 5 -13.9630 -15.6564 -16.5825 -2.4684 38.7946 -1.0923
# 6 3.3793 7.4442 5.4865 -7.3054 -1.0923 23.7169
#
#
#
# Elastic Compliance Matrix: (Units=1/GPa)
#
#
# Indices 1 2 3 4 5 6 
#
# 1 0.012826 -0.002453 -0.001333 -0.001326 0.002943 -0.001022
# 2 -0.002453 0.009426 -0.001640 -0.003150 0.001932 -0.003111
# 3 -0.001333 -0.001640 0.012180 0.001518 0.004120 -0.001455
# 4 -0.001326 -0.003150 0.001518 0.031410 0.001197 0.010556
# 5 0.002943 0.001932 0.004120 0.001197 0.029446 -0.000254
# 6 -0.001022 -0.003111 -0.001455 0.010556 -0.000254 0.046863
#
#
# Mechanical properties :
#
#
# Convention : Reuss Voigt Hill
#
# Bulk Modulus (GPa) = 42.41004 51.83992 47.12498
# Shear Modulus (GPa) = 31.08252 35.39627 33.23939
#
# Velocity S-wave (km/s) = 3.70895 3.95796 3.83547
# Velocity P-wave (km/s) = 6.09190 6.62044 6.36166
#
# Compressibility (1/GPa) = 0.02357932
#
# Stress axis : x y z
#
# Youngs Moduli (GPa) = 77.96636 106.09497 82.10328
#
# Poissons Ratio (x) = 0.26023 0.10948
# Poissons Ratio (y) = 0.19123 0.13464
# Poissons Ratio (z) = 0.10396 0.17398
#
# Static dielectric constant tensor:
#      x y z
#    x 3.781290 -1.103650 -0.095700 
#    y -1.103650 -1.043250 -0.042170 
#    z -0.095700 -0.042170 4.333260 
# 
# 
# High freq. dielectric constant tensor:
#      x y z
#    x 1.888410 -0.009110 -0.003110 
#    y -0.009110 1.898990 -0.006560 
#    z -0.003110 -0.006560 1.907740 
# 
# From -- ./inp_files/242022.got.cif
#   From: 2010.06.25/outbox.cif.g09.slc.cpg/sg2_122_cif.got.tgz:242022.got - 2010.06.27 13:26:56.
