data_PCOD8034907
_publ_section_title
;
Structure prediction by ZEFSAII (Michael W. Deem and Ramdas Pophale) SiO2 
 PCOD8034907
Probable space group: P -1
;
_chemical_formula_sum "Si O2"
_cell_formula_units_Z 16
_cell_length_a 15.243823
_cell_length_b 19.000247
_cell_length_c 12.526230
_cell_angle_alpha 152.974342
_cell_angle_beta 45.213661
_cell_angle_gamma 152.665014
_cell_volume 688.274672
_symmetry_space_group_name_H-M "P -1"
_symmetry_group_IT_number 2
_symmetry_cell_setting 'triclinic'
loop_
_space_group_symop_operation_xyz
x,y,z
-x,-y,-z
loop_
_atom_site_type_symbol
_atom_site_label
_atom_site_fract_x
_atom_site_fract_y
_atom_site_fract_z
Si Si1 0.226036 0.298078 0.710770
Si Si2 0.020801 0.144051 0.269733
Si Si3 0.148998 0.558488 0.096343
Si Si4 0.119020 0.693633 0.507941
Si Si5 0.721537 0.769623 0.214153
Si Si6 0.288303 0.900867 0.247750
Si Si7 0.497440 0.617814 0.566372
Si Si8 0.686308 0.115318 0.177071
O O1 0.251305 0.342384 0.876145
O O2 0.393589 0.351254 0.586800
O O3 0.231568 0.469603 0.878815
O O4 0.000000 0.000000 0.500000
O O5 0.909359 0.183217 0.373730
O O6 0.259914 0.421934 0.473814
O O7 0.900981 0.956421 0.222913
O O8 0.000000 0.000000 0.000000
O O9 0.213934 0.663875 0.304431
O O10 0.261032 0.786881 0.228722
O O11 0.897303 0.323514 0.979975
O O12 0.282742 0.889976 0.729590
O O13 0.899291 0.407858 0.351473
O O14 0.709660 0.915622 0.487374
O O15 0.500000 0.500000 0.000000
O O16 0.508805 0.063331 0.232666
O O17 0.500000 0.500000 0.500000
O O18 0.628842 0.901498 0.873346
#
# Coordination Sequence:
#
# PCOD8034907 Si02
#       8
#     2   2   2   2   2   2   2   2
#     4  12  25  44  74 109 146 192 241 300 359 432
#     4  12  27  49  75 104 149 193 245 303 372 440
#     4  11  24  46  75 102 144 185 243 296 359 434
#     4  11  26  48  70 107 146 191 239 301 363 432
#     4  12  28  47  71 109 145 189 246 304 369 437
#     4  11  25  46  73 107 137 191 241 296 364 434
#     4  12  26  47  74 109 148 195 245 299 368 435
#     4  11  27  44  73 107 146 187 242 301 359 435
#
# _framework density 23.246535000000002
#
# number of rings (size 3 to 8) (size 9 to 14) (size 15 to 20)
#    0.000    0.500    2.500    4.500    7.000    3.500 
#    0.000    0.000    0.000    0.000    0.000    0.000 
#    0.000    0.000    0.000    0.000    0.000    0.000 
#
# Total GULP energy -198364.868172 kJ/mol
# GULP energy per Si atom -12397.804261 kJ/mol
# Density = 2.319362 g / cm^3
# Si number density = 23.246535 Si / 1000 Ang^3
#
#
#
# Elastic Constant Matrix: (Units=GPa)
#
#
# Indices 1 2 3 4 5 6 
#
# 1 94.9364 24.9089 15.1098 -3.7769 11.6206 -4.4449
# 2 24.9089 100.4743 28.7873 -7.4474 5.5016 -0.1052
# 3 15.1098 28.7873 85.3968 -5.0305 11.4371 2.9611
# 4 -3.7769 -7.4474 -5.0305 41.6500 3.4542 2.7317
# 5 11.6206 5.5016 11.4371 3.4542 41.2066 -1.3221
# 6 -4.4449 -0.1052 2.9611 2.7317 -1.3221 42.8249
#
#
#
# Elastic Compliance Matrix: (Units=1/GPa)
#
#
# Indices 1 2 3 4 5 6 
#
# 1 0.011735 -0.002455 -0.000880 0.000672 -0.002757 0.001145
# 2 -0.002455 0.011645 -0.003396 0.001459 -0.000045 -0.000086
# 3 -0.000880 -0.003396 0.013559 0.001297 -0.003210 -0.001219
# 4 0.000672 0.001459 0.001297 0.024838 -0.002881 -0.001690
# 5 -0.002757 -0.000045 -0.003210 -0.002881 0.026214 0.000929
# 6 0.001145 -0.000086 -0.001219 -0.001690 0.000929 0.023690
#
#
# Mechanical properties :
#
#
# Convention : Reuss Voigt Hill
#
# Bulk Modulus (GPa) = 42.59430 46.49106 44.54268
# Shear Modulus (GPa) = 37.60272 39.26974 38.43623
#
# Velocity S-wave (km/s) = 4.02626 4.11454 4.07064
# Velocity P-wave (km/s) = 6.32273 6.52802 6.42620
#
# Compressibility (1/GPa) = 0.02347732
#
# Stress axis : x y z
#
# Youngs Moduli (GPa) = 85.21219 85.87331 73.75144
#
# Poissons Ratio (x) = 0.21085 0.06487
# Poissons Ratio (y) = 0.20923 0.25048
# Poissons Ratio (z) = 0.07495 0.29164
#
# Static dielectric constant tensor:
#      x y z
#    x 4.204740 -0.112390 0.121600 
#    y -0.112390 4.239940 -0.046550 
#    z 0.121600 -0.046550 4.421190 
# 
# 
# High freq. dielectric constant tensor:
#      x y z
#    x 1.938210 -0.006750 0.004290 
#    y -0.006750 1.925240 0.002840 
#    z 0.004290 0.002840 1.929620 
# 
# From -- ./inp_files/457013.got.cif
#   From: 2010.06.25/outbox.cif.g09.slc.cpg/sg2_229_cif.got.tgz:457013.got - 2010.06.27 13:26:56.
