data_PCOD8034732
_publ_section_title
;
Structure prediction by ZEFSAII (Michael W. Deem and Ramdas Pophale) SiO2 
 PCOD8034732
Probable space group: P -1
;
_chemical_formula_sum "Si O2"
_cell_formula_units_Z 14
_cell_length_a 7.932749
_cell_length_b 13.709077
_cell_length_c 8.621023
_cell_angle_alpha 57.090647
_cell_angle_beta 51.360351
_cell_angle_gamma 77.940885
_cell_volume 602.525772
_symmetry_space_group_name_H-M "P -1"
_symmetry_group_IT_number 2
_symmetry_cell_setting 'triclinic'
loop_
_space_group_symop_operation_xyz
x,y,z
-x,-y,-z
loop_
_atom_site_type_symbol
_atom_site_label
_atom_site_fract_x
_atom_site_fract_y
_atom_site_fract_z
Si Si1 0.385070 0.104250 0.028433
Si Si2 0.606569 0.682315 0.350544
Si Si3 0.069402 0.620311 0.448504
Si Si4 0.631262 0.192040 0.103301
Si Si5 0.796020 0.494991 0.237131
Si Si6 0.726257 0.763471 0.535919
Si Si7 0.069285 0.976419 0.808271
O O1 0.435601 0.118964 0.169927
O O2 0.127042 0.078133 0.151115
O O3 0.498747 0.227782 0.773023
O O4 0.500000 0.000000 0.000000
O O5 0.775435 0.625847 0.193347
O O6 0.437650 0.577532 0.631197
O O7 0.738068 0.761746 0.342743
O O8 0.203412 0.591085 0.542859
O O9 0.000000 0.500000 0.500000
O O10 0.861585 0.666614 0.600939
O O11 0.197336 0.721476 0.176011
O O12 0.519904 0.269361 0.222786
O O13 0.751682 0.107302 0.211026
O O14 0.000000 0.500000 0.000000
O O15 0.823376 0.894771 0.431301
O O16 0.000000 0.000000 0.000000
#
# Coordination Sequence:
#
# PCOD8034732 Si02
#       7
#     2   2   2   2   2   2   2
#     4  12  23  44  76 101 143 187 232 295 352 417
#     4  11  24  46  68 100 144 182 225 297 355 410
#     4  12  25  46  70 102 141 183 236 294 349 419
#     4  12  27  47  73 107 144 188 239 292 354 425
#     4  11  27  45  70 101 136 184 236 288 354 421
#     4  12  26  45  74 104 140 189 236 289 359 424
#     4  12  23  46  73 103 147 187 232 295 360 411
#
# _framework density 23.235520000000001
#
# number of rings (size 3 to 8) (size 9 to 14) (size 15 to 20)
#    0.000    0.286    7.143    0.429    4.000    1.143 
#    0.000    0.000    0.000    0.000    0.000    0.000 
#    0.000    0.000    0.000    0.000    0.000    0.000 
#
# Total GULP energy -173513.455350 kJ/mol
# GULP energy per Si atom -12393.818239 kJ/mol
# Density = 2.318264 g / cm^3
# Si number density = 23.235520 Si / 1000 Ang^3
#
#
#
# Elastic Constant Matrix: (Units=GPa)
#
#
# Indices 1 2 3 4 5 6 
#
# 1 127.8163 51.9466 19.1961 -5.6193 -2.2701 -4.1110
# 2 51.9466 170.1065 59.3885 2.7454 -7.1626 -23.7570
# 3 19.1961 59.3885 76.0522 10.5795 -13.2714 -8.3210
# 4 -5.6193 2.7454 10.5795 39.7274 -9.6510 0.4690
# 5 -2.2701 -7.1626 -13.2714 -9.6510 30.0590 -2.0828
# 6 -4.1110 -23.7570 -8.3210 0.4690 -2.0828 46.3835
#
#
#
# Elastic Compliance Matrix: (Units=1/GPa)
#
#
# Indices 1 2 3 4 5 6 
#
# 1 0.009051 -0.002731 -0.000396 0.001667 0.000346 -0.000669
# 2 -0.002731 0.009406 -0.006428 0.000540 -0.000394 0.003399
# 3 -0.000396 -0.006428 0.019878 -0.003416 0.006156 0.000550
# 4 0.001667 0.000540 -0.003416 0.028172 0.007782 -0.000124
# 5 0.000346 -0.000394 0.006156 0.007782 0.038596 0.002588
# 6 -0.000669 0.003399 0.000550 -0.000124 0.002588 0.023457
#
#
# Mechanical properties :
#
#
# Convention : Reuss Voigt Hill
#
# Bulk Modulus (GPa) = 52.01677 70.55973 61.28825
# Shear Modulus (GPa) = 32.45071 39.46357 35.95714
#
# Velocity S-wave (km/s) = 3.74116 4.12565 3.93810
# Velocity P-wave (km/s) = 6.41070 7.28888 6.86385
#
# Compressibility (1/GPa) = 0.01922457
#
# Stress axis : x y z
#
# Youngs Moduli (GPa) = 110.48198 106.31094 50.30718
#
# Poissons Ratio (x) = 0.29039 0.01993
# Poissons Ratio (y) = 0.30178 0.32336
# Poissons Ratio (z) = 0.04377 0.68334
#
# Static dielectric constant tensor:
#      x y z
#    x 4.514400 -0.004630 0.128490 
#    y -0.004630 4.470830 -0.149950 
#    z 0.128490 -0.149950 4.067200 
# 
# 
# High freq. dielectric constant tensor:
#      x y z
#    x 1.928320 -0.003490 -0.004300 
#    y -0.003490 1.933890 -0.009980 
#    z -0.004300 -0.009980 1.904180 
# 
# From -- ./inp_files/184667.got.cif
#   From: 2010.06.25/outbox.cif.g09.slc.cpg/sg2_93_cif.got.tgz:184667.got - 2010.06.27 13:26:56.
