data_PCOD8034168
_publ_section_title
;
Structure prediction by ZEFSAII (Michael W. Deem and Ramdas Pophale) SiO2 
 PCOD8034168
Probable space group: P -1
;
_chemical_formula_sum "Si O2"
_cell_formula_units_Z 12
_cell_length_a 24.639213
_cell_length_b 24.577625
_cell_length_c 7.959939
_cell_angle_alpha 146.872960
_cell_angle_beta 33.661262
_cell_angle_gamma 167.955103
_cell_volume 545.965518
_symmetry_space_group_name_H-M "P -1"
_symmetry_group_IT_number 2
_symmetry_cell_setting 'triclinic'
loop_
_space_group_symop_operation_xyz
x,y,z
-x,-y,-z
loop_
_atom_site_type_symbol
_atom_site_label
_atom_site_fract_x
_atom_site_fract_y
_atom_site_fract_z
Si Si1 0.249988 0.742022 0.864357
Si Si2 0.853516 0.078919 0.945840
Si Si3 0.372436 0.976542 0.848904
Si Si4 0.660964 0.390511 0.749095
Si Si5 0.588844 0.356133 0.461876
Si Si6 0.947496 0.064097 0.339136
O O1 0.209997 0.790277 0.952236
O O2 0.294277 0.680843 0.491939
O O3 0.000000 0.500000 0.000000
O O4 0.500000 0.000000 0.000000
O O5 0.881325 0.013810 0.576759
O O6 0.820098 0.151796 0.119218
O O7 0.108139 0.322691 0.036096
O O8 0.609533 0.824306 0.035357
O O9 0.500000 0.000000 0.500000
O O10 0.588333 0.261534 0.090302
O O11 0.667452 0.395181 0.544283
O O12 0.794250 0.629596 0.573426
O O13 0.299512 0.131148 0.636805
O O14 0.000000 0.000000 0.000000
#
# Coordination Sequence:
#
# PCOD8034168 Si02
#       6
#     2   2   2   2   2   2
#     4  12  26  40  63  93 140 186 224 258 320 393
#     4  11  25  42  68  97 133 173 224 275 324 390
#     4  11  24  44  64 102 137 185 225 266 322 394
#     4  12  24  43  63 100 139 172 217 276 324 390
#     4  11  25  44  71  99 135 176 220 273 338 397
#     4  11  25  49  73  98 129 172 223 281 340 400
#
# _framework density 21.979410999999999
#
# number of rings (size 3 to 8) (size 9 to 14) (size 15 to 20)
#    0.000    0.667    3.333    4.500    4.667    2.000 
#    0.000    5.000    0.000    0.000    0.000    0.000 
#    0.000    0.000    0.000    0.000    0.000    0.000 
#
# Total GULP energy -148845.813780 kJ/mol
# GULP energy per Si atom -12403.817815 kJ/mol
# Density = 2.192939 g / cm^3
# Si number density = 21.979411 Si / 1000 Ang^3
#
#
#
# Elastic Constant Matrix: (Units=GPa)
#
#
# Indices 1 2 3 4 5 6 
#
# 1 71.5288 29.6688 27.6083 8.7970 13.0408 1.4479
# 2 29.6688 162.6267 49.8769 6.8710 7.6519 -7.7530
# 3 27.6083 49.8769 172.1097 2.6500 -5.4418 -6.9918
# 4 8.7970 6.8710 2.6500 29.0199 -2.4841 3.0678
# 5 13.0408 7.6519 -5.4418 -2.4841 28.1602 1.8305
# 6 1.4479 -7.7530 -6.9918 3.0678 1.8305 37.3666
#
#
#
# Elastic Compliance Matrix: (Units=1/GPa)
#
#
# Indices 1 2 3 4 5 6 
#
# 1 0.018042 -0.001894 -0.002567 -0.005464 -0.008774 -0.000694
# 2 -0.001894 0.007235 -0.001767 -0.001269 -0.001635 0.001428
# 3 -0.002567 -0.001767 0.006850 0.000743 0.003006 0.000806
# 4 -0.005464 -0.001269 0.000743 0.037254 0.006519 -0.003290
# 5 -0.008774 -0.001635 0.003006 0.006519 0.041304 -0.001996
# 6 -0.000694 0.001428 0.000806 -0.003290 -0.001996 0.027604
#
#
# Mechanical properties :
#
#
# Convention : Reuss Voigt Hill
#
# Bulk Modulus (GPa) = 50.83237 68.95255 59.89246
# Shear Modulus (GPa) = 31.78593 38.85010 35.31801
#
# Velocity S-wave (km/s) = 3.80698 4.20881 4.01292
# Velocity P-wave (km/s) = 6.51932 7.42013 6.98426
#
# Compressibility (1/GPa) = 0.01967251
#
# Stress axis : x y z
#
# Youngs Moduli (GPa) = 55.42563 138.21478 145.97572
#
# Poissons Ratio (x) = 0.26174 0.37470
# Poissons Ratio (y) = 0.10496 0.25795
# Poissons Ratio (z) = 0.14227 0.24424
#
# Static dielectric constant tensor:
#      x y z
#    x 4.012620 -0.015560 0.151140 
#    y -0.015560 4.164100 -0.085560 
#    z 0.151140 -0.085560 4.127120 
# 
# 
# High freq. dielectric constant tensor:
#      x y z
#    x 1.861180 0.000560 0.021320 
#    y 0.000560 1.876120 0.000170 
#    z 0.021320 0.000170 1.862020 
# 
# From -- ./inp_files/46123.got.cif
#   From: 2010.06.25/outbox.cif.g09.slc.cpg/sg2_24_cif.got.tgz:46123.got - 2010.06.27 13:26:56.
