data_PCOD8034960
_publ_section_title
;
Structure prediction by ZEFSAII (Michael W. Deem and Ramdas Pophale) SiO2 
 PCOD8034960
Probable space group: P -1
;
_chemical_formula_sum "Si O2"
_cell_formula_units_Z 16
_cell_length_a 18.637308
_cell_length_b 13.504206
_cell_length_c 6.504860
_cell_angle_alpha 133.874069
_cell_angle_beta 136.391349
_cell_angle_gamma 38.200824
_cell_volume 668.122388
_symmetry_space_group_name_H-M "P -1"
_symmetry_group_IT_number 2
_symmetry_cell_setting 'triclinic'
loop_
_space_group_symop_operation_xyz
x,y,z
-x,-y,-z
loop_
_atom_site_type_symbol
_atom_site_label
_atom_site_fract_x
_atom_site_fract_y
_atom_site_fract_z
Si Si1 0.144901 0.417047 0.420621
Si Si2 0.379331 0.667177 0.411622
Si Si3 0.292088 0.180587 0.755757
Si Si4 0.082441 0.247799 0.712628
Si Si5 0.987480 0.023354 0.245080
Si Si6 0.331847 0.478347 0.706515
Si Si7 0.486865 0.814608 0.580631
Si Si8 0.201946 0.759503 0.541394
O O1 0.192045 0.333868 0.622808
O O2 0.265809 0.393301 0.530171
O O3 0.031352 0.614044 0.475198
O O4 0.095556 0.327529 0.058470
O O5 0.500000 0.500000 0.500000
O O6 0.415921 0.787066 0.573882
O O7 0.290580 0.765600 0.565769
O O8 0.320486 0.611381 0.035646
O O9 0.211778 0.152633 0.712818
O O10 0.387363 0.006609 0.577147
O O11 0.380852 0.222711 0.117774
O O12 0.049318 0.125460 0.562634
O O13 0.842416 0.121526 0.172866
O O14 0.067331 0.842278 0.263058
O O15 0.000000 0.000000 0.000000
O O16 0.476157 0.321013 0.721665
O O17 0.266060 0.572315 0.488285
#
# Coordination Sequence:
#
# PCOD8034960 Si02
#       8
#     2   2   2   2   2   2   2   2
#     4  11  25  44  72  98 135 189 231 286 351 411
#     4  12  25  44  71 103 136 186 233 285 347 414
#     4  11  25  47  69  99 142 186 229 294 342 414
#     4  11  24  47  68 103 138 176 239 282 343 430
#     4  11  25  46  72 106 138 178 225 290 354 415
#     4  12  24  46  70  99 141 182 236 290 346 419
#     4  11  25  46  69 103 142 182 242 284 346 417
#     4  11  25  43  71 101 141 179 225 285 352 413
#
# _framework density 23.947707000000001
#
# number of rings (size 3 to 8) (size 9 to 14) (size 15 to 20)
#    0.000    0.750    3.750    3.000    0.000    3.500 
#    2.250    0.000    0.000    0.000    0.000    0.000 
#    0.000    0.000    0.000    0.000    0.000    0.000 
#
# Total GULP energy -198234.574917 kJ/mol
# GULP energy per Si atom -12389.660932 kJ/mol
# Density = 2.389320 g / cm^3
# Si number density = 23.947707 Si / 1000 Ang^3
#
#
#
# Elastic Constant Matrix: (Units=GPa)
#
#
# Indices 1 2 3 4 5 6 
#
# 1 156.0672 18.9856 33.6471 14.1504 -13.7808 -21.0488
# 2 18.9856 96.7363 30.0770 0.2713 -9.0314 -9.3095
# 3 33.6471 30.0770 69.4427 -5.7021 -10.6463 -2.2458
# 4 14.1504 0.2713 -5.7021 23.7820 -4.9091 -14.0959
# 5 -13.7808 -9.0314 -10.6463 -4.9091 37.0263 8.2790
# 6 -21.0488 -9.3095 -2.2458 -14.0959 8.2790 47.1981
#
#
#
# Elastic Compliance Matrix: (Units=1/GPa)
#
#
# Indices 1 2 3 4 5 6 
#
# 1 0.008015 -0.000045 -0.004046 -0.004445 0.000793 0.001907
# 2 -0.000045 0.012200 -0.005026 0.000080 0.001082 0.001981
# 3 -0.004046 -0.005026 0.019805 0.007935 0.004059 -0.000195
# 4 -0.004445 0.000080 0.007935 0.056081 0.004884 0.014303
# 5 0.000793 0.001082 0.004059 0.004884 0.030064 -0.003055
# 6 0.001907 0.001981 -0.000195 0.014303 -0.003055 0.027227
#
#
# Mechanical properties :
#
#
# Convention : Reuss Voigt Hill
#
# Bulk Modulus (GPa) = 45.89891 54.18507 50.04199
# Shear Modulus (GPa) = 27.95034 37.57038 32.76036
#
# Velocity S-wave (km/s) = 3.42005 3.96517 3.70266
# Velocity P-wave (km/s) = 5.89946 6.60598 6.26269
#
# Compressibility (1/GPa) = 0.02178701
#
# Stress axis : x y z
#
# Youngs Moduli (GPa) = 124.75888 81.96523 50.49236
#
# Poissons Ratio (x) = 0.00370 0.20429
# Poissons Ratio (y) = 0.00564 0.25377
# Poissons Ratio (z) = 0.50476 0.41194
#
# Static dielectric constant tensor:
#      x y z
#    x 3.930290 -0.114120 -0.055890 
#    y -0.114120 4.843830 0.365390 
#    z -0.055890 0.365390 4.652190 
# 
# 
# High freq. dielectric constant tensor:
#      x y z
#    x 1.963870 -0.008680 -0.009780 
#    y -0.008680 1.970080 -0.001870 
#    z -0.009780 -0.001870 1.923880 
# 
# From -- ./inp_files/111079.got.cif
#   From: 2010.06.25/outbox.cif.g09.slc.cpg/sg2_56_cif.got.tgz:111079.got - 2010.06.27 13:26:56.
