data_PCOD8034435
_publ_section_title
;
Structure prediction by ZEFSAII (Michael W. Deem and Ramdas Pophale) SiO2 
 PCOD8034435
Probable space group: P -1
;
_chemical_formula_sum "Si O2"
_cell_formula_units_Z 16
_cell_length_a 11.432758
_cell_length_b 9.519063
_cell_length_c 14.233191
_cell_angle_alpha 99.690373
_cell_angle_beta 32.398817
_cell_angle_gamma 114.943727
_cell_volume 694.074046
_symmetry_space_group_name_H-M "P -1"
_symmetry_group_IT_number 2
_symmetry_cell_setting 'triclinic'
loop_
_space_group_symop_operation_xyz
x,y,z
-x,-y,-z
loop_
_atom_site_type_symbol
_atom_site_label
_atom_site_fract_x
_atom_site_fract_y
_atom_site_fract_z
Si Si1 0.885377 0.937554 0.251984
Si Si2 0.913779 0.613422 0.432557
Si Si3 0.285828 0.525881 0.103341
Si Si4 0.548474 0.258129 0.332563
Si Si5 0.377645 0.399736 0.714829
Si Si6 0.784478 0.038120 0.814145
Si Si7 0.012298 0.267441 0.109345
Si Si8 0.669129 0.770590 0.724468
O O1 0.658163 0.885462 0.474418
O O2 0.815928 0.771630 0.224432
O O3 0.157868 0.016453 0.130893
O O4 0.916336 0.074367 0.171838
O O5 0.672014 0.447058 0.531231
O O6 0.825615 0.674416 0.591959
O O7 0.145847 0.578711 0.283625
O O8 0.005252 0.764587 0.313538
O O9 0.055635 0.358312 0.190750
O O10 0.500000 0.500000 0.000000
O O11 0.429159 0.673069 0.947227
O O12 0.609476 0.445581 0.331593
O O13 0.448396 0.206086 0.288646
O O14 0.811512 0.267631 0.173977
O O15 0.282973 0.377820 0.884444
O O16 0.844761 0.950813 0.676711
O O17 0.500000 0.000000 0.000000
#
# Coordination Sequence:
#
# PCOD8034435 Si02
#       8
#     2   2   2   2   2   2   2   2
#     4  12  26  45  71 110 151 192 251 309 380 438
#     4  11  24  46  77 102 145 203 243 311 360 449
#     4  12  26  47  72 107 153 195 247 303 381 450
#     4  11  24  44  76 101 143 201 247 314 358 449
#     4  11  24  47  73 109 145 194 258 302 367 453
#     4  12  25  43  75 108 150 194 250 312 365 446
#     4  12  26  45  71 111 153 193 246 315 378 435
#     4  11  24  48  71 111 142 192 261 294 372 446
#
# _framework density 23.052295999999998
#
# number of rings (size 3 to 8) (size 9 to 14) (size 15 to 20)
#    0.000    0.500    6.250    3.375    3.500    0.500 
#    0.000    0.000    0.000    0.000    0.000    0.000 
#    0.000    0.000    0.000    0.000    0.000    0.000 
#
# Total GULP energy -198328.034678 kJ/mol
# GULP energy per Si atom -12395.502167 kJ/mol
# Density = 2.299983 g / cm^3
# Si number density = 23.052296 Si / 1000 Ang^3
#
#
#
# Elastic Constant Matrix: (Units=GPa)
#
#
# Indices 1 2 3 4 5 6 
#
# 1 114.5826 53.3056 40.1947 19.1741 -25.2644 0.5327
# 2 53.3056 92.8808 38.8244 13.0543 -20.3862 -0.3736
# 3 40.1947 38.8244 133.1150 13.5793 -18.5306 -8.6455
# 4 19.1741 13.0543 13.5793 42.8722 -3.8133 10.5788
# 5 -25.2644 -20.3862 -18.5306 -3.8133 24.5449 1.9823
# 6 0.5327 -0.3736 -8.6455 10.5788 1.9823 39.5472
#
#
#
# Elastic Compliance Matrix: (Units=1/GPa)
#
#
# Indices 1 2 3 4 5 6 
#
# 1 0.014065 -0.005164 -0.001155 -0.003580 0.008758 0.000028
# 2 -0.005164 0.016209 -0.002167 -0.001325 0.006323 -0.000214
# 3 -0.001155 -0.002167 0.009356 -0.002067 0.003559 0.002415
# 4 -0.003580 -0.001325 -0.002067 0.027778 -0.001402 -0.007776
# 5 0.008758 0.006323 0.003559 -0.001402 0.057622 -0.001793
# 6 0.000028 -0.000214 0.002415 -0.007776 -0.001793 0.027982
#
#
# Mechanical properties :
#
#
# Convention : Reuss Voigt Hill
#
# Bulk Modulus (GPa) = 44.13196 67.24753 55.68974
# Shear Modulus (GPa) = 28.16340 35.27644 31.71992
#
# Velocity S-wave (km/s) = 3.49910 3.91612 3.71347
# Velocity P-wave (km/s) = 5.95909 7.04862 6.52663
#
# Compressibility (1/GPa) = 0.02265932
#
# Stress axis : x y z
#
# Youngs Moduli (GPa) = 71.10063 61.69447 106.88272
#
# Poissons Ratio (x) = 0.31857 0.12341
# Poissons Ratio (y) = 0.36714 0.23159
# Poissons Ratio (z) = 0.08209 0.13368
#
# Static dielectric constant tensor:
#      x y z
#    x 4.052620 0.147520 0.089450 
#    y 0.147520 4.242040 -0.007420 
#    z 0.089450 -0.007420 4.438990 
# 
# 
# High freq. dielectric constant tensor:
#      x y z
#    x 1.897440 0.010990 -0.004080 
#    y 0.010990 1.912030 -0.010580 
#    z -0.004080 -0.010580 1.922620 
# 
# From -- ./inp_files/515744.got.cif
#   From: 2010.06.25/outbox.cif.g09.slc.cpg/sg2_258_cif.got.tgz:515744.got - 2010.06.27 13:26:56.
