data_PCOD8034996
_publ_section_title
;
Structure prediction by ZEFSAII (Michael W. Deem and Ramdas Pophale) SiO2 
 PCOD8034996
Probable space group: P -1
;
_chemical_formula_sum "Si O2"
_cell_formula_units_Z 14
_cell_length_a 11.726508
_cell_length_b 6.619800
_cell_length_c 12.165938
_cell_angle_alpha 67.347671
_cell_angle_beta 67.740850
_cell_angle_gamma 44.870395
_cell_volume 606.706391
_symmetry_space_group_name_H-M "P -1"
_symmetry_group_IT_number 2
_symmetry_cell_setting 'triclinic'
loop_
_space_group_symop_operation_xyz
x,y,z
-x,-y,-z
loop_
_atom_site_type_symbol
_atom_site_label
_atom_site_fract_x
_atom_site_fract_y
_atom_site_fract_z
Si Si1 0.718471 0.392800 0.340208
Si Si2 0.963939 0.410975 0.359226
Si Si3 0.384340 0.313127 0.032659
Si Si4 0.978132 0.398009 0.917794
Si Si5 0.280819 0.809502 0.840442
Si Si6 0.491928 0.064778 0.281288
Si Si7 0.757660 0.897728 0.507413
O O1 0.859814 0.318617 0.384297
O O2 0.786973 0.255977 0.222309
O O3 0.573877 0.733617 0.299875
O O4 0.653718 0.239751 0.448356
O O5 0.855171 0.714074 0.401402
O O6 0.028604 0.433197 0.217960
O O7 0.120599 0.170422 0.425489
O O8 0.194718 0.516578 0.027556
O O9 0.405523 0.267447 0.164057
O O10 0.415467 0.519330 0.926987
O O11 0.500000 0.000000 0.000000
O O12 0.128527 0.054257 0.921433
O O13 0.000000 0.500000 0.000000
O O14 0.371936 0.919424 0.734282
O O15 0.355766 0.176482 0.400967
#
# Coordination Sequence:
#
# PCOD8034996 Si02
#       7
#     2   2   2   2   2   2   2
#     4  12  23  45  73 102 148 187 249 293 368 427
#     4  11  24  47  71 105 145 188 250 301 359 437
#     4  12  25  47  72 108 145 189 248 305 367 432
#     4  12  24  48  77 105 145 194 247 301 367 437
#     4  12  26  48  74 108 147 197 240 307 365 435
#     4  12  25  44  72 106 149 193 243 297 369 436
#     4  11  25  46  72 106 147 192 243 302 359 432
#
# _framework density 23.075410000000002
#
# number of rings (size 3 to 8) (size 9 to 14) (size 15 to 20)
#    0.000    0.286    5.714    3.429    0.000    3.429 
#    0.000    4.286    0.000    0.000    0.000    0.000 
#    0.000    0.000    0.000    0.000    0.000    0.000 
#
# Total GULP energy -173555.892747 kJ/mol
# GULP energy per Si atom -12396.849482 kJ/mol
# Density = 2.302289 g / cm^3
# Si number density = 23.075410 Si / 1000 Ang^3
#
#
#
# Elastic Constant Matrix: (Units=GPa)
#
#
# Indices 1 2 3 4 5 6 
#
# 1 101.7296 31.5362 36.6933 1.0576 11.8404 -2.9925
# 2 31.5362 122.2386 41.9259 -16.9264 5.8148 -0.7701
# 3 36.6933 41.9259 123.0656 -10.1469 8.6526 12.1329
# 4 1.0576 -16.9264 -10.1469 45.6644 7.6556 -1.0872
# 5 11.8404 5.8148 8.6526 7.6556 48.0206 4.2512
# 6 -2.9925 -0.7701 12.1329 -1.0872 4.2512 30.3435
#
#
#
# Elastic Compliance Matrix: (Units=1/GPa)
#
#
# Indices 1 2 3 4 5 6 
#
# 1 0.011921 -0.002089 -0.003055 -0.001306 -0.002158 0.002600
# 2 -0.002089 0.010142 -0.002620 0.003409 -0.000904 0.001348
# 3 -0.003055 -0.002620 0.010532 0.001446 -0.000665 -0.004434
# 4 -0.001306 0.003409 0.001446 0.024254 -0.004293 0.000850
# 5 -0.002158 -0.000904 -0.000665 -0.004293 0.022561 -0.003284
# 6 0.002600 0.001348 -0.004434 0.000850 -0.003284 0.035510
#
#
# Mechanical properties :
#
#
# Convention : Reuss Voigt Hill
#
# Bulk Modulus (GPa) = 58.59624 63.03830 60.81727
# Shear Modulus (GPa) = 36.72736 40.59758 38.66247
#
# Velocity S-wave (km/s) = 3.99384 4.19900 4.09771
# Velocity P-wave (km/s) = 6.83493 7.13348 6.98580
#
# Compressibility (1/GPa) = 0.01706594
#
# Stress axis : x y z
#
# Youngs Moduli (GPa) = 83.88754 98.59889 94.94504
#
# Poissons Ratio (x) = 0.20602 0.29003
# Poissons Ratio (y) = 0.17528 0.24880
# Poissons Ratio (z) = 0.25625 0.25838
#
# Static dielectric constant tensor:
#      x y z
#    x 4.218290 -0.012970 0.112850 
#    y -0.012970 3.979540 0.108270 
#    z 0.112850 0.108270 3.658910 
# 
# 
# High freq. dielectric constant tensor:
#      x y z
#    x 1.910050 0.004650 0.008290 
#    y 0.004650 1.908860 -0.015040 
#    z 0.008290 -0.015040 1.934750 
# 
# From -- ./inp_files/27112.got.cif
#   From: 2010.06.25/outbox.cif.g09.slc.cpg/sg2_14_cif.got.tgz:27112.got - 2010.06.27 13:26:56.
