data_PCOD8034607
_publ_section_title
;
Structure prediction by ZEFSAII (Michael W. Deem and Ramdas Pophale) SiO2 
 PCOD8034607
Probable space group: P -1
;
_chemical_formula_sum "Si O2"
_cell_formula_units_Z 14
_cell_length_a 9.713863
_cell_length_b 18.186105
_cell_length_c 8.594742
_cell_angle_alpha 138.684133
_cell_angle_beta 127.266165
_cell_angle_gamma 35.419103
_cell_volume 580.865512
_symmetry_space_group_name_H-M "P -1"
_symmetry_group_IT_number 2
_symmetry_cell_setting 'triclinic'
loop_
_space_group_symop_operation_xyz
x,y,z
-x,-y,-z
loop_
_atom_site_type_symbol
_atom_site_label
_atom_site_fract_x
_atom_site_fract_y
_atom_site_fract_z
Si Si1 0.969200 0.138130 0.433217
Si Si2 0.614249 0.554540 0.754993
Si Si3 0.921250 0.705126 0.444738
Si Si4 0.647672 0.067616 0.084229
Si Si5 0.169797 0.236210 0.168800
Si Si6 0.252412 0.598861 0.074586
Si Si7 0.559136 0.138451 0.805686
O O1 0.796751 0.112988 0.242012
O O2 0.876934 0.231990 0.681088
O O3 0.961090 0.229763 0.429980
O O4 0.239992 0.971112 0.362534
O O5 0.500000 0.500000 0.500000
O O6 0.684496 0.505820 0.904674
O O7 0.863043 0.478091 0.721241
O O8 0.435293 0.737812 0.927122
O O9 0.856081 0.719955 0.601367
O O10 0.697704 0.778973 0.301151
O O11 0.389229 0.207909 0.202086
O O12 0.613505 0.036567 0.833156
O O13 0.779312 0.919261 0.046846
O O14 0.933734 0.372506 0.128509
O O15 0.500000 0.500000 0.000000
#
# Coordination Sequence:
#
# PCOD8034607 Si02
#       7
#     2   2   2   2   2   2   2
#     4  11  25  44  74 104 137 190 244 290 346 424
#     4  11  25  46  73 104 141 189 242 293 352 425
#     4  11  24  45  72 104 144 191 236 294 352 424
#     4  11  25  43  70 108 143 180 239 299 356 412
#     4  11  26  45  69 104 149 186 230 297 361 418
#     4  11  26  47  69 102 148 189 232 296 361 423
#     4  12  24  44  76 105 139 186 250 291 348 422
#
# _framework density 24.101966000000001
#
# number of rings (size 3 to 8) (size 9 to 14) (size 15 to 20)
#    0.000    0.857    1.429    5.571    8.000    1.714 
#    0.000    2.143    0.000    0.000    0.000    0.000 
#    0.000    0.000    0.000    0.000    0.000    0.000 
#
# Total GULP energy -173506.826103 kJ/mol
# GULP energy per Si atom -12393.344722 kJ/mol
# Density = 2.404711 g / cm^3
# Si number density = 24.101966 Si / 1000 Ang^3
#
#
#
# Elastic Constant Matrix: (Units=GPa)
#
#
# Indices 1 2 3 4 5 6 
#
# 1 138.1245 47.6164 48.4801 -1.3237 -19.7346 -36.0380
# 2 47.6164 122.8604 25.0075 -6.2531 -5.6771 -21.1521
# 3 48.4801 25.0075 70.6400 5.0726 -10.5584 -11.6002
# 4 -1.3237 -6.2531 5.0726 50.2499 -4.5250 -15.5821
# 5 -19.7346 -5.6771 -10.5584 -4.5250 42.7157 7.7016
# 6 -36.0380 -21.1521 -11.6002 -15.5821 7.7016 50.0207
#
#
#
# Elastic Compliance Matrix: (Units=1/GPa)
#
#
# Indices 1 2 3 4 5 6 
#
# 1 0.012560 -0.001990 -0.006515 0.003258 0.002965 0.007255
# 2 -0.001990 0.009923 -0.001859 0.002299 -0.000376 0.003106
# 3 -0.006515 -0.001859 0.019384 -0.002874 0.001614 -0.002128
# 4 0.003258 0.002299 -0.002874 0.023759 0.001856 0.009768
# 5 0.002965 -0.000376 0.001614 0.001856 0.025506 -0.000998
# 6 0.007255 0.003106 -0.002128 0.009768 -0.000998 0.029235
#
#
# Mechanical properties :
#
#
# Convention : Reuss Voigt Hill
#
# Bulk Modulus (GPa) = 47.30382 63.75920 55.53151
# Shear Modulus (GPa) = 33.75181 42.63200 38.19190
#
# Velocity S-wave (km/s) = 3.74622 4.21029 3.98502
# Velocity P-wave (km/s) = 6.19527 7.08144 6.65313
#
# Compressibility (1/GPa) = 0.02113994
#
# Stress axis : x y z
#
# Youngs Moduli (GPa) = 79.61567 100.77421 51.59015
#
# Poissons Ratio (x) = 0.20054 0.33611
# Poissons Ratio (y) = 0.15843 0.09588
# Poissons Ratio (z) = 0.51870 0.18730
#
# Static dielectric constant tensor:
#      x y z
#    x 2.343810 0.773190 0.800280 
#    y 0.773190 4.278310 -0.229310 
#    z 0.800280 -0.229310 3.718700 
# 
# 
# High freq. dielectric constant tensor:
#      x y z
#    x 1.959250 -0.016970 -0.016940 
#    y -0.016970 1.976800 0.001400 
#    z -0.016940 0.001400 1.946940 
# 
# From -- ./inp_files/216208.got.cif
#   From: 2010.06.25/outbox.cif.g09.slc.cpg/sg2_109_cif.got.tgz:216208.got - 2010.06.27 13:26:56.
