data_PCOD8034450
_publ_section_title
;
Structure prediction by ZEFSAII (Michael W. Deem and Ramdas Pophale) SiO2 
 PCOD8034450
Probable space group: P -1
;
_chemical_formula_sum "Si O2"
_cell_formula_units_Z 16
_cell_length_a 10.660700
_cell_length_b 11.154852
_cell_length_c 9.396045
_cell_angle_alpha 77.198784
_cell_angle_beta 45.432166
_cell_angle_gamma 87.024143
_cell_volume 767.571719
_symmetry_space_group_name_H-M "P -1"
_symmetry_group_IT_number 2
_symmetry_cell_setting 'triclinic'
loop_
_space_group_symop_operation_xyz
x,y,z
-x,-y,-z
loop_
_atom_site_type_symbol
_atom_site_label
_atom_site_fract_x
_atom_site_fract_y
_atom_site_fract_z
Si Si1 0.874636 0.869746 0.438788
Si Si2 0.271541 0.948008 0.036354
Si Si3 0.292063 0.955772 0.685445
Si Si4 0.401307 0.721248 0.544902
Si Si5 0.392087 0.153448 0.100590
Si Si6 0.686742 0.638377 0.515875
Si Si7 0.540081 0.624009 0.188481
Si Si8 0.185075 0.462961 0.827249
O O1 0.777641 0.899775 0.653331
O O2 0.806188 0.722289 0.512719
O O3 0.088516 0.890765 0.276513
O O4 0.824922 0.958546 0.328776
O O5 0.351836 0.082409 0.000977
O O6 0.231791 0.953775 0.898148
O O7 0.424426 0.863774 0.963589
O O8 0.268152 0.819092 0.664877
O O9 0.500000 0.000000 0.500000
O O10 0.577033 0.738350 0.499987
O O11 0.440112 0.713253 0.347553
O O12 0.328246 0.583361 0.684187
O O13 0.422475 0.302105 0.008895
O O14 0.572954 0.513746 0.708173
O O15 0.826310 0.599454 0.301456
O O16 0.738150 0.622361 0.094338
O O17 0.000000 0.500000 0.000000
#
# Coordination Sequence:
#
# PCOD8034450 Si02
#       8
#     2   2   2   2   2   2   2   2
#     4  12  25  42  65  97 130 163 214 264 316 377
#     4  11  26  42  63  95 127 170 213 262 312 377
#     4  12  21  39  67  95 124 164 209 264 317 364
#     4   9  18  35  60  89 122 159 205 250 313 364
#     4  11  24  45  64  86 134 173 210 253 320 385
#     4   9  19  38  60  88 126 156 207 261 303 372
#     4   9  20  39  64  87 124 174 203 252 321 375
#     4   9  19  34  59  94 121 156 206 263 305 363
#
# _framework density 20.844957000000001
#
# number of rings (size 3 to 8) (size 9 to 14) (size 15 to 20)
#    0.000    1.750    2.500    3.000    5.250    1.500 
#    4.500    0.625    0.000    0.000    0.000    0.000 
#    0.000    0.000    0.000    0.000    0.000    0.000 
#
# Total GULP energy -198245.889277 kJ/mol
# GULP energy per Si atom -12390.368080 kJ/mol
# Density = 2.079751 g / cm^3
# Si number density = 20.844957 Si / 1000 Ang^3
#
#
#
# Elastic Constant Matrix: (Units=GPa)
#
#
# Indices 1 2 3 4 5 6 
#
# 1 51.4951 27.3234 45.2491 -1.4112 3.4360 -2.9785
# 2 27.3234 91.5831 26.7513 4.5576 13.3797 -1.0197
# 3 45.2491 26.7513 111.9433 4.2029 -7.3096 -23.8985
# 4 -1.4112 4.5576 4.2029 33.0946 -6.2221 2.6004
# 5 3.4360 13.3797 -7.3096 -6.2221 29.8820 -2.0306
# 6 -2.9785 -1.0197 -23.8985 2.6004 -2.0306 25.1427
#
#
#
# Elastic Compliance Matrix: (Units=1/GPa)
#
#
# Indices 1 2 3 4 5 6 
#
# 1 0.037031 -0.005617 -0.016915 0.004413 -0.005835 -0.012847
# 2 -0.005617 0.014330 -0.001967 -0.003116 -0.007050 -0.002201
# 3 -0.016915 -0.001967 0.020930 -0.002969 0.008606 0.018813
# 4 0.004413 -0.003116 -0.002969 0.032876 0.006648 -0.005289
# 5 -0.005835 -0.007050 0.008606 0.006648 0.041452 0.009863
# 6 -0.012847 -0.002201 0.018813 -0.005289 0.009863 0.057387
#
#
# Mechanical properties :
#
#
# Convention : Reuss Voigt Hill
#
# Bulk Modulus (GPa) = 42.93408 50.40768 46.67088
# Shear Modulus (GPa) = 19.17403 28.00372 23.58888
#
# Velocity S-wave (km/s) = 3.03618 3.66926 3.36763
# Velocity P-wave (km/s) = 5.73871 6.49507 6.12857
#
# Compressibility (1/GPa) = 0.02329152
#
# Stress axis : x y z
#
# Youngs Moduli (GPa) = 27.00477 69.78358 47.77757
#
# Poissons Ratio (x) = 0.39199 0.80817
# Poissons Ratio (y) = 0.15169 0.09399
# Poissons Ratio (z) = 0.45679 0.13728
#
# Static dielectric constant tensor:
#      x y z
#    x 3.494580 0.112010 0.088950 
#    y 0.112010 4.216920 0.163300 
#    z 0.088950 0.163300 3.598270 
# 
# 
# High freq. dielectric constant tensor:
#      x y z
#    x 1.793400 0.001710 0.000160 
#    y 0.001710 1.825990 0.001320 
#    z 0.000160 0.001320 1.812400 
# 
# From -- ./inp_files/186443.got.cif
#   From: 2010.06.25/outbox.cif.g09.slc.cpg/sg2_94_cif.got.tgz:186443.got - 2010.06.27 13:26:56.
