data_PCOD8034855
_publ_section_title
;
Structure prediction by ZEFSAII (Michael W. Deem and Ramdas Pophale) SiO2 
 PCOD8034855
Probable space group: P -1
;
_chemical_formula_sum "Si O2"
_cell_formula_units_Z 16
_cell_length_a 11.836662
_cell_length_b 9.038356
_cell_length_c 9.380808
_cell_angle_alpha 108.112215
_cell_angle_beta 59.997181
_cell_angle_gamma 120.729277
_cell_volume 745.014418
_symmetry_space_group_name_H-M "P -1"
_symmetry_group_IT_number 2
_symmetry_cell_setting 'triclinic'
loop_
_space_group_symop_operation_xyz
x,y,z
-x,-y,-z
loop_
_atom_site_type_symbol
_atom_site_label
_atom_site_fract_x
_atom_site_fract_y
_atom_site_fract_z
Si Si1 0.665656 0.918744 0.731571
Si Si2 0.877058 0.350840 0.445667
Si Si3 0.866827 0.026682 0.901019
Si Si4 0.842964 0.974911 0.369729
Si Si5 0.868150 0.358028 0.124432
Si Si6 0.613344 0.232093 0.771140
Si Si7 0.373022 0.615167 0.895565
Si Si8 0.679614 0.771627 0.152927
O O1 0.758933 0.012578 0.837788
O O2 0.771205 0.894496 0.542147
O O3 0.542071 0.733189 0.796254
O O4 0.592715 0.037748 0.752607
O O5 0.881604 0.407567 0.296641
O O6 0.722950 0.319892 0.599385
O O7 0.000000 0.500000 0.500000
O O8 0.902584 0.180396 0.394699
O O9 0.808777 0.851467 0.978898
O O10 0.025084 0.074171 0.754432
O O11 0.873443 0.175615 0.048143
O O12 0.719707 0.888970 0.303344
O O13 0.718420 0.350150 0.159654
O O14 0.000000 0.500000 0.000000
O O15 0.460517 0.224126 0.825602
O O16 0.674534 0.345244 0.908558
O O17 0.345910 0.418604 0.847743
#
# Coordination Sequence:
#
# PCOD8034855 Si02
#       8
#     2   2   2   2   2   2   2   2
#     4  11  25  45  71 103 137 183 231 288 343 408
#     4  11  27  45  71 103 138 183 229 285 345 418
#     4  12  24  48  72  98 143 183 231 282 347 413
#     4  11  27  44  70 101 142 183 227 285 348 408
#     4  12  26  45  74 102 137 185 233 284 341 412
#     4  11  24  46  72  99 142 182 231 283 350 406
#     4  12  25  45  71 105 139 180 238 282 343 412
#     4  12  26  44  70 103 139 187 228 287 346 409
#
# _framework density 21.476094
#
# number of rings (size 3 to 8) (size 9 to 14) (size 15 to 20)
#    0.000    0.500    3.750    3.750    7.000    1.500 
#    4.500    0.000    0.000    0.000    0.000    0.000 
#    0.000    0.000    0.000    0.000    0.000    0.000 
#
# Total GULP energy -198528.942930 kJ/mol
# GULP energy per Si atom -12408.058933 kJ/mol
# Density = 2.142721 g / cm^3
# Si number density = 21.476094 Si / 1000 Ang^3
#
#
#
# Elastic Constant Matrix: (Units=GPa)
#
#
# Indices 1 2 3 4 5 6 
#
# 1 99.4777 39.9794 47.1518 10.5269 7.5367 8.2251
# 2 39.9794 111.2082 59.6555 4.5775 2.5534 -0.6930
# 3 47.1518 59.6555 158.0470 -9.1413 16.2827 7.1200
# 4 10.5269 4.5775 -9.1413 37.9142 1.7867 -0.1788
# 5 7.5367 2.5534 16.2827 1.7867 37.7908 6.5361
# 6 8.2251 -0.6930 7.1200 -0.1788 6.5361 29.3553
#
#
#
# Elastic Compliance Matrix: (Units=1/GPa)
#
#
# Indices 1 2 3 4 5 6 
#
# 1 0.013374 -0.003118 -0.002856 -0.004016 -0.000511 -0.003039
# 2 -0.003118 0.012326 -0.004033 -0.001647 0.001285 0.001847
# 3 -0.002856 -0.004033 0.009279 0.003663 -0.003188 -0.000813
# 4 -0.004016 -0.001647 0.003663 0.028679 -0.002170 0.000856
# 5 -0.000511 0.001285 -0.003188 -0.002170 0.028904 -0.005502
# 6 -0.003039 0.001847 -0.000813 0.000856 -0.005502 0.036388
#
#
# Mechanical properties :
#
#
# Convention : Reuss Voigt Hill
#
# Bulk Modulus (GPa) = 66.82297 73.58959 70.20628
# Shear Modulus (GPa) = 32.47741 35.80848 34.14294
#
# Velocity S-wave (km/s) = 3.89300 4.08777 3.99157
# Velocity P-wave (km/s) = 7.16867 7.52463 7.34880
#
# Compressibility (1/GPa) = 0.01496491
#
# Stress axis : x y z
#
# Youngs Moduli (GPa) = 74.77086 81.12662 107.77412
#
# Poissons Ratio (x) = 0.25295 0.30780
# Poissons Ratio (y) = 0.23313 0.43469
# Poissons Ratio (z) = 0.21354 0.32721
#
# Static dielectric constant tensor:
#      x y z
#    x 3.877970 0.110740 0.101810 
#    y 0.110740 3.966830 -0.105220 
#    z 0.101810 -0.105220 4.192720 
# 
# 
# High freq. dielectric constant tensor:
#      x y z
#    x 1.849240 0.007980 0.006260 
#    y 0.007980 1.848900 -0.004950 
#    z 0.006260 -0.004950 1.857110 
# 
# From -- ./inp_files/184942.got.cif
#   From: 2010.06.25/outbox.cif.g09.slc.cpg/sg2_93_cif.got.tgz:184942.got - 2010.06.27 13:26:56.
