data_PCOD8034924
_publ_section_title
;
Structure prediction by ZEFSAII (Michael W. Deem and Ramdas Pophale) SiO2 
 PCOD8034924
Probable space group: P -1
;
_chemical_formula_sum "Si O2"
_cell_formula_units_Z 12
_cell_length_a 13.446644
_cell_length_b 18.035184
_cell_length_c 16.186203
_cell_angle_alpha 25.143450
_cell_angle_beta 163.074948
_cell_angle_gamma 152.089940
_cell_volume 480.573441
_symmetry_space_group_name_H-M "P -1"
_symmetry_group_IT_number 2
_symmetry_cell_setting 'triclinic'
loop_
_space_group_symop_operation_xyz
x,y,z
-x,-y,-z
loop_
_atom_site_type_symbol
_atom_site_label
_atom_site_fract_x
_atom_site_fract_y
_atom_site_fract_z
Si Si1 0.512750 0.865183 0.762631
Si Si2 0.190073 0.344296 0.923527
Si Si3 0.326992 0.093126 0.616830
Si Si4 0.460799 0.229150 0.414159
Si Si5 0.608086 0.529291 0.649167
Si Si6 0.281795 0.212422 0.817833
O O1 0.748460 0.816382 0.924302
O O2 0.125664 0.817220 0.471733
O O3 0.617353 0.072929 0.649449
O O4 0.563423 0.763189 0.991434
O O5 0.197228 0.304765 0.066856
O O6 0.500000 0.500000 0.000000
O O7 0.794582 0.375100 0.557903
O O8 0.236133 0.150408 0.393701
O O9 0.468976 0.273267 0.593993
O O10 0.000000 0.000000 0.500000
O O11 0.601414 0.955559 0.967782
O O12 0.500000 0.500000 0.500000
O O13 0.386135 0.393155 0.670175
O O14 0.000000 0.500000 0.000000
#
# Coordination Sequence:
#
# PCOD8034924 Si02
#       6
#     2   2   2   2   2   2
#     4  11  24  46  75  98 147 183 238 290 355 429
#     4  12  26  44  72 107 144 182 235 297 354 423
#     4  11  26  49  75 105 148 189 241 297 354 430
#     4  11  25  46  70 105 137 193 235 286 360 423
#     4  12  27  45  72 103 145 190 241 296 358 416
#     4  11  25  46  72 110 139 194 237 292 360 425
#
# _framework density 24.970168999999999
#
# number of rings (size 3 to 8) (size 9 to 14) (size 15 to 20)
#    0.000    0.667    1.667    5.500    7.000    4.667 
#    0.000    0.000    0.000    0.000    0.000    0.000 
#    0.000    0.000    0.000    0.000    0.000    0.000 
#
# Total GULP energy -148769.453674 kJ/mol
# GULP energy per Si atom -12397.454473 kJ/mol
# Density = 2.491334 g / cm^3
# Si number density = 24.970169 Si / 1000 Ang^3
#
#
#
# Elastic Constant Matrix: (Units=GPa)
#
#
# Indices 1 2 3 4 5 6 
#
# 1 127.6207 29.6549 40.9066 1.9932 -29.0912 -3.5477
# 2 29.6549 112.9611 10.0050 -7.5423 -7.7881 1.9293
# 3 40.9066 10.0050 95.0005 12.8560 -11.3747 -8.5511
# 4 1.9932 -7.5423 12.8560 38.0895 1.8214 1.6953
# 5 -29.0912 -7.7881 -11.3747 1.8214 43.7899 0.9822
# 6 -3.5477 1.9293 -8.5511 1.6953 0.9822 45.7575
#
#
#
# Elastic Compliance Matrix: (Units=1/GPa)
#
#
# Indices 1 2 3 4 5 6 
#
# 1 0.010869 -0.002120 -0.003743 -0.000011 0.005870 0.000107
# 2 -0.002120 0.009616 -0.000450 0.002194 0.000110 -0.000738
# 3 -0.003743 -0.000450 0.013116 -0.004470 0.000974 0.002325
# 4 -0.000011 0.002194 -0.004470 0.028376 -0.001915 -0.001939
# 5 0.005870 0.000110 0.000974 -0.001915 0.027085 0.000122
# 6 0.000107 -0.000738 0.002325 -0.001939 0.000122 0.022397
#
#
# Mechanical properties :
#
#
# Convention : Reuss Voigt Hill
#
# Bulk Modulus (GPa) = 47.67532 55.19060 51.43296
# Shear Modulus (GPa) = 38.14551 42.52843 40.33697
#
# Velocity S-wave (km/s) = 3.91275 4.13142 4.02357
# Velocity P-wave (km/s) = 6.28865 6.70140 6.49831
#
# Compressibility (1/GPa) = 0.02097521
#
# Stress axis : x y z
#
# Youngs Moduli (GPa) = 92.00329 103.99694 76.24138
#
# Poissons Ratio (x) = 0.22045 0.28538
# Poissons Ratio (y) = 0.19502 0.03431
# Poissons Ratio (z) = 0.34438 0.04681
#
# Static dielectric constant tensor:
#      x y z
#    x 5.770630 -1.209050 0.096370 
#    y -1.209050 6.301940 -0.373700 
#    z 0.096370 -0.373700 4.755830 
# 
# 
# High freq. dielectric constant tensor:
#      x y z
#    x 2.013010 -0.001490 -0.003570 
#    y -0.001490 2.006030 0.005540 
#    z -0.003570 0.005540 1.990950 
# 
# From -- ./inp_files/129669.got.cif
#   From: 2010.06.25/outbox.cif.g09.slc.cpg/sg2_65_cif.got.tgz:129669.got - 2010.06.27 13:26:56.
