data_PCOD8034543
_publ_section_title
;
Structure prediction by ZEFSAII (Michael W. Deem and Ramdas Pophale) SiO2 
 PCOD8034543
Probable space group: P -1
;
_chemical_formula_sum "Si O2"
_cell_formula_units_Z 16
_cell_length_a 16.866253
_cell_length_b 11.018102
_cell_length_c 8.389044
_cell_angle_alpha 124.740953
_cell_angle_beta 83.465279
_cell_angle_gamma 138.656019
_cell_volume 690.260420
_symmetry_space_group_name_H-M "P -1"
_symmetry_group_IT_number 2
_symmetry_cell_setting 'triclinic'
loop_
_space_group_symop_operation_xyz
x,y,z
-x,-y,-z
loop_
_atom_site_type_symbol
_atom_site_label
_atom_site_fract_x
_atom_site_fract_y
_atom_site_fract_z
Si Si1 0.614686 0.890777 0.335455
Si Si2 0.679919 0.280919 0.435813
Si Si3 0.662549 0.803297 0.733246
Si Si4 0.899244 0.004118 0.637425
Si Si5 0.886552 0.771263 0.983745
Si Si6 0.374815 0.956141 0.215852
Si Si7 0.837667 0.576129 0.303908
Si Si8 0.301630 0.254480 0.965726
O O1 0.453466 0.574604 0.146732
O O2 0.618465 0.024792 0.302398
O O3 0.668357 0.039535 0.601958
O O4 0.718511 0.917235 0.274591
O O5 0.755622 0.470561 0.714426
O O6 0.797253 0.450856 0.393401
O O7 0.545603 0.176453 0.334992
O O8 0.500000 0.500000 0.500000
O O9 0.714149 0.820883 0.903506
O O10 0.775861 0.927198 0.662753
O O11 0.659119 0.975920 0.863012
O O12 0.992253 0.203510 0.610342
O O13 0.819091 0.724068 0.415407
O O14 0.029027 0.191880 0.877857
O O15 0.823016 0.823213 0.112813
O O16 0.000000 0.000000 0.000000
O O17 0.274152 0.658573 0.980145
#
# Coordination Sequence:
#
# PCOD8034543 Si02
#       8
#     2   2   2   2   2   2   2   2
#     4  11  25  43  70 106 140 178 238 288 348 406
#     4  12  24  47  71 109 137 186 238 290 350 413
#     4  12  23  46  72 101 145 178 233 289 355 420
#     4  11  26  45  71 104 139 190 229 287 352 425
#     4  12  22  46  75  98 142 182 237 286 347 424
#     4  12  25  45  71 105 144 185 230 299 347 413
#     4  11  25  44  67 103 141 183 233 281 354 416
#     4  11  24  45  70 108 136 184 230 290 353 411
#
# _framework density 23.179659000000001
#
# number of rings (size 3 to 8) (size 9 to 14) (size 15 to 20)
#    0.000    0.500    5.000    3.000    1.750    3.500 
#    2.250    1.875    0.000    0.000    0.000    0.000 
#    0.000    0.000    0.000    0.000    0.000    0.000 
#
# Total GULP energy -198419.038270 kJ/mol
# GULP energy per Si atom -12401.189892 kJ/mol
# Density = 2.312690 g / cm^3
# Si number density = 23.179659 Si / 1000 Ang^3
#
#
#
# Elastic Constant Matrix: (Units=GPa)
#
#
# Indices 1 2 3 4 5 6 
#
# 1 118.7872 45.9950 33.8506 8.1165 -7.8988 15.6941
# 2 45.9950 133.7783 28.0392 -4.0410 -16.8450 5.6819
# 3 33.8506 28.0392 132.9388 2.0339 -15.0242 4.6218
# 4 8.1165 -4.0410 2.0339 31.9030 -0.9628 -3.8562
# 5 -7.8988 -16.8450 -15.0242 -0.9628 32.0780 -0.2144
# 6 15.6941 5.6819 4.6218 -3.8562 -0.2144 41.7339
#
#
#
# Elastic Compliance Matrix: (Units=1/GPa)
#
#
# Indices 1 2 3 4 5 6 
#
# 1 0.010996 -0.003334 -0.001919 -0.003559 -0.000074 -0.003798
# 2 -0.003334 0.009307 -0.000729 0.002223 0.003793 0.000292
# 3 -0.001919 -0.000729 0.008524 -0.000067 0.003134 -0.000113
# 4 -0.003559 0.002223 -0.000067 0.033071 0.001280 0.004105
# 5 -0.000074 0.003793 0.003134 0.001280 0.034650 -0.000539
# 6 -0.003798 0.000292 -0.000113 0.004105 -0.000539 0.025739
#
#
# Mechanical properties :
#
#
# Convention : Reuss Voigt Hill
#
# Bulk Modulus (GPa) = 59.30383 66.80821 63.05602
# Shear Modulus (GPa) = 35.74694 39.65093 37.69893
#
# Velocity S-wave (km/s) = 3.93131 4.14042 4.03722
# Velocity P-wave (km/s) = 6.80050 7.19318 6.99960
#
# Compressibility (1/GPa) = 0.01686232
#
# Stress axis : x y z
#
# Youngs Moduli (GPa) = 90.94084 107.45055 117.31836
#
# Poissons Ratio (x) = 0.35824 0.22509
# Poissons Ratio (y) = 0.30320 0.08558
# Poissons Ratio (z) = 0.17448 0.07838
#
# Static dielectric constant tensor:
#      x y z
#    x 4.312330 0.301450 -0.513830 
#    y 0.301450 4.715800 -0.299660 
#    z -0.513830 -0.299660 4.452840 
# 
# 
# High freq. dielectric constant tensor:
#      x y z
#    x 1.907880 0.003810 -0.010750 
#    y 0.003810 1.933980 -0.002570 
#    z -0.010750 -0.002570 1.919790 
# 
# From -- ./inp_files/333768.got.cif
#   From: 2010.06.25/outbox.cif.g09.slc.cpg/sg2_167_cif.got.tgz:333768.got - 2010.06.27 13:26:56.
