data_PCOD8034109
_publ_section_title
;
Structure prediction by ZEFSAII (Michael W. Deem and Ramdas Pophale) SiO2 
 PCOD8034109
Probable space group: P -1
;
_chemical_formula_sum "Si O2"
_cell_formula_units_Z 16
_cell_length_a 12.016815
_cell_length_b 27.385145
_cell_length_c 9.394640
_cell_angle_alpha 26.893223
_cell_angle_beta 140.972120
_cell_angle_gamma 149.164712
_cell_volume 715.977714
_symmetry_space_group_name_H-M "P -1"
_symmetry_group_IT_number 2
_symmetry_cell_setting 'triclinic'
loop_
_space_group_symop_operation_xyz
x,y,z
-x,-y,-z
loop_
_atom_site_type_symbol
_atom_site_label
_atom_site_fract_x
_atom_site_fract_y
_atom_site_fract_z
Si Si1 0.804479 0.573488 0.132793
Si Si2 0.701839 0.220160 0.955913
Si Si3 0.454423 0.027295 0.728247
Si Si4 0.665228 0.451634 0.623467
Si Si5 0.442092 0.314908 0.323259
Si Si6 0.194947 0.329966 0.581043
Si Si7 0.199840 0.135807 0.280043
Si Si8 0.764271 0.242092 0.275052
O O1 0.732303 0.492384 0.420594
O O2 0.661954 0.466632 0.143088
O O3 0.059360 0.641345 0.184777
O O4 0.747961 0.681814 0.798307
O O5 0.503529 0.227843 0.694262
O O6 0.658043 0.175323 0.192100
O O7 0.699920 0.112784 0.138716
O O8 0.338398 0.100293 0.422382
O O9 0.675558 0.126549 0.604423
O O10 0.500000 0.000000 0.000000
O O11 0.412510 0.388540 0.556394
O O12 0.798174 0.577317 0.530902
O O13 0.716996 0.348853 0.990882
O O14 0.357548 0.252547 0.245490
O O15 0.020661 0.308817 0.347661
O O16 0.114185 0.192109 0.936129
O O17 0.000000 0.000000 0.500000
#
# Coordination Sequence:
#
# PCOD8034109 Si02
#       8
#     2   2   2   2   2   2   2   2
#     4  11  25  43  74 109 139 189 236 286 362 423
#     4  12  27  46  72 107 145 187 237 294 353 421
#     4  12  26  48  73 100 141 187 242 289 348 427
#     4  11  24  45  68 104 144 186 236 292 354 423
#     4  11  24  43  73 102 145 179 238 292 349 417
#     4  11  26  44  68 103 146 183 234 299 353 418
#     4  12  24  46  73 105 138 190 246 291 351 420
#     4  12  27  46  70 106 141 188 234 292 361 420
#
# _framework density 22.347064
#
# number of rings (size 3 to 8) (size 9 to 14) (size 15 to 20)
#    0.000    0.500    5.000    2.625    5.250    0.000 
#    0.000    0.625    0.000    0.000    0.000    0.000 
#    0.000    0.000    0.000    0.000    0.000    0.000 
#
# Total GULP energy -198423.985542 kJ/mol
# GULP energy per Si atom -12401.499096 kJ/mol
# Density = 2.229620 g / cm^3
# Si number density = 22.347064 Si / 1000 Ang^3
#
#
#
# Elastic Constant Matrix: (Units=GPa)
#
#
# Indices 1 2 3 4 5 6 
#
# 1 73.7579 24.0000 40.0592 -2.1498 -1.1581 -8.8563
# 2 24.0000 75.0664 48.1188 -0.1942 15.6559 -4.7942
# 3 40.0592 48.1188 105.4095 7.9215 -1.9507 -13.3163
# 4 -2.1498 -0.1942 7.9215 41.0159 4.6628 6.5050
# 5 -1.1581 15.6559 -1.9507 4.6628 37.1907 -11.4996
# 6 -8.8563 -4.7942 -13.3163 6.5050 -11.4996 36.2171
#
#
#
# Elastic Compliance Matrix: (Units=1/GPa)
#
#
# Indices 1 2 3 4 5 6 
#
# 1 0.017607 -0.002430 -0.005352 0.001361 0.001849 0.002359
# 2 -0.002430 0.023759 -0.011378 0.004768 -0.013352 -0.006728
# 3 -0.005352 -0.011378 0.018321 -0.006106 0.008761 0.007800
# 4 0.001361 0.004768 -0.006106 0.028068 -0.008603 -0.009054
# 5 0.001849 -0.013352 0.008761 -0.008603 0.039001 0.015835
# 6 0.002359 -0.006728 0.007800 -0.009054 0.015835 0.036819
#
#
# Mechanical properties :
#
#
# Convention : Reuss Voigt Hill
#
# Bulk Modulus (GPa) = 46.79987 53.17663 49.98825
# Shear Modulus (GPa) = 23.92129 32.35513 28.13821
#
# Velocity S-wave (km/s) = 3.27531 3.80919 3.55229
# Velocity P-wave (km/s) = 5.94065 6.57221 6.26440
#
# Compressibility (1/GPa) = 0.02136758
#
# Stress axis : x y z
#
# Youngs Moduli (GPa) = 56.79444 42.08892 54.58211
#
# Poissons Ratio (x) = 0.10228 0.29213
# Poissons Ratio (y) = 0.13802 0.62102
# Poissons Ratio (z) = 0.30397 0.47888
#
# Static dielectric constant tensor:
#      x y z
#    x 3.777570 -0.259730 0.279330 
#    y -0.259730 3.987120 0.033100 
#    z 0.279330 0.033100 4.121060 
# 
# 
# High freq. dielectric constant tensor:
#      x y z
#    x 1.882920 -0.005290 0.014860 
#    y -0.005290 1.879940 0.005240 
#    z 0.014860 0.005240 1.893440 
# 
# From -- ./inp_files/285780.got.cif
#   From: 2010.06.25/outbox.cif.g09.slc.cpg/sg2_143_cif.got.tgz:285780.got - 2010.06.27 13:26:56.
