data_PCOD8034659
_publ_section_title
;
Structure prediction by ZEFSAII (Michael W. Deem and Ramdas Pophale) SiO2 
 PCOD8034659
Probable space group: P -1
;
_chemical_formula_sum "Si O2"
_cell_formula_units_Z 16
_cell_length_a 8.053792
_cell_length_b 9.388675
_cell_length_c 11.242067
_cell_angle_alpha 89.222908
_cell_angle_beta 55.766975
_cell_angle_gamma 105.074531
_cell_volume 664.863346
_symmetry_space_group_name_H-M "P -1"
_symmetry_group_IT_number 2
_symmetry_cell_setting 'triclinic'
loop_
_space_group_symop_operation_xyz
x,y,z
-x,-y,-z
loop_
_atom_site_type_symbol
_atom_site_label
_atom_site_fract_x
_atom_site_fract_y
_atom_site_fract_z
Si Si1 0.161509 0.011407 0.108504
Si Si2 0.076014 0.724644 0.304306
Si Si3 0.743238 0.321477 0.285973
Si Si4 0.645854 0.578390 0.594015
Si Si5 0.382025 0.297309 0.154043
Si Si6 0.338072 0.745222 0.419514
Si Si7 0.280634 0.979649 0.799250
Si Si8 0.802782 0.489027 0.904419
O O1 0.312985 0.124803 0.141487
O O2 0.951650 0.053525 0.163496
O O3 0.100958 0.848103 0.192091
O O4 0.290688 0.016242 0.934795
O O5 0.187742 0.788510 0.383201
O O6 0.181435 0.602426 0.219238
O O7 0.826166 0.642098 0.422361
O O8 0.572874 0.408281 0.367939
O O9 0.783497 0.274123 0.404952
O O10 0.654768 0.170796 0.243776
O O11 0.960761 0.432797 0.139061
O O12 0.718725 0.683009 0.680044
O O13 0.614305 0.405458 0.637935
O O14 0.298602 0.381353 0.083086
O O15 0.640535 0.372504 0.062454
O O16 0.558168 0.881258 0.337036
#
# Coordination Sequence:
#
# PCOD8034659 Si02
#       8
#     2   2   2   2   2   2   2   2
#     4  11  27  48  73 102 149 188 241 292 361 427
#     4  12  26  47  77 106 143 193 238 300 357 422
#     4  12  26  47  71 107 148 192 237 292 362 431
#     4  12  27  45  75 111 142 188 244 295 360 425
#     4  11  25  47  72 107 142 190 246 296 350 425
#     4  12  25  46  75 104 148 185 238 299 357 423
#     4  11  27  48  70 106 146 194 231 296 361 430
#     4  11  24  45  74 102 145 189 242 297 353 421
#
# _framework density 24.065094999999999
#
# number of rings (size 3 to 8) (size 9 to 14) (size 15 to 20)
#    0.000    0.500    3.750    3.375    7.000    2.000 
#    0.000    0.000    0.000    0.000    0.000    0.000 
#    0.000    0.000    0.000    0.000    0.000    0.000 
#
# Total GULP energy -198493.146980 kJ/mol
# GULP energy per Si atom -12405.821686 kJ/mol
# Density = 2.401032 g / cm^3
# Si number density = 24.065095 Si / 1000 Ang^3
#
#
#
# Elastic Constant Matrix: (Units=GPa)
#
#
# Indices 1 2 3 4 5 6 
#
# 1 51.3990 18.3665 2.9968 -11.0342 -13.2584 -0.5075
# 2 18.3665 124.3411 44.1028 -8.3733 -9.2414 14.2815
# 3 2.9968 44.1028 87.9282 -8.9210 -17.1692 1.0096
# 4 -11.0342 -8.3733 -8.9210 41.3067 7.0489 -0.9243
# 5 -13.2584 -9.2414 -17.1692 7.0489 43.5303 1.6036
# 6 -0.5075 14.2815 1.0096 -0.9243 1.6036 36.3982
#
#
#
# Elastic Compliance Matrix: (Units=1/GPa)
#
#
# Indices 1 2 3 4 5 6 
#
# 1 0.023460 -0.003853 0.002914 0.005024 0.006605 0.001595
# 2 -0.003853 0.010977 -0.005489 0.000065 -0.000865 -0.004169
# 3 0.002914 -0.005489 0.015264 0.002085 0.005346 0.001588
# 4 0.005024 0.000065 0.002085 0.026361 -0.001929 0.000741
# 5 0.006605 -0.000865 0.005346 -0.001929 0.027257 -0.000967
# 6 0.001595 -0.004169 0.001588 0.000741 -0.000967 0.029149
#
#
# Mechanical properties :
#
#
# Convention : Reuss Voigt Hill
#
# Bulk Modulus (GPa) = 27.14010 43.84451 35.49231
# Shear Modulus (GPa) = 31.72449 37.46052 34.59251
#
# Velocity S-wave (km/s) = 3.63475 3.94970 3.79549
# Velocity P-wave (km/s) = 5.37750 6.24971 5.82994
#
# Compressibility (1/GPa) = 0.03684584
#
# Stress axis : x y z
#
# Youngs Moduli (GPa) = 42.62500 91.09655 65.51303
#
# Poissons Ratio (x) = 0.35098 -0.19090
# Poissons Ratio (y) = 0.16423 0.35961
# Poissons Ratio (z) = -0.12421 0.50004
#
# Static dielectric constant tensor:
#      x y z
#    x 4.130880 0.070980 -0.111910 
#    y 0.070980 4.212530 0.011010 
#    z -0.111910 0.011010 4.378470 
# 
# 
# High freq. dielectric constant tensor:
#      x y z
#    x 1.953800 0.005150 -0.004280 
#    y 0.005150 1.958520 0.001760 
#    z -0.004280 0.001760 1.960620 
# 
# From -- ./inp_files/382224.got.cif
#   From: 2010.06.25/outbox.cif.g09.slc.cpg/sg2_192_cif.got.tgz:382224.got - 2010.06.27 13:26:56.
