data_PCOD8034995
_publ_section_title
;
Structure prediction by ZEFSAII (Michael W. Deem and Ramdas Pophale) SiO2 
 PCOD8034995
Probable space group: P -1
;
_chemical_formula_sum "Si O2"
_cell_formula_units_Z 16
_cell_length_a 10.150886
_cell_length_b 14.640133
_cell_length_c 7.932684
_cell_angle_alpha 114.660435
_cell_angle_beta 45.718272
_cell_angle_gamma 94.365993
_cell_volume 723.839297
_symmetry_space_group_name_H-M "P -1"
_symmetry_group_IT_number 2
_symmetry_cell_setting 'triclinic'
loop_
_space_group_symop_operation_xyz
x,y,z
-x,-y,-z
loop_
_atom_site_type_symbol
_atom_site_label
_atom_site_fract_x
_atom_site_fract_y
_atom_site_fract_z
Si Si1 0.035331 0.828725 0.769578
Si Si2 0.624181 0.832000 0.596764
Si Si3 0.790990 0.293571 0.807668
Si Si4 0.985394 0.901150 0.333282
Si Si5 0.189561 0.299060 0.986837
Si Si6 0.359743 0.304074 0.194656
Si Si7 0.774835 0.054225 0.120366
Si Si8 0.017536 0.530185 0.198618
O O1 0.988238 0.749747 0.888359
O O2 0.078017 0.765074 0.509699
O O3 0.226394 0.866687 0.660398
O O4 0.834644 0.929904 0.012002
O O5 0.766029 0.901180 0.534164
O O6 0.616422 0.784488 0.751028
O O7 0.414729 0.914493 0.800404
O O8 0.685062 0.743116 0.326916
O O9 0.840279 0.400289 0.876964
O O10 0.859512 0.212101 0.838605
O O11 0.560172 0.328912 0.014299
O O12 0.000000 0.000000 0.500000
O O13 0.038780 0.924620 0.116481
O O14 0.311169 0.263935 0.025100
O O15 0.110700 0.426192 0.148666
O O16 0.192122 0.409972 0.486637
O O17 0.000000 0.500000 0.000000
#
# Coordination Sequence:
#
# PCOD8034995 Si02
#       8
#     2   2   2   2   2   2   2   2
#     4  11  24  47  71 104 146 186 236 295 354 421
#     4  12  25  47  73 106 144 189 237 290 358 425
#     4  12  25  46  71 103 144 182 240 292 352 427
#     4  12  23  42  68 100 141 187 231 292 350 416
#     4  12  25  48  75 102 148 187 236 302 351 417
#     4  12  26  45  74 107 139 188 238 290 356 424
#     4  11  25  44  72 105 142 190 233 288 360 424
#     4  12  26  49  73 102 144 191 238 296 360 415
#
# _framework density 22.104355000000002
#
# number of rings (size 3 to 8) (size 9 to 14) (size 15 to 20)
#    0.000    0.250    7.500    1.125    0.000    3.000 
#    2.250    0.000    0.000    0.000    0.000    0.000 
#    0.000    0.000    0.000    0.000    0.000    0.000 
#
# Total GULP energy -198372.802586 kJ/mol
# GULP energy per Si atom -12398.300162 kJ/mol
# Density = 2.205404 g / cm^3
# Si number density = 22.104355 Si / 1000 Ang^3
#
#
#
# Elastic Constant Matrix: (Units=GPa)
#
#
# Indices 1 2 3 4 5 6 
#
# 1 136.9020 50.4284 37.1810 7.0426 -9.9906 10.0485
# 2 50.4284 143.0011 32.7267 14.8703 -9.2248 12.0330
# 3 37.1810 32.7267 62.9612 3.5369 -4.4820 10.3649
# 4 7.0426 14.8703 3.5369 27.3223 1.8031 2.7321
# 5 -9.9906 -9.2248 -4.4820 1.8031 43.0890 -3.1372
# 6 10.0485 12.0330 10.3649 2.7321 -3.1372 44.9235
#
#
#
# Elastic Compliance Matrix: (Units=1/GPa)
#
#
# Indices 1 2 3 4 5 6 
#
# 1 0.009411 -0.002154 -0.004236 -0.000748 0.001281 -0.000416
# 2 -0.002154 0.008992 -0.002942 -0.003946 0.001218 -0.000923
# 3 -0.004236 -0.002942 0.020404 0.000331 0.000280 -0.002973
# 4 -0.000748 -0.003946 0.000331 0.039221 -0.002729 -0.001428
# 5 0.001281 0.001218 0.000280 -0.002729 0.023994 0.001164
# 6 -0.000416 -0.000923 -0.002973 -0.001428 0.001164 0.023454
#
#
# Mechanical properties :
#
#
# Convention : Reuss Voigt Hill
#
# Bulk Modulus (GPa) = 49.64339 64.83740 57.24039
# Shear Modulus (GPa) = 33.14443 37.90218 35.52330
#
# Velocity S-wave (km/s) = 3.87648 4.14538 4.01318
# Velocity P-wave (km/s) = 6.52254 7.23245 6.88665
#
# Compressibility (1/GPa) = 0.02014367
#
# Stress axis : x y z
#
# Youngs Moduli (GPa) = 106.26010 111.20603 49.00891
#
# Poissons Ratio (x) = 0.23951 0.20762
# Poissons Ratio (y) = 0.22886 0.14418
# Poissons Ratio (z) = 0.45015 0.32716
#
# Static dielectric constant tensor:
#      x y z
#    x 4.524820 0.015580 0.634650 
#    y 0.015580 4.185110 -0.015830 
#    z 0.634650 -0.015830 4.541140 
# 
# 
# High freq. dielectric constant tensor:
#      x y z
#    x 1.885210 0.002590 0.016330 
#    y 0.002590 1.879050 -0.003520 
#    z 0.016330 -0.003520 1.867070 
# 
# From -- ./inp_files/270797.got.cif
#   From: 2010.06.25/outbox.cif.g09.slc.cpg/sg2_136_cif.got.tgz:270797.got - 2010.06.27 13:26:56.
