data_PCOD8034904
_publ_section_title
;
Structure prediction by ZEFSAII (Michael W. Deem and Ramdas Pophale) SiO2 
 PCOD8034904
Probable space group: P -1
;
_chemical_formula_sum "Si O2"
_cell_formula_units_Z 14
_cell_length_a 8.644405
_cell_length_b 11.330467
_cell_length_c 13.711904
_cell_angle_alpha 146.513743
_cell_angle_beta 126.054615
_cell_angle_gamma 66.094904
_cell_volume 587.912825
_symmetry_space_group_name_H-M "P -1"
_symmetry_group_IT_number 2
_symmetry_cell_setting 'triclinic'
loop_
_space_group_symop_operation_xyz
x,y,z
-x,-y,-z
loop_
_atom_site_type_symbol
_atom_site_label
_atom_site_fract_x
_atom_site_fract_y
_atom_site_fract_z
Si Si1 0.707599 0.675949 0.637397
Si Si2 0.232412 0.858235 0.366783
Si Si3 0.539109 0.268278 0.812874
Si Si4 0.168972 0.110444 0.847276
Si Si5 0.917356 0.251575 0.276710
Si Si6 0.315958 0.522264 0.312116
Si Si7 0.577850 0.095350 0.908076
O O1 0.553906 0.552042 0.414372
O O2 0.747703 0.503375 0.615078
O O3 0.905710 0.819121 0.766178
O O4 0.596941 0.848604 0.768276
O O5 0.310326 0.715567 0.211049
O O6 0.250077 0.735428 0.390742
O O7 0.008254 0.867115 0.273202
O O8 0.345047 0.108208 0.590460
O O9 0.635289 0.155427 0.858894
O O10 0.500000 0.500000 0.000000
O O11 0.357301 0.124008 0.859443
O O12 0.124647 0.885964 0.735644
O O13 0.205133 0.308623 0.071538
O O14 0.000000 0.500000 0.500000
O O15 0.722988 0.246948 0.139184
#
# Coordination Sequence:
#
# PCOD8034904 Si02
#       7
#     2   2   2   2   2   2   2
#     4  11  25  46  75 105 138 187 238 303 356 429
#     4  11  26  49  74 106 150 194 240 301 362 435
#     4  11  26  47  75 107 146 192 247 298 360 430
#     4  12  27  45  72 106 145 191 234 298 367 433
#     4  12  28  44  73 107 143 187 243 297 367 430
#     4  11  24  46  75 101 145 184 240 296 364 425
#     4  12  25  49  72 105 144 186 244 297 359 436
#
# _framework density 23.813056
#
# number of rings (size 3 to 8) (size 9 to 14) (size 15 to 20)
#    0.000    0.571    2.857    3.857   10.000    0.571 
#    2.571    0.000    0.000    0.000    0.000    0.000 
#    0.000    0.000    0.000    0.000    0.000    0.000 
#
# Total GULP energy -173577.288846 kJ/mol
# GULP energy per Si atom -12398.377775 kJ/mol
# Density = 2.375886 g / cm^3
# Si number density = 23.813056 Si / 1000 Ang^3
#
#
#
# Elastic Constant Matrix: (Units=GPa)
#
#
# Indices 1 2 3 4 5 6 
#
# 1 80.2173 52.1260 26.9568 -12.1259 14.4272 -18.9358
# 2 52.1260 150.1367 48.7538 -28.4152 14.3151 2.6918
# 3 26.9568 48.7538 134.1468 1.2907 4.9646 -14.6447
# 4 -12.1259 -28.4152 1.2907 41.9529 -3.9060 4.2464
# 5 14.4272 14.3151 4.9646 -3.9060 29.4853 1.5425
# 6 -18.9358 2.6918 -14.6447 4.2464 1.5425 38.0428
#
#
#
# Elastic Compliance Matrix: (Units=1/GPa)
#
#
# Indices 1 2 3 4 5 6 
#
# 1 0.020815 -0.006684 -0.000263 -0.000324 -0.007517 0.011073
# 2 -0.006684 0.011553 -0.003580 0.006584 -0.000537 -0.006236
# 3 -0.000263 -0.003580 0.009297 -0.003231 -0.000340 0.004076
# 4 -0.000324 0.006584 -0.003231 0.028975 0.001615 -0.005170
# 5 -0.007517 -0.000537 -0.000340 0.001615 0.038417 -0.005573
# 6 0.011073 -0.006236 0.004076 -0.005170 -0.005573 0.034611
#
#
# Mechanical properties :
#
#
# Convention : Reuss Voigt Hill
#
# Bulk Modulus (GPa) = 48.51925 68.90823 58.71374
# Shear Modulus (GPa) = 29.13861 37.67382 33.40622
#
# Velocity S-wave (km/s) = 3.50185 3.98183 3.74953
# Velocity P-wave (km/s) = 6.06382 7.08096 6.59204
#
# Compressibility (1/GPa) = 0.02061038
#
# Stress axis : x y z
#
# Youngs Moduli (GPa) = 48.04171 86.55789 107.56121
#
# Poissons Ratio (x) = 0.57859 0.02832
# Poissons Ratio (y) = 0.32113 0.38504
# Poissons Ratio (z) = 0.01265 0.30986
#
# Static dielectric constant tensor:
#      x y z
#    x -1.737640 1.178840 -1.365680 
#    y 1.178840 4.154990 0.132240 
#    z -1.365680 0.132240 4.114190 
# 
# 
# High freq. dielectric constant tensor:
#      x y z
#    x 1.933080 0.005900 0.009110 
#    y 0.005900 1.950260 -0.004160 
#    z 0.009110 -0.004160 1.964070 
# 
# From -- ./inp_files/224109.got.cif
#   From: 2010.06.25/outbox.cif.g09.slc.cpg/sg2_113_cif.got.tgz:224109.got - 2010.06.27 13:26:56.
