data_PCOD8034848
_publ_section_title
;
Structure prediction by ZEFSAII (Michael W. Deem and Ramdas Pophale) SiO2 
 PCOD8034848
Probable space group: P -1
;
_chemical_formula_sum "Si O2"
_cell_formula_units_Z 16
_cell_length_a 8.457620
_cell_length_b 6.420907
_cell_length_c 13.771034
_cell_angle_alpha 87.745942
_cell_angle_beta 65.048156
_cell_angle_gamma 86.999653
_cell_volume 676.990026
_symmetry_space_group_name_H-M "P -1"
_symmetry_group_IT_number 2
_symmetry_cell_setting 'triclinic'
loop_
_space_group_symop_operation_xyz
x,y,z
-x,-y,-z
loop_
_atom_site_type_symbol
_atom_site_label
_atom_site_fract_x
_atom_site_fract_y
_atom_site_fract_z
Si Si1 0.198537 0.770595 0.189307
Si Si2 0.575711 0.562265 0.376163
Si Si3 0.563736 0.079207 0.725749
Si Si4 0.310475 0.485494 0.005033
Si Si5 0.107410 0.186004 0.426312
Si Si6 0.933793 0.880417 0.923633
Si Si7 0.694351 0.259369 0.193035
Si Si8 0.922762 0.570711 0.383735
O O1 0.076811 0.721648 0.313031
O O2 0.388882 0.798784 0.189238
O O3 0.140806 0.979096 0.145778
O O4 0.186891 0.585436 0.118662
O O5 0.500000 0.500000 0.500000
O O6 0.575136 0.373649 0.303473
O O7 0.778507 0.607020 0.337340
O O8 0.466021 0.761942 0.359369
O O9 0.718036 0.907240 0.667414
O O10 0.383666 0.968369 0.795422
O O11 0.318708 0.621201 0.905659
O O12 0.500000 0.500000 0.000000
O O13 0.225280 0.267262 0.004420
O O14 0.159479 0.347467 0.494493
O O15 0.990469 0.327642 0.378472
O O16 0.000000 0.000000 0.500000
O O17 0.100647 0.758822 0.834609
O O18 0.000000 0.000000 0.000000
#
# Coordination Sequence:
#
# PCOD8034848 Si02
#       8
#     2   2   2   2   2   2   2   2
#     4  12  27  45  76 109 147 194 252 305 371 450
#     4  12  28  47  73 108 149 195 246 310 376 445
#     4  12  28  45  77 111 149 195 253 304 373 449
#     4  12  28  47  76 107 152 197 249 310 376 442
#     4  11  24  46  72 108 147 194 248 309 371 449
#     4  12  28  49  76 111 148 199 253 306 375 448
#     4  12  28  47  76 106 153 192 248 313 373 442
#     4  11  26  44  75 104 148 193 248 306 378 439
#
# _framework density 23.634025999999999
#
# number of rings (size 3 to 8) (size 9 to 14) (size 15 to 20)
#    0.000    0.250    2.500    4.875   14.000    5.000 
#    0.000    0.000    0.000    0.000    0.000    0.000 
#    0.000    0.000    0.000    0.000    0.000    0.000 
#
# Total GULP energy -198400.693194 kJ/mol
# GULP energy per Si atom -12400.043325 kJ/mol
# Density = 2.358023 g / cm^3
# Si number density = 23.634026 Si / 1000 Ang^3
#
#
#
# Elastic Constant Matrix: (Units=GPa)
#
#
# Indices 1 2 3 4 5 6 
#
# 1 145.3853 55.0697 35.8109 -20.1912 15.1658 1.2485
# 2 55.0697 116.3458 48.0322 -16.3374 11.0596 1.1425
# 3 35.8109 48.0322 117.5504 -13.2456 12.5899 3.4819
# 4 -20.1912 -16.3374 -13.2456 53.7441 -4.0112 1.5125
# 5 15.1658 11.0596 12.5899 -4.0112 42.2762 -9.0507
# 6 1.2485 1.1425 3.4819 1.5125 -9.0507 49.0136
#
#
#
# Elastic Compliance Matrix: (Units=1/GPa)
#
#
# Indices 1 2 3 4 5 6 
#
# 1 0.008847 -0.003360 -0.000878 0.001954 -0.001956 -0.000506
# 2 -0.003360 0.011950 -0.003616 0.001427 -0.000733 -0.000115
# 3 -0.000878 -0.003616 0.010621 0.001067 -0.002027 -0.001055
# 4 0.001954 0.001427 0.001067 0.020085 0.000361 -0.000712
# 5 -0.001956 -0.000733 -0.002027 0.000361 0.026266 0.005050
# 6 -0.000506 -0.000115 -0.001055 -0.000712 0.005050 0.021448
#
#
# Mechanical properties :
#
#
# Convention : Reuss Voigt Hill
#
# Bulk Modulus (GPa) = 63.65565 73.01191 68.33378
# Shear Modulus (GPa) = 41.61119 45.03135 43.32127
#
# Velocity S-wave (km/s) = 4.20056 4.36978 4.28600
# Velocity P-wave (km/s) = 7.10765 7.51131 7.31226
#
# Compressibility (1/GPa) = 0.01570952
#
# Stress axis : x y z
#
# Youngs Moduli (GPa) = 113.03357 83.68456 94.15715
#
# Poissons Ratio (x) = 0.28117 0.08263
# Poissons Ratio (y) = 0.37977 0.34051
# Poissons Ratio (z) = 0.09919 0.30264
#
# Static dielectric constant tensor:
#      x y z
#    x 4.217050 -0.024180 0.161650 
#    y -0.024180 4.433440 0.214840 
#    z 0.161650 0.214840 4.197840 
# 
# 
# High freq. dielectric constant tensor:
#      x y z
#    x 1.950350 0.001070 0.003430 
#    y 0.001070 1.941030 0.000850 
#    z 0.003430 0.000850 1.946470 
# 
# From -- ./inp_files/488254.got.cif
#   From: 2010.06.25/outbox.cif.g09.slc.cpg/sg2_245_cif.got.tgz:488254.got - 2010.06.27 13:26:56.
