data_PCOD8034611
_publ_section_title
;
Structure prediction by ZEFSAII (Michael W. Deem and Ramdas Pophale) SiO2 
 PCOD8034611
Probable space group: P -1
;
_chemical_formula_sum "Si O2"
_cell_formula_units_Z 14
_cell_length_a 11.223099
_cell_length_b 14.364302
_cell_length_c 6.552705
_cell_angle_alpha 130.719936
_cell_angle_beta 121.768260
_cell_angle_gamma 47.453615
_cell_volume 582.917100
_symmetry_space_group_name_H-M "P -1"
_symmetry_group_IT_number 2
_symmetry_cell_setting 'triclinic'
loop_
_space_group_symop_operation_xyz
x,y,z
-x,-y,-z
loop_
_atom_site_type_symbol
_atom_site_label
_atom_site_fract_x
_atom_site_fract_y
_atom_site_fract_z
Si Si1 0.649399 0.601172 0.271807
Si Si2 0.107628 0.388197 0.761844
Si Si3 0.107687 0.941896 0.321162
Si Si4 0.049333 0.791275 0.712733
Si Si5 0.572054 0.895419 0.221469
Si Si6 0.594515 0.407884 0.258661
Si Si7 0.427785 0.870281 0.682318
O O1 0.831945 0.541921 0.257269
O O2 0.650309 0.488109 0.265962
O O3 0.597433 0.747664 0.557594
O O4 0.520338 0.638494 0.024101
O O5 0.275429 0.257497 0.810710
O O6 0.998817 0.329137 0.484801
O O7 0.000000 0.500000 0.000000
O O8 0.291248 0.840118 0.426112
O O9 0.051474 0.844531 0.017909
O O10 0.000000 0.000000 0.500000
O O11 0.083369 0.074472 0.349450
O O12 0.234088 0.727091 0.699589
O O13 0.500000 0.000000 0.500000
O O14 0.625883 0.970060 0.208536
O O15 0.441548 0.866927 0.939018
O O16 0.500000 0.500000 0.500000
#
# Coordination Sequence:
#
# PCOD8034611 Si02
#       7
#     2   2   2   2   2   2   2
#     4  11  26  46  73 109 142 197 257 300 369 459
#     4  12  27  48  74 112 159 198 245 321 386 443
#     4  11  26  43  75 106 146 194 247 311 370 442
#     4  11  26  47  71 109 150 191 245 308 379 442
#     4  11  25  45  75 104 146 191 250 309 374 449
#     4  11  26  47  73 102 146 198 245 304 371 454
#     4  11  24  45  72 106 136 196 257 306 367 446
#
# _framework density 24.017139
#
# number of rings (size 3 to 8) (size 9 to 14) (size 15 to 20)
#    0.000    0.857    4.286    0.857    8.000    1.714 
#    0.000    0.000    0.000    0.000    0.000    0.000 
#    0.000    0.000    0.000    0.000    0.000    0.000 
#
# Total GULP energy -173541.745188 kJ/mol
# GULP energy per Si atom -12395.838942 kJ/mol
# Density = 2.396247 g / cm^3
# Si number density = 24.017139 Si / 1000 Ang^3
#
#
#
# Elastic Constant Matrix: (Units=GPa)
#
#
# Indices 1 2 3 4 5 6 
#
# 1 129.4933 17.7667 74.1803 5.0367 -13.5942 -13.8458
# 2 17.7667 71.2398 46.3609 1.8106 -11.0435 -22.2472
# 3 74.1803 46.3609 213.5086 -3.6647 -11.6040 -16.3073
# 4 5.0367 1.8106 -3.6647 43.2922 -6.8938 2.4602
# 5 -13.5942 -11.0435 -11.6040 -6.8938 49.5110 5.5075
# 6 -13.8458 -22.2472 -16.3073 2.4602 5.5075 37.1770
#
#
#
# Elastic Compliance Matrix: (Units=1/GPa)
#
#
# Indices 1 2 3 4 5 6 
#
# 1 0.010069 0.000807 -0.003410 -0.001375 0.001667 0.002582
# 2 0.000807 0.019878 -0.003702 -0.001435 0.002442 0.010305
# 3 -0.003410 -0.003702 0.006644 0.001155 0.000029 -0.000651
# 4 -0.001375 -0.001435 0.001155 0.024102 0.003256 -0.002942
# 5 0.001667 0.002442 0.000029 0.003256 0.021810 -0.001352
# 6 0.002582 0.010305 -0.000651 -0.002942 -0.001352 0.034136
#
#
# Mechanical properties :
#
#
# Convention : Reuss Voigt Hill
#
# Bulk Modulus (GPa) = 41.69605 76.76193 59.22899
# Shear Modulus (GPa) = 36.43210 44.39162 40.41186
#
# Velocity S-wave (km/s) = 3.89899 4.30389 4.10643
# Velocity P-wave (km/s) = 6.13744 7.53184 6.87011
#
# Compressibility (1/GPa) = 0.02398309
#
# Stress axis : x y z
#
# Youngs Moduli (GPa) = 99.31141 50.30722 150.52038
#
# Poissons Ratio (x) = -0.04061 0.51320
# Poissons Ratio (y) = -0.08016 0.55715
# Poissons Ratio (z) = 0.33861 0.18621
#
# Static dielectric constant tensor:
#      x y z
#    x 4.506090 -0.321110 -0.040170 
#    y -0.321110 2.803030 -0.171530 
#    z -0.040170 -0.171530 4.609020 
# 
# 
# High freq. dielectric constant tensor:
#      x y z
#    x 1.942700 -0.005100 0.003090 
#    y -0.005100 1.956580 -0.002850 
#    z 0.003090 -0.002850 1.973090 
# 
# From -- ./inp_files/78830.got.cif
#   From: 2010.06.25/outbox.cif.g09.slc.cpg/sg2_40_cif.got.tgz:78830.got - 2010.06.27 13:26:56.
