data_PCOD8034274
_publ_section_title
;
Structure prediction by ZEFSAII (Michael W. Deem and Ramdas Pophale) SiO2 
 PCOD8034274
Probable space group: P -1
;
_chemical_formula_sum "Si O2"
_cell_formula_units_Z 16
_cell_length_a 9.086339
_cell_length_b 12.410658
_cell_length_c 8.689173
_cell_angle_alpha 121.075285
_cell_angle_beta 61.912100
_cell_angle_gamma 121.571579
_cell_volume 687.475936
_symmetry_space_group_name_H-M "P -1"
_symmetry_group_IT_number 2
_symmetry_cell_setting 'triclinic'
loop_
_space_group_symop_operation_xyz
x,y,z
-x,-y,-z
loop_
_atom_site_type_symbol
_atom_site_label
_atom_site_fract_x
_atom_site_fract_y
_atom_site_fract_z
Si Si1 0.760707 0.854191 0.107814
Si Si2 0.435824 0.115997 0.183140
Si Si3 0.813460 0.635033 0.095135
Si Si4 0.006047 0.510214 0.687700
Si Si5 0.930287 0.899044 0.743047
Si Si6 0.619129 0.430845 0.299424
Si Si7 0.923418 0.240941 0.672695
Si Si8 0.533878 0.032498 0.682469
O O1 0.697467 0.719092 0.144864
O O2 0.596815 0.889932 0.143230
O O3 0.876139 0.836416 0.893629
O O4 0.881734 0.974954 0.248012
O O5 0.221646 0.055872 0.223631
O O6 0.515292 0.270867 0.196692
O O7 0.497418 0.112439 0.328214
O O8 0.500000 0.000000 0.000000
O O9 0.681055 0.505339 0.158890
O O10 0.970838 0.730362 0.197923
O O11 0.913483 0.607381 0.875703
O O12 0.212303 0.556184 0.669585
O O13 0.000000 0.500000 0.500000
O O14 0.887570 0.369791 0.722998
O O15 0.952404 0.787117 0.538876
O O16 0.500000 0.500000 0.500000
O O17 0.733269 0.123697 0.701747
O O18 0.500000 0.000000 0.500000
#
# Coordination Sequence:
#
# PCOD8034274 Si02
#       8
#     2   2   2   2   2   2   2   2
#     4  11  25  44  69 107 145 189 240 300 354 431
#     4  12  27  45  74 105 147 189 243 301 366 434
#     4  11  26  47  74 102 146 193 245 294 365 442
#     4  11  26  46  74 101 141 193 238 301 361 440
#     4  11  24  44  70 104 145 191 237 292 369 428
#     4  11  27  47  73 106 147 194 245 298 367 439
#     4  11  24  44  71 102 144 186 241 291 364 430
#     4  12  27  43  70 110 143 183 241 303 358 427
#
# _framework density 23.273543
#
# number of rings (size 3 to 8) (size 9 to 14) (size 15 to 20)
#    0.000    0.750    2.500    4.500   10.500    1.000 
#    0.000    1.875    0.000    0.000    0.000    0.000 
#    0.000    0.000    0.000    0.000    0.000    0.000 
#
# Total GULP energy -198320.445365 kJ/mol
# GULP energy per Si atom -12395.027835 kJ/mol
# Density = 2.322057 g / cm^3
# Si number density = 23.273543 Si / 1000 Ang^3
#
#
#
# Elastic Constant Matrix: (Units=GPa)
#
#
# Indices 1 2 3 4 5 6 
#
# 1 106.9617 52.7824 15.5495 -0.2371 -7.2283 -11.9151
# 2 52.7824 128.1833 24.0189 4.1399 -0.0188 -12.6876
# 3 15.5495 24.0189 125.4439 5.8018 -0.6818 5.0272
# 4 -0.2371 4.1399 5.8018 31.7598 -5.2433 1.1437
# 5 -7.2283 -0.0188 -0.6818 -5.2433 38.5029 -6.7199
# 6 -11.9151 -12.6876 5.0272 1.1437 -6.7199 37.4757
#
#
#
# Elastic Compliance Matrix: (Units=1/GPa)
#
#
# Indices 1 2 3 4 5 6 
#
# 1 0.012296 -0.004664 -0.000789 0.001229 0.002971 0.002931
# 2 -0.004664 0.010234 -0.001408 -0.001304 -0.000710 0.002083
# 3 -0.000789 -0.001408 0.008477 -0.001388 -0.000522 -0.001916
# 4 0.001229 -0.001304 -0.001388 0.032688 0.004652 -0.000028
# 5 0.002971 -0.000710 -0.000522 0.004652 0.028145 0.005679
# 6 0.002931 0.002083 -0.001916 -0.000028 0.005679 0.029598
#
#
# Mechanical properties :
#
#
# Convention : Reuss Voigt Hill
#
# Bulk Modulus (GPa) = 57.85939 60.58784 59.22361
# Shear Modulus (GPa) = 35.48057 39.43021 37.45539
#
# Velocity S-wave (km/s) = 3.90872 4.12054 4.01603
# Velocity P-wave (km/s) = 6.72944 6.98054 6.85614
#
# Compressibility (1/GPa) = 0.01728328
#
# Stress axis : x y z
#
# Youngs Moduli (GPa) = 81.33027 97.71312 117.96147
#
# Poissons Ratio (x) = 0.45575 0.09309
# Poissons Ratio (y) = 0.37934 0.16614
# Poissons Ratio (z) = 0.06419 0.13762
#
# Static dielectric constant tensor:
#      x y z
#    x 4.593010 -0.137900 -0.037170 
#    y -0.137900 3.974010 -0.341610 
#    z -0.037170 -0.341610 5.033180 
# 
# 
# High freq. dielectric constant tensor:
#      x y z
#    x 1.929090 -0.012920 0.001720 
#    y -0.012920 1.918920 -0.003770 
#    z 0.001720 -0.003770 1.936220 
# 
# From -- ./inp_files/189921.got.cif
#   From: 2010.06.25/outbox.cif.g09.slc.cpg/sg2_95_cif.got.tgz:189921.got - 2010.06.27 13:26:56.
