data_PCOD8034261
_publ_section_title
;
Structure prediction by ZEFSAII (Michael W. Deem and Ramdas Pophale) SiO2 
 PCOD8034261
Probable space group: P -1
;
_chemical_formula_sum "Si O2"
_cell_formula_units_Z 12
_cell_length_a 7.057800
_cell_length_b 10.795120
_cell_length_c 12.322805
_cell_angle_alpha 51.583539
_cell_angle_beta 52.179068
_cell_angle_gamma 85.496476
_cell_volume 506.953948
_symmetry_space_group_name_H-M "P -1"
_symmetry_group_IT_number 2
_symmetry_cell_setting 'triclinic'
loop_
_space_group_symop_operation_xyz
x,y,z
-x,-y,-z
loop_
_atom_site_type_symbol
_atom_site_label
_atom_site_fract_x
_atom_site_fract_y
_atom_site_fract_z
Si Si1 0.833776 0.854285 0.778790
Si Si2 0.780587 0.546278 0.102788
Si Si3 0.203270 0.316397 0.747629
Si Si4 0.733320 0.365133 0.582583
Si Si5 0.167593 0.261973 0.396320
Si Si6 0.661905 0.170587 0.925223
O O1 0.836416 0.755668 0.721712
O O2 0.874601 0.749991 0.920853
O O3 0.530860 0.830387 0.910500
O O4 0.069546 0.063969 0.590159
O O5 0.801823 0.561537 0.216427
O O6 0.470519 0.401994 0.254793
O O7 0.000000 0.500000 0.000000
O O8 0.408362 0.231667 0.738226
O O9 0.263833 0.446506 0.549460
O O10 0.901728 0.154622 0.912417
O O11 0.771888 0.349525 0.708465
O O12 0.942248 0.324014 0.465582
O O13 0.500000 0.000000 0.000000
#
# Coordination Sequence:
#
# PCOD8034261 Si02
#       6
#     2   2   2   2   2   2
#     4  11  24  46  70 102 140 189 229 287 348 413
#     4  12  25  46  70 105 142 185 235 289 347 418
#     4  11  26  41  71 104 137 185 237 283 345 418
#     4  11  24  44  70 101 139 183 234 284 345 415
#     4  11  25  45  73 100 144 186 231 288 352 406
#     4  12  24  46  69  99 144 184 226 290 352 407
#
# _framework density 23.670788999999999
#
# number of rings (size 3 to 8) (size 9 to 14) (size 15 to 20)
#    0.000    0.667    3.333    4.000    4.667    1.333 
#    3.000    0.000    0.000    0.000    0.000    0.000 
#    0.000    0.000    0.000    0.000    0.000    0.000 
#
# Total GULP energy -148702.014371 kJ/mol
# GULP energy per Si atom -12391.834531 kJ/mol
# Density = 2.361691 g / cm^3
# Si number density = 23.670789 Si / 1000 Ang^3
#
#
#
# Elastic Constant Matrix: (Units=GPa)
#
#
# Indices 1 2 3 4 5 6 
#
# 1 173.9053 57.1117 44.1071 7.9348 -46.1647 -5.5270
# 2 57.1117 109.5146 45.3311 20.4467 -36.6063 -2.3671
# 3 44.1071 45.3311 106.0549 20.7407 -9.6706 -2.3376
# 4 7.9348 20.4467 20.7407 40.7760 -17.5581 -8.4724
# 5 -46.1647 -36.6063 -9.6706 -17.5581 42.7363 12.0735
# 6 -5.5270 -2.3671 -2.3376 -8.4724 12.0735 30.5576
#
#
#
# Elastic Compliance Matrix: (Units=1/GPa)
#
#
# Indices 1 2 3 4 5 6 
#
# 1 0.009708 -0.000568 -0.003737 0.004959 0.011708 -0.001825
# 2 -0.000568 0.015988 -0.005416 -0.000531 0.012918 -0.004529
# 3 -0.003737 -0.005416 0.013920 -0.007153 -0.008889 0.001498
# 4 0.004959 -0.000531 -0.007153 0.035448 0.016866 0.003473
# 5 0.011708 0.012918 -0.008889 0.016866 0.056304 -0.015132
# 6 -0.001825 -0.004529 0.001498 0.003473 -0.015132 0.039100
#
#
# Mechanical properties :
#
#
# Convention : Reuss Voigt Hill
#
# Bulk Modulus (GPa) = 49.56761 75.84165 62.70463
# Shear Modulus (GPa) = 25.42778 39.00897 32.21837
#
# Velocity S-wave (km/s) = 3.28109 4.06393 3.69331
# Velocity P-wave (km/s) = 5.94474 7.35734 6.68844
#
# Compressibility (1/GPa) = 0.02017446
#
# Stress axis : x y z
#
# Youngs Moduli (GPa) = 103.00442 62.54689 71.84003
#
# Poissons Ratio (x) = 0.03550 0.26849
# Poissons Ratio (y) = 0.05846 0.38908
# Poissons Ratio (z) = 0.38497 0.33875
#
# Static dielectric constant tensor:
#      x y z
#    x 4.726380 -0.138190 -0.232720 
#    y -0.138190 4.219020 0.193360 
#    z -0.232720 0.193360 5.107760 
# 
# 
# High freq. dielectric constant tensor:
#      x y z
#    x 1.948060 -0.002010 -0.010740 
#    y -0.002010 1.928900 0.008990 
#    z -0.010740 0.008990 1.964790 
# 
# From -- ./inp_files/133809.got.cif
#   From: 2010.06.25/outbox.cif.g09.slc.cpg/sg2_67_cif.got.tgz:133809.got - 2010.06.27 13:26:56.
