data_PCOD8034639
_publ_section_title
;
Structure prediction by ZEFSAII (Michael W. Deem and Ramdas Pophale) SiO2 
 PCOD8034639
Probable space group: P -1
;
_chemical_formula_sum "Si O2"
_cell_formula_units_Z 12
_cell_length_a 7.099446
_cell_length_b 14.972722
_cell_length_c 8.727752
_cell_angle_alpha 140.439192
_cell_angle_beta 57.507123
_cell_angle_gamma 125.626108
_cell_volume 473.275993
_symmetry_space_group_name_H-M "P -1"
_symmetry_group_IT_number 2
_symmetry_cell_setting 'triclinic'
loop_
_space_group_symop_operation_xyz
x,y,z
-x,-y,-z
loop_
_atom_site_type_symbol
_atom_site_label
_atom_site_fract_x
_atom_site_fract_y
_atom_site_fract_z
Si Si1 0.935608 0.828889 0.828559
Si Si2 0.704225 0.217754 0.605844
Si Si3 0.113250 0.736641 0.924744
Si Si4 0.752431 0.017228 0.590658
Si Si5 0.272957 0.462773 0.947770
Si Si6 0.462414 0.359823 0.432784
O O1 0.114486 0.755120 0.576386
O O2 0.938015 0.783358 0.946033
O O3 0.680087 0.771808 0.789448
O O4 0.000000 0.000000 0.000000
O O5 0.762502 0.101549 0.538558
O O6 0.443278 0.143902 0.549311
O O7 0.746151 0.376354 0.879546
O O8 0.283859 0.658468 0.661049
O O9 0.293319 0.882264 0.118522
O O10 0.956013 0.631188 0.983797
O O11 0.000000 0.000000 0.500000
O O12 0.310899 0.369993 0.662344
O O13 0.500000 0.500000 0.000000
O O14 0.500000 0.500000 0.500000
#
# Coordination Sequence:
#
# PCOD8034639 Si02
#       6
#     2   2   2   2   2   2
#     4  12  27  47  72 105 143 187 242 298 356 426
#     4  11  25  45  71 105 145 188 237 295 358 424
#     4  12  27  48  74 106 144 188 240 296 357 426
#     4  11  24  45  73 106 144 187 238 296 357 423
#     4  12  26  47  75 107 146 191 238 294 359 425
#     4  12  27  48  75 108 146 189 237 293 357 425
#
# _framework density 25.355181999999999
#
# number of rings (size 3 to 8) (size 9 to 14) (size 15 to 20)
#    0.000    0.333    0.000    8.000    0.000   13.333 
#    0.000    5.000    0.000    0.000    0.000    0.000 
#    0.000    0.000    0.000    0.000    0.000    0.000 
#
# Total GULP energy -148806.330512 kJ/mol
# GULP energy per Si atom -12400.527543 kJ/mol
# Density = 2.529747 g / cm^3
# Si number density = 25.355182 Si / 1000 Ang^3
#
#
#
# Elastic Constant Matrix: (Units=GPa)
#
#
# Indices 1 2 3 4 5 6 
#
# 1 141.8871 48.7472 40.8981 2.4681 2.4745 -1.4959
# 2 48.7472 121.0037 48.3384 2.9603 0.2429 2.4129
# 3 40.8981 48.3384 124.9184 2.3068 -1.1344 11.2630
# 4 2.4681 2.9603 2.3068 45.0764 3.0269 0.8924
# 5 2.4745 0.2429 -1.1344 3.0269 54.7722 2.0499
# 6 -1.4959 2.4129 11.2630 0.8924 2.0499 39.9435
#
#
#
# Elastic Compliance Matrix: (Units=1/GPa)
#
#
# Indices 1 2 3 4 5 6 
#
# 1 0.008533 -0.002720 -0.001834 -0.000186 -0.000440 0.001028
# 2 -0.002720 0.010662 -0.003244 -0.000390 0.000023 0.000176
# 3 -0.001834 -0.003244 0.010115 -0.000178 0.000419 -0.002743
# 4 -0.000186 -0.000390 -0.000178 0.022318 -0.001213 -0.000370
# 5 -0.000440 0.000023 0.000419 -0.001213 0.018392 -0.001053
# 6 0.001028 0.000176 -0.002743 -0.000370 -0.001053 0.025899
#
#
# Mechanical properties :
#
#
# Convention : Reuss Voigt Hill
#
# Bulk Modulus (GPa) = 72.91761 73.75295 73.33528
# Shear Modulus (GPa) = 43.07149 44.61348 43.84248
#
# Velocity S-wave (km/s) = 4.12603 4.19924 4.16280
# Velocity P-wave (km/s) = 7.17773 7.25690 7.21742
#
# Compressibility (1/GPa) = 0.01371411
#
# Stress axis : x y z
#
# Youngs Moduli (GPa) = 117.19556 93.79431 98.85972
#
# Poissons Ratio (x) = 0.25510 0.18135
# Poissons Ratio (y) = 0.31874 0.32067
# Poissons Ratio (z) = 0.21499 0.30424
#
# Static dielectric constant tensor:
#      x y z
#    x 4.582150 0.038280 0.197240 
#    y 0.038280 4.627000 0.065130 
#    z 0.197240 0.065130 5.525750 
# 
# 
# High freq. dielectric constant tensor:
#      x y z
#    x 2.029500 -0.004680 0.002340 
#    y -0.004680 2.013830 0.008250 
#    z 0.002340 0.008250 2.022160 
# 
# From -- ./inp_files/43558.got.cif
#   From: 2010.06.25/outbox.cif.g09.slc.cpg/sg2_22_cif.got.tgz:43558.got - 2010.06.27 13:26:56.
