data_PCOD8034735
_publ_section_title
;
Structure prediction by ZEFSAII (Michael W. Deem and Ramdas Pophale) SiO2 
 PCOD8034735
Probable space group: P -1
;
_chemical_formula_sum "Si O2"
_cell_formula_units_Z 14
_cell_length_a 4.922411
_cell_length_b 8.992049
_cell_length_c 17.048520
_cell_angle_alpha 56.607193
_cell_angle_beta 117.617976
_cell_angle_gamma 120.162809
_cell_volume 526.129730
_symmetry_space_group_name_H-M "P -1"
_symmetry_group_IT_number 2
_symmetry_cell_setting 'triclinic'
loop_
_space_group_symop_operation_xyz
x,y,z
-x,-y,-z
loop_
_atom_site_type_symbol
_atom_site_label
_atom_site_fract_x
_atom_site_fract_y
_atom_site_fract_z
Si Si1 0.553974 0.666465 0.019101
Si Si2 0.160103 0.898827 0.942682
Si Si3 0.995326 0.215079 0.295393
Si Si4 0.489103 0.972719 0.597989
Si Si5 0.982457 0.342516 0.607665
Si Si6 0.019630 0.395237 0.776370
Si Si7 0.368019 0.094967 0.765621
O O1 0.658131 0.617145 0.134125
O O2 0.500000 0.500000 0.000000
O O3 0.217997 0.711834 0.967801
O O4 0.845973 0.846926 0.971091
O O5 0.135143 0.039003 0.828171
O O6 0.500000 0.000000 0.000000
O O7 0.879728 0.132862 0.391492
O O8 0.303100 0.167066 0.317107
O O9 0.075540 0.438926 0.240762
O O10 0.680856 0.099040 0.233307
O O11 0.500000 0.000000 0.500000
O O12 0.635098 0.174405 0.603835
O O13 0.057310 0.438184 0.675868
O O14 0.000000 0.500000 0.500000
O O15 0.255623 0.244921 0.655630
O O16 0.739126 0.194811 0.812044
#
# Coordination Sequence:
#
# PCOD8034735 Si02
#       7
#     2   2   2   2   2   2   2
#     4  12  28  47  77 116 150 194 252 310 377 452
#     4  12  25  47  76 105 150 195 246 308 378 449
#     4  11  26  44  69 101 142 189 238 300 366 435
#     4  11  24  46  68 101 141 188 243 305 365 426
#     4  11  26  46  74 107 147 196 253 308 363 443
#     4  12  26  46  76 106 151 198 248 309 372 443
#     4  11  26  47  72 106 148 198 249 306 376 443
#
# _framework density 26.609406
#
# number of rings (size 3 to 8) (size 9 to 14) (size 15 to 20)
#    0.000    0.571    2.857    3.857    6.000    4.000 
#    0.000    0.000    0.000    0.000    0.000    0.000 
#    0.000    0.000    0.000    0.000    0.000    0.000 
#
# Total GULP energy -173558.511013 kJ/mol
# GULP energy per Si atom -12397.036501 kJ/mol
# Density = 2.654884 g / cm^3
# Si number density = 26.609406 Si / 1000 Ang^3
#
#
#
# Elastic Constant Matrix: (Units=GPa)
#
#
# Indices 1 2 3 4 5 6 
#
# 1 56.7158 -6.4441 3.6098 -6.7151 -10.7645 -10.6497
# 2 -6.4441 142.6422 14.0241 8.5779 2.4580 -16.3601
# 3 3.6098 14.0241 139.9874 1.9510 -12.5779 -6.0789
# 4 -6.7151 8.5779 1.9510 39.1844 -4.6835 3.3231
# 5 -10.7645 2.4580 -12.5779 -4.6835 37.5810 -2.5115
# 6 -10.6497 -16.3601 -6.0789 3.3231 -2.5115 33.5553
#
#
#
# Elastic Compliance Matrix: (Units=1/GPa)
#
#
# Indices 1 2 3 4 5 6 
#
# 1 0.020924 0.001467 0.000215 0.003437 0.006903 0.007571
# 2 0.001467 0.007742 -0.000623 -0.001804 -0.000233 0.004289
# 3 0.000215 -0.000623 0.007501 0.000010 0.002702 0.001324
# 4 0.003437 -0.001804 0.000010 0.027207 0.004353 -0.002155
# 5 0.006903 -0.000233 0.002702 0.004353 0.030343 0.004407
# 6 0.007571 0.004289 0.001324 -0.002155 0.004407 0.035079
#
#
# Mechanical properties :
#
#
# Convention : Reuss Voigt Hill
#
# Bulk Modulus (GPa) = 26.12082 40.19166 33.15624
# Shear Modulus (GPa) = 35.85781 43.94119 39.89950
#
# Velocity S-wave (km/s) = 3.67490 4.06808 3.87648
# Velocity P-wave (km/s) = 5.27676 6.09941 5.70294
#
# Compressibility (1/GPa) = 0.03828363
#
# Stress axis : x y z
#
# Youngs Moduli (GPa) = 47.79287 129.15770 133.32349
#
# Poissons Ratio (x) = -0.18946 -0.02862
# Poissons Ratio (y) = -0.07011 0.08306
# Poissons Ratio (z) = -0.01026 0.08047
#
# Static dielectric constant tensor:
#      x y z
#    x 10.869840 -1.962600 3.230740 
#    y -1.962600 5.688430 -0.915380 
#    z 3.230740 -0.915380 6.623470 
# 
# 
# High freq. dielectric constant tensor:
#      x y z
#    x 2.056410 -0.014470 -0.006100 
#    y -0.014470 2.086510 0.003320 
#    z -0.006100 0.003320 2.066840 
# 
# From -- ./inp_files/107559.got.cif
#   From: 2010.06.25/outbox.cif.g09.slc.cpg/sg2_54_cif.got.tgz:107559.got - 2010.06.27 13:26:56.
