data_PCOD8034051
_publ_section_title
;
Structure prediction by ZEFSAII (Michael W. Deem and Ramdas Pophale) SiO2 
 PCOD8034051
Probable space group: P -1
;
_chemical_formula_sum "Si O2"
_cell_formula_units_Z 16
_cell_length_a 18.540262
_cell_length_b 20.259380
_cell_length_c 5.338012
_cell_angle_alpha 79.076027
_cell_angle_beta 78.537522
_cell_angle_gamma 18.837901
_cell_volume 634.489870
_symmetry_space_group_name_H-M "P -1"
_symmetry_group_IT_number 2
_symmetry_cell_setting 'triclinic'
loop_
_space_group_symop_operation_xyz
x,y,z
-x,-y,-z
loop_
_atom_site_type_symbol
_atom_site_label
_atom_site_fract_x
_atom_site_fract_y
_atom_site_fract_z
Si Si1 0.253167 0.738302 0.535097
Si Si2 0.757622 0.450833 0.894610
Si Si3 0.377514 0.012411 0.422837
Si Si4 0.023908 0.627171 0.897885
Si Si5 0.167709 0.309741 0.681805
Si Si6 0.049312 0.855569 0.095536
Si Si7 0.653153 0.204419 0.774896
Si Si8 0.537867 0.734303 0.464673
O O1 0.500000 0.500000 0.500000
O O2 0.094329 0.850297 0.336699
O O3 0.245659 0.825758 0.455534
O O4 0.181216 0.778654 0.833638
O O5 0.886825 0.277080 0.813845
O O6 0.588839 0.628968 0.686788
O O7 0.929412 0.360297 0.922782
O O8 0.605360 0.554790 0.154441
O O9 0.254622 0.166584 0.591803
O O10 0.206196 0.147655 0.220359
O O11 0.609898 0.842798 0.279312
O O12 0.438113 0.885020 0.572958
O O13 0.232670 0.440661 0.702377
O O14 0.978412 0.590484 0.055079
O O15 0.000000 0.500000 0.500000
O O16 0.790854 0.080794 0.029068
O O17 0.648996 0.135092 0.690610
#
# Coordination Sequence:
#
# PCOD8034051 Si02
#       8
#     2   2   2   2   2   2   2   2
#     4  12  25  47  74 106 145 194 246 314 373 439
#     4  11  25  44  69  98 142 190 233 303 358 440
#     4  11  24  43  71 102 139 185 234 295 351 449
#     4  11  24  44  67 102 139 184 237 290 368 424
#     4  11  25  45  71 104 141 182 234 291 367 427
#     4  12  27  45  75 105 146 191 252 308 373 440
#     4  11  26  44  70 104 138 189 241 298 368 434
#     4  11  26  45  71  99 145 186 241 296 363 434
#
# _framework density 25.217106999999999
#
# number of rings (size 3 to 8) (size 9 to 14) (size 15 to 20)
#    0.000    0.750    1.250    5.250    5.250    8.000 
#    0.000    0.000    0.000    0.000    0.000    0.000 
#    0.000    0.000    0.000    0.000    0.000    0.000 
#
# Total GULP energy -198329.113076 kJ/mol
# GULP energy per Si atom -12395.569567 kJ/mol
# Density = 2.515971 g / cm^3
# Si number density = 25.217107 Si / 1000 Ang^3
#
#
#
# Elastic Constant Matrix: (Units=GPa)
#
#
# Indices 1 2 3 4 5 6 
#
# 1 125.1355 49.1157 13.9029 -5.7944 -12.1164 0.8871
# 2 49.1157 115.9984 13.6279 -20.7052 -2.0455 -2.8775
# 3 13.9029 13.6279 74.9982 -10.4540 -12.2685 -1.4826
# 4 -5.7944 -20.7052 -10.4540 37.2799 4.7650 3.1777
# 5 -12.1164 -2.0455 -12.2685 4.7650 30.5661 -21.4816
# 6 0.8871 -2.8775 -1.4826 3.1777 -21.4816 47.7161
#
#
#
# Elastic Compliance Matrix: (Units=1/GPa)
#
#
# Indices 1 2 3 4 5 6 
#
# 1 0.010200 -0.004456 -0.000435 -0.001861 0.005290 0.002034
# 2 -0.004456 0.011606 -0.000964 0.005952 -0.003005 -0.000996
# 3 -0.000435 -0.000964 0.015369 0.002280 0.008440 0.004075
# 4 -0.001861 0.005952 0.002280 0.031978 -0.008162 -0.005340
# 5 0.005290 -0.003005 0.008440 -0.008162 0.057989 0.026633
# 6 0.002034 -0.000996 0.004075 -0.005340 0.026633 0.033332
#
#
# Mechanical properties :
#
#
# Convention : Reuss Voigt Hill
#
# Bulk Modulus (GPa) = 39.27260 52.15837 45.71548
# Shear Modulus (GPa) = 27.67427 39.07813 33.37620
#
# Velocity S-wave (km/s) = 3.31636 3.94085 3.64201
# Velocity P-wave (km/s) = 5.50199 6.43706 5.98781
#
# Compressibility (1/GPa) = 0.02546304
#
# Stress axis : x y z
#
# Youngs Moduli (GPa) = 98.03528 86.16480 65.06753
#
# Poissons Ratio (x) = 0.38398 0.02831
# Poissons Ratio (y) = 0.43688 0.06275
# Poissons Ratio (z) = 0.04265 0.08310
#
# Static dielectric constant tensor:
#      x y z
#    x 4.789080 -0.176540 -0.162720 
#    y -0.176540 4.745800 -0.062800 
#    z -0.162720 -0.062800 4.408130 
# 
# 
# High freq. dielectric constant tensor:
#      x y z
#    x 2.023470 -0.010940 -0.010060 
#    y -0.010940 2.024420 0.000510 
#    z -0.010060 0.000510 1.992480 
# 
# From -- ./inp_files/112343.got.cif
#   From: 2010.06.25/outbox.cif.g09.slc.cpg/sg2_57_cif.got.tgz:112343.got - 2010.06.27 13:26:56.
