data_PCOD8034090
_publ_section_title
;
Structure prediction by ZEFSAII (Michael W. Deem and Ramdas Pophale) SiO2 
 PCOD8034090
Probable space group: P -1
;
_chemical_formula_sum "Si O2"
_cell_formula_units_Z 14
_cell_length_a 9.681237
_cell_length_b 9.388270
_cell_length_c 12.562185
_cell_angle_alpha 135.745306
_cell_angle_beta 132.296238
_cell_angle_gamma 45.151205
_cell_volume 531.400848
_symmetry_space_group_name_H-M "P -1"
_symmetry_group_IT_number 2
_symmetry_cell_setting 'triclinic'
loop_
_space_group_symop_operation_xyz
x,y,z
-x,-y,-z
loop_
_atom_site_type_symbol
_atom_site_label
_atom_site_fract_x
_atom_site_fract_y
_atom_site_fract_z
Si Si1 0.503524 0.475525 0.362552
Si Si2 0.096983 0.674859 0.630613
Si Si3 0.685930 0.024005 0.546729
Si Si4 0.649667 0.838015 0.218053
Si Si5 0.204757 0.091839 0.111357
Si Si6 0.209840 0.277972 0.002996
Si Si7 0.213577 0.634779 0.892204
O O1 0.500000 0.500000 0.500000
O O2 0.750580 0.361884 0.408861
O O3 0.392382 0.327486 0.176792
O O4 0.380963 0.716970 0.372778
O O5 0.258386 0.623692 0.784884
O O6 0.000000 0.500000 0.500000
O O7 0.902000 0.924124 0.670576
O O8 0.770090 0.863663 0.397273
O O9 0.500000 0.000000 0.500000
O O10 0.633310 0.594450 0.089140
O O11 0.434438 0.063885 0.241009
O O12 0.737401 0.844812 0.150506
O O13 0.177616 0.102548 0.973691
O O14 0.027907 0.323789 0.191856
O O15 0.210956 0.869333 0.056725
O O16 0.000000 0.500000 0.000000
#
# Coordination Sequence:
#
# PCOD8034090 Si02
#       7
#     2   2   2   2   2   2   2
#     4  12  30  51  77 114 158 204 259 318 386 463
#     4  12  25  46  77 107 154 197 255 313 385 455
#     4  12  26  47  80 113 151 204 259 315 389 458
#     4  12  24  44  76 106 146 194 252 316 382 447
#     4  11  25  44  72 102 145 192 246 313 379 445
#     4  12  28  51  74 107 162 200 257 317 384 456
#     4  11  24  43  72 107 138 193 254 309 372 449
#
# _framework density 26.345461
#
# number of rings (size 3 to 8) (size 9 to 14) (size 15 to 20)
#    0.000    0.286    4.286    3.429    6.000    2.857 
#    0.000    0.000    0.000    0.000    0.000    0.000 
#    0.000    0.000    0.000    0.000    0.000    0.000 
#
# Total GULP energy -173441.360436 kJ/mol
# GULP energy per Si atom -12388.668603 kJ/mol
# Density = 2.628550 g / cm^3
# Si number density = 26.345461 Si / 1000 Ang^3
#
#
#
# Elastic Constant Matrix: (Units=GPa)
#
#
# Indices 1 2 3 4 5 6 
#
# 1 139.2565 37.0962 25.1569 -7.7645 -20.5957 -18.9872
# 2 37.0962 149.2605 -17.1758 -14.0741 1.9135 -1.3137
# 3 25.1569 -17.1758 72.7122 -5.6027 -18.0253 -3.6106
# 4 -7.7645 -14.0741 -5.6027 34.0806 -0.7793 0.5482
# 5 -20.5957 1.9135 -18.0253 -0.7793 41.0912 -4.0532
# 6 -18.9872 -1.3137 -3.6106 0.5482 -4.0532 52.5078
#
#
#
# Elastic Compliance Matrix: (Units=1/GPa)
#
#
# Indices 1 2 3 4 5 6 
#
# 1 0.009473 -0.002619 -0.002665 0.000675 0.004057 0.003483
# 2 -0.002619 0.007984 0.002905 0.003179 -0.000410 -0.000612
# 3 -0.002665 0.002905 0.017213 0.003553 0.006220 0.000736
# 4 0.000675 0.003179 0.003553 0.031441 0.002387 0.000424
# 5 0.004057 -0.000410 0.006220 0.002387 0.029571 0.004142
# 6 0.003483 -0.000612 0.000736 0.000424 0.004142 0.020655
#
#
# Mechanical properties :
#
#
# Convention : Reuss Voigt Hill
#
# Bulk Modulus (GPa) = 33.43101 50.15376 41.79239
# Shear Modulus (GPa) = 38.14903 46.61270 42.38087
#
# Velocity S-wave (km/s) = 3.80943 4.21085 4.01516
# Velocity P-wave (km/s) = 5.66269 6.53605 6.11498
#
# Compressibility (1/GPa) = 0.02991234
#
# Stress axis : x y z
#
# Youngs Moduli (GPa) = 105.56817 125.24458 58.09483
#
# Poissons Ratio (x) = 0.32797 0.15483
# Poissons Ratio (y) = 0.27644 -0.16876
# Poissons Ratio (z) = 0.28136 -0.36382
#
# Static dielectric constant tensor:
#      x y z
#    x 5.301340 -0.024700 -0.109180 
#    y -0.024700 5.222740 -0.216980 
#    z -0.109180 -0.216980 4.715240 
# 
# 
# High freq. dielectric constant tensor:
#      x y z
#    x 2.065480 -0.002560 -0.013090 
#    y -0.002560 2.080350 -0.012170 
#    z -0.013090 -0.012170 2.035750 
# 
# From -- ./inp_files/383341.got.cif
#   From: 2010.06.25/outbox.cif.g09.slc.cpg/sg2_192_cif.got.tgz:383341.got - 2010.06.27 13:26:56.
