data_PCOD8034035
_publ_section_title
;
Structure prediction by ZEFSAII (Michael W. Deem and Ramdas Pophale) SiO2 
 PCOD8034035
Probable space group: P -1
;
_chemical_formula_sum "Si O2"
_cell_formula_units_Z 14
_cell_length_a 5.209644
_cell_length_b 28.124258
_cell_length_c 27.366353
_cell_angle_alpha 10.323345
_cell_angle_beta 61.128609
_cell_angle_gamma 60.635930
_cell_volume 626.221540
_symmetry_space_group_name_H-M "P -1"
_symmetry_group_IT_number 2
_symmetry_cell_setting 'triclinic'
loop_
_space_group_symop_operation_xyz
x,y,z
-x,-y,-z
loop_
_atom_site_type_symbol
_atom_site_label
_atom_site_fract_x
_atom_site_fract_y
_atom_site_fract_z
Si Si1 0.439440 0.002653 0.612933
Si Si2 0.170797 0.226858 0.773246
Si Si3 0.401650 0.516611 0.720766
Si Si4 0.076814 0.494335 0.672963
Si Si5 0.654209 0.500335 0.037469
Si Si6 0.749010 0.004123 0.898000
Si Si7 0.240572 0.015343 0.296186
O O1 0.562879 0.956191 0.702826
O O2 0.087233 0.057128 0.589076
O O3 0.587970 0.247332 0.330053
O O4 0.526502 0.753863 0.822615
O O5 0.000000 0.500000 0.500000
O O6 0.468785 0.199803 0.742603
O O7 0.174158 0.196415 0.861627
O O8 0.000000 0.000000 0.000000
O O9 0.235599 0.580061 0.620825
O O10 0.745798 0.409564 0.792984
O O11 0.395957 0.785774 0.480119
O O12 0.225100 0.297596 0.984994
O O13 0.043222 0.765240 0.368819
O O14 0.273141 0.221764 0.913159
O O15 0.500000 0.500000 0.000000
O O16 0.000000 0.500000 0.000000
#
# Coordination Sequence:
#
# PCOD8034035 Si02
#       7
#     2   2   2   2   2   2   2
#     4  12  24  42  70  97 130 186 222 275 332 395
#     4  11  24  43  70  95 135 174 222 275 332 393
#     4  12  26  45  68  99 132 175 218 295 336 399
#     4  12  26  44  70  98 136 174 222 272 360 401
#     4  12  24  42  64 100 142 175 222 273 332 395
#     4  11  26  43  66 103 130 177 224 275 330 432
#     4  12  24  45  68  96 132 170 238 275 334 397
#
# _framework density 22.356307999999999
#
# number of rings (size 3 to 8) (size 9 to 14) (size 15 to 20)
#    0.000    0.286    0.000    9.429    6.000    2.286 
#    0.000    0.000    0.000    0.000    0.000    0.000 
#    0.000    0.000    0.000    0.000    0.000    0.000 
#
# Total GULP energy -173549.828984 kJ/mol
# GULP energy per Si atom -12396.416356 kJ/mol
# Density = 2.230542 g / cm^3
# Si number density = 22.356308 Si / 1000 Ang^3
#
#
#
# Elastic Constant Matrix: (Units=GPa)
#
#
# Indices 1 2 3 4 5 6 
#
# 1 134.1538 47.3374 23.1784 -9.7851 -0.0694 -3.3646
# 2 47.3374 115.2819 49.7160 -14.1118 0.7836 5.3956
# 3 23.1784 49.7160 167.7220 -3.5096 6.0117 13.2825
# 4 -9.7851 -14.1118 -3.5096 49.8117 -0.8730 7.3317
# 5 -0.0694 0.7836 6.0117 -0.8730 42.4006 1.1969
# 6 -3.3646 5.3956 13.2825 7.3317 1.1969 53.0575
#
#
#
# Elastic Compliance Matrix: (Units=1/GPa)
#
#
# Indices 1 2 3 4 5 6 
#
# 1 0.008787 -0.003471 -0.000247 0.000597 0.000101 0.000887
# 2 -0.003471 0.011698 -0.002859 0.002591 0.000267 -0.001058
# 3 -0.000247 -0.002859 0.006986 -0.000172 -0.000901 -0.001430
# 4 0.000597 0.002591 -0.000172 0.021387 0.000507 -0.003149
# 5 0.000101 0.000267 -0.000901 0.000507 0.023729 -0.000400
# 6 0.000887 -0.001058 -0.001430 -0.003149 -0.000400 0.019813
#
#
# Mechanical properties :
#
#
# Convention : Reuss Voigt Hill
#
# Bulk Modulus (GPa) = 69.84961 73.06904 71.45933
# Shear Modulus (GPa) = 45.31965 48.84901 47.08433
#
# Velocity S-wave (km/s) = 4.50728 4.67949 4.59419
# Velocity P-wave (km/s) = 7.64192 7.87094 7.75728
#
# Compressibility (1/GPa) = 0.01431647
#
# Stress axis : x y z
#
# Youngs Moduli (GPa) = 113.79941 85.48748 143.14666
#
# Poissons Ratio (x) = 0.29673 0.03534
# Poissons Ratio (y) = 0.39500 0.40930
# Poissons Ratio (z) = 0.02810 0.24443
#
# Static dielectric constant tensor:
#      x y z
#    x 4.112130 0.068330 -0.069430 
#    y 0.068330 4.254870 0.004230 
#    z -0.069430 0.004230 4.145550 
# 
# 
# High freq. dielectric constant tensor:
#      x y z
#    x 1.883730 0.000690 -0.004810 
#    y 0.000690 1.902420 -0.002000 
#    z -0.004810 -0.002000 1.907760 
# 
# From -- ./inp_files/605188.got.cif
#   From: 2010.06.25/outbox.cif.g09.slc.cpg/sg2_303_cif.got.tgz:605188.got - 2010.06.27 13:26:56.
