data_PCOD8034310
_publ_section_title
;
Structure prediction by ZEFSAII (Michael W. Deem and Ramdas Pophale) SiO2 
 PCOD8034310
Probable space group: P -1
;
_chemical_formula_sum "Si O2"
_cell_formula_units_Z 12
_cell_length_a 11.478547
_cell_length_b 5.189200
_cell_length_c 9.622341
_cell_angle_alpha 93.543021
_cell_angle_beta 105.244070
_cell_angle_gamma 113.124668
_cell_volume 499.675471
_symmetry_space_group_name_H-M "P -1"
_symmetry_group_IT_number 2
_symmetry_cell_setting 'triclinic'
loop_
_space_group_symop_operation_xyz
x,y,z
-x,-y,-z
loop_
_atom_site_type_symbol
_atom_site_label
_atom_site_fract_x
_atom_site_fract_y
_atom_site_fract_z
Si Si1 0.413284 0.617207 0.387282
Si Si2 0.956246 0.815132 0.178389
Si Si3 0.371821 0.870584 0.648328
Si Si4 0.785133 0.846705 0.878108
Si Si5 0.913295 0.303151 0.341841
Si Si6 0.521435 0.762276 0.916637
O O1 0.500000 0.500000 0.500000
O O2 0.354915 0.779157 0.478783
O O3 0.281875 0.393298 0.266354
O O4 0.506907 0.813148 0.299783
O O5 0.912693 0.515148 0.229250
O O6 0.964104 0.072970 0.291893
O O7 0.848572 0.745994 0.021042
O O8 0.100453 0.891012 0.157527
O O9 0.236958 0.880156 0.659013
O O10 0.415704 0.666210 0.751866
O O11 0.670964 0.922676 0.909211
O O12 0.000000 0.500000 0.500000
O O13 0.500000 0.500000 0.000000
O O14 0.500000 0.000000 0.000000
#
# Coordination Sequence:
#
# PCOD8034310 Si02
#       6
#     2   2   2   2   2   2
#     4  11  24  44  71 105 141 192 238 300 364 419
#     4  11  28  47  74 108 141 199 237 292 361 428
#     4  11  26  43  71 108 142 186 248 297 364 430
#     4  11  25  48  74 102 151 184 246 295 356 434
#     4  12  27  48  75 105 148 189 244 294 357 432
#     4  12  25  42  70 102 140 182 226 295 358 416
#
# _framework density 24.015587
#
# number of rings (size 3 to 8) (size 9 to 14) (size 15 to 20)
#    0.000    0.667    1.667    4.500    4.667    6.667 
#    0.000    0.000    0.000    0.000    0.000    0.000 
#    0.000    0.000    0.000    0.000    0.000    0.000 
#
# Total GULP energy -148786.023474 kJ/mol
# GULP energy per Si atom -12398.835290 kJ/mol
# Density = 2.396093 g / cm^3
# Si number density = 24.015587 Si / 1000 Ang^3
#
#
#
# Elastic Constant Matrix: (Units=GPa)
#
#
# Indices 1 2 3 4 5 6 
#
# 1 159.8479 22.5316 19.9619 -5.4550 -21.7771 18.5004
# 2 22.5316 60.6531 12.8573 -12.7429 -7.9855 -4.8542
# 3 19.9619 12.8573 111.6070 5.5002 1.4737 11.5800
# 4 -5.4550 -12.7429 5.5002 39.9891 9.2742 2.6574
# 5 -21.7771 -7.9855 1.4737 9.2742 41.1159 3.6086
# 6 18.5004 -4.8542 11.5800 2.6574 3.6086 38.2280
#
#
#
# Elastic Compliance Matrix: (Units=1/GPa)
#
#
# Indices 1 2 3 4 5 6 
#
# 1 0.007740 -0.002606 -0.000682 -0.000343 0.004067 -0.004230
# 2 -0.002606 0.019638 -0.002511 0.005779 0.000867 0.004032
# 3 -0.000682 -0.002511 0.009760 -0.001931 -0.000521 -0.002762
# 4 -0.000343 0.005779 -0.001931 0.028313 -0.005378 0.000024
# 5 0.004067 0.000867 -0.000521 -0.005378 0.028226 -0.003991
# 6 -0.004230 0.004032 -0.002762 0.000024 -0.003991 0.029930
#
#
# Mechanical properties :
#
#
# Convention : Reuss Voigt Hill
#
# Bulk Modulus (GPa) = 39.15304 49.20105 44.17704
# Shear Modulus (GPa) = 34.79023 42.31709 38.55366
#
# Velocity S-wave (km/s) = 3.81025 4.20225 4.01104
# Velocity P-wave (km/s) = 5.97460 6.63904 6.31556
#
# Compressibility (1/GPa) = 0.02554080
#
# Stress axis : x y z
#
# Youngs Moduli (GPa) = 129.19258 50.92058 102.46035
#
# Poissons Ratio (x) = 0.13270 0.06989
# Poissons Ratio (y) = 0.33667 0.25726
# Poissons Ratio (z) = 0.08812 0.12785
#
# Static dielectric constant tensor:
#      x y z
#    x 4.181760 0.235710 -0.046930 
#    y 0.235710 4.000820 0.049860 
#    z -0.046930 0.049860 4.695720 
# 
# 
# High freq. dielectric constant tensor:
#      x y z
#    x 1.965480 0.010070 -0.010230 
#    y 0.010070 1.944200 -0.001470 
#    z -0.010230 -0.001470 1.978890 
# 
# From -- ./inp_files/229666.got.cif
#   From: 2010.06.25/outbox.cif.g09.slc.cpg/sg2_115_cif.got.tgz:229666.got - 2010.06.27 13:26:56.
