data_PCOD8034843
_publ_section_title
;
Structure prediction by ZEFSAII (Michael W. Deem and Ramdas Pophale) SiO2 
 PCOD8034843
Probable space group: P -1
;
_chemical_formula_sum "Si O2"
_cell_formula_units_Z 16
_cell_length_a 12.005704
_cell_length_b 11.956432
_cell_length_c 11.209861
_cell_angle_alpha 103.150955
_cell_angle_beta 62.172359
_cell_angle_gamma 50.771799
_cell_volume 712.468643
_symmetry_space_group_name_H-M "P -1"
_symmetry_group_IT_number 2
_symmetry_cell_setting 'triclinic'
loop_
_space_group_symop_operation_xyz
x,y,z
-x,-y,-z
loop_
_atom_site_type_symbol
_atom_site_label
_atom_site_fract_x
_atom_site_fract_y
_atom_site_fract_z
Si Si1 0.497485 0.383702 0.127550
Si Si2 0.208235 0.525718 0.658026
Si Si3 0.283534 0.993127 0.667216
Si Si4 0.168933 0.295582 0.950511
Si Si5 0.348447 0.961843 0.351381
Si Si6 0.261721 0.794919 0.265373
Si Si7 0.070319 0.581086 0.477045
Si Si8 0.141223 0.785778 0.930714
O O1 0.343764 0.600282 0.188734
O O2 0.330592 0.400664 0.236088
O O3 0.601988 0.362456 0.188687
O O4 0.719852 0.178380 0.876023
O O5 0.484171 0.265528 0.475132
O O6 0.125624 0.598319 0.580028
O O7 0.192742 0.657774 0.767048
O O8 0.003099 0.601367 0.829205
O O9 0.297865 0.091004 0.768281
O O10 0.292113 0.028288 0.534868
O O11 0.021470 0.137973 0.860585
O O12 0.395890 0.189494 0.860385
O O13 0.000000 0.500000 0.000000
O O14 0.137980 0.183486 0.429210
O O15 0.397323 0.787164 0.271881
O O16 0.000000 0.000000 0.500000
O O17 0.000000 0.500000 0.500000
O O18 0.000000 0.000000 0.000000
#
# Coordination Sequence:
#
# PCOD8034843 Si02
#       8
#     2   2   2   2   2   2   2   2
#     4  11  26  46  72 106 147 187 247 299 365 436
#     4  11  26  49  72 105 148 191 248 298 370 438
#     4  11  24  46  72 105 140 186 252 302 361 432
#     4  11  25  43  73 105 138 189 246 306 357 429
#     4  12  25  43  75 104 145 191 244 304 365 438
#     4  11  24  46  72 107 139 187 242 304 368 428
#     4  12  29  47  71 108 155 200 237 301 375 443
#     4  11  26  44  76 105 142 191 243 305 366 437
#
# _framework density 22.457128999999998
#
# number of rings (size 3 to 8) (size 9 to 14) (size 15 to 20)
#    0.000    0.750    2.500    3.375    8.750    4.500 
#    0.000    0.000    0.000    0.000    0.000    0.000 
#    0.000    0.000    0.000    0.000    0.000    0.000 
#
# Total GULP energy -198266.790252 kJ/mol
# GULP energy per Si atom -12391.674391 kJ/mol
# Density = 2.240602 g / cm^3
# Si number density = 22.457129 Si / 1000 Ang^3
#
#
#
# Elastic Constant Matrix: (Units=GPa)
#
#
# Indices 1 2 3 4 5 6 
#
# 1 111.7366 22.7628 60.5015 -4.8637 -36.0914 7.0800
# 2 22.7628 105.1315 40.1619 0.9044 -7.2774 -10.7386
# 3 60.5015 40.1619 123.3587 -4.8342 -5.6927 1.5002
# 4 -4.8637 0.9044 -4.8342 33.5224 2.5466 -0.9923
# 5 -36.0914 -7.2774 -5.6927 2.5466 36.3247 -2.3896
# 6 7.0800 -10.7386 1.5002 -0.9923 -2.3896 47.5563
#
#
#
# Elastic Compliance Matrix: (Units=1/GPa)
#
#
# Indices 1 2 3 4 5 6 
#
# 1 0.019634 0.000199 -0.008836 0.000149 0.018042 -0.001690
# 2 0.000199 0.011340 -0.003760 -0.000900 0.002124 0.002737
# 3 -0.008836 -0.003760 0.013371 0.001312 -0.007549 -0.000307
# 4 0.000149 -0.000900 0.001312 0.030220 -0.001928 0.000267
# 5 0.018042 0.002124 -0.007549 -0.001928 0.044849 0.000245
# 6 -0.001690 0.002737 -0.000307 0.000267 0.000245 0.021925
#
#
# Mechanical properties :
#
#
# Convention : Reuss Voigt Hill
#
# Bulk Modulus (GPa) = 51.14622 65.23101 58.18861
# Shear Modulus (GPa) = 28.96047 37.93406 33.44726
#
# Velocity S-wave (km/s) = 3.59498 4.11442 3.86344
# Velocity P-wave (km/s) = 6.32901 7.18896 6.77265
#
# Compressibility (1/GPa) = 0.01955179
#
# Stress axis : x y z
#
# Youngs Moduli (GPa) = 50.93117 88.18716 74.78980
#
# Poissons Ratio (x) = -0.01756 0.66081
# Poissons Ratio (y) = -0.01014 0.28121
# Poissons Ratio (z) = 0.45001 0.33159
#
# Static dielectric constant tensor:
#      x y z
#    x 3.899670 0.143960 -0.277340 
#    y 0.143960 4.071310 -0.422390 
#    z -0.277340 -0.422390 4.825050 
# 
# 
# High freq. dielectric constant tensor:
#      x y z
#    x 1.897930 0.005020 -0.007450 
#    y 0.005020 1.882610 -0.009430 
#    z -0.007450 -0.009430 1.904590 
# 
# From -- ./inp_files/364033.got.cif
#   From: 2010.06.25/outbox.cif.g09.slc.cpg/sg2_183_cif.got.tgz:364033.got - 2010.06.27 13:26:56.
