data_PCOD8034022
_publ_section_title
;
Structure prediction by ZEFSAII (Michael W. Deem and Ramdas Pophale) SiO2 
 PCOD8034022
Probable space group: P -1
;
_chemical_formula_sum "Si O2"
_cell_formula_units_Z 16
_cell_length_a 7.339862
_cell_length_b 12.113677
_cell_length_c 15.012058
_cell_angle_alpha 33.254080
_cell_angle_beta 117.079115
_cell_angle_gamma 102.433437
_cell_volume 613.166621
_symmetry_space_group_name_H-M "P -1"
_symmetry_group_IT_number 2
_symmetry_cell_setting 'triclinic'
loop_
_space_group_symop_operation_xyz
x,y,z
-x,-y,-z
loop_
_atom_site_type_symbol
_atom_site_label
_atom_site_fract_x
_atom_site_fract_y
_atom_site_fract_z
Si Si1 0.113079 0.742911 0.218457
Si Si2 0.607836 0.820976 0.818368
Si Si3 0.163244 0.117561 0.484047
Si Si4 0.583395 0.379737 0.802067
Si Si5 0.178027 0.267292 0.570333
Si Si6 0.624037 0.900378 0.957427
Si Si7 0.230862 0.416361 0.150694
Si Si8 0.784532 0.181299 0.624237
O O1 0.255011 0.706801 0.185192
O O2 0.128080 0.514264 0.418705
O O3 0.222862 0.843079 0.253401
O O4 0.861614 0.905404 0.040785
O O5 0.682439 0.743277 0.988587
O O6 0.621047 0.647629 0.861681
O O7 0.355198 0.936426 0.696380
O O8 0.736447 0.978897 0.707707
O O9 0.090244 0.286525 0.434878
O O10 0.246020 0.216566 0.351789
O O11 0.000000 0.000000 0.500000
O O12 0.718212 0.399484 0.906933
O O13 0.406180 0.609139 0.590764
O O14 0.462984 0.210262 0.907602
O O15 0.025508 0.171398 0.658508
O O16 0.433658 0.129707 0.738139
O O17 0.000000 0.500000 0.000000
#
# Coordination Sequence:
#
# PCOD8034022 Si02
#       8
#     2   2   2   2   2   2   2   2
#     4  12  26  53  76 108 152 196 251 306 370 445
#     4  11  26  48  68 108 145 190 250 293 373 440
#     4  11  24  43  70 102 142 195 236 299 366 441
#     4  12  26  48  76 110 150 194 247 312 369 439
#     4  11  25  48  74 109 154 191 251 302 376 443
#     4  11  28  48  73 113 150 195 249 307 368 444
#     4  12  26  43  72 104 146 189 241 301 364 439
#     4  12  26  49  79 105 147 202 244 311 374 438
#
# _framework density 26.094047
#
# number of rings (size 3 to 8) (size 9 to 14) (size 15 to 20)
#    0.000    0.500    3.750    3.375    8.750    1.500 
#    0.000    0.000    0.000    0.000    0.000    0.000 
#    0.000    0.000    0.000    0.000    0.000    0.000 
#
# Total GULP energy -198344.273231 kJ/mol
# GULP energy per Si atom -12396.517077 kJ/mol
# Density = 2.603466 g / cm^3
# Si number density = 26.094047 Si / 1000 Ang^3
#
#
#
# Elastic Constant Matrix: (Units=GPa)
#
#
# Indices 1 2 3 4 5 6 
#
# 1 143.2001 24.0664 19.8701 11.1871 11.7780 8.3235
# 2 24.0664 117.7636 3.8069 25.9694 14.8944 -3.1926
# 3 19.8701 3.8069 95.9937 12.9596 16.2130 0.9937
# 4 11.1871 25.9694 12.9596 36.6836 3.5838 4.0626
# 5 11.7780 14.8944 16.2130 3.5838 35.9700 5.6702
# 6 8.3235 -3.1926 0.9937 4.0626 5.6702 45.5168
#
#
#
# Elastic Compliance Matrix: (Units=1/GPa)
#
#
# Indices 1 2 3 4 5 6 
#
# 1 0.007584 -0.001229 -0.001209 -0.000766 -0.001159 -0.001234
# 2 -0.001229 0.011039 0.001602 -0.007816 -0.004462 0.002217
# 3 -0.001209 0.001602 0.012142 -0.004651 -0.005461 0.001164
# 4 -0.000766 -0.007816 -0.004651 0.034821 0.002705 -0.003752
# 5 -0.001159 -0.004462 -0.005461 0.002705 0.032901 -0.004322
# 6 -0.001234 0.002217 0.001164 -0.003752 -0.004322 0.023199
#
#
# Mechanical properties :
#
#
# Convention : Reuss Voigt Hill
#
# Bulk Modulus (GPa) = 34.37153 50.27156 42.32154
# Shear Modulus (GPa) = 37.57821 44.24834 40.91327
#
# Velocity S-wave (km/s) = 3.79899 4.12239 3.96399
# Velocity P-wave (km/s) = 5.69595 6.47813 6.09959
#
# Compressibility (1/GPa) = 0.02909385
#
# Stress axis : x y z
#
# Youngs Moduli (GPa) = 131.84917 90.58877 82.35740
#
# Poissons Ratio (x) = 0.11132 0.09960
# Poissons Ratio (y) = 0.16203 -0.13197
# Poissons Ratio (z) = 0.15945 -0.14516
#
# Static dielectric constant tensor:
#      x y z
#    x 4.729030 0.343450 -0.075920 
#    y 0.343450 3.907620 0.240790 
#    z -0.075920 0.240790 5.073310 
# 
# 
# High freq. dielectric constant tensor:
#      x y z
#    x 2.058350 0.004140 -0.002490 
#    y 0.004140 2.060540 0.014720 
#    z -0.002490 0.014720 2.052370 
# 
# From -- ./inp_files/499925.got.cif
#   From: 2010.06.25/outbox.cif.g09.slc.cpg/sg2_250_cif.got.tgz:499925.got - 2010.06.27 13:26:56.
