data_PCOD8034806
_publ_section_title
;
Structure prediction by ZEFSAII (Michael W. Deem and Ramdas Pophale) SiO2 
 PCOD8034806
Probable space group: P -1
;
_chemical_formula_sum "Si O2"
_cell_formula_units_Z 14
_cell_length_a 12.284684
_cell_length_b 9.825585
_cell_length_c 8.107248
_cell_angle_alpha 63.967505
_cell_angle_beta 131.755347
_cell_angle_gamma 129.883837
_cell_volume 560.054259
_symmetry_space_group_name_H-M "P -1"
_symmetry_group_IT_number 2
_symmetry_cell_setting 'triclinic'
loop_
_space_group_symop_operation_xyz
x,y,z
-x,-y,-z
loop_
_atom_site_type_symbol
_atom_site_label
_atom_site_fract_x
_atom_site_fract_y
_atom_site_fract_z
Si Si1 0.660965 0.226808 0.400694
Si Si2 0.575811 0.473165 0.357820
Si Si3 0.841854 0.334869 0.176574
Si Si4 0.910099 0.793743 0.460973
Si Si5 0.245712 0.417013 0.195735
Si Si6 0.031699 0.977425 0.862085
Si Si7 0.312480 0.892154 0.168458
O O1 0.584124 0.351974 0.288171
O O2 0.784597 0.298198 0.328974
O O3 0.753120 0.227656 0.665680
O O4 0.513851 0.027929 0.316021
O O5 0.379850 0.420852 0.197467
O O6 0.641239 0.445889 0.616986
O O7 0.704857 0.680742 0.334006
O O8 0.012350 0.324868 0.334595
O O9 0.874302 0.526453 0.050651
O O10 0.705756 0.204553 0.972753
O O11 0.958818 0.845638 0.291942
O O12 0.000000 0.000000 0.500000
O O13 0.122521 0.217988 0.255894
O O14 0.210737 0.993766 0.998729
O O15 0.000000 0.000000 0.000000
#
# Coordination Sequence:
#
# PCOD8034806 Si02
#       7
#     2   2   2   2   2   2   2
#     4  11  26  44  71 111 144 188 243 299 357 435
#     4  11  25  47  72 104 149 186 241 301 355 434
#     4  12  26  45  75 106 143 193 241 297 361 429
#     4  12  26  47  74 104 144 189 246 288 364 430
#     4  11  26  46  75 105 146 193 239 294 374 415
#     4  12  26  47  73 104 146 195 241 298 359 434
#     4  11  24  46  71 104 149 189 238 301 361 423
#
# _framework density 24.997578000000001
#
# number of rings (size 3 to 8) (size 9 to 14) (size 15 to 20)
#    0.000    0.571    4.286    2.143    6.000    4.571 
#    0.000    0.000    0.000    0.000    0.000    0.000 
#    0.000    0.000    0.000    0.000    0.000    0.000 
#
# Total GULP energy -173451.490494 kJ/mol
# GULP energy per Si atom -12389.392178 kJ/mol
# Density = 2.494068 g / cm^3
# Si number density = 24.997578 Si / 1000 Ang^3
#
#
#
# Elastic Constant Matrix: (Units=GPa)
#
#
# Indices 1 2 3 4 5 6 
#
# 1 102.0075 21.2662 21.5949 -7.2660 -0.7564 -3.0531
# 2 21.2662 70.1175 22.5525 -24.2223 10.2471 10.0792
# 3 21.5949 22.5525 94.5450 -26.0826 0.7947 5.6840
# 4 -7.2660 -24.2223 -26.0826 41.8721 -3.9350 -9.4428
# 5 -0.7564 10.2471 0.7947 -3.9350 48.4710 5.0771
# 6 -3.0531 10.0792 5.6840 -9.4428 5.0771 46.6516
#
#
#
# Elastic Compliance Matrix: (Units=1/GPa)
#
#
# Indices 1 2 3 4 5 6 
#
# 1 0.010899 -0.003254 -0.002048 -0.000885 0.000672 0.001414
# 2 -0.003254 0.019604 -0.001233 0.009238 -0.003207 -0.002079
# 3 -0.002048 -0.001233 0.013348 0.007284 0.000610 -0.000086
# 4 -0.000885 0.009238 0.007284 0.034544 0.000297 0.004018
# 5 0.000672 -0.003207 0.000610 0.000297 0.021503 -0.001617
# 6 0.001414 -0.002079 -0.000086 0.004018 -0.001617 0.022977
#
#
# Mechanical properties :
#
#
# Convention : Reuss Voigt Hill
#
# Bulk Modulus (GPa) = 32.48610 44.16634 38.32622
# Shear Modulus (GPa) = 34.19823 40.81604 37.50714
#
# Velocity S-wave (km/s) = 3.70274 4.04518 3.87774
# Velocity P-wave (km/s) = 5.59503 6.28685 5.95100
#
# Compressibility (1/GPa) = 0.03078240
#
# Stress axis : x y z
#
# Youngs Moduli (GPa) = 91.74789 51.01006 74.91527
#
# Poissons Ratio (x) = 0.16599 0.15343
# Poissons Ratio (y) = 0.29855 0.09234
# Poissons Ratio (z) = 0.18791 0.06287
#
# Static dielectric constant tensor:
#      x y z
#    x 4.637340 0.108690 -0.775820 
#    y 0.108690 3.865930 0.261450 
#    z -0.775820 0.261450 4.789200 
# 
# 
# High freq. dielectric constant tensor:
#      x y z
#    x 2.004870 -0.003110 -0.024000 
#    y -0.003110 1.993570 -0.001360 
#    z -0.024000 -0.001360 2.001780 
# 
# From -- ./inp_files/243233.got.cif
#   From: 2010.06.25/outbox.cif.g09.slc.cpg/sg2_122_cif.got.tgz:243233.got - 2010.06.27 13:26:56.
