data_PCOD8034925
_publ_section_title
;
Structure prediction by ZEFSAII (Michael W. Deem and Ramdas Pophale) SiO2 
 PCOD8034925
Probable space group: P -1
;
_chemical_formula_sum "Si O2"
_cell_formula_units_Z 16
_cell_length_a 22.129954
_cell_length_b 8.865157
_cell_length_c 6.738873
_cell_angle_alpha 82.847537
_cell_angle_beta 120.018182
_cell_angle_gamma 55.264822
_cell_volume 769.286999
_symmetry_space_group_name_H-M "P -1"
_symmetry_group_IT_number 2
_symmetry_cell_setting 'triclinic'
loop_
_space_group_symop_operation_xyz
x,y,z
-x,-y,-z
loop_
_atom_site_type_symbol
_atom_site_label
_atom_site_fract_x
_atom_site_fract_y
_atom_site_fract_z
Si Si1 0.122120 0.798704 0.204860
Si Si2 0.462192 0.977885 0.139757
Si Si3 0.227555 0.810935 0.726682
Si Si4 0.360692 0.347993 0.231071
Si Si5 0.091714 0.467252 0.631211
Si Si6 0.725288 0.926726 0.291995
Si Si7 0.056008 0.048333 0.687246
Si Si8 0.206838 0.383343 0.206347
O O1 0.191874 0.763981 0.492299
O O2 0.160220 0.566078 0.271082
O O3 0.138958 0.863677 0.017837
O O4 0.000000 0.000000 0.000000
O O5 0.444786 0.253510 0.552606
O O6 0.382099 0.970824 0.972330
O O7 0.413269 0.191553 0.151088
O O8 0.500000 0.000000 0.000000
O O9 0.283849 0.875524 0.741438
O O10 0.124778 0.026655 0.641574
O O11 0.302691 0.593015 0.026413
O O12 0.287099 0.340503 0.206383
O O13 0.184895 0.264524 0.681435
O O14 0.000000 0.500000 0.500000
O O15 0.037361 0.704530 0.410855
O O16 0.121650 0.453499 0.909293
O O17 0.744569 0.836422 0.560907
O O18 0.000000 0.000000 0.500000
#
# Coordination Sequence:
#
# PCOD8034925 Si02
#       8
#     2   2   2   2   2   2   2   2
#     4  12  24  39  67  96 140 188 240 274 324 410
#     4  11  24  48  79 103 127 178 232 290 354 414
#     4  12  26  43  65 105 140 181 226 287 342 401
#     4  11  24  46  76 101 129 175 241 284 340 418
#     4  12  25  42  65 101 148 184 223 280 347 406
#     4  12  27  44  69 104 145 176 227 289 353 406
#     4  12  22  42  64  97 135 188 237 274 328 404
#     4  12  24  43  70  99 135 187 232 279 336 413
#
# _framework density 20.798479
#
# number of rings (size 3 to 8) (size 9 to 14) (size 15 to 20)
#    0.000    0.250    7.500    1.500    1.750    1.000 
#    0.000    0.625    0.000    0.000    0.000    0.000 
#    0.000    0.000    0.000    0.000    0.000    0.000 
#
# Total GULP energy -198366.490717 kJ/mol
# GULP energy per Si atom -12397.905670 kJ/mol
# Density = 2.075114 g / cm^3
# Si number density = 20.798479 Si / 1000 Ang^3
#
#
#
# Elastic Constant Matrix: (Units=GPa)
#
#
# Indices 1 2 3 4 5 6 
#
# 1 142.2475 52.0044 67.7315 -1.8949 7.5333 12.8290
# 2 52.0044 91.3734 50.8483 -5.4468 -3.0483 4.8773
# 3 67.7315 50.8483 152.8734 -10.4502 5.9167 11.5832
# 4 -1.8949 -5.4468 -10.4502 32.8616 2.8305 -7.1138
# 5 7.5333 -3.0483 5.9167 2.8305 41.8059 -0.2677
# 6 12.8290 4.8773 11.5832 -7.1138 -0.2677 34.8409
#
#
#
# Elastic Compliance Matrix: (Units=1/GPa)
#
#
# Indices 1 2 3 4 5 6 
#
# 1 0.010290 -0.004189 -0.003011 -0.001460 -0.001651 -0.002512
# 2 -0.004189 0.015262 -0.003282 0.001215 0.002255 0.000763
# 3 -0.003011 -0.003282 0.009237 0.002084 -0.001152 -0.001086
# 4 -0.001460 0.001215 0.002084 0.032768 -0.002121 0.006349
# 5 -0.001651 0.002255 -0.001152 -0.002121 0.024691 0.000432
# 6 -0.002512 0.000763 -0.001086 0.006349 0.000432 0.031181
#
#
# Mechanical properties :
#
#
# Convention : Reuss Voigt Hill
#
# Bulk Modulus (GPa) = 72.34193 80.85144 76.59668
# Shear Modulus (GPa) = 33.55702 36.29568 34.92635
#
# Velocity S-wave (km/s) = 4.02112 4.18199 4.10234
# Velocity P-wave (km/s) = 7.51113 7.89156 7.70369
#
# Compressibility (1/GPa) = 0.01382324
#
# Stress axis : x y z
#
# Youngs Moduli (GPa) = 97.18494 65.52398 108.26429
#
# Poissons Ratio (x) = 0.27445 0.32602
# Poissons Ratio (y) = 0.40706 0.35538
# Poissons Ratio (z) = 0.29265 0.21508
#
# Static dielectric constant tensor:
#      x y z
#    x 4.090050 -0.113680 -0.221840 
#    y -0.113680 3.719430 0.084700 
#    z -0.221840 0.084700 4.145050 
# 
# 
# High freq. dielectric constant tensor:
#      x y z
#    x 1.818230 -0.005240 -0.005680 
#    y -0.005240 1.809690 0.000500 
#    z -0.005680 0.000500 1.831280 
# 
# From -- ./inp_files/116957.got.cif
#   From: 2010.06.25/outbox.cif.g09.slc.cpg/sg2_59_cif.got.tgz:116957.got - 2010.06.27 13:26:56.
