data_PCOD8034301
_publ_section_title
;
Structure prediction by ZEFSAII (Michael W. Deem and Ramdas Pophale) SiO2 
 PCOD8034301
Probable space group: P -1
;
_chemical_formula_sum "Si O2"
_cell_formula_units_Z 16
_cell_length_a 10.874175
_cell_length_b 11.081930
_cell_length_c 14.030165
_cell_angle_alpha 103.092118
_cell_angle_beta 99.793473
_cell_angle_gamma 25.393692
_cell_volume 703.781807
_symmetry_space_group_name_H-M "P -1"
_symmetry_group_IT_number 2
_symmetry_cell_setting 'triclinic'
loop_
_space_group_symop_operation_xyz
x,y,z
-x,-y,-z
loop_
_atom_site_type_symbol
_atom_site_label
_atom_site_fract_x
_atom_site_fract_y
_atom_site_fract_z
Si Si1 0.292582 0.600656 0.616649
Si Si2 0.220565 0.976694 0.893513
Si Si3 0.056430 0.350327 0.063346
Si Si4 0.678370 0.139403 0.720731
Si Si5 0.642041 0.525142 0.608046
Si Si6 0.795909 0.897189 0.293234
Si Si7 0.515655 0.908075 0.195639
Si Si8 0.374794 0.593248 0.103582
O O1 0.463261 0.331408 0.635897
O O2 0.499292 0.535611 0.644463
O O3 0.223110 0.636922 0.503541
O O4 0.997048 0.889893 0.684232
O O5 0.230882 0.037991 0.807161
O O6 0.969594 0.100064 0.888951
O O7 0.516962 0.636549 0.884038
O O8 0.167043 0.121465 0.997057
O O9 0.752072 0.608738 0.122695
O O10 0.307975 0.165069 0.138166
O O11 0.000000 0.500000 0.000000
O O12 0.679028 0.004864 0.746940
O O13 0.542253 0.365459 0.812123
O O14 0.878062 0.379740 0.679147
O O15 0.395493 0.847466 0.616315
O O16 0.685794 0.854456 0.274291
O O17 0.500000 0.500000 0.000000
#
# Coordination Sequence:
#
# PCOD8034301 Si02
#       8
#     2   2   2   2   2   2   2   2
#     4  11  24  45  73 100 132 175 225 279 349 407
#     4  12  24  39  67  94 128 173 225 276 333 386
#     4  12  24  43  66  96 137 184 230 278 326 393
#     4  12  24  45  68  98 142 185 220 267 345 413
#     4  11  24  44  71 103 130 166 227 294 338 397
#     4  12  24  42  67 100 133 171 226 287 337 388
#     4  12  27  44  66 100 141 183 229 274 329 413
#     4  12  25  41  63  96 134 172 219 276 327 392
#
# _framework density 22.734318999999999
#
# number of rings (size 3 to 8) (size 9 to 14) (size 15 to 20)
#    0.000    0.250    1.250    9.750    1.750    2.000 
#    0.000    3.750    0.000    0.000    0.000    0.000 
#    0.000    0.000    0.000    0.000    0.000    0.000 
#
# Total GULP energy -198469.661296 kJ/mol
# GULP energy per Si atom -12404.353831 kJ/mol
# Density = 2.268257 g / cm^3
# Si number density = 22.734319 Si / 1000 Ang^3
#
#
#
# Elastic Constant Matrix: (Units=GPa)
#
#
# Indices 1 2 3 4 5 6 
#
# 1 118.1454 29.5981 55.9348 1.6296 -0.2167 -0.7790
# 2 29.5981 113.1774 37.0859 -4.0036 -5.5521 -8.2111
# 3 55.9348 37.0859 92.8703 3.1519 -5.7586 -8.0964
# 4 1.6296 -4.0036 3.1519 43.0037 -4.1166 -0.9039
# 5 -0.2167 -5.5521 -5.7586 -4.1166 28.3701 1.9164
# 6 -0.7790 -8.2111 -8.0964 -0.9039 1.9164 34.7199
#
#
#
# Elastic Compliance Matrix: (Units=1/GPa)
#
#
# Indices 1 2 3 4 5 6 
#
# 1 0.012060 -0.001028 -0.007072 -0.000208 -0.001470 -0.001546
# 2 -0.001028 0.010448 -0.003370 0.001432 0.001451 0.001619
# 3 -0.007072 -0.003370 0.016798 -0.000992 0.002363 0.002805
# 4 -0.000208 0.001432 -0.000992 0.023814 0.003497 0.000530
# 5 -0.001470 0.001451 0.002363 0.003497 0.036580 -0.001067
# 6 -0.001546 0.001619 0.002805 0.000530 -0.001067 0.029877
#
#
# Mechanical properties :
#
#
# Convention : Reuss Voigt Hill
#
# Bulk Modulus (GPa) = 61.10705 63.27008 62.18856
# Shear Modulus (GPa) = 31.65113 34.65703 33.15408
#
# Velocity S-wave (km/s) = 3.73529 3.90864 3.82295
# Velocity P-wave (km/s) = 6.74836 6.94698 6.84839
#
# Compressibility (1/GPa) = 0.01636472
#
# Stress axis : x y z
#
# Youngs Moduli (GPa) = 82.92025 95.70906 59.53230
#
# Poissons Ratio (x) = 0.09841 0.42100
# Poissons Ratio (y) = 0.08526 0.20065
# Poissons Ratio (z) = 0.58639 0.32259
#
# Static dielectric constant tensor:
#      x y z
#    x 3.967460 -0.010900 0.045000 
#    y -0.010900 4.416350 0.047170 
#    z 0.045000 0.047170 4.092890 
# 
# 
# High freq. dielectric constant tensor:
#      x y z
#    x 1.885960 -0.006630 0.001140 
#    y -0.006630 1.913420 0.003560 
#    z 0.001140 0.003560 1.898250 
# 
# From -- ./inp_files/519768.got.cif
#   From: 2010.06.25/outbox.cif.g09.slc.cpg/sg2_260_cif.got.tgz:519768.got - 2010.06.27 13:26:56.
