data_PCOD8034841
_publ_section_title
;
Structure prediction by ZEFSAII (Michael W. Deem and Ramdas Pophale) SiO2 
 PCOD8034841
Probable space group: P -1
;
_chemical_formula_sum "Si O2"
_cell_formula_units_Z 16
_cell_length_a 5.325061
_cell_length_b 21.720332
_cell_length_c 19.084078
_cell_angle_alpha 157.125845
_cell_angle_beta 67.308923
_cell_angle_gamma 122.534376
_cell_volume 681.579414
_symmetry_space_group_name_H-M "P -1"
_symmetry_group_IT_number 2
_symmetry_cell_setting 'triclinic'
loop_
_space_group_symop_operation_xyz
x,y,z
-x,-y,-z
loop_
_atom_site_type_symbol
_atom_site_label
_atom_site_fract_x
_atom_site_fract_y
_atom_site_fract_z
Si Si1 0.702685 0.534218 0.857388
Si Si2 0.213308 0.192291 0.369421
Si Si3 0.112013 0.586353 0.001804
Si Si4 0.647633 0.178770 0.474225
Si Si5 0.701919 0.518684 0.567512
Si Si6 0.292373 0.889204 0.106742
Si Si7 0.832909 0.903903 0.988485
Si Si8 0.693762 0.015754 0.563568
O O1 0.580281 0.341364 0.625975
O O2 0.412463 0.566544 0.931457
O O3 0.846794 0.504252 0.883029
O O4 0.961478 0.705471 0.962812
O O5 0.507607 0.366322 0.486038
O O6 0.018719 0.267019 0.511023
O O7 0.300502 0.080974 0.296479
O O8 0.027482 0.043410 0.173764
O O9 0.201293 0.794906 0.211511
O O10 0.000000 0.500000 0.000000
O O11 0.488675 0.968042 0.240074
O O12 0.552918 0.152028 0.537793
O O13 0.500000 0.500000 0.500000
O O14 0.830653 0.714515 0.796168
O O15 0.000000 0.500000 0.500000
O O16 0.470289 0.856009 0.987758
O O17 0.000000 0.000000 0.000000
O O18 0.500000 0.000000 0.500000
O O19 0.000000 0.000000 0.500000
#
# Coordination Sequence:
#
# PCOD8034841 Si02
#       8
#     2   2   2   2   2   2   2   2
#     4  12  26  46  73 101 149 187 234 298 349 426
#     4  11  26  45  75 102 145 191 234 296 353 426
#     4  12  25  46  71 108 143 184 241 295 357 419
#     4  11  26  46  70 105 144 186 240 289 359 422
#     4  12  27  46  73 107 145 184 239 295 351 423
#     4  11  26  45  72 105 143 191 235 295 353 429
#     4  11  24  46  72 104 144 186 239 292 356 418
#     4  12  25  44  73 104 140 188 237 293 350 417
#
# _framework density 23.474889000000001
#
# number of rings (size 3 to 8) (size 9 to 14) (size 15 to 20)
#    0.000    0.500    2.500    4.875    8.750    2.000 
#    0.000    0.000    0.000    0.000    0.000    0.000 
#    0.000    0.000    0.000    0.000    0.000    0.000 
#
# Total GULP energy -198241.234539 kJ/mol
# GULP energy per Si atom -12390.077159 kJ/mol
# Density = 2.342146 g / cm^3
# Si number density = 23.474889 Si / 1000 Ang^3
#
#
#
# Elastic Constant Matrix: (Units=GPa)
#
#
# Indices 1 2 3 4 5 6 
#
# 1 123.2273 46.6537 30.4410 -11.9363 -27.7395 31.3364
# 2 46.6537 175.6997 59.8542 12.9247 -20.6682 31.2310
# 3 30.4410 59.8542 143.5365 10.8847 -38.6102 26.2619
# 4 -11.9363 12.9247 10.8847 43.0934 3.0420 -10.8230
# 5 -27.7395 -20.6682 -38.6102 3.0420 42.6991 -9.4498
# 6 31.3364 31.2310 26.2619 -10.8230 -9.4498 46.6593
#
#
#
# Elastic Compliance Matrix: (Units=1/GPa)
#
#
# Indices 1 2 3 4 5 6 
#
# 1 0.011471 -0.001786 0.000757 0.001766 0.005969 -0.005316
# 2 -0.001786 0.007717 -0.001833 -0.003281 0.000349 -0.003624
# 3 0.000757 -0.001833 0.011097 -0.003830 0.008890 -0.004615
# 4 0.001766 -0.003281 -0.003830 0.028159 -0.003941 0.008900
# 5 0.005969 0.000349 0.008890 -0.003941 0.035111 -0.003049
# 6 -0.005316 -0.003624 -0.004615 0.008900 -0.003049 0.031472
#
#
# Mechanical properties :
#
#
# Convention : Reuss Voigt Hill
#
# Bulk Modulus (GPa) = 40.71922 79.59569 60.15746
# Shear Modulus (GPa) = 35.98668 46.85800 41.42234
#
# Velocity S-wave (km/s) = 3.91958 4.47261 4.20520
# Velocity P-wave (km/s) = 6.15367 7.78798 7.01856
#
# Compressibility (1/GPa) = 0.02455843
#
# Stress axis : x y z
#
# Youngs Moduli (GPa) = 87.17585 129.58345 90.11382
#
# Poissons Ratio (x) = 0.23150 -0.06818
# Poissons Ratio (y) = 0.15574 0.16522
# Poissons Ratio (z) = -0.06595 0.23758
#
# Static dielectric constant tensor:
#      x y z
#    x 4.586400 -0.283270 0.213400 
#    y -0.283270 5.527510 -0.628760 
#    z 0.213400 -0.628760 5.633320 
# 
# 
# High freq. dielectric constant tensor:
#      x y z
#    x 1.924150 0.004920 -0.008300 
#    y 0.004920 1.948680 0.001060 
#    z -0.008300 0.001060 1.958060 
# 
# From -- ./inp_files/52294.got.cif
#   From: 2010.06.25/outbox.cif.g09.slc.cpg/sg2_27_cif.got.tgz:52294.got - 2010.06.27 13:26:56.
