data_PCOD8034228
_publ_section_title
;
Structure prediction by ZEFSAII (Michael W. Deem and Ramdas Pophale) SiO2 
 PCOD8034228
Probable space group: P -1
;
_chemical_formula_sum "Si O2"
_cell_formula_units_Z 16
_cell_length_a 8.186156
_cell_length_b 23.922620
_cell_length_c 23.855966
_cell_angle_alpha 168.452611
_cell_angle_beta 137.818258
_cell_angle_gamma 44.073087
_cell_volume 626.974134
_symmetry_space_group_name_H-M "P -1"
_symmetry_group_IT_number 2
_symmetry_cell_setting 'triclinic'
loop_
_space_group_symop_operation_xyz
x,y,z
-x,-y,-z
loop_
_atom_site_type_symbol
_atom_site_label
_atom_site_fract_x
_atom_site_fract_y
_atom_site_fract_z
Si Si1 0.753713 0.655274 0.577844
Si Si2 0.523851 0.133059 0.553025
Si Si3 0.698340 0.586757 0.834185
Si Si4 0.407314 0.466945 0.744269
Si Si5 0.349256 0.228893 0.212280
Si Si6 0.989436 0.864612 0.521250
Si Si7 0.167312 0.379773 0.874510
Si Si8 0.159322 0.988564 0.157585
O O1 0.542895 0.423804 0.276878
O O2 0.670320 0.803911 0.758578
O O3 0.792033 0.910510 0.794659
O O4 0.000000 0.500000 0.500000
O O5 0.497848 0.373620 0.735617
O O6 0.271094 0.049000 0.436946
O O7 0.646629 0.856404 0.289065
O O8 0.696601 0.333677 0.835229
O O9 0.622133 0.421089 0.709428
O O10 0.915976 0.405821 0.687043
O O11 0.801417 0.897501 0.178663
O O12 0.166346 0.267949 0.471746
O O13 0.355812 0.793347 0.043916
O O14 0.500000 0.500000 0.500000
O O15 0.500000 0.000000 0.000000
O O16 0.088192 0.200584 0.088233
O O17 0.974878 0.783852 0.372434
O O18 0.000000 0.500000 0.000000
#
# Coordination Sequence:
#
# PCOD8034228 Si02
#       8
#     2   2   2   2   2   2   2   2
#     4  11  25  49  79 107 144 201 258 306 372 453
#     4  12  26  47  75 110 150 198 246 305 376 443
#     4  11  25  45  72 107 145 194 248 309 369 445
#     4  11  24  44  69 101 140 188 246 299 357 434
#     4  12  26  42  67 106 146 184 236 308 378 444
#     4  12  26  47  73 110 153 192 243 311 380 443
#     4  12  26  47  77 112 150 199 249 304 364 447
#     4  11  24  45  68  97 141 192 241 300 362 439
#
# _framework density 25.519394999999999
#
# number of rings (size 3 to 8) (size 9 to 14) (size 15 to 20)
#    0.000    0.500    0.000    9.000    0.000    9.000 
#    0.000    0.000    0.000    0.000    0.000    0.000 
#    0.000    0.000    0.000    0.000    0.000    0.000 
#
# Total GULP energy -198220.806858 kJ/mol
# GULP energy per Si atom -12388.800429 kJ/mol
# Density = 2.546131 g / cm^3
# Si number density = 25.519395 Si / 1000 Ang^3
#
#
#
# Elastic Constant Matrix: (Units=GPa)
#
#
# Indices 1 2 3 4 5 6 
#
# 1 101.3675 55.2186 48.4452 6.4170 -25.8918 -15.5584
# 2 55.2186 122.9184 54.9502 10.1254 -12.4656 -17.0645
# 3 48.4452 54.9502 181.3810 1.9569 -6.1876 -19.2750
# 4 6.4170 10.1254 1.9569 53.4581 -9.1349 7.0460
# 5 -25.8918 -12.4656 -6.1876 -9.1349 44.4885 -4.7198
# 6 -15.5584 -17.0645 -19.2750 7.0460 -4.7198 35.7444
#
#
#
# Elastic Compliance Matrix: (Units=1/GPa)
#
#
# Indices 1 2 3 4 5 6 
#
# 1 0.016433 -0.004911 -0.002102 -0.000169 0.008371 0.004813
# 2 -0.004911 0.011762 -0.001928 -0.001928 0.000074 0.002828
# 3 -0.002102 -0.001928 0.006824 0.000030 -0.000622 0.001756
# 4 -0.000169 -0.001928 0.000030 0.020210 0.003031 -0.004562
# 5 0.008371 0.000074 -0.000622 0.003031 0.028598 0.006522
# 6 0.004813 0.002828 0.001756 -0.004562 0.006522 0.034129
#
#
# Mechanical properties :
#
#
# Convention : Reuss Voigt Hill
#
# Bulk Modulus (GPa) = 58.35564 80.32166 69.33865
# Shear Modulus (GPa) = 35.32306 43.20841 39.26574
#
# Velocity S-wave (km/s) = 3.72447 4.11927 3.92683
# Velocity P-wave (km/s) = 6.43525 7.35986 6.91303
#
# Compressibility (1/GPa) = 0.01713630
#
# Stress axis : x y z
#
# Youngs Moduli (GPa) = 60.85415 85.01623 146.54320
#
# Poissons Ratio (x) = 0.41753 0.30808
# Poissons Ratio (y) = 0.29887 0.28253
# Poissons Ratio (z) = 0.12793 0.16391
#
# Static dielectric constant tensor:
#      x y z
#    x 4.642340 -0.213750 -0.055380 
#    y -0.213750 4.930200 -0.248980 
#    z -0.055380 -0.248980 4.816670 
# 
# 
# High freq. dielectric constant tensor:
#      x y z
#    x 1.999670 -0.015740 -0.000880 
#    y -0.015740 2.033090 -0.007200 
#    z -0.000880 -0.007200 2.048830 
# 
# From -- ./inp_files/617717.got.cif
#   From: 2010.06.25/outbox.cif.g09.slc.cpg/sg2_309_cif.got.tgz:617717.got - 2010.06.27 13:26:56.
