data_PCOD8034719
_publ_section_title
;
Structure prediction by ZEFSAII (Michael W. Deem and Ramdas Pophale) SiO2 
 PCOD8034719
Probable space group: P -1
;
_chemical_formula_sum "Si O2"
_cell_formula_units_Z 16
_cell_length_a 8.805105
_cell_length_b 12.629995
_cell_length_c 21.223245
_cell_angle_alpha 151.598236
_cell_angle_beta 141.817016
_cell_angle_gamma 52.204861
_cell_volume 668.737631
_symmetry_space_group_name_H-M "P -1"
_symmetry_group_IT_number 2
_symmetry_cell_setting 'triclinic'
loop_
_space_group_symop_operation_xyz
x,y,z
-x,-y,-z
loop_
_atom_site_type_symbol
_atom_site_label
_atom_site_fract_x
_atom_site_fract_y
_atom_site_fract_z
Si Si1 0.063587 0.991092 0.241139
Si Si2 0.540478 0.620680 0.359260
Si Si3 0.727859 0.246032 0.917758
Si Si4 0.796254 0.134195 0.016943
Si Si5 0.328460 0.752766 0.711925
Si Si6 0.037254 0.457529 0.624220
Si Si7 0.847297 0.016511 0.397910
Si Si8 0.005626 0.699993 0.187874
O O1 0.102498 0.908031 0.139853
O O2 0.992057 0.759620 0.140749
O O3 0.327971 0.156910 0.439623
O O4 0.840930 0.121684 0.234897
O O5 0.516653 0.381771 0.264600
O O6 0.264745 0.637427 0.258104
O O7 0.706270 0.614484 0.347653
O O8 0.437100 0.114088 0.746751
O O9 0.792996 0.291464 0.036620
O O10 0.771379 0.487685 0.021672
O O11 0.880536 0.286750 0.186540
O O12 0.520332 0.951960 0.838703
O O13 0.000000 0.000000 0.000000
O O14 0.140418 0.560894 0.505564
O O15 0.873465 0.284947 0.532346
O O16 0.970755 0.923714 0.329640
O O17 0.000000 0.000000 0.500000
#
# Coordination Sequence:
#
# PCOD8034719 Si02
#       8
#     2   2   2   2   2   2   2   2
#     4  11  24  45  77 103 145 197 250 304 373 432
#     4  11  25  45  78 107 144 193 258 304 365 440
#     4  12  27  45  69 113 151 191 248 314 367 440
#     4  12  28  46  74 111 153 198 246 302 378 449
#     4  11  25  51  75 107 148 198 248 309 364 444
#     4  11  25  48  75 106 148 199 247 306 369 435
#     4  12  25  46  74 103 153 198 243 307 374 441
#     4  12  24  46  71 113 144 195 251 304 371 440
#
# _framework density 23.925675999999999
#
# number of rings (size 3 to 8) (size 9 to 14) (size 15 to 20)
#    0.000    0.500    3.750    4.875    7.000    3.000 
#    0.000    0.000    0.000    0.000    0.000    0.000 
#    0.000    0.000    0.000    0.000    0.000    0.000 
#
# Total GULP energy -198471.119950 kJ/mol
# GULP energy per Si atom -12404.444997 kJ/mol
# Density = 2.387122 g / cm^3
# Si number density = 23.925676 Si / 1000 Ang^3
#
#
#
# Elastic Constant Matrix: (Units=GPa)
#
#
# Indices 1 2 3 4 5 6 
#
# 1 111.5338 27.2117 48.9342 -1.5085 3.2619 -4.0021
# 2 27.2117 74.6467 0.6420 13.8015 11.3068 11.0973
# 3 48.9342 0.6420 88.7754 13.0594 3.0529 7.6505
# 4 -1.5085 13.8015 13.0594 30.0918 2.6798 6.1919
# 5 3.2619 11.3068 3.0529 2.6798 46.6038 6.6850
# 6 -4.0021 11.0973 7.6505 6.1919 6.6850 32.6459
#
#
#
# Elastic Compliance Matrix: (Units=1/GPa)
#
#
# Indices 1 2 3 4 5 6 
#
# 1 0.015649 -0.007888 -0.010178 0.007669 0.000259 0.005477
# 2 -0.007888 0.019604 0.006427 -0.010563 -0.003085 -0.006502
# 3 -0.010178 0.006427 0.018877 -0.010409 -0.000661 -0.005747
# 4 0.007669 -0.010563 -0.010409 0.043211 0.000411 -0.001310
# 5 0.000259 -0.003085 -0.000661 0.000411 0.022709 -0.003493
# 6 0.005477 -0.006502 -0.005747 -0.001310 -0.003493 0.035824
#
#
# Mechanical properties :
#
#
# Convention : Reuss Voigt Hill
#
# Bulk Modulus (GPa) = 32.41438 47.61463 40.01450
# Shear Modulus (GPa) = 26.39422 35.07949 30.73686
#
# Velocity S-wave (km/s) = 3.32501 3.83324 3.58813
# Velocity P-wave (km/s) = 5.32149 6.28775 5.82470
#
# Compressibility (1/GPa) = 0.03085050
#
# Stress axis : x y z
#
# Youngs Moduli (GPa) = 63.90353 51.01075 52.97392
#
# Poissons Ratio (x) = 0.40240 0.53916
# Poissons Ratio (y) = 0.50410 -0.34045
# Poissons Ratio (z) = 0.65040 -0.32783
#
# Static dielectric constant tensor:
#      x y z
#    x 4.699100 0.120720 0.118410 
#    y 0.120720 4.070240 0.153490 
#    z 0.118410 0.153490 4.568670 
# 
# 
# High freq. dielectric constant tensor:
#      x y z
#    x 1.960820 0.006680 0.008510 
#    y 0.006680 1.949230 0.009220 
#    z 0.008510 0.009220 1.953070 
# 
# From -- ./inp_files/589752.got.cif
#   From: 2010.06.25/outbox.cif.g09.slc.cpg/sg2_295_cif.got.tgz:589752.got - 2010.06.27 13:26:56.
