data_PCOD8034957
_publ_section_title
;
Structure prediction by ZEFSAII (Michael W. Deem and Ramdas Pophale) SiO2 
 PCOD8034957
Probable space group: P -1
;
_chemical_formula_sum "Si O2"
_cell_formula_units_Z 12
_cell_length_a 11.553068
_cell_length_b 7.027447
_cell_length_c 9.655429
_cell_angle_alpha 51.927753
_cell_angle_beta 110.157468
_cell_angle_gamma 100.825044
_cell_volume 578.998247
_symmetry_space_group_name_H-M "P -1"
_symmetry_group_IT_number 2
_symmetry_cell_setting 'triclinic'
loop_
_space_group_symop_operation_xyz
x,y,z
-x,-y,-z
loop_
_atom_site_type_symbol
_atom_site_label
_atom_site_fract_x
_atom_site_fract_y
_atom_site_fract_z
Si Si1 0.846379 0.258786 0.294822
Si Si2 0.868372 0.717846 0.617580
Si Si3 0.294602 0.467006 0.122785
Si Si4 0.494781 0.230232 0.799111
Si Si5 0.749904 0.450969 0.445699
Si Si6 0.591258 0.025928 0.652290
O O1 0.821963 0.430515 0.339664
O O2 0.986658 0.276284 0.296970
O O3 0.813074 0.984441 0.439593
O O4 0.759942 0.341331 0.095075
O O5 0.809361 0.621269 0.776589
O O6 0.844139 0.541006 0.559068
O O7 0.399079 0.587659 0.202319
O O8 0.353290 0.238604 0.164839
O O9 0.363613 0.361946 0.703587
O O10 0.510741 0.146793 0.685900
O O11 0.500000 0.000000 0.000000
O O12 0.705525 0.188929 0.588846
O O13 0.500000 0.000000 0.500000
#
# Coordination Sequence:
#
# PCOD8034957 Si02
#       6
#     2   2   2   2   2   2
#     4  11  26  43  70  97 127 179 221 266 322 388
#     4  11  24  47  67  94 134 173 221 271 322 377
#     4  12  24  44  68  98 135 168 219 269 327 390
#     4  12  26  40  66 100 130 169 216 272 327 391
#     4  12  23  43  67  95 134 170 218 267 328 387
#     4  12  24  41  66  98 132 176 209 263 337 388
#
# _framework density 20.725451
#
# number of rings (size 3 to 8) (size 9 to 14) (size 15 to 20)
#    0.000    0.333    5.000    4.500    2.333    1.333 
#    0.000    0.833    0.000    0.000    0.000    0.000 
#    0.000    0.000    0.000    0.000    0.000    0.000 
#
# Total GULP energy -148893.335937 kJ/mol
# GULP energy per Si atom -12407.777995 kJ/mol
# Density = 2.067828 g / cm^3
# Si number density = 20.725451 Si / 1000 Ang^3
#
#
#
# Elastic Constant Matrix: (Units=GPa)
#
#
# Indices 1 2 3 4 5 6 
#
# 1 54.6199 14.6353 -0.9362 -11.5349 -3.2996 -14.5786
# 2 14.6353 116.4210 21.7630 0.1812 2.2209 -10.7311
# 3 -0.9362 21.7630 81.7941 -10.0901 5.7114 -12.4339
# 4 -11.5349 0.1812 -10.0901 35.2502 0.8344 0.0293
# 5 -3.2996 2.2209 5.7114 0.8344 34.8313 0.7195
# 6 -14.5786 -10.7311 -12.4339 0.0293 0.7195 39.3091
#
#
#
# Elastic Compliance Matrix: (Units=1/GPa)
#
#
# Indices 1 2 3 4 5 6 
#
# 1 0.023395 -0.002780 0.003322 0.008579 0.001459 0.008935
# 2 -0.002780 0.009510 -0.002630 -0.001702 -0.000413 0.000742
# 3 0.003322 -0.002630 0.014551 0.005312 -0.002137 0.005152
# 4 0.008579 -0.001702 0.005312 0.032721 -0.000824 0.004388
# 5 0.001459 -0.000413 -0.002137 -0.000824 0.029261 -0.000783
# 6 0.008935 0.000742 0.005152 0.004388 -0.000783 0.030596
#
#
# Mechanical properties :
#
#
# Convention : Reuss Voigt Hill
#
# Bulk Modulus (GPa) = 23.10537 35.97326 29.53931
# Shear Modulus (GPa) = 31.51864 36.36964 33.94414
#
# Velocity S-wave (km/s) = 3.90394 4.19361 4.05136
# Velocity P-wave (km/s) = 5.61190 6.39087 6.01401
#
# Compressibility (1/GPa) = 0.04327998
#
# Stress axis : x y z
#
# Youngs Moduli (GPa) = 42.74456 105.15735 68.72190
#
# Poissons Ratio (x) = 0.29229 -0.22830
# Poissons Ratio (y) = 0.11881 0.18076
# Poissons Ratio (z) = -0.14200 0.27660
#
# Static dielectric constant tensor:
#      x y z
#    x 2.206100 0.579020 0.931460 
#    y 0.579020 4.158090 -0.444440 
#    z 0.931460 -0.444440 3.159310 
# 
# 
# High freq. dielectric constant tensor:
#      x y z
#    x 1.820050 -0.002120 -0.003460 
#    y -0.002120 1.830540 -0.004050 
#    z -0.003460 -0.004050 1.813980 
# 
# From -- ./inp_files/20138.got.cif
#   From: 2010.06.25/outbox.cif.g09.slc.cpg/sg2_11_cif.got.tgz:20138.got - 2010.06.27 13:26:56.
