data_PCOD8034981
_publ_section_title
;
Structure prediction by ZEFSAII (Michael W. Deem and Ramdas Pophale) SiO2 
 PCOD8034981
Probable space group: P -1
;
_chemical_formula_sum "Si O2"
_cell_formula_units_Z 12
_cell_length_a 6.844582
_cell_length_b 7.189520
_cell_length_c 13.468649
_cell_angle_alpha 69.819950
_cell_angle_beta 96.496616
_cell_angle_gamma 124.821504
_cell_volume 507.668291
_symmetry_space_group_name_H-M "P -1"
_symmetry_group_IT_number 2
_symmetry_cell_setting 'triclinic'
loop_
_space_group_symop_operation_xyz
x,y,z
-x,-y,-z
loop_
_atom_site_type_symbol
_atom_site_label
_atom_site_fract_x
_atom_site_fract_y
_atom_site_fract_z
Si Si1 0.596801 0.542331 0.332054
Si Si2 0.303299 0.030583 0.619531
Si Si3 0.999545 0.781352 0.152946
Si Si4 0.230729 0.317606 0.049514
Si Si5 0.242648 0.740918 0.497265
Si Si6 0.873812 0.576926 0.770588
O O1 0.615143 0.327777 0.408400
O O2 0.321881 0.426774 0.308507
O O3 0.757538 0.678586 0.219787
O O4 0.691600 0.735423 0.393042
O O5 0.195858 0.917468 0.523803
O O6 0.141805 0.818464 0.727540
O O7 0.584489 0.120540 0.613220
O O8 0.128040 0.654018 0.218712
O O9 0.816201 0.933789 0.869502
O O10 0.942554 0.730807 0.042491
O O11 0.181519 0.439586 0.113491
O O12 0.500000 0.500000 0.000000
O O13 0.000000 0.500000 0.500000
#
# Coordination Sequence:
#
# PCOD8034981 Si02
#       6
#     2   2   2   2   2   2
#     4  12  25  44  71 103 139 180 232 282 342 407
#     4  11  25  44  72 102 135 185 225 284 346 403
#     4  11  25  45  68 103 140 177 234 283 336 410
#     4  11  24  47  70 100 140 185 226 283 342 405
#     4  11  26  48  70 103 140 180 234 281 343 412
#     4  12  25  44  72 105 139 183 231 280 343 407
#
# _framework density 23.637481999999999
#
# number of rings (size 3 to 8) (size 9 to 14) (size 15 to 20)
#    0.000    0.667    5.000    2.000    0.000    7.333 
#    0.000    0.000    0.000    0.000    0.000    0.000 
#    0.000    0.000    0.000    0.000    0.000    0.000 
#
# Total GULP energy -148746.489020 kJ/mol
# GULP energy per Si atom -12395.540752 kJ/mol
# Density = 2.358368 g / cm^3
# Si number density = 23.637482 Si / 1000 Ang^3
#
#
#
# Elastic Constant Matrix: (Units=GPa)
#
#
# Indices 1 2 3 4 5 6 
#
# 1 96.6242 43.5134 44.4420 -6.9202 -13.1529 9.0115
# 2 43.5134 132.6365 29.7922 -5.1432 -16.4067 12.5453
# 3 44.4420 29.7922 85.3614 -6.8384 -26.8499 9.1403
# 4 -6.9202 -5.1432 -6.8384 50.6903 4.0938 -12.5388
# 5 -13.1529 -16.4067 -26.8499 4.0938 53.8872 -4.5863
# 6 9.0115 12.5453 9.1403 -12.5388 -4.5863 43.7185
#
#
#
# Elastic Compliance Matrix: (Units=1/GPa)
#
#
# Indices 1 2 3 4 5 6 
#
# 1 0.014988 -0.003422 -0.006758 0.000713 -0.000855 -0.000580
# 2 -0.003422 0.009170 -0.000806 -0.000171 0.001427 -0.001657
# 3 -0.006758 -0.000806 0.017845 0.000545 0.006850 -0.001232
# 4 0.000713 -0.000171 0.000545 0.021386 -0.000734 0.005845
# 5 -0.000855 0.001427 0.006850 -0.000734 0.022291 0.000463
# 6 -0.000580 -0.001657 -0.001232 0.005845 0.000463 0.025451
#
#
# Mechanical properties :
#
#
# Convention : Reuss Voigt Hill
#
# Bulk Modulus (GPa) = 49.92700 61.12416 55.52558
# Shear Modulus (GPa) = 35.77026 42.78418 39.27722
#
# Velocity S-wave (km/s) = 3.89432 4.25904 4.08076
# Velocity P-wave (km/s) = 6.43341 7.07821 6.76350
#
# Compressibility (1/GPa) = 0.02002924
#
# Stress axis : x y z
#
# Youngs Moduli (GPa) = 66.72095 109.05439 56.03763
#
# Poissons Ratio (x) = 0.37320 0.37873
# Poissons Ratio (y) = 0.22833 0.04517
# Poissons Ratio (z) = 0.45093 0.08791
#
# Static dielectric constant tensor:
#      x y z
#    x 4.263910 -0.141960 -0.390230 
#    y -0.141960 4.475110 -0.038840 
#    z -0.390230 -0.038840 4.372800 
# 
# 
# High freq. dielectric constant tensor:
#      x y z
#    x 1.923320 -0.005960 -0.034410 
#    y -0.005960 1.960750 -0.005160 
#    z -0.034410 -0.005160 1.935240 
# 
# From -- ./inp_files/480331.got.cif
#   From: 2010.06.25/outbox.cif.g09.slc.cpg/sg2_241_cif.got.tgz:480331.got - 2010.06.27 13:26:56.
