data_PCOD8034753
_publ_section_title
;
Structure prediction by ZEFSAII (Michael W. Deem and Ramdas Pophale) SiO2 
 PCOD8034753
Probable space group: P -1
;
_chemical_formula_sum "Si O2"
_cell_formula_units_Z 16
_cell_length_a 9.321241
_cell_length_b 8.659398
_cell_length_c 14.397822
_cell_angle_alpha 93.194339
_cell_angle_beta 127.042605
_cell_angle_gamma 119.369000
_cell_volume 697.815376
_symmetry_space_group_name_H-M "P -1"
_symmetry_group_IT_number 2
_symmetry_cell_setting 'triclinic'
loop_
_space_group_symop_operation_xyz
x,y,z
-x,-y,-z
loop_
_atom_site_type_symbol
_atom_site_label
_atom_site_fract_x
_atom_site_fract_y
_atom_site_fract_z
Si Si1 0.958589 0.793865 0.453830
Si Si2 0.287893 0.207966 0.327482
Si Si3 0.353895 0.723196 0.188695
Si Si4 0.115680 0.125871 0.954569
Si Si5 0.411057 0.342060 0.573453
Si Si6 0.878745 0.527751 0.080050
Si Si7 0.390143 0.831435 0.673256
Si Si8 0.684498 0.436445 0.204588
O O1 0.793379 0.651671 0.472958
O O2 0.801240 0.663722 0.295053
O O3 0.190099 0.815971 0.539839
O O4 0.000000 0.000000 0.500000
O O5 0.317255 0.181308 0.446795
O O6 0.356086 0.427854 0.353773
O O7 0.464456 0.200061 0.337835
O O8 0.011312 0.044171 0.182737
O O9 0.552868 0.750043 0.327715
O O10 0.108658 0.555216 0.144590
O O11 0.419325 0.938832 0.204939
O O12 0.340647 0.642298 0.078098
O O13 0.037354 0.253443 0.904331
O O14 0.400563 0.282883 0.072281
O O15 0.000000 0.000000 0.000000
O O16 0.807450 0.462456 0.156491
O O17 0.266633 0.669398 0.704181
#
# Coordination Sequence:
#
# PCOD8034753 Si02
#       8
#     2   2   2   2   2   2   2   2
#     4  12  26  44  72 105 147 187 234 304 358 424
#     4  11  25  44  74 109 134 196 236 299 360 437
#     4  11  24  46  69 101 143 192 240 301 357 430
#     4  12  22  45  74  99 145 187 245 288 360 430
#     4  11  25  45  72 105 146 180 246 299 365 426
#     4  11  26  42  70 105 145 191 243 292 364 431
#     4  12  25  45  74 102 147 183 248 292 367 425
#     4  12  27  45  73 106 144 193 237 303 357 432
#
# _framework density 22.928702000000001
#
# number of rings (size 3 to 8) (size 9 to 14) (size 15 to 20)
#    0.000    0.500    5.000    2.250    3.500    4.000 
#    0.000    0.000    0.000    0.000    0.000    0.000 
#    0.000    0.000    0.000    0.000    0.000    0.000 
#
# Total GULP energy -198258.333908 kJ/mol
# GULP energy per Si atom -12391.145869 kJ/mol
# Density = 2.287651 g / cm^3
# Si number density = 22.928702 Si / 1000 Ang^3
#
#
#
# Elastic Constant Matrix: (Units=GPa)
#
#
# Indices 1 2 3 4 5 6 
#
# 1 94.7214 24.4836 58.8857 -7.0483 -17.2797 19.1931
# 2 24.4836 60.6753 49.4134 4.8780 -13.3914 0.2877
# 3 58.8857 49.4134 184.1271 19.2725 -24.9007 1.3182
# 4 -7.0483 4.8780 19.2725 39.8657 1.6741 -2.6319
# 5 -17.2797 -13.3914 -24.9007 1.6741 52.3486 -4.6553
# 6 19.1931 0.2877 1.3182 -2.6319 -4.6553 30.6583
#
#
#
# Elastic Compliance Matrix: (Units=1/GPa)
#
#
# Indices 1 2 3 4 5 6 
#
# 1 0.016971 -0.002876 -0.004908 0.005020 0.001506 -0.009727
# 2 -0.002876 0.022003 -0.004525 -0.000989 0.002747 0.002121
# 3 -0.004908 -0.004525 0.008920 -0.004530 0.001843 0.002622
# 4 0.005020 -0.000989 -0.004530 0.028304 -0.001725 -0.000770
# 5 0.001506 0.002747 0.001843 -0.001725 0.021417 0.002056
# 6 -0.009727 0.002121 0.002622 -0.000770 0.002056 0.038820
#
#
# Mechanical properties :
#
#
# Convention : Reuss Voigt Hill
#
# Bulk Modulus (GPa) = 42.96453 67.23214 55.09834
# Shear Modulus (GPa) = 29.61878 38.35725 33.98802
#
# Velocity S-wave (km/s) = 3.59803 4.09454 3.85429
# Velocity P-wave (km/s) = 6.00334 7.19302 6.62494
#
# Compressibility (1/GPa) = 0.02327501
#
# Stress axis : x y z
#
# Youngs Moduli (GPa) = 58.92448 45.44892 112.11231
#
# Poissons Ratio (x) = 0.13073 0.55020
# Poissons Ratio (y) = 0.16949 0.50732
# Poissons Ratio (z) = 0.28918 0.20566
#
# Static dielectric constant tensor:
#      x y z
#    x 4.144890 0.128420 0.034320 
#    y 0.128420 4.249720 0.293540 
#    z 0.034320 0.293540 4.471880 
# 
# 
# High freq. dielectric constant tensor:
#      x y z
#    x 1.897760 0.004390 -0.000230 
#    y 0.004390 1.905080 0.020740 
#    z -0.000230 0.020740 1.924030 
# 
# From -- ./inp_files/495284.got.cif
#   From: 2010.06.25/outbox.cif.g09.slc.cpg/sg2_248_cif.got.tgz:495284.got - 2010.06.27 13:26:56.
