data_PCOD8034112
_publ_section_title
;
Structure prediction by ZEFSAII (Michael W. Deem and Ramdas Pophale) SiO2 
 PCOD8034112
Probable space group: P -1
;
_chemical_formula_sum "Si O2"
_cell_formula_units_Z 14
_cell_length_a 9.711043
_cell_length_b 11.417865
_cell_length_c 9.691301
_cell_angle_alpha 120.626371
_cell_angle_beta 42.803220
_cell_angle_gamma 102.588561
_cell_volume 605.576110
_symmetry_space_group_name_H-M "P -1"
_symmetry_group_IT_number 2
_symmetry_cell_setting 'triclinic'
loop_
_space_group_symop_operation_xyz
x,y,z
-x,-y,-z
loop_
_atom_site_type_symbol
_atom_site_label
_atom_site_fract_x
_atom_site_fract_y
_atom_site_fract_z
Si Si1 0.049033 0.803093 0.585461
Si Si2 0.647314 0.848673 0.463024
Si Si3 0.165059 0.386698 0.221172
Si Si4 0.640640 0.321956 0.930423
Si Si5 0.800818 0.549429 0.079498
Si Si6 0.287109 0.999718 0.229543
Si Si7 0.783495 0.019052 0.245903
O O1 0.184300 0.673196 0.313633
O O2 0.889317 0.759342 0.783626
O O3 0.914418 0.937800 0.679890
O O4 0.233550 0.853884 0.556490
O O5 0.752431 0.892830 0.547657
O O6 0.766332 0.880760 0.257740
O O7 0.404808 0.938304 0.699089
O O8 0.656195 0.683904 0.347851
O O9 0.131238 0.411005 0.098160
O O10 0.000000 0.500000 0.500000
O O11 0.405271 0.376815 0.079243
O O12 0.674579 0.428718 0.089097
O O13 0.699478 0.161355 0.841464
O O14 0.000000 0.500000 0.000000
O O15 0.500000 0.000000 0.000000
O O16 0.000000 0.000000 0.000000
#
# Coordination Sequence:
#
# PCOD8034112 Si02
#       7
#     2   2   2   2   2   2   2
#     4  12  24  45  77 105 143 190 251 298 359 437
#     4  11  26  46  69 106 149 182 242 305 364 427
#     4  12  27  48  76 108 147 197 254 294 362 458
#     4  12  26  49  77 103 148 202 240 301 370 436
#     4  12  28  49  76 107 154 194 237 307 376 428
#     4  12  25  48  77 109 143 191 251 302 359 438
#     4  11  24  43  73 104 142 189 237 304 368 425
#
# _framework density 23.118482
#
# number of rings (size 3 to 8) (size 9 to 14) (size 15 to 20)
#    0.000    0.286    4.286    4.286    6.000    0.000 
#    2.571    1.429    0.000    0.000    0.000    0.000 
#    0.000    0.000    0.000    0.000    0.000    0.000 
#
# Total GULP energy -173602.042175 kJ/mol
# GULP energy per Si atom -12400.145870 kJ/mol
# Density = 2.306586 g / cm^3
# Si number density = 23.118482 Si / 1000 Ang^3
#
#
#
# Elastic Constant Matrix: (Units=GPa)
#
#
# Indices 1 2 3 4 5 6 
#
# 1 135.2206 60.7873 23.9781 -5.0649 -3.1129 -3.1375
# 2 60.7873 109.7291 53.1907 7.2441 12.0834 11.0522
# 3 23.9781 53.1907 100.7242 -1.7940 -13.6232 -2.4940
# 4 -5.0649 7.2441 -1.7940 41.2862 16.6212 3.8229
# 5 -3.1129 12.0834 -13.6232 16.6212 38.0380 1.1466
# 6 -3.1375 11.0522 -2.4940 3.8229 1.1466 42.3581
#
#
#
# Elastic Compliance Matrix: (Units=1/GPa)
#
#
# Indices 1 2 3 4 5 6 
#
# 1 0.010635 -0.007604 0.002038 0.001084 0.003461 0.002700
# 2 -0.007604 0.020157 -0.010411 -0.000120 -0.010517 -0.006140
# 3 0.002038 -0.010411 0.016342 -0.001536 0.009886 0.003701
# 4 0.001084 -0.000120 -0.001536 0.029930 -0.013432 -0.002317
# 5 0.003461 -0.010517 0.009886 -0.013432 0.039211 0.003733
# 6 0.002700 -0.006140 0.003701 -0.002317 0.003733 0.025736
#
#
# Mechanical properties :
#
#
# Convention : Reuss Voigt Hill
#
# Bulk Modulus (GPa) = 65.87466 69.06509 67.46988
# Shear Modulus (GPa) = 27.92877 38.18433 33.05655
#
# Velocity S-wave (km/s) = 3.47950 4.06850 3.78547
# Velocity P-wave (km/s) = 6.68572 7.21176 6.95371
#
# Compressibility (1/GPa) = 0.01518034
#
# Stress axis : x y z
#
# Youngs Moduli (GPa) = 94.02622 49.61020 61.19140
#
# Poissons Ratio (x) = 0.37726 -0.12472
# Poissons Ratio (y) = 0.71501 0.63706
# Poissons Ratio (z) = -0.19164 0.51649
#
# Static dielectric constant tensor:
#      x y z
#    x 4.397690 0.105490 0.274220 
#    y 0.105490 4.704090 0.127000 
#    z 0.274220 0.127000 4.160780 
# 
# 
# High freq. dielectric constant tensor:
#      x y z
#    x 1.922660 0.008250 -0.000170 
#    y 0.008250 1.926770 0.006870 
#    z -0.000170 0.006870 1.918230 
# 
# From -- ./inp_files/189648.got.cif
#   From: 2010.06.25/outbox.cif.g09.slc.cpg/sg2_95_cif.got.tgz:189648.got - 2010.06.27 13:26:56.
