data_PCOD8034669
_publ_section_title
;
Structure prediction by ZEFSAII (Michael W. Deem and Ramdas Pophale) SiO2 
 PCOD8034669
Probable space group: P -1
;
_chemical_formula_sum "Si O2"
_cell_formula_units_Z 16
_cell_length_a 6.366591
_cell_length_b 17.364517
_cell_length_c 8.551726
_cell_angle_alpha 84.471670
_cell_angle_beta 105.957650
_cell_angle_gamma 134.513779
_cell_volume 641.740787
_symmetry_space_group_name_H-M "P -1"
_symmetry_group_IT_number 2
_symmetry_cell_setting 'triclinic'
loop_
_space_group_symop_operation_xyz
x,y,z
-x,-y,-z
loop_
_atom_site_type_symbol
_atom_site_label
_atom_site_fract_x
_atom_site_fract_y
_atom_site_fract_z
Si Si1 0.485661 0.176254 0.479764
Si Si2 0.108731 0.596569 0.615397
Si Si3 0.495591 0.587239 0.876085
Si Si4 0.715125 0.100026 0.754681
Si Si5 0.778570 0.243843 0.981437
Si Si6 0.644447 0.755064 0.284181
Si Si7 0.689792 0.925315 0.848174
Si Si8 0.414246 0.539793 0.216615
O O1 0.799221 0.302117 0.476423
O O2 0.580274 0.115882 0.579822
O O3 0.289031 0.180475 0.556875
O O4 0.256001 0.102302 0.302902
O O5 0.419945 0.646064 0.757254
O O6 0.000000 0.500000 0.500000
O O7 0.871517 0.555897 0.714601
O O8 0.372172 0.482851 0.766746
O O9 0.334980 0.550471 0.021591
O O10 0.858293 0.661222 0.944275
O O11 0.681905 0.141338 0.895165
O O12 0.069584 0.164065 0.787823
O O13 0.554544 0.977820 0.778911
O O14 0.666892 0.289880 0.849862
O O15 0.591598 0.194162 0.114080
O O16 0.596650 0.651733 0.326806
O O17 0.000000 0.000000 0.000000
#
# Coordination Sequence:
#
# PCOD8034669 Si02
#       8
#     2   2   2   2   2   2   2   2
#     4  11  28  47  74 109 149 195 243 297 377 436
#     4  12  27  47  71 107 151 197 245 296 360 445
#     4  11  27  41  74 109 145 196 245 306 366 422
#     4  11  25  50  75 105 149 194 238 306 374 434
#     4  11  25  46  75 110 144 188 247 306 367 435
#     4  11  24  45  74 103 152 192 240 301 367 441
#     4  12  26  50  79 111 144 190 249 312 365 432
#     4  11  25  43  72 103 147 190 245 296 363 428
#
# _framework density 24.932186000000002
#
# number of rings (size 3 to 8) (size 9 to 14) (size 15 to 20)
#    0.000    0.750    3.750    1.875   10.500    3.000 
#    2.250    0.000    0.000    0.000    0.000    0.000 
#    0.000    0.000    0.000    0.000    0.000    0.000 
#
# Total GULP energy -198321.193930 kJ/mol
# GULP energy per Si atom -12395.074621 kJ/mol
# Density = 2.487544 g / cm^3
# Si number density = 24.932186 Si / 1000 Ang^3
#
#
#
# Elastic Constant Matrix: (Units=GPa)
#
#
# Indices 1 2 3 4 5 6 
#
# 1 85.3996 8.2522 44.4326 1.4182 -13.1715 -8.4854
# 2 8.2522 71.4988 18.2755 -11.6136 3.1811 -17.6248
# 3 44.4326 18.2755 99.3706 -3.9322 -2.6176 -14.0506
# 4 1.4182 -11.6136 -3.9322 38.0281 -2.2572 -7.0166
# 5 -13.1715 3.1811 -2.6176 -2.2572 27.9418 3.2143
# 6 -8.4854 -17.6248 -14.0506 -7.0166 3.2143 48.4331
#
#
#
# Elastic Compliance Matrix: (Units=1/GPa)
#
#
# Indices 1 2 3 4 5 6 
#
# 1 0.016622 -0.000588 -0.007184 -0.001122 0.007141 -0.000022
# 2 -0.000588 0.017304 -0.001790 0.006208 -0.002690 0.006753
# 3 -0.007184 -0.001790 0.013963 0.001504 -0.002040 0.002494
# 4 -0.001122 0.006208 0.001504 0.029668 0.000524 0.006762
# 5 0.007141 -0.002690 -0.002040 0.000524 0.039643 -0.002875
# 6 -0.000022 0.006753 0.002494 0.006762 -0.002875 0.024994
#
#
# Mechanical properties :
#
#
# Convention : Reuss Voigt Hill
#
# Bulk Modulus (GPa) = 34.76313 44.24329 39.50321
# Shear Modulus (GPa) = 29.25571 35.23451 32.24511
#
# Velocity S-wave (km/s) = 3.42923 3.76335 3.60017
# Velocity P-wave (km/s) = 5.44544 6.05539 5.75849
#
# Compressibility (1/GPa) = 0.02876611
#
# Stress axis : x y z
#
# Youngs Moduli (GPa) = 60.16158 57.78943 71.61728
#
# Poissons Ratio (x) = 0.03397 0.51448
# Poissons Ratio (y) = 0.03536 0.12820
# Poissons Ratio (z) = 0.43218 0.10345
#
# Static dielectric constant tensor:
#      x y z
#    x 4.493920 -0.329190 -0.298910 
#    y -0.329190 4.417180 -0.107750 
#    z -0.298910 -0.107750 4.598610 
# 
# 
# High freq. dielectric constant tensor:
#      x y z
#    x 1.994630 -0.022130 -0.022040 
#    y -0.022130 1.992220 -0.007570 
#    z -0.022040 -0.007570 1.994820 
# 
# From -- ./inp_files/139086.got.cif
#   From: 2010.06.25/outbox.cif.g09.slc.cpg/sg2_70_cif.got.tgz:139086.got - 2010.06.27 13:26:56.
