data_PCOD8034381
_publ_section_title
;
Structure prediction by ZEFSAII (Michael W. Deem and Ramdas Pophale) SiO2 
 PCOD8034381
Probable space group: P -1
;
_chemical_formula_sum "Si O2"
_cell_formula_units_Z 16
_cell_length_a 16.944730
_cell_length_b 19.724840
_cell_length_c 12.584231
_cell_angle_alpha 26.019743
_cell_angle_beta 44.396436
_cell_angle_gamma 26.193173
_cell_volume 716.982964
_symmetry_space_group_name_H-M "P -1"
_symmetry_group_IT_number 2
_symmetry_cell_setting 'triclinic'
loop_
_space_group_symop_operation_xyz
x,y,z
-x,-y,-z
loop_
_atom_site_type_symbol
_atom_site_label
_atom_site_fract_x
_atom_site_fract_y
_atom_site_fract_z
Si Si1 0.211877 0.885886 0.751534
Si Si2 0.930952 0.545640 0.324681
Si Si3 0.099250 0.491910 0.827828
Si Si4 0.996264 0.126629 0.919797
Si Si5 0.442558 0.656447 0.229068
Si Si6 0.535015 0.042895 0.127512
Si Si7 0.423862 0.496788 0.913565
Si Si8 0.341871 0.254146 0.375308
O O1 0.355758 0.790107 0.841384
O O2 0.160116 0.765906 0.995800
O O3 0.319772 0.755049 0.716358
O O4 0.009138 0.218220 0.474854
O O5 0.933390 0.562751 0.172322
O O6 0.919774 0.377868 0.599577
O O7 0.130497 0.401585 0.380160
O O8 0.729334 0.853417 0.132811
O O9 0.338569 0.241738 0.964264
O O10 0.000000 0.500000 0.000000
O O11 0.000000 0.000000 0.000000
O O12 0.206728 0.902783 0.092039
O O13 0.500000 0.500000 0.500000
O O14 0.498235 0.771635 0.026587
O O15 0.558295 0.467933 0.275770
O O16 0.563819 0.863525 0.430850
O O17 0.298420 0.479762 0.065370
O O18 0.500000 0.000000 0.500000
#
# Coordination Sequence:
#
# PCOD8034381 Si02
#       8
#     2   2   2   2   2   2   2   2
#     4  11  24  44  74 104 137 184 237 288 345 417
#     4  12  26  45  73 101 137 186 238 287 340 421
#     4  12  26  46  67 101 144 187 229 289 355 412
#     4  12  22  45  72  97 136 180 233 284 343 412
#     4  12  26  44  65 102 145 181 222 286 354 414
#     4  12  26  44  69 102 139 180 234 287 353 410
#     4  11  24  44  73 107 136 183 238 287 347 419
#     4  12  22  45  74 101 138 178 234 295 340 411
#
# _framework density 22.315732000000001
#
# number of rings (size 3 to 8) (size 9 to 14) (size 15 to 20)
#    0.000    0.250    5.000    4.500    1.750    2.000 
#    0.000    2.500    0.000    0.000    0.000    0.000 
#    0.000    0.000    0.000    0.000    0.000    0.000 
#
# Total GULP energy -198449.235447 kJ/mol
# GULP energy per Si atom -12403.077215 kJ/mol
# Density = 2.226494 g / cm^3
# Si number density = 22.315732 Si / 1000 Ang^3
#
#
#
# Elastic Constant Matrix: (Units=GPa)
#
#
# Indices 1 2 3 4 5 6 
#
# 1 81.9890 17.8481 33.6122 3.1590 11.0138 7.7176
# 2 17.8481 114.0201 36.9014 3.2733 9.6770 13.2626
# 3 33.6122 36.9014 77.4272 8.4393 18.9571 5.7055
# 4 3.1590 3.2733 8.4393 43.2246 -3.2194 6.0149
# 5 11.0138 9.6770 18.9571 -3.2194 33.9115 8.3465
# 6 7.7176 13.2626 5.7055 6.0149 8.3465 53.1797
#
#
#
# Elastic Compliance Matrix: (Units=1/GPa)
#
#
# Indices 1 2 3 4 5 6 
#
# 1 0.014991 -0.000128 -0.006110 0.000215 -0.001065 -0.001345
# 2 -0.000128 0.010616 -0.004995 0.000518 0.000399 -0.002214
# 3 -0.006110 -0.004995 0.020423 -0.004069 -0.008833 0.001788
# 4 0.000215 0.000518 -0.004069 0.024729 0.005227 -0.003341
# 5 -0.001065 0.000399 -0.008833 0.005227 0.036462 -0.005311
# 6 -0.001345 -0.002214 0.001788 -0.003341 -0.005311 0.020571
#
#
# Mechanical properties :
#
#
# Convention : Reuss Voigt Hill
#
# Bulk Modulus (GPa) = 42.43913 50.01772 46.22843
# Shear Modulus (GPa) = 31.62305 38.40146 35.01225
#
# Velocity S-wave (km/s) = 3.76849 4.15278 3.96529
# Velocity P-wave (km/s) = 6.16394 6.74214 6.45951
#
# Compressibility (1/GPa) = 0.02356316
#
# Stress axis : x y z
#
# Youngs Moduli (GPa) = 66.70650 94.19944 48.96492
#
# Poissons Ratio (x) = 0.01210 0.29918
# Poissons Ratio (y) = 0.00857 0.24456
# Poissons Ratio (z) = 0.40759 0.47049
#
# Static dielectric constant tensor:
#      x y z
#    x 4.221570 0.005350 0.041090 
#    y 0.005350 4.279340 0.120970 
#    z 0.041090 0.120970 3.957610 
# 
# 
# High freq. dielectric constant tensor:
#      x y z
#    x 1.889420 0.004240 0.000870 
#    y 0.004240 1.897740 0.008640 
#    z 0.000870 0.008640 1.863610 
# 
# From -- ./inp_files/381270.got.cif
#   From: 2010.06.25/outbox.cif.g09.slc.cpg/sg2_191_cif.got.tgz:381270.got - 2010.06.27 13:26:56.
