data_PCOD8034155
_publ_section_title
;
Structure prediction by ZEFSAII (Michael W. Deem and Ramdas Pophale) SiO2 
 PCOD8034155
Probable space group: P -1
;
_chemical_formula_sum "Si O2"
_cell_formula_units_Z 14
_cell_length_a 12.682481
_cell_length_b 15.410135
_cell_length_c 21.721759
_cell_angle_alpha 17.834644
_cell_angle_beta 151.828221
_cell_angle_gamma 151.734326
_cell_volume 587.910392
_symmetry_space_group_name_H-M "P -1"
_symmetry_group_IT_number 2
_symmetry_cell_setting 'triclinic'
loop_
_space_group_symop_operation_xyz
x,y,z
-x,-y,-z
loop_
_atom_site_type_symbol
_atom_site_label
_atom_site_fract_x
_atom_site_fract_y
_atom_site_fract_z
Si Si1 0.255131 0.696673 0.013674
Si Si2 0.623348 0.297717 0.117373
Si Si3 0.688708 0.292686 0.291221
Si Si4 0.520969 0.175191 0.741731
Si Si5 0.918540 0.217746 0.007921
Si Si6 0.003686 0.627336 0.498838
Si Si7 0.610899 0.333798 0.418643
O O1 0.263292 0.743988 0.059323
O O2 0.435734 0.528788 0.198109
O O3 0.000000 0.500000 0.000000
O O4 0.323128 0.008895 0.801682
O O5 0.721731 0.222152 0.284543
O O6 0.841163 0.518613 0.045186
O O7 0.521596 0.003491 0.223834
O O8 0.413941 0.434269 0.934043
O O9 0.942224 0.349925 0.415816
O O10 0.517442 0.007059 0.428066
O O11 0.500000 0.500000 0.500000
O O12 0.780439 0.195924 0.887079
O O13 0.986740 0.923238 0.257024
O O14 0.762698 0.373102 0.533592
O O15 0.219951 0.542831 0.635228
#
# Coordination Sequence:
#
# PCOD8034155 Si02
#       7
#     2   2   2   2   2   2   2
#     4  12  25  47  79 111 151 197 255 312 368 454
#     4  11  27  49  69 113 153 196 248 310 382 455
#     4  11  25  44  78 108 151 194 243 316 383 443
#     4  12  29  50  74 107 157 200 247 312 381 451
#     4  12  26  47  77 107 149 197 256 309 376 446
#     4  11  24  43  77 110 145 191 255 313 370 444
#     4  11  24  43  76 113 145 190 257 308 375 445
#
# _framework density 23.813151999999999
#
# number of rings (size 3 to 8) (size 9 to 14) (size 15 to 20)
#    0.000    0.571    4.286    2.571    4.000    4.000 
#    0.000    2.857    0.000    0.000    0.000    0.000 
#    0.000    0.000    0.000    0.000    0.000    0.000 
#
# Total GULP energy -173622.186440 kJ/mol
# GULP energy per Si atom -12401.584746 kJ/mol
# Density = 2.375895 g / cm^3
# Si number density = 23.813152 Si / 1000 Ang^3
#
#
#
# Elastic Constant Matrix: (Units=GPa)
#
#
# Indices 1 2 3 4 5 6 
#
# 1 94.2007 28.9993 51.1503 6.6557 6.2698 -22.7099
# 2 28.9993 117.3470 37.0031 13.6534 0.8205 -32.4406
# 3 51.1503 37.0031 110.3182 9.3826 4.2318 -19.7960
# 4 6.6557 13.6534 9.3826 43.8829 -7.1098 -3.8217
# 5 6.2698 0.8205 4.2318 -7.1098 37.9690 7.7657
# 6 -22.7099 -32.4406 -19.7960 -3.8217 7.7657 51.5817
#
#
#
# Elastic Compliance Matrix: (Units=1/GPa)
#
#
# Indices 1 2 3 4 5 6 
#
# 1 0.015360 -0.000541 -0.005932 -0.000981 -0.002972 0.004521
# 2 -0.000541 0.011361 -0.002164 -0.002728 -0.001679 0.006127
# 3 -0.005932 -0.002164 0.012856 -0.001225 -0.000840 0.000997
# 4 -0.000981 -0.002728 -0.001225 0.024772 0.005320 -0.001584
# 5 -0.002972 -0.001679 -0.000840 0.005320 0.029326 -0.006708
# 6 0.004521 0.006127 0.000997 -0.001584 -0.006708 0.026506
#
#
# Mechanical properties :
#
#
# Convention : Reuss Voigt Hill
#
# Bulk Modulus (GPa) = 44.83514 61.79681 53.31598
# Shear Modulus (GPa) = 34.50943 40.33426 37.42184
#
# Velocity S-wave (km/s) = 3.81093 4.12002 3.96849
# Velocity P-wave (km/s) = 6.18329 6.97422 6.59063
#
# Compressibility (1/GPa) = 0.02230393
#
# Stress axis : x y z
#
# Youngs Moduli (GPa) = 65.10416 88.02236 77.78326
#
# Poissons Ratio (x) = 0.04759 0.46140
# Poissons Ratio (y) = 0.03520 0.16832
# Poissons Ratio (z) = 0.38619 0.19048
#
# Static dielectric constant tensor:
#      x y z
#    x 3.611490 -0.331910 0.149360 
#    y -0.331910 4.686270 0.101480 
#    z 0.149360 0.101480 4.086410 
# 
# 
# High freq. dielectric constant tensor:
#      x y z
#    x 1.940450 -0.014370 0.001840 
#    y -0.014370 1.966400 0.005400 
#    z 0.001840 0.005400 1.935590 
# 
# From -- ./inp_files/595599.got.cif
#   From: 2010.06.25/outbox.cif.g09.slc.cpg/sg2_298_cif.got.tgz:595599.got - 2010.06.27 13:26:56.
