data_PCOD8034794
_publ_section_title
;
Structure prediction by ZEFSAII (Michael W. Deem and Ramdas Pophale) SiO2 
 PCOD8034794
Probable space group: P -1
;
_chemical_formula_sum "Si O2"
_cell_formula_units_Z 16
_cell_length_a 5.188061
_cell_length_b 9.368234
_cell_length_c 15.534648
_cell_angle_alpha 88.563289
_cell_angle_beta 56.460046
_cell_angle_gamma 75.743039
_cell_volume 604.150784
_symmetry_space_group_name_H-M "P -1"
_symmetry_group_IT_number 2
_symmetry_cell_setting 'triclinic'
loop_
_space_group_symop_operation_xyz
x,y,z
-x,-y,-z
loop_
_atom_site_type_symbol
_atom_site_label
_atom_site_fract_x
_atom_site_fract_y
_atom_site_fract_z
Si Si1 0.317363 0.818158 0.226752
Si Si2 0.464185 0.409447 0.091205
Si Si3 0.636836 0.889934 0.398324
Si Si4 0.389520 0.953374 0.781482
Si Si5 0.725567 0.521528 0.206743
Si Si6 0.579446 0.681209 0.647700
Si Si7 0.711010 0.113659 0.957584
Si Si8 0.306474 0.670230 0.523837
O O1 0.330949 0.989795 0.226249
O O2 0.633719 0.700573 0.210738
O O3 0.310301 0.786972 0.126671
O O4 0.014121 0.801084 0.338188
O O5 0.683404 0.451768 0.123244
O O6 0.080982 0.455465 0.182560
O O7 0.500000 0.500000 0.000000
O O8 0.598218 0.230757 0.054609
O O9 0.621061 0.983138 0.313667
O O10 0.444189 0.764555 0.426804
O O11 0.500000 0.000000 0.500000
O O12 0.080295 0.014233 0.898606
O O13 0.467706 0.776876 0.755014
O O14 0.469501 0.480194 0.319918
O O15 0.356340 0.746164 0.605201
O O16 0.945892 0.678060 0.562624
O O17 0.500000 0.000000 0.000000
O O18 0.500000 0.500000 0.500000
#
# Coordination Sequence:
#
# PCOD8034794 Si02
#       8
#     2   2   2   2   2   2   2   2
#     4  11  26  43  71 103 137 187 236 290 353 422
#     4  12  25  47  73 102 141 187 236 291 350 425
#     4  11  24  46  70  99 141 185 234 291 349 419
#     4  11  26  44  71 101 141 186 235 289 357 418
#     4  12  27  46  73 103 146 185 236 291 353 419
#     4  12  27  47  71 104 143 187 232 291 357 413
#     4  11  26  45  69 103 143 182 237 291 353 419
#     4  12  27  46  73 104 141 183 241 290 350 417
#
# _framework density 26.483457999999999
#
# number of rings (size 3 to 8) (size 9 to 14) (size 15 to 20)
#    0.000    0.500    2.500    4.500   10.500    1.500 
#    0.000    0.000    0.000    0.000    0.000    0.000 
#    0.000    0.000    0.000    0.000    0.000    0.000 
#
# Total GULP energy -198353.865780 kJ/mol
# GULP energy per Si atom -12397.116611 kJ/mol
# Density = 2.642318 g / cm^3
# Si number density = 26.483458 Si / 1000 Ang^3
#
#
#
# Elastic Constant Matrix: (Units=GPa)
#
#
# Indices 1 2 3 4 5 6 
#
# 1 70.2759 -12.4265 8.2522 2.7051 -22.4066 14.7375
# 2 -12.4265 86.3415 2.3096 1.0959 -22.2034 12.5041
# 3 8.2522 2.3096 104.2225 -4.0375 -25.7623 9.1498
# 4 2.7051 1.0959 -4.0375 45.2638 8.8489 -10.6459
# 5 -22.4066 -22.2034 -25.7623 8.8489 48.4645 1.8083
# 6 14.7375 12.5041 9.1498 -10.6459 1.8083 38.9686
#
#
#
# Elastic Compliance Matrix: (Units=1/GPa)
#
#
# Indices 1 2 3 4 5 6 
#
# 1 0.028815 0.013598 0.004986 -0.011373 0.025051 -0.020701
# 2 0.013598 0.021234 0.004676 -0.008825 0.020725 -0.016427
# 3 0.004986 0.004676 0.012643 -0.003501 0.012101 -0.007873
# 4 -0.011373 -0.008825 -0.003501 0.030042 -0.017280 0.016964
# 5 0.025051 0.020725 0.012101 -0.017280 0.052272 -0.026112
# 6 -0.020701 -0.016427 -0.007873 0.016964 -0.026112 0.046456
#
#
# Mechanical properties :
#
#
# Convention : Reuss Voigt Hill
#
# Bulk Modulus (GPa) = 9.15643 28.56783 18.86213
# Shear Modulus (GPa) = 27.57155 44.05303 35.81229
#
# Velocity S-wave (km/s) = 3.23009 4.08293 3.68129
# Velocity P-wave (km/s) = 4.16848 5.74783 5.02064
#
# Compressibility (1/GPa) = 0.10921281
#
# Stress axis : x y z
#
# Youngs Moduli (GPa) = 34.70442 47.09334 79.09388
#
# Poissons Ratio (x) = -0.64038 -0.39438
# Poissons Ratio (y) = -0.47191 -0.36984
# Poissons Ratio (z) = -0.17304 -0.22020
#
# Static dielectric constant tensor:
#      x y z
#    x 5.052790 0.215410 0.092680 
#    y 0.215410 5.145540 0.125010 
#    z 0.092680 0.125010 5.279650 
# 
# 
# High freq. dielectric constant tensor:
#      x y z
#    x 2.056480 0.010510 0.011320 
#    y 0.010510 2.080220 -0.008620 
#    z 0.011320 -0.008620 2.075170 
# 
# From -- ./inp_files/97641.got.cif
#   From: 2010.06.25/outbox.cif.g09.slc.cpg/sg2_49_cif.got.tgz:97641.got - 2010.06.27 13:26:56.
