data_PCOD8034402
_publ_section_title
;
Structure prediction by ZEFSAII (Michael W. Deem and Ramdas Pophale) SiO2 
 PCOD8034402
Probable space group: P -1
;
_chemical_formula_sum "Si O2"
_cell_formula_units_Z 16
_cell_length_a 14.810633
_cell_length_b 13.741130
_cell_length_c 16.680511
_cell_angle_alpha 155.482383
_cell_angle_beta 140.756330
_cell_angle_gamma 56.383516
_cell_volume 729.002467
_symmetry_space_group_name_H-M "P -1"
_symmetry_group_IT_number 2
_symmetry_cell_setting 'triclinic'
loop_
_space_group_symop_operation_xyz
x,y,z
-x,-y,-z
loop_
_atom_site_type_symbol
_atom_site_label
_atom_site_fract_x
_atom_site_fract_y
_atom_site_fract_z
Si Si1 0.637483 0.219791 0.917682
Si Si2 0.188803 0.084517 0.173982
Si Si3 0.236026 0.239909 0.140656
Si Si4 0.267820 0.442335 0.922561
Si Si5 0.436850 0.614004 0.855022
Si Si6 0.497210 0.879329 0.821690
Si Si7 0.995861 0.861641 0.231366
Si Si8 0.747812 0.317645 0.751518
O O1 0.789216 0.167504 0.975631
O O2 0.455114 0.914784 0.581547
O O3 0.630602 0.358566 0.934942
O O4 0.673164 0.436724 0.177376
O O5 0.213514 0.115573 0.119674
O O6 0.325826 0.371070 0.531029
O O7 0.000000 0.000000 0.000000
O O8 0.317505 0.574992 0.454415
O O9 0.347818 0.162700 0.107721
O O10 0.054475 0.101181 0.864653
O O11 0.079231 0.159959 0.558697
O O12 0.390006 0.366586 0.991801
O O13 0.229083 0.611951 0.085625
O O14 0.492198 0.916307 0.085739
O O15 0.500000 0.000000 0.000000
O O16 0.147438 0.814880 0.296902
O O17 0.823291 0.606259 0.967587
#
# Coordination Sequence:
#
# PCOD8034402 Si02
#       8
#     2   2   2   2   2   2   2   2
#     4  12  26  48  73 102 144 189 238 292 355 427
#     4  12  29  46  72 104 142 191 237 296 350 421
#     4  11  26  45  70 105 146 185 232 295 355 424
#     4  12  27  43  77 105 137 191 240 292 351 420
#     4  12  25  46  74 102 139 181 244 288 353 425
#     4  11  24  44  74 104 136 191 239 284 358 424
#     4  11  27  44  70 106 149 177 236 296 353 421
#     4  11  25  47  70 105 142 188 230 296 359 413
#
# _framework density 21.947800000000001
#
# number of rings (size 3 to 8) (size 9 to 14) (size 15 to 20)
#    0.000    0.500    5.000    1.875    8.750    2.500 
#    0.000    0.000    0.000    0.000    0.000    0.000 
#    0.000    0.000    0.000    0.000    0.000    0.000 
#
# Total GULP energy -198481.774933 kJ/mol
# GULP energy per Si atom -12405.110933 kJ/mol
# Density = 2.189785 g / cm^3
# Si number density = 21.947800 Si / 1000 Ang^3
#
#
#
# Elastic Constant Matrix: (Units=GPa)
#
#
# Indices 1 2 3 4 5 6 
#
# 1 103.2337 10.1306 21.6059 -6.9426 -18.3474 11.1548
# 2 10.1306 91.8429 30.2662 -9.6356 -1.7878 11.4454
# 3 21.6059 30.2662 90.4282 -17.3762 -6.3623 3.2711
# 4 -6.9426 -9.6356 -17.3762 36.1971 2.8783 -1.1753
# 5 -18.3474 -1.7878 -6.3623 2.8783 38.2616 -7.8176
# 6 11.1548 11.4454 3.2711 -1.1753 -7.8176 36.4000
#
#
#
# Elastic Compliance Matrix: (Units=1/GPa)
#
#
# Indices 1 2 3 4 5 6 
#
# 1 0.011230 -0.000104 -0.002120 0.000677 0.004522 -0.002225
# 2 -0.000104 0.012796 -0.003909 0.001465 -0.000990 -0.003806
# 3 -0.002120 -0.003909 0.013898 0.005184 0.000925 0.000996
# 4 0.000677 0.001465 0.005184 0.030712 -0.001134 -0.000386
# 5 0.004522 -0.000990 0.000925 -0.001134 0.029550 0.005152
# 6 -0.002225 -0.003806 0.000996 -0.000386 0.005152 0.030356
#
#
# Mechanical properties :
#
#
# Convention : Reuss Voigt Hill
#
# Bulk Modulus (GPa) = 38.96999 45.50112 42.23555
# Shear Modulus (GPa) = 33.47599 37.07189 35.27394
#
# Velocity S-wave (km/s) = 3.90969 4.11432 4.01331
# Velocity P-wave (km/s) = 6.17861 6.58382 6.38443
#
# Compressibility (1/GPa) = 0.02566077
#
# Stress axis : x y z
#
# Youngs Moduli (GPa) = 89.04485 78.14713 71.95142
#
# Poissons Ratio (x) = 0.00811 0.15252
# Poissons Ratio (y) = 0.00925 0.28122
# Poissons Ratio (z) = 0.18875 0.30544
#
# Static dielectric constant tensor:
#      x y z
#    x 4.015420 0.091540 -0.234450 
#    y 0.091540 3.989450 -0.060090 
#    z -0.234450 -0.060090 4.196260 
# 
# 
# High freq. dielectric constant tensor:
#      x y z
#    x 1.873240 0.003380 -0.018390 
#    y 0.003380 1.872940 -0.002380 
#    z -0.018390 -0.002380 1.865480 
# 
# From -- ./inp_files/532821.got.cif
#   From: 2010.06.25/outbox.cif.g09.slc.cpg/sg2_267_cif.got.tgz:532821.got - 2010.06.27 13:26:56.
