data_PCOD8034963
_publ_section_title
;
Structure prediction by ZEFSAII (Michael W. Deem and Ramdas Pophale) SiO2 
 PCOD8034963
Probable space group: P -1
;
_chemical_formula_sum "Si O2"
_cell_formula_units_Z 14
_cell_length_a 20.536579
_cell_length_b 14.947729
_cell_length_c 9.018966
_cell_angle_alpha 50.312329
_cell_angle_beta 148.677465
_cell_angle_gamma 150.961208
_cell_volume 631.055047
_symmetry_space_group_name_H-M "P -1"
_symmetry_group_IT_number 2
_symmetry_cell_setting 'triclinic'
loop_
_space_group_symop_operation_xyz
x,y,z
-x,-y,-z
loop_
_atom_site_type_symbol
_atom_site_label
_atom_site_fract_x
_atom_site_fract_y
_atom_site_fract_z
Si Si1 0.210107 0.618995 0.693453
Si Si2 0.591741 0.884472 0.387885
Si Si3 0.873710 0.079433 0.214159
Si Si4 0.319611 0.303525 0.758767
Si Si5 0.426224 0.398036 0.310548
Si Si6 0.986616 0.769987 0.353886
Si Si7 0.661216 0.090459 0.583678
O O1 0.239117 0.717235 0.497246
O O2 0.000000 0.500000 0.500000
O O3 0.175808 0.461921 0.739346
O O4 0.420773 0.791070 0.027273
O O5 0.556961 0.726982 0.540248
O O6 0.838532 0.089088 0.588700
O O7 0.551003 0.933304 0.401557
O O8 0.881585 0.140519 0.329582
O O9 0.090664 0.174474 0.506060
O O10 0.674596 0.833302 0.079361
O O11 0.850574 0.159127 0.958214
O O12 0.375984 0.389355 0.615640
O O13 0.500000 0.500000 0.000000
O O14 0.500000 0.500000 0.500000
O O15 0.176041 0.242746 0.945655
O O16 0.500000 0.000000 0.500000
#
# Coordination Sequence:
#
# PCOD8034963 Si02
#       7
#     2   2   2   2   2   2   2
#     4  12  28  51  75 103 147 198 249 299 362 434
#     4  12  27  49  75 106 152 187 248 310 363 438
#     4  11  27  45  73 106 148 189 243 300 367 432
#     4  11  24  47  68 106 152 189 232 302 366 432
#     4  12  25  43  78 110 144 189 244 297 376 443
#     4  12  26  48  75 109 149 193 238 308 372 438
#     4  12  29  48  76 106 145 201 248 302 364 433
#
# _framework density 22.18507
#
# number of rings (size 3 to 8) (size 9 to 14) (size 15 to 20)
#    0.000    0.286    4.286    3.429   10.000    1.714 
#    0.000    0.000    0.000    0.000    0.000    0.000 
#    0.000    0.000    0.000    0.000    0.000    0.000 
#
# Total GULP energy -173590.577331 kJ/mol
# GULP energy per Si atom -12399.326952 kJ/mol
# Density = 2.213458 g / cm^3
# Si number density = 22.185070 Si / 1000 Ang^3
#
#
#
# Elastic Constant Matrix: (Units=GPa)
#
#
# Indices 1 2 3 4 5 6 
#
# 1 134.1817 49.3787 23.5916 -0.5367 -15.9280 6.3434
# 2 49.3787 128.6013 41.2353 -9.2757 -4.1185 9.1497
# 3 23.5916 41.2353 87.6408 -11.0382 -18.7158 -5.6662
# 4 -0.5367 -9.2757 -11.0382 39.0509 -1.7314 -7.7282
# 5 -15.9280 -4.1185 -18.7158 -1.7314 41.1354 2.7735
# 6 6.3434 9.1497 -5.6662 -7.7282 2.7735 43.8618
#
#
#
# Elastic Compliance Matrix: (Units=1/GPa)
#
#
# Indices 1 2 3 4 5 6 
#
# 1 0.009136 -0.003252 -0.000454 -0.000847 0.003040 -0.001043
# 2 -0.003252 0.010641 -0.004639 0.000662 -0.002135 -0.002097
# 3 -0.000454 -0.004639 0.015882 0.004351 0.006537 0.003438
# 4 -0.000847 0.000662 0.004351 0.028154 0.002543 0.005346
# 5 0.003040 -0.002135 0.006537 0.002543 0.028388 -0.000497
# 6 -0.001043 -0.002097 0.003438 0.005346 -0.000497 0.024805
#
#
# Mechanical properties :
#
#
# Convention : Reuss Voigt Hill
#
# Bulk Modulus (GPa) = 52.72194 64.31500 58.51847
# Shear Modulus (GPa) = 35.70978 40.55750 38.13364
#
# Velocity S-wave (km/s) = 4.01637 4.28032 4.15044
# Velocity P-wave (km/s) = 6.73235 7.31309 7.02872
#
# Compressibility (1/GPa) = 0.01896743
#
# Stress axis : x y z
#
# Youngs Moduli (GPa) = 109.45882 93.97895 62.96613
#
# Poissons Ratio (x) = 0.30560 0.02860
# Poissons Ratio (y) = 0.35593 0.29212
# Poissons Ratio (z) = 0.04971 0.43601
#
# Static dielectric constant tensor:
#      x y z
#    x 4.104220 -0.041440 -0.137860 
#    y -0.041440 4.219980 -0.223610 
#    z -0.137860 -0.223610 4.184570 
# 
# 
# High freq. dielectric constant tensor:
#      x y z
#    x 1.893050 -0.000740 -0.004980 
#    y -0.000740 1.886800 -0.005840 
#    z -0.004980 -0.005840 1.875100 
# 
# From -- ./inp_files/74174.got.cif
#   From: 2010.06.25/outbox.cif.g09.slc.cpg/sg2_38_cif.got.tgz:74174.got - 2010.06.27 13:26:56.
