data_PCOD8034315
_publ_section_title
;
Structure prediction by ZEFSAII (Michael W. Deem and Ramdas Pophale) SiO2 
 PCOD8034315
Probable space group: P -1
;
_chemical_formula_sum "Si O2"
_cell_formula_units_Z 16
_cell_length_a 8.695903
_cell_length_b 9.927713
_cell_length_c 13.247725
_cell_angle_alpha 78.812324
_cell_angle_beta 123.924981
_cell_angle_gamma 64.697090
_cell_volume 700.951070
_symmetry_space_group_name_H-M "P -1"
_symmetry_group_IT_number 2
_symmetry_cell_setting 'triclinic'
loop_
_space_group_symop_operation_xyz
x,y,z
-x,-y,-z
loop_
_atom_site_type_symbol
_atom_site_label
_atom_site_fract_x
_atom_site_fract_y
_atom_site_fract_z
Si Si1 0.501491 0.083417 0.675929
Si Si2 0.462752 0.438791 0.344980
Si Si3 0.981539 0.183638 0.196475
Si Si4 0.290881 0.202557 0.786024
Si Si5 0.230971 0.473457 0.050772
Si Si6 0.246997 0.470943 0.463833
Si Si7 0.799084 0.023268 0.491821
Si Si8 0.587732 0.155744 0.083799
O O1 0.491052 0.130970 0.782432
O O2 0.354940 0.265315 0.529134
O O3 0.786556 0.945825 0.772736
O O4 0.379103 0.993269 0.630737
O O5 0.331404 0.510442 0.177792
O O6 0.264458 0.527792 0.349888
O O7 0.615176 0.504363 0.405305
O O8 0.636301 0.221482 0.453152
O O9 0.778493 0.167925 0.103201
O O10 0.063935 0.134293 0.350121
O O11 0.853140 0.390549 0.093130
O O12 0.037681 0.394202 0.629279
O O13 0.254364 0.057287 0.806591
O O14 0.372296 0.233211 0.914330
O O15 0.456543 0.270910 0.122068
O O16 0.000000 0.500000 0.000000
O O17 0.000000 0.000000 0.500000
#
# Coordination Sequence:
#
# PCOD8034315 Si02
#       8
#     2   2   2   2   2   2   2   2
#     4  12  26  44  73 107 140 186 245 298 362 424
#     4  11  24  44  71 106 141 189 237 293 364 424
#     4  12  26  45  73 105 146 183 244 299 355 439
#     4  11  25  45  70  99 145 187 236 296 361 426
#     4  12  26  46  74 105 148 191 239 296 365 431
#     4  11  25  44  72 104 146 183 244 298 356 429
#     4  12  25  46  76 102 144 191 244 300 356 425
#     4  11  26  46  69 103 143 191 236 291 364 434
#
# _framework density 22.826129000000002
#
# number of rings (size 3 to 8) (size 9 to 14) (size 15 to 20)
#    0.000    0.500    1.250    7.125    7.000    1.500 
#    0.000    0.000    0.000    0.000    0.000    0.000 
#    0.000    0.000    0.000    0.000    0.000    0.000 
#
# Total GULP energy -198478.437523 kJ/mol
# GULP energy per Si atom -12404.902345 kJ/mol
# Density = 2.277418 g / cm^3
# Si number density = 22.826129 Si / 1000 Ang^3
#
#
#
# Elastic Constant Matrix: (Units=GPa)
#
#
# Indices 1 2 3 4 5 6 
#
# 1 122.9478 39.8170 36.4413 8.4838 19.2910 -0.5442
# 2 39.8170 99.6431 32.6363 5.0833 16.9747 -1.4385
# 3 36.4413 32.6363 85.8999 -7.8809 -1.9469 -1.8118
# 4 8.4838 5.0833 -7.8809 30.3664 -4.4677 -9.4876
# 5 19.2910 16.9747 -1.9469 -4.4677 47.6154 -0.3947
# 6 -0.5442 -1.4385 -1.8118 -9.4876 -0.3947 37.9910
#
#
#
# Elastic Compliance Matrix: (Units=1/GPa)
#
#
# Indices 1 2 3 4 5 6 
#
# 1 0.011186 -0.001952 -0.004606 -0.005113 -0.004516 -0.001457
# 2 -0.001952 0.013303 -0.004692 -0.003794 -0.004506 -0.000742
# 3 -0.004606 -0.004692 0.016261 0.007814 0.004958 0.002535
# 4 -0.005113 -0.003794 0.007814 0.041468 0.007722 0.010592
# 5 -0.004516 -0.004506 0.004958 0.007722 0.025383 0.002193
# 6 -0.001457 -0.000742 0.002535 0.010592 0.002193 0.029062
#
#
# Mechanical properties :
#
#
# Convention : Reuss Voigt Hill
#
# Bulk Modulus (GPa) = 54.79559 58.47556 56.63557
# Shear Modulus (GPa) = 30.25787 36.50097 33.37942
#
# Velocity S-wave (km/s) = 3.64480 4.00320 3.82820
# Velocity P-wave (km/s) = 6.46301 6.85864 6.66376
#
# Compressibility (1/GPa) = 0.01824964
#
# Stress axis : x y z
#
# Youngs Moduli (GPa) = 89.39819 75.17080 61.49755
#
# Poissons Ratio (x) = 0.14674 0.28326
# Poissons Ratio (y) = 0.17451 0.28855
# Poissons Ratio (z) = 0.41177 0.35270
#
# Static dielectric constant tensor:
#      x y z
#    x 4.175110 0.053330 -0.061170 
#    y 0.053330 4.142650 -0.071360 
#    z -0.061170 -0.071360 4.103100 
# 
# 
# High freq. dielectric constant tensor:
#      x y z
#    x 1.914490 -0.001790 -0.002710 
#    y -0.001790 1.903930 -0.002940 
#    z -0.002710 -0.002940 1.904150 
# 
# From -- ./inp_files/494965.got.cif
#   From: 2010.06.25/outbox.cif.g09.slc.cpg/sg2_248_cif.got.tgz:494965.got - 2010.06.27 13:26:56.
