data_PCOD8034795
_publ_section_title
;
Structure prediction by ZEFSAII (Michael W. Deem and Ramdas Pophale) SiO2 
 PCOD8034795
Probable space group: P -1
;
_chemical_formula_sum "Si O2"
_cell_formula_units_Z 16
_cell_length_a 9.106488
_cell_length_b 12.904938
_cell_length_c 9.150397
_cell_angle_alpha 90.470783
_cell_angle_beta 102.159937
_cell_angle_gamma 132.391298
_cell_volume 759.390149
_symmetry_space_group_name_H-M "P -1"
_symmetry_group_IT_number 2
_symmetry_cell_setting 'triclinic'
loop_
_space_group_symop_operation_xyz
x,y,z
-x,-y,-z
loop_
_atom_site_type_symbol
_atom_site_label
_atom_site_fract_x
_atom_site_fract_y
_atom_site_fract_z
Si Si1 0.670403 0.313263 0.991338
Si Si2 0.956556 0.640141 0.026943
Si Si3 0.500545 0.154855 0.259313
Si Si4 0.184347 0.869004 0.599570
Si Si5 0.072340 0.878030 0.255894
Si Si6 0.724149 0.862784 0.287109
Si Si7 0.211695 0.383472 0.320310
Si Si8 0.533648 0.683965 0.523010
O O1 0.809832 0.479964 0.057005
O O2 0.571589 0.224723 0.117154
O O3 0.491882 0.259207 0.840943
O O4 0.810991 0.290789 0.949056
O O5 0.959438 0.730178 0.149561
O O6 0.867467 0.645431 0.860391
O O7 0.616766 0.106859 0.331616
O O8 0.551244 0.267876 0.388454
O O9 0.255207 0.013803 0.197429
O O10 0.170544 0.884181 0.425968
O O11 0.977896 0.712949 0.607925
O O12 0.214642 0.987998 0.699758
O O13 0.904701 0.887339 0.244645
O O14 0.703594 0.811856 0.448321
O O15 0.338255 0.546636 0.391163
O O16 0.358549 0.353333 0.358634
#
# Coordination Sequence:
#
# PCOD8034795 Si02
#       8
#     2   2   2   2   2   2   2   2
#     4  11  27  46  68 100 140 179 221 278 338 397
#     4  11  26  47  69 100 139 177 222 278 339 401
#     4  12  27  44  70 102 134 182 227 276 331 404
#     4  12  25  45  70  99 137 176 227 282 333 394
#     4  12  27  43  70 103 134 179 226 277 337 399
#     4  12  25  47  69  97 141 179 223 281 333 397
#     4  11  24  46  71 100 136 178 220 281 337 396
#     4  11  25  45  72 101 136 175 228 276 335 399
#
# _framework density 21.069538999999999
#
# number of rings (size 3 to 8) (size 9 to 14) (size 15 to 20)
#    0.000    0.500    5.000    2.250    7.000    2.500 
#    0.000    0.000    0.000    0.000    0.000    0.000 
#    0.000    0.000    0.000    0.000    0.000    0.000 
#
# Total GULP energy -198555.517642 kJ/mol
# GULP energy per Si atom -12409.719853 kJ/mol
# Density = 2.102158 g / cm^3
# Si number density = 21.069539 Si / 1000 Ang^3
#
#
#
# Elastic Constant Matrix: (Units=GPa)
#
#
# Indices 1 2 3 4 5 6 
#
# 1 113.1973 39.3330 33.6332 -8.3024 9.6715 -9.1107
# 2 39.3330 86.0381 18.8171 -3.4899 1.1741 -3.0843
# 3 33.6332 18.8171 81.7489 -4.8294 13.1676 -6.8849
# 4 -8.3024 -3.4899 -4.8294 30.1771 -3.1105 -7.8484
# 5 9.6715 1.1741 13.1676 -3.1105 24.6228 4.9940
# 6 -9.1107 -3.0843 -6.8849 -7.8484 4.9940 41.2810
#
#
#
# Elastic Compliance Matrix: (Units=1/GPa)
#
#
# Indices 1 2 3 4 5 6 
#
# 1 0.011993 -0.004580 -0.002997 0.002670 -0.003097 0.002687
# 2 -0.004580 0.014056 -0.001730 0.000189 0.002175 -0.000476
# 3 -0.002997 -0.001730 0.015386 0.001442 -0.007383 0.002943
# 4 0.002670 0.000189 0.001442 0.036222 0.001209 0.007584
# 5 -0.003097 0.002175 -0.007383 0.001209 0.047296 -0.007244
# 6 0.002687 -0.000476 0.002943 0.007584 -0.007244 0.027591
#
#
# Mechanical properties :
#
#
# Convention : Reuss Voigt Hill
#
# Bulk Modulus (GPa) = 43.82108 51.61676 47.71892
# Shear Modulus (GPa) = 27.96967 31.82957 29.89962
#
# Velocity S-wave (km/s) = 3.64743 3.89098 3.77117
# Velocity P-wave (km/s) = 6.21142 6.68863 6.45444
#
# Compressibility (1/GPa) = 0.02282007
#
# Stress axis : x y z
#
# Youngs Moduli (GPa) = 83.38337 71.14401 64.99375
#
# Poissons Ratio (x) = 0.32586 0.19478
# Poissons Ratio (y) = 0.38192 0.11246
# Poissons Ratio (z) = 0.24989 0.12310
#
# Static dielectric constant tensor:
#      x y z
#    x 3.882690 -0.009540 0.063470 
#    y -0.009540 4.028530 0.014890 
#    z 0.063470 0.014890 3.777000 
# 
# 
# High freq. dielectric constant tensor:
#      x y z
#    x 1.836870 0.001090 0.004640 
#    y 0.001090 1.844100 -0.001130 
#    z 0.004640 -0.001130 1.827940 
# 
# From -- ./inp_files/184147.got.cif
#   From: 2010.06.25/outbox.cif.g09.slc.cpg/sg2_93_cif.got.tgz:184147.got - 2010.06.27 13:26:56.
