data_PCOD8034503
_publ_section_title
;
Structure prediction by ZEFSAII (Michael W. Deem and Ramdas Pophale) SiO2 
 PCOD8034503
Probable space group: P -1
;
_chemical_formula_sum "Si O2"
_cell_formula_units_Z 16
_cell_length_a 6.479701
_cell_length_b 22.927933
_cell_length_c 10.648183
_cell_angle_alpha 139.324586
_cell_angle_beta 88.090183
_cell_angle_gamma 63.339418
_cell_volume 706.907067
_symmetry_space_group_name_H-M "P -1"
_symmetry_group_IT_number 2
_symmetry_cell_setting 'triclinic'
loop_
_space_group_symop_operation_xyz
x,y,z
-x,-y,-z
loop_
_atom_site_type_symbol
_atom_site_label
_atom_site_fract_x
_atom_site_fract_y
_atom_site_fract_z
Si Si1 0.886994 0.972132 0.843587
Si Si2 0.240811 0.268461 0.900874
Si Si3 0.866800 0.019016 0.397832
Si Si4 0.328224 0.357811 0.275354
Si Si5 0.148254 0.531224 0.965777
Si Si6 0.158751 0.690476 0.404210
Si Si7 0.752357 0.763269 0.745796
Si Si8 0.062823 0.758106 0.957872
O O1 0.989576 0.969663 0.699162
O O2 0.993821 0.837139 0.637264
O O3 0.524889 0.086393 0.042501
O O4 0.000000 0.000000 0.000000
O O5 0.508461 0.147774 0.610720
O O6 0.036957 0.405474 0.056442
O O7 0.028604 0.252641 0.922065
O O8 0.398059 0.266294 0.012620
O O9 0.000000 0.000000 0.500000
O O10 0.926439 0.898070 0.168622
O O11 0.367479 0.298135 0.314064
O O12 0.000000 0.500000 0.500000
O O13 0.576613 0.357080 0.255720
O O14 0.129523 0.637938 0.196263
O O15 0.494687 0.398193 0.714896
O O16 0.000000 0.500000 0.000000
O O17 0.998905 0.681126 0.498092
O O18 0.921543 0.739876 0.828002
#
# Coordination Sequence:
#
# PCOD8034503 Si02
#       8
#     2   2   2   2   2   2   2   2
#     4  12  27  47  77 108 148 193 244 306 368 427
#     4  11  26  41  73 102 134 187 236 289 360 426
#     4  12  23  45  73 104 146 183 233 300 362 430
#     4  11  26  44  72 103 143 184 234 291 361 431
#     4  11  28  48  69 102 143 190 242 299 360 427
#     4  11  28  46  72 103 142 191 244 294 360 441
#     4  11  26  46  71 105 138 188 238 292 366 431
#     4  11  24  45  69 106 140 180 231 297 356 430
#
# _framework density 22.633808999999999
#
# number of rings (size 3 to 8) (size 9 to 14) (size 15 to 20)
#    0.000    0.750    2.500    3.000   12.250    2.000 
#    0.000    0.000    0.000    0.000    0.000    0.000 
#    0.000    0.000    0.000    0.000    0.000    0.000 
#
# Total GULP energy -198425.861126 kJ/mol
# GULP energy per Si atom -12401.616320 kJ/mol
# Density = 2.258229 g / cm^3
# Si number density = 22.633809 Si / 1000 Ang^3
#
#
#
# Elastic Constant Matrix: (Units=GPa)
#
#
# Indices 1 2 3 4 5 6 
#
# 1 96.5687 30.3051 32.4195 0.6971 -30.6061 8.4766
# 2 30.3051 113.4088 27.3928 -2.1312 -18.9784 10.0875
# 3 32.4195 27.3928 116.8808 12.2914 -33.1456 2.6992
# 4 0.6971 -2.1312 12.2914 45.7944 0.9681 -5.1628
# 5 -30.6061 -18.9784 -33.1456 0.9681 54.2771 0.7767
# 6 8.4766 10.0875 2.6992 -5.1628 0.7767 36.0132
#
#
#
# Elastic Compliance Matrix: (Units=1/GPa)
#
#
# Indices 1 2 3 4 5 6 
#
# 1 0.013678 -0.002035 -0.001475 -0.000344 0.006146 -0.002721
# 2 -0.002035 0.010168 -0.001380 0.000591 0.001587 -0.002215
# 3 -0.001475 -0.001380 0.011240 -0.003256 0.005618 -0.000697
# 4 -0.000344 0.000591 -0.003256 0.023194 -0.002440 0.003537
# 5 0.006146 0.001587 0.005618 -0.002440 0.025964 -0.003222
# 6 -0.002721 -0.002215 -0.000697 0.003537 -0.003222 0.029657
#
#
# Mechanical properties :
#
#
# Convention : Reuss Voigt Hill
#
# Bulk Modulus (GPa) = 39.51528 56.34369 47.92949
# Shear Modulus (GPa) = 37.84525 42.99966 40.42246
#
# Velocity S-wave (km/s) = 4.09353 4.36340 4.23061
# Velocity P-wave (km/s) = 6.31182 7.09459 6.71462
#
# Compressibility (1/GPa) = 0.02530666
#
# Stress axis : x y z
#
# Youngs Moduli (GPa) = 73.10884 98.34451 88.96923
#
# Poissons Ratio (x) = 0.20011 0.13126
# Poissons Ratio (y) = 0.14876 0.12276
# Poissons Ratio (z) = 0.10786 0.13570
#
# Static dielectric constant tensor:
#      x y z
#    x 4.360470 0.180240 -0.053380 
#    y 0.180240 4.300650 -0.261550 
#    z -0.053380 -0.261550 4.648340 
# 
# 
# High freq. dielectric constant tensor:
#      x y z
#    x 1.898380 0.007500 -0.012730 
#    y 0.007500 1.899050 0.001230 
#    z -0.012730 0.001230 1.906820 
# 
# From -- ./inp_files/371061.got.cif
#   From: 2010.06.25/outbox.cif.g09.slc.cpg/sg2_186_cif.got.tgz:371061.got - 2010.06.27 13:26:56.
