data_PCOD8034550
_publ_section_title
;
Structure prediction by ZEFSAII (Michael W. Deem and Ramdas Pophale) SiO2 
 PCOD8034550
Probable space group: P -1
;
_chemical_formula_sum "Si O2"
_cell_formula_units_Z 12
_cell_length_a 9.381229
_cell_length_b 15.731633
_cell_length_c 12.306344
_cell_angle_alpha 154.406646
_cell_angle_beta 42.056544
_cell_angle_gamma 132.003743
_cell_volume 525.549069
_symmetry_space_group_name_H-M "P -1"
_symmetry_group_IT_number 2
_symmetry_cell_setting 'triclinic'
loop_
_space_group_symop_operation_xyz
x,y,z
-x,-y,-z
loop_
_atom_site_type_symbol
_atom_site_label
_atom_site_fract_x
_atom_site_fract_y
_atom_site_fract_z
Si Si1 0.223123 0.606488 0.504346
Si Si2 0.994843 0.632631 0.261828
Si Si3 0.452429 0.881408 0.559373
Si Si4 0.785782 0.963849 0.643292
Si Si5 0.521147 0.279064 0.869636
Si Si6 0.292451 0.624382 0.734466
O O1 0.232480 0.798341 0.641371
O O2 0.269456 0.669933 0.673576
O O3 0.000000 0.500000 0.500000
O O4 0.416936 0.475335 0.199192
O O5 0.912899 0.500351 0.255356
O O6 0.225557 0.720079 0.257634
O O7 0.832779 0.815211 0.545033
O O8 0.000000 0.500000 0.000000
O O9 0.531778 0.750378 0.261283
O O10 0.626306 0.861051 0.531784
O O11 0.416682 0.103659 0.796777
O O12 0.688818 0.167746 0.975854
O O13 0.000000 0.000000 0.500000
O O14 0.500000 0.500000 0.500000
#
# Coordination Sequence:
#
# PCOD8034550 Si02
#       6
#     2   2   2   2   2   2
#     4  12  28  44  67  99 143 182 223 284 356 405
#     4  12  23  43  73 101 138 180 235 286 334 415
#     4  11  24  45  70  97 136 175 235 283 331 417
#     4  12  24  42  74 103 132 182 233 278 344 407
#     4  11  25  44  71 100 133 184 234 281 341 408
#     4  12  27  45  68 106 145 178 226 289 352 402
#
# _framework density 22.833264
#
# number of rings (size 3 to 8) (size 9 to 14) (size 15 to 20)
#    0.000    0.333    3.333    5.500    2.333    4.667 
#    0.000    0.000    0.000    0.000    0.000    0.000 
#    0.000    0.000    0.000    0.000    0.000    0.000 
#
# Total GULP energy -148855.864553 kJ/mol
# GULP energy per Si atom -12404.655379 kJ/mol
# Density = 2.278129 g / cm^3
# Si number density = 22.833264 Si / 1000 Ang^3
#
#
#
# Elastic Constant Matrix: (Units=GPa)
#
#
# Indices 1 2 3 4 5 6 
#
# 1 129.5999 51.1695 47.7879 -2.0505 13.2780 3.4300
# 2 51.1695 190.5186 31.1336 1.0802 8.3159 -8.5502
# 3 47.7879 31.1336 125.6676 7.3887 10.4285 -2.4217
# 4 -2.0505 1.0802 7.3887 27.6777 -0.1394 2.5532
# 5 13.2780 8.3159 10.4285 -0.1394 33.7942 -3.2589
# 6 3.4300 -8.5502 -2.4217 2.5532 -3.2589 41.5665
#
#
#
# Elastic Compliance Matrix: (Units=1/GPa)
#
#
# Indices 1 2 3 4 5 6 
#
# 1 0.010106 -0.002163 -0.003234 0.001848 -0.002605 -0.001785
# 2 -0.002163 0.006004 -0.000591 -0.000365 -0.000314 0.001377
# 3 -0.003234 -0.000591 0.009641 -0.002869 -0.001497 0.000766
# 4 0.001848 -0.000365 -0.002869 0.037294 0.000145 -0.002674
# 5 -0.002605 -0.000314 -0.001497 0.000145 0.031397 0.002516
# 6 -0.001785 0.001377 0.000766 -0.002674 0.002516 0.024894
#
#
# Mechanical properties :
#
#
# Convention : Reuss Voigt Hill
#
# Bulk Modulus (GPa) = 72.59135 78.44089 75.51612
# Shear Modulus (GPa) = 36.79069 41.65403 39.22236
#
# Velocity S-wave (km/s) = 4.01843 4.27578 4.14910
# Velocity P-wave (km/s) = 7.30693 7.66843 7.48986
#
# Compressibility (1/GPa) = 0.01377575
#
# Stress axis : x y z
#
# Youngs Moduli (GPa) = 98.95325 166.56106 103.71966
#
# Poissons Ratio (x) = 0.36021 0.33543
# Poissons Ratio (y) = 0.21400 0.06129
# Poissons Ratio (z) = 0.32002 0.09843
#
# Static dielectric constant tensor:
#      x y z
#    x 3.775740 -0.349300 0.114400 
#    y -0.349300 4.683460 0.164790 
#    z 0.114400 0.164790 4.191940 
# 
# 
# High freq. dielectric constant tensor:
#      x y z
#    x 1.904630 -0.002590 0.013000 
#    y -0.002590 1.931060 0.008870 
#    z 0.013000 0.008870 1.892190 
# 
# From -- ./inp_files/183702.got.cif
#   From: 2010.06.25/outbox.cif.g09.slc.cpg/sg2_92_cif.got.tgz:183702.got - 2010.06.27 13:26:56.
