data_PCOD8034832
_publ_section_title
;
Structure prediction by ZEFSAII (Michael W. Deem and Ramdas Pophale) SiO2 
 PCOD8034832
Probable space group: P -1
;
_chemical_formula_sum "Si O2"
_cell_formula_units_Z 12
_cell_length_a 9.001311
_cell_length_b 7.904323
_cell_length_c 12.109931
_cell_angle_alpha 114.505501
_cell_angle_beta 137.619817
_cell_angle_gamma 78.874887
_cell_volume 519.334823
_symmetry_space_group_name_H-M "P -1"
_symmetry_group_IT_number 2
_symmetry_cell_setting 'triclinic'
loop_
_space_group_symop_operation_xyz
x,y,z
-x,-y,-z
loop_
_atom_site_type_symbol
_atom_site_label
_atom_site_fract_x
_atom_site_fract_y
_atom_site_fract_z
Si Si1 0.016098 0.536977 0.190777
Si Si2 0.170356 0.509088 0.694481
Si Si3 0.184324 0.181383 0.125872
Si Si4 0.749984 0.895408 0.320977
Si Si5 0.434555 0.873610 0.536933
Si Si6 0.361896 0.241831 0.008221
O O1 0.074533 0.368889 0.101459
O O2 0.215733 0.718916 0.348984
O O3 0.970859 0.452190 0.265527
O O4 0.787239 0.595196 0.040023
O O5 0.273237 0.320795 0.713814
O O6 0.375606 0.676152 0.828222
O O7 0.000000 0.500000 0.500000
O O8 0.359636 0.223289 0.335775
O O9 0.303962 0.140352 0.066298
O O10 0.000000 0.000000 0.000000
O O11 0.593073 0.990571 0.339200
O O12 0.685952 0.907525 0.159653
O O13 0.000000 0.000000 0.500000
O O14 0.500000 0.000000 0.500000
#
# Coordination Sequence:
#
# PCOD8034832 Si02
#       6
#     2   2   2   2   2   2
#     4  11  24  49  67 103 143 187 234 287 356 414
#     4  11  25  43  74 104 140 185 230 294 350 419
#     4  12  29  44  70 105 141 189 238 290 352 419
#     4  11  24  46  72 102 140 183 238 286 355 409
#     4  12  27  46  72 104 146 188 231 291 352 423
#     4  11  25  47  74 101 141 184 236 296 347 418
#
# _framework density 23.106477999999999
#
# number of rings (size 3 to 8) (size 9 to 14) (size 15 to 20)
#    0.000    0.667    3.333    5.000    9.333    0.667 
#    0.000    0.000    0.000    0.000    0.000    0.000 
#    0.000    0.000    0.000    0.000    0.000    0.000 
#
# Total GULP energy -148845.379397 kJ/mol
# GULP energy per Si atom -12403.781616 kJ/mol
# Density = 2.305389 g / cm^3
# Si number density = 23.106478 Si / 1000 Ang^3
#
#
#
# Elastic Constant Matrix: (Units=GPa)
#
#
# Indices 1 2 3 4 5 6 
#
# 1 166.0300 45.2369 65.4141 16.6027 -2.9397 30.6959
# 2 45.2369 59.1553 22.1351 13.4186 -5.3209 6.6140
# 3 65.4141 22.1351 151.1766 2.6526 11.5923 22.0473
# 4 16.6027 13.4186 2.6526 44.7435 2.3651 -4.2241
# 5 -2.9397 -5.3209 11.5923 2.3651 47.5654 4.4604
# 6 30.6959 6.6140 22.0473 -4.2241 4.4604 53.1217
#
#
#
# Elastic Compliance Matrix: (Units=1/GPa)
#
#
# Indices 1 2 3 4 5 6 
#
# 1 0.009528 -0.005161 -0.002840 -0.002256 0.001188 -0.003963
# 2 -0.005161 0.022675 -0.001217 -0.004955 0.002757 0.000039
# 3 -0.002840 -0.001217 0.008388 0.000907 -0.002267 -0.001426
# 4 -0.002256 -0.004955 0.000907 0.025106 -0.002515 0.003752
# 5 0.001188 0.002757 -0.002267 -0.002515 0.022286 -0.002160
# 6 -0.003963 0.000039 -0.001426 0.003752 -0.002160 0.022181
#
#
# Mechanical properties :
#
#
# Convention : Reuss Voigt Hill
#
# Bulk Modulus (GPa) = 45.14083 71.32600 58.23341
# Shear Modulus (GPa) = 36.76883 45.32450 41.04667
#
# Velocity S-wave (km/s) = 3.99341 4.43374 4.21932
# Velocity P-wave (km/s) = 6.39074 7.55951 6.99956
#
# Compressibility (1/GPa) = 0.02215290
#
# Stress axis : x y z
#
# Youngs Moduli (GPa) = 104.95670 44.10235 119.21962
#
# Poissons Ratio (x) = 0.22763 0.33863
# Poissons Ratio (y) = 0.54173 0.14506
# Poissons Ratio (z) = 0.29812 0.05366
#
# Static dielectric constant tensor:
#      x y z
#    x 4.564840 -0.073640 -0.074650 
#    y -0.073640 4.102530 -0.174100 
#    z -0.074650 -0.174100 4.083810 
# 
# 
# High freq. dielectric constant tensor:
#      x y z
#    x 1.932020 0.003920 0.000620 
#    y 0.003920 1.910970 -0.008350 
#    z 0.000620 -0.008350 1.924140 
# 
# From -- ./inp_files/160791.got.cif
#   From: 2010.06.25/outbox.cif.g09.slc.cpg/sg2_81_cif.got.tgz:160791.got - 2010.06.27 13:26:56.
