data_PCOD8034263
_publ_section_title
;
Structure prediction by ZEFSAII (Michael W. Deem and Ramdas Pophale) SiO2 
 PCOD8034263
Probable space group: P -1
;
_chemical_formula_sum "Si O2"
_cell_formula_units_Z 16
_cell_length_a 26.159919
_cell_length_b 6.536089
_cell_length_c 12.944543
_cell_angle_alpha 42.984098
_cell_angle_beta 27.771793
_cell_angle_gamma 51.751718
_cell_volume 700.352737
_symmetry_space_group_name_H-M "P -1"
_symmetry_group_IT_number 2
_symmetry_cell_setting 'triclinic'
loop_
_space_group_symop_operation_xyz
x,y,z
-x,-y,-z
loop_
_atom_site_type_symbol
_atom_site_label
_atom_site_fract_x
_atom_site_fract_y
_atom_site_fract_z
Si Si1 0.187463 0.747459 0.002896
Si Si2 0.104565 0.366497 0.910348
Si Si3 0.259067 0.904161 0.373672
Si Si4 0.044373 0.335740 0.264744
Si Si5 0.621982 0.288349 0.962442
Si Si6 0.410480 0.054165 0.223130
Si Si7 0.560500 0.202640 0.519089
Si Si8 0.826154 0.495108 0.666719
O O1 0.320673 0.782947 0.753006
O O2 0.130635 0.032703 0.952173
O O3 0.138723 0.458850 0.131282
O O4 0.153506 0.721065 0.193312
O O5 0.201854 0.572214 0.606692
O O6 0.099140 0.374479 0.040574
O O7 0.000000 0.500000 0.000000
O O8 0.348016 0.897242 0.125190
O O9 0.296947 0.982983 0.393104
O O10 0.184996 0.178241 0.381722
O O11 0.936340 0.523717 0.389831
O O12 0.000000 0.000000 0.500000
O O13 0.578746 0.600266 0.886377
O O14 0.722059 0.348506 0.841609
O O15 0.520376 0.082459 0.272745
O O16 0.417446 0.826637 0.388200
O O17 0.500000 0.000000 0.000000
O O18 0.500000 0.500000 0.500000
#
# Coordination Sequence:
#
# PCOD8034263 Si02
#       8
#     2   2   2   2   2   2   2   2
#     4  12  28  47  72 108 146 189 242 296 362 427
#     4  12  27  45  75 111 142 184 237 307 359 423
#     4  11  24  44  74 104 144 185 245 293 353 427
#     4  12  27  48  75 102 143 189 237 297 369 427
#     4  11  25  46  73 106 144 198 235 289 362 427
#     4  11  24  44  70 101 139 194 238 282 352 423
#     4  12  27  45  73 107 151 188 243 296 351 432
#     4  11  26  45  76 105 141 193 242 293 359 436
#
# _framework density 22.845631000000001
#
# number of rings (size 3 to 8) (size 9 to 14) (size 15 to 20)
#    0.000    0.500    2.500    4.500    8.750    5.500 
#    0.000    0.000    0.000    0.000    0.000    0.000 
#    0.000    0.000    0.000    0.000    0.000    0.000 
#
# Total GULP energy -198357.020240 kJ/mol
# GULP energy per Si atom -12397.313765 kJ/mol
# Density = 2.279363 g / cm^3
# Si number density = 22.845631 Si / 1000 Ang^3
#
#
#
# Elastic Constant Matrix: (Units=GPa)
#
#
# Indices 1 2 3 4 5 6 
#
# 1 104.4155 26.9093 20.0688 -14.8703 -0.5353 0.5001
# 2 26.9093 139.1541 28.4862 -7.5659 -3.3046 -18.8219
# 3 20.0688 28.4862 105.7871 -7.0345 -14.4389 1.0298
# 4 -14.8703 -7.5659 -7.0345 44.8046 -0.9167 0.1268
# 5 -0.5353 -3.3046 -14.4389 -0.9167 35.9707 -2.9835
# 6 0.5001 -18.8219 1.0298 0.1268 -2.9835 43.9379
#
#
#
# Elastic Compliance Matrix: (Units=1/GPa)
#
#
# Indices 1 2 3 4 5 6 
#
# 1 0.010737 -0.001752 -0.001433 0.003034 -0.000573 -0.000887
# 2 -0.001752 0.008452 -0.001902 0.000543 0.000308 0.003705
# 3 -0.001433 -0.001902 0.010874 0.000997 0.004130 -0.000776
# 4 0.003034 0.000543 0.000997 0.023597 0.001112 0.000182
# 5 -0.000573 0.000308 0.004130 0.001112 0.029677 0.002054
# 6 -0.000887 0.003705 -0.000776 0.000182 0.002054 0.024514
#
#
# Mechanical properties :
#
#
# Convention : Reuss Voigt Hill
#
# Bulk Modulus (GPa) = 50.27278 55.58728 52.93003
# Shear Modulus (GPa) = 40.11109 43.20212 41.65661
#
# Velocity S-wave (km/s) = 4.19471 4.35333 4.27476
# Velocity P-wave (km/s) = 6.74640 7.04650 6.89808
#
# Compressibility (1/GPa) = 0.01989148
#
# Stress axis : x y z
#
# Youngs Moduli (GPa) = 93.13313 118.31243 91.95849
#
# Poissons Ratio (x) = 0.20723 0.13179
# Poissons Ratio (y) = 0.16313 0.17487
# Poissons Ratio (z) = 0.13347 0.22498
#
# Static dielectric constant tensor:
#      x y z
#    x -4.167390 -3.790750 -0.746270 
#    y -3.790750 2.383080 0.120610 
#    z -0.746270 0.120610 3.190910 
# 
# 
# High freq. dielectric constant tensor:
#      x y z
#    x 1.909380 -0.007560 -0.004100 
#    y -0.007560 1.912420 0.000420 
#    z -0.004100 0.000420 1.908800 
# 
# From -- ./inp_files/112934.got.cif
#   From: 2010.06.25/outbox.cif.g09.slc.cpg/sg2_57_cif.got.tgz:112934.got - 2010.06.27 13:26:56.
