data_PCOD8034906
_publ_section_title
;
Structure prediction by ZEFSAII (Michael W. Deem and Ramdas Pophale) SiO2 
 PCOD8034906
Probable space group: P -1
;
_chemical_formula_sum "Si O2"
_cell_formula_units_Z 10
_cell_length_a 11.202260
_cell_length_b 6.522544
_cell_length_c 8.583746
_cell_angle_alpha 81.246143
_cell_angle_beta 124.229500
_cell_angle_gamma 123.894697
_cell_volume 418.345872
_symmetry_space_group_name_H-M "P -1"
_symmetry_group_IT_number 2
_symmetry_cell_setting 'triclinic'
loop_
_space_group_symop_operation_xyz
x,y,z
-x,-y,-z
loop_
_atom_site_type_symbol
_atom_site_label
_atom_site_fract_x
_atom_site_fract_y
_atom_site_fract_z
Si Si1 0.997860 0.205944 0.184524
Si Si2 0.778579 0.950396 0.771701
Si Si3 0.522378 0.455194 0.200726
Si Si4 0.749083 0.279239 0.507513
Si Si5 0.827582 0.000173 0.374862
O O1 0.118093 0.095296 0.280308
O O2 0.118315 0.482856 0.315126
O O3 0.819165 0.041153 0.177723
O O4 0.927558 0.187834 0.960605
O O5 0.659112 0.694053 0.816671
O O6 0.664839 0.034701 0.591013
O O7 0.605808 0.295989 0.307254
O O8 0.652468 0.736008 0.336173
O O9 0.500000 0.500000 0.000000
O O10 0.856708 0.238311 0.461114
O O11 0.000000 0.000000 0.500000
#
# Coordination Sequence:
#
# PCOD8034906 Si02
#       5
#     2   2   2   2   2
#     4  11  24  46  75 102 141 184 230 286 346 414
#     4  11  25  47  71 106 141 180 232 288 345 411
#     4  12  27  46  70 102 145 183 231 290 346 408
#     4  12  25  44  76 102 138 187 234 281 346 416
#     4  12  24  48  72 102 140 185 234 286 346 413
#
# _framework density 23.903663999999999
#
# number of rings (size 3 to 8) (size 9 to 14) (size 15 to 20)
#    0.000    0.400    6.000    1.800    0.000    5.600 
#    3.600    0.000    0.000    0.000    0.000    0.000 
#    0.000    0.000    0.000    0.000    0.000    0.000 
#
# Total GULP energy -123896.354548 kJ/mol
# GULP energy per Si atom -12389.635455 kJ/mol
# Density = 2.384926 g / cm^3
# Si number density = 23.903664 Si / 1000 Ang^3
#
#
#
# Elastic Constant Matrix: (Units=GPa)
#
#
# Indices 1 2 3 4 5 6 
#
# 1 121.2686 59.7192 45.6521 11.6220 -22.1063 -11.1032
# 2 59.7192 116.3401 63.4775 -8.1448 -16.5525 0.5998
# 3 45.6521 63.4775 121.9746 -9.4242 -5.1269 -15.0407
# 4 11.6220 -8.1448 -9.4242 48.4713 -7.2076 -3.6150
# 5 -22.1063 -16.5525 -5.1269 -7.2076 39.1523 2.0389
# 6 -11.1032 0.5998 -15.0407 -3.6150 2.0389 49.6533
#
#
#
# Elastic Compliance Matrix: (Units=1/GPa)
#
#
# Indices 1 2 3 4 5 6 
#
# 1 0.012785 -0.005182 -0.001962 -0.003579 0.004013 0.001902
# 2 -0.005182 0.015238 -0.006002 0.002915 0.003428 -0.003090
# 3 -0.001962 -0.006002 0.012578 0.001907 -0.001838 0.003658
# 4 -0.003579 0.002915 0.001907 0.022983 0.003626 0.001266
# 5 0.004013 0.003428 -0.001838 0.003626 0.029718 -0.000657
# 6 0.001902 -0.003090 0.003658 0.001266 -0.000657 0.021830
#
#
# Mechanical properties :
#
#
# Convention : Reuss Voigt Hill
#
# Bulk Modulus (GPa) = 69.88646 77.47566 73.68106
# Shear Modulus (GPa) = 34.20132 40.17099 37.18616
#
# Velocity S-wave (km/s) = 3.78669 4.10388 3.94847
# Velocity P-wave (km/s) = 6.95837 7.41200 7.18877
#
# Compressibility (1/GPa) = 0.01430892
#
# Stress axis : x y z
#
# Youngs Moduli (GPa) = 78.21526 65.62460 79.50657
#
# Poissons Ratio (x) = 0.34006 0.15598
# Poissons Ratio (y) = 0.40530 0.47723
# Poissons Ratio (z) = 0.15344 0.39391
#
# Static dielectric constant tensor:
#      x y z
#    x 4.546090 0.294970 -0.431850 
#    y 0.294970 4.509940 -0.307780 
#    z -0.431850 -0.307780 4.523520 
# 
# 
# High freq. dielectric constant tensor:
#      x y z
#    x 1.942530 0.001740 -0.025110 
#    y 0.001740 1.948100 -0.006790 
#    z -0.025110 -0.006790 1.965340 
# 
# From -- ./inp_files/15709.got.cif
#   From: 2010.06.25/outbox.cif.g09.slc.cpg/sg2_8_cif.got.tgz:15709.got - 2010.06.27 13:26:56.
