data_PCOD8034551
_publ_section_title
;
Structure prediction by ZEFSAII (Michael W. Deem and Ramdas Pophale) SiO2 
 PCOD8034551
Probable space group: P -1
;
_chemical_formula_sum "Si O2"
_cell_formula_units_Z 16
_cell_length_a 9.770136
_cell_length_b 8.889579
_cell_length_c 10.702313
_cell_angle_alpha 114.547949
_cell_angle_beta 100.895794
_cell_angle_gamma 62.940016
_cell_volume 752.948827
_symmetry_space_group_name_H-M "P -1"
_symmetry_group_IT_number 2
_symmetry_cell_setting 'triclinic'
loop_
_space_group_symop_operation_xyz
x,y,z
-x,-y,-z
loop_
_atom_site_type_symbol
_atom_site_label
_atom_site_fract_x
_atom_site_fract_y
_atom_site_fract_z
Si Si1 0.809027 0.338691 0.400644
Si Si2 0.153100 0.102978 0.370128
Si Si3 0.808995 0.852289 0.099361
Si Si4 0.707576 0.061225 0.405178
Si Si5 0.846922 0.256034 0.870139
Si Si6 0.292447 0.768789 0.905170
Si Si7 0.635575 0.635076 0.875827
Si Si8 0.364440 0.270689 0.375821
O O1 0.782085 0.203697 0.446905
O O2 0.732667 0.335892 0.254064
O O3 0.733670 0.542647 0.506869
O O4 0.990504 0.277600 0.397831
O O5 0.273040 0.144241 0.320819
O O6 0.211846 0.066597 0.508995
O O7 0.132952 0.933543 0.249992
O O8 0.990478 0.731953 0.102153
O O9 0.732675 0.931408 0.245948
O O10 0.781975 0.014242 0.053093
O O11 0.733666 0.723649 0.993146
O O12 0.526808 0.170728 0.439095
O O13 0.726995 0.417238 0.820828
O O14 0.788186 0.278403 0.009009
O O15 0.473219 0.697434 0.939085
O O16 0.602046 0.698957 0.750006
#
# Coordination Sequence:
#
# PCOD8034551 Si02
#       8
#     2   2   2   2   2   2   2   2
#     4  11  24  45  70  98 133 175 220 272 331 393
#     4  12  26  44  69 100 133 176 221 273 330 391
#     4  11  24  45  70  98 133 175 220 272 331 393
#     4  11  24  45  70  98 133 175 220 272 331 393
#     4  12  26  44  69 100 133 176 221 273 330 391
#     4  11  24  45  70  98 133 175 220 272 331 393
#     4  12  26  44  69 100 133 176 221 273 330 391
#     4  12  26  44  69 100 133 176 221 273 330 391
#
# _framework density 21.249784999999999
#
# number of rings (size 3 to 8) (size 9 to 14) (size 15 to 20)
#    0.000    0.500    5.000    4.500    7.000    1.000 
#    0.000    0.000    0.000    0.000    0.000    0.000 
#    0.000    0.000    0.000    0.000    0.000    0.000 
#
# Total GULP energy -198546.670837 kJ/mol
# GULP energy per Si atom -12409.166927 kJ/mol
# Density = 2.120142 g / cm^3
# Si number density = 21.249785 Si / 1000 Ang^3
#
#
#
# Elastic Constant Matrix: (Units=GPa)
#
#
# Indices 1 2 3 4 5 6 
#
# 1 94.1060 27.6647 17.7278 -2.9694 -0.3119 -14.3991
# 2 27.6647 63.8642 25.1540 -4.1485 -0.0161 -10.7719
# 3 17.7278 25.1540 83.0350 4.7121 0.8454 5.5061
# 4 -2.9694 -4.1485 4.7121 25.6515 1.3780 0.3618
# 5 -0.3119 -0.0161 0.8454 1.3780 22.7995 -2.5674
# 6 -14.3991 -10.7719 5.5061 0.3618 -2.5674 27.7070
#
#
#
# Elastic Compliance Matrix: (Units=1/GPa)
#
#
# Indices 1 2 3 4 5 6 
#
# 1 0.013059 -0.003775 -0.002104 0.001161 0.000837 0.005800
# 2 -0.003775 0.021372 -0.006413 0.004046 0.000818 0.007645
# 3 -0.002104 -0.006413 0.015108 -0.003903 -0.001105 -0.006640
# 4 0.001161 0.004046 -0.003903 0.040568 -0.002037 0.002233
# 5 0.000837 0.000818 -0.001105 -0.002037 0.044615 0.005133
# 6 0.005800 0.007645 -0.006640 0.002233 0.005133 0.043844
#
#
# Mechanical properties :
#
#
# Convention : Reuss Voigt Hill
#
# Bulk Modulus (GPa) = 40.07035 42.45536 41.26286
# Shear Modulus (GPa) = 23.64440 26.59552 25.11996
#
# Velocity S-wave (km/s) = 3.33932 3.54159 3.44194
# Velocity P-wave (km/s) = 5.81084 6.06188 5.93768
#
# Compressibility (1/GPa) = 0.02495611
#
# Stress axis : x y z
#
# Youngs Moduli (GPa) = 76.57542 46.79107 66.18992
#
# Poissons Ratio (x) = 0.17661 0.13924
# Poissons Ratio (y) = 0.28904 0.42448
# Poissons Ratio (z) = 0.16109 0.30008
#
# Static dielectric constant tensor:
#      x y z
#    x 4.028650 -0.086030 0.012780 
#    y -0.086030 3.928220 -0.023380 
#    z 0.012780 -0.023380 3.736720 
# 
# 
# High freq. dielectric constant tensor:
#      x y z
#    x 1.850060 -0.011440 0.001260 
#    y -0.011440 1.837000 -0.000680 
#    z 0.001260 -0.000680 1.835270 
# 
# From -- ./inp_files/237299.got.cif
#   From: 2010.06.25/outbox.cif.g09.slc.cpg/sg2_119_cif.got.tgz:237299.got - 2010.06.27 13:26:56.
